data_PCOD9180354
_publ_section_title
;
Structure prediction by ZEFSAII (Michael W. Deem and Ramdas Pophale) SiO2 
 PCOD9180354
Probable space group: C 2/M
;
_chemical_formula_sum "Si O2"
_cell_formula_units_Z 56
_cell_length_a 15.801901
_cell_length_b 24.544281
_cell_length_c 29.121566
_cell_angle_alpha 90.000000
_cell_angle_beta 162.812041
_cell_angle_gamma 90.000000
_cell_volume 3337.663665
_symmetry_space_group_name_H-M "C 2/M"
_symmetry_group_IT_number 12
_symmetry_cell_setting 'monoclinic'
loop_
_space_group_symop_operation_xyz
x,y,z
-x,y,-z
-x,-y,-z
x,-y,z
1/2+x,1/2+y,z
1/2-x,1/2+y,-z
1/2-x,1/2-y,-z
1/2+x,1/2-y,z
loop_
_atom_site_type_symbol
_atom_site_label
_atom_site_fract_x
_atom_site_fract_y
_atom_site_fract_z
Si Si1 0.749038 0.163858 0.764513
Si Si2 0.761048 0.720292 0.808893
Si Si3 0.305166 0.437456 0.854730
Si Si4 0.133661 0.780982 0.894766
Si Si5 0.796551 0.245213 0.636894
Si Si6 0.387039 0.329061 0.536856
Si Si7 0.623871 0.560905 0.513274
O O1 0.810725 0.214300 0.831400
O O2 0.851120 0.107749 0.839780
O O3 0.403685 0.164987 0.583927
O O4 0.906038 0.177114 0.798313
O O5 0.519933 0.710917 0.722134
O O6 0.617929 0.702858 0.686567
O O7 0.075932 0.695405 0.977217
O O8 0.360577 0.500000 0.868915
O O9 0.968971 0.433646 0.693581
O O10 0.500000 0.426254 0.000000
O O11 0.974364 0.742849 0.775358
O O12 0.250000 0.750000 0.000000
O O13 0.500000 0.218776 0.500000
O O14 0.699234 0.295235 0.553702
O O15 0.486314 0.388935 0.573893
O O16 0.500000 0.565496 0.500000
O O17 0.556606 0.500000 0.460960
#
# Coordination Sequence:
#
# PCOD9180354 Si02
#       7
#     8   8   8   8   8   8   8
#     4   9  18  30  45  64  92 124 156 193 233 277
#     4  10  20  32  46  70  97 124 163 201 238 284
#     4   9  18  31  47  68  94 126 163 198 234 280
#     4  10  20  31  44  67  96 123 158 197 235 282
#     4  11  19  30  47  67  94 129 161 191 236 285
#     4  10  19  32  49  68  96 131 165 197 234 285
#     4   9  18  30  45  68  96 127 162 198 235 278
#
# _framework density 16.778202
#
# number of rings (size 3 to 8) (size 9 to 14) (size 15 to 20)
#    0.000    2.286    0.000    5.143    0.000    8.000 
#    0.000    0.000    0.000    0.000    0.000    1.000 
#    0.000   14.857    0.000    0.000    0.000    0.000 
#
# Total GULP energy -155886.240853 kJ/mol
# GULP energy per Si atom -5567.365745 kJ/mol
# Density = 1.674001 g / cm^3
# Si number density = 16.778202 Si / 1000 Ang^3
#
#
#
# Elastic Constant Matrix: (Units=GPa)
#
#
# Indices 1 2 3 4 5 6 
#
# 1 87.6793 32.5689 39.1183 0.0178 14.7174 0.0125
# 2 32.5689 75.7969 27.6885 0.0114 -4.3033 0.0058
# 3 39.1183 27.6885 78.4154 0.0071 -8.6035 -0.0377
# 4 0.0178 0.0114 0.0071 12.1637 -0.0109 0.3336
# 5 14.7174 -4.3033 -8.6035 -0.0109 38.6744 0.0076
# 6 0.0125 0.0058 -0.0377 0.3336 0.0076 20.9962
#
#
#
# Elastic Compliance Matrix: (Units=1/GPa)
#
#
# Indices 1 2 3 4 5 6 
#
# 1 0.018908 -0.005558 -0.008536 -0.000026 -0.009713 -0.000021
# 2 -0.005558 0.016790 -0.002787 -0.000003 0.003363 -0.000007
# 3 -0.008536 -0.002787 0.018775 0.000010 0.007115 0.000037
# 4 -0.000026 -0.000003 0.000010 0.082248 0.000035 -0.001307
# 5 -0.009713 0.003363 0.007115 0.000035 0.031510 0.000006
# 6 -0.000021 -0.000007 0.000037 -0.001307 0.000006 0.047649
#
#
# Mechanical properties :
#
#
# Convention : Reuss Voigt Hill
#
# Bulk Modulus (GPa) = 48.27958 48.96033 48.61995
# Shear Modulus (GPa) = 19.48965 23.86791 21.67878
#
# Velocity S-wave (km/s) = 3.41193 3.77577 3.59845
# Velocity P-wave (km/s) = 6.66028 6.94643 6.80486
#
# Compressibility (1/GPa) = 0.02071269
#
# Stress axis : x y z
#
# Youngs Moduli (GPa) = 52.88672 59.55785 53.26101
#
# Poissons Ratio (x) = 0.33102 0.45462
# Poissons Ratio (y) = 0.29394 0.14844
# Poissons Ratio (z) = 0.45143 0.16599
#
# Static dielectric constant tensor:
#      x y z
#    x 1.624340 0.000010 0.042350 
#    y 0.000010 1.560250 -0.000060 
#    z 0.042350 -0.000060 1.607490 
# 
# From -- ./inp_files/362223.got.cif
#   From: 2010.05.17/outbox.cif.g08.bks.cpg/sg12_182_cif.got.tgz:362223.got - 2010.06.03 13:09:07.
