data_PCOD9180192
_publ_section_title
;
Structure prediction by ZEFSAII (Michael W. Deem and Ramdas Pophale) SiO2 
 PCOD9180192
Probable space group: C 2/M
;
_chemical_formula_sum "Si O2"
_cell_formula_units_Z 64
_cell_length_a 21.177458
_cell_length_b 8.510056
_cell_length_c 35.016623
_cell_angle_alpha 90.000000
_cell_angle_beta 33.008079
_cell_angle_gamma 90.000000
_cell_volume 3437.823337
_symmetry_space_group_name_H-M "C 2/M"
_symmetry_group_IT_number 12
_symmetry_cell_setting 'monoclinic'
loop_
_space_group_symop_operation_xyz
x,y,z
-x,y,-z
-x,-y,-z
x,-y,z
1/2+x,1/2+y,z
1/2-x,1/2+y,-z
1/2-x,1/2-y,-z
1/2+x,1/2-y,z
loop_
_atom_site_type_symbol
_atom_site_label
_atom_site_fract_x
_atom_site_fract_y
_atom_site_fract_z
Si Si1 0.387363 0.810060 0.033343
Si Si2 0.415901 0.187751 0.284775
Si Si3 0.093055 0.188223 0.795874
Si Si4 0.683327 0.808567 0.270429
Si Si5 0.222238 0.187750 0.575596
Si Si6 0.627561 0.188322 0.046951
Si Si7 0.428309 0.190114 0.418687
Si Si8 0.165540 0.689979 0.191376
O O1 0.270539 0.750470 0.112413
O O2 0.386181 0.000000 0.034493
O O3 0.500000 0.756712 0.000000
O O4 0.392499 0.758769 0.986636
O O5 0.397296 0.259757 0.252717
O O6 0.318095 0.236830 0.364577
O O7 0.540750 0.240617 0.238364
O O8 0.419088 0.000000 0.280044
O O9 0.203623 0.245369 0.764266
O O10 0.976016 0.253035 0.873898
O O11 0.090103 0.000000 0.799161
O O12 0.562103 0.761445 0.351404
O O13 0.681522 0.757665 0.227143
O O14 0.685409 0.000000 0.269203
O O15 0.348451 0.234697 0.495183
O O16 0.132522 0.240719 0.588135
O O17 0.219222 0.000000 0.580741
O O18 0.629404 0.000000 0.046463
O O19 0.750000 0.250000 0.000000
O O20 0.423926 0.000000 0.417545
O O21 0.166833 0.500000 0.190527
#
# Coordination Sequence:
#
# PCOD9180192 Si02
#       8
#     8   8   8   8   8   8   8   8
#     4  10  22  38  55  79 111 142 174 223 281 330
#     4  11  22  38  58  80 114 152 186 230 282 337
#     4  11  23  38  59  84 113 145 188 238 282 338
#     4   9  18  36  58  82 112 150 188 228 281 339
#     4  10  19  31  55  88 115 145 189 237 280 326
#     4  11  23  40  60  81 110 149 190 230 282 340
#     4   9  17  34  57  82 116 152 187 228 280 338
#     4  10  20  35  58  82 104 140 187 227 271 329
#
# _framework density 18.616430999999999
#
# number of rings (size 3 to 8) (size 9 to 14) (size 15 to 20)
#    0.000    1.875    1.250    3.000    0.000    4.750 
#    0.000    2.500    0.000    3.750    0.000    0.000 
#    0.000    0.000    0.000    0.000    0.000    0.000 
#
# Total GULP energy -178742.569915 kJ/mol
# GULP energy per Si atom -5585.705310 kJ/mol
# Density = 1.857406 g / cm^3
# Si number density = 18.616431 Si / 1000 Ang^3
#
#
#
# Elastic Constant Matrix: (Units=GPa)
#
#
# Indices 1 2 3 4 5 6 
#
# 1 101.4295 18.4163 37.8659 0.0000 17.0695 0.0047
# 2 18.4163 22.5389 16.5932 0.0020 1.8084 0.0036
# 3 37.8659 16.5932 122.9733 0.0013 13.3885 0.0024
# 4 0.0000 0.0020 0.0013 32.1205 -0.0008 4.1075
# 5 17.0695 1.8084 13.3885 -0.0008 26.1143 -0.0010
# 6 0.0047 0.0036 0.0024 4.1075 -0.0010 24.4449
#
#
#
# Elastic Compliance Matrix: (Units=1/GPa)
#
#
# Indices 1 2 3 4 5 6 
#
# 1 0.013468 -0.008828 -0.002186 0.000001 -0.007071 -0.000001
# 2 -0.008828 0.055048 -0.005214 -0.000002 0.004631 -0.000005
# 3 -0.002186 -0.005214 0.009864 0.000000 -0.003267 0.000000
# 4 0.000001 -0.000002 0.000000 0.031816 0.000001 -0.005346
# 5 -0.007071 0.004631 -0.003267 0.000001 0.044270 0.000003
# 6 -0.000001 -0.000005 0.000000 -0.005346 0.000003 0.041807
#
#
# Mechanical properties :
#
#
# Convention : Reuss Voigt Hill
#
# Bulk Modulus (GPa) = 21.77483 43.63249 32.70366
# Shear Modulus (GPa) = 20.48879 28.14037 24.31458
#
# Velocity S-wave (km/s) = 3.32109 3.89213 3.61790
# Velocity P-wave (km/s) = 5.14083 6.60960 5.92093
#
# Compressibility (1/GPa) = 0.04592457
#
# Stress axis : x y z
#
# Youngs Moduli (GPa) = 74.24987 18.16611 101.37678
#
# Poissons Ratio (x) = 0.16037 0.22161
# Poissons Ratio (y) = 0.65547 0.52855
# Poissons Ratio (z) = 0.16231 0.09471
#
# Static dielectric constant tensor:
#      x y z
#    x 1.626880 0.000000 -0.003460 
#    y 0.000000 1.642090 0.000000 
#    z -0.003460 0.000000 1.626490 
# 
# From -- ./inp_files/378127.got.cif
#   From: 2010.05.17/outbox.cif.g08.bks.cpg/sg12_190_cif.got.tgz:378127.got - 2010.06.03 13:09:07.
