data_PCOD9180414
_publ_section_title
;
Structure prediction by ZEFSAII (Michael W. Deem and Ramdas Pophale) SiO2 
 PCOD9180414
Probable space group: C 2/M
;
_chemical_formula_sum "Si O2"
_cell_formula_units_Z 56
_cell_length_a 24.000964
_cell_length_b 7.637756
_cell_length_c 20.412223
_cell_angle_alpha 90.000000
_cell_angle_beta 51.334238
_cell_angle_gamma 90.000000
_cell_volume 2921.640251
_symmetry_space_group_name_H-M "C 2/M"
_symmetry_group_IT_number 12
_symmetry_cell_setting 'monoclinic'
loop_
_space_group_symop_operation_xyz
x,y,z
-x,y,-z
-x,-y,-z
x,-y,z
1/2+x,1/2+y,z
1/2-x,1/2+y,-z
1/2-x,1/2-y,-z
1/2+x,1/2-y,z
loop_
_atom_site_type_symbol
_atom_site_label
_atom_site_fract_x
_atom_site_fract_y
_atom_site_fract_z
Si Si1 0.747830 0.214853 0.660841
Si Si2 0.799845 0.206854 0.901084
Si Si3 0.053056 0.290020 0.143610
Si Si4 0.427427 0.786123 0.018759
Si Si5 0.773061 0.714407 0.177833
Si Si6 0.325102 0.292082 0.480136
Si Si7 0.398929 0.794937 0.298794
O O1 0.755040 0.269955 0.730566
O O2 0.810420 0.270787 0.564885
O O3 0.670999 0.275230 0.687989
O O4 0.747123 0.000000 0.659351
O O5 0.881068 0.254575 0.857109
O O6 0.769432 0.278547 0.854891
O O7 0.796293 0.000000 0.897282
O O8 0.750000 0.250000 0.000000
O O9 0.047248 0.500000 0.143542
O O10 0.073036 0.226986 0.056176
O O11 0.975744 0.220790 0.222462
O O12 0.427611 0.000000 0.018763
O O13 0.500000 0.728713 0.000000
O O14 0.355566 0.732750 0.108236
O O15 0.771731 0.500000 0.178861
O O16 0.335216 0.500000 0.474166
O O17 0.250000 0.250000 0.500000
O O18 0.383983 0.219100 0.387452
O O19 0.400382 0.000000 0.280626
#
# Coordination Sequence:
#
# PCOD9180414 Si02
#       7
#     8   8   8   8   8   8   8
#     4   8  14  26  45  72  98 120 152 198 240 273
#     4  11  21  34  51  69  92 126 165 202 239 282
#     4  10  19  32  49  72  97 124 161 201 239 279
#     4   9  15  24  43  71  96 118 149 192 237 278
#     4   9  16  27  45  69  93 118 156 200 236 273
#     4   9  16  27  46  71 100 128 156 191 235 287
#     4   9  17  29  48  73 100 126 155 194 239 286
#
# _framework density 19.167316
#
# number of rings (size 3 to 8) (size 9 to 14) (size 15 to 20)
#    0.000    2.714    1.429    2.571    0.000    4.000 
#    0.000    0.000    0.000    9.857    0.000    6.000 
#    0.000    0.000    0.000    0.000    0.000    0.000 
#
# Total GULP energy -156078.333213 kJ/mol
# GULP energy per Si atom -5574.226186 kJ/mol
# Density = 1.912369 g / cm^3
# Si number density = 19.167316 Si / 1000 Ang^3
#
#
#
# Elastic Constant Matrix: (Units=GPa)
#
#
# Indices 1 2 3 4 5 6 
#
# 1 66.1830 -5.7316 17.2365 0.0015 26.4181 -0.0193
# 2 -5.7316 34.1880 -9.5035 0.0010 0.4826 -0.0184
# 3 17.2365 -9.5035 102.1355 -0.0002 29.6067 0.0049
# 4 0.0015 0.0010 -0.0002 15.8631 0.0021 -0.4534
# 5 26.4181 0.4826 29.6067 0.0021 27.0901 -0.0003
# 6 -0.0193 -0.0184 0.0049 -0.4534 -0.0003 15.6191
#
#
#
# Elastic Compliance Matrix: (Units=1/GPa)
#
#
# Indices 1 2 3 4 5 6 
#
# 1 0.027333 0.006575 0.005503 0.000002 -0.032786 0.000039
# 2 0.006575 0.032128 0.005715 0.000000 -0.013230 0.000044
# 3 0.005503 0.005715 0.016070 0.000002 -0.023031 0.000008
# 4 0.000002 0.000000 0.000002 0.063092 -0.000010 0.001832
# 5 -0.032786 -0.013230 -0.023031 -0.000010 0.094293 -0.000047
# 6 0.000039 0.000044 0.000008 0.001832 -0.000047 0.064077
#
#
# Mechanical properties :
#
#
# Convention : Reuss Voigt Hill
#
# Bulk Modulus (GPa) = 8.99957 22.94549 15.97253
# Shear Modulus (GPa) = 16.75341 25.08148 20.91744
#
# Velocity S-wave (km/s) = 2.95966 3.62132 3.30708
# Velocity P-wave (km/s) = 4.04783 5.42977 4.78891
#
# Compressibility (1/GPa) = 0.11111647
#
# Stress axis : x y z
#
# Youngs Moduli (GPa) = 36.58579 31.12582 62.22679
#
# Poissons Ratio (x) = -0.20465 -0.34243
# Poissons Ratio (y) = -0.24055 -0.35562
# Poissons Ratio (z) = -0.20133 -0.17788
#
# Static dielectric constant tensor:
#      x y z
#    x 1.642540 0.000000 0.020860 
#    y 0.000000 1.739000 0.000000 
#    z 0.020860 0.000000 1.691810 
# 
# From -- ./inp_files/287407.got.cif
#   From: 2010.05.17/outbox.cif.g08.bks.cpg/sg12_144_cif.got.tgz:287407.got - 2010.06.03 13:09:07.
