data_PCOD9180680
_publ_section_title
;
Structure prediction by ZEFSAII (Michael W. Deem and Ramdas Pophale) SiO2 
 PCOD9180680
Probable space group: C 2/M
;
_chemical_formula_sum "Si O2"
_cell_formula_units_Z 56
_cell_length_a 19.764484
_cell_length_b 8.082787
_cell_length_c 19.168848
_cell_angle_alpha 90.000000
_cell_angle_beta 98.345146
_cell_angle_gamma 90.000000
_cell_volume 3029.839941
_symmetry_space_group_name_H-M "C 2/M"
_symmetry_group_IT_number 12
_symmetry_cell_setting 'monoclinic'
loop_
_space_group_symop_operation_xyz
x,y,z
-x,y,-z
-x,-y,-z
x,-y,z
1/2+x,1/2+y,z
1/2-x,1/2+y,-z
1/2-x,1/2-y,-z
1/2+x,1/2-y,z
loop_
_atom_site_type_symbol
_atom_site_label
_atom_site_fract_x
_atom_site_fract_y
_atom_site_fract_z
Si Si1 0.214804 0.302665 0.567482
Si Si2 0.385991 0.696859 0.800967
Si Si3 0.353996 0.305683 0.057389
Si Si4 0.075737 0.198452 0.490003
Si Si5 0.644472 0.702524 0.355364
Si Si6 0.784669 0.200480 0.901197
Si Si7 0.501222 0.190704 0.921501
O O1 0.209576 0.500000 0.569832
O O2 0.250000 0.250000 0.500000
O O3 0.137548 0.235400 0.553494
O O4 0.274858 0.250056 0.629812
O O5 0.376927 0.500000 0.793949
O O6 0.387446 0.760662 0.722288
O O7 0.322354 0.759359 0.837472
O O8 0.452028 0.726927 0.858267
O O9 0.370205 0.500000 0.058045
O O10 0.289700 0.273141 0.097073
O O11 0.420535 0.207045 0.089412
O O12 0.329992 0.253798 0.975942
O O13 0.103602 0.259698 0.418500
O O14 0.000000 0.260571 0.500000
O O15 0.070688 0.000000 0.484142
O O16 0.642859 0.500000 0.358034
O O17 0.780121 0.000000 0.900687
O O18 0.479869 0.000000 0.923750
O O19 0.500000 0.264030 0.000000
#
# Coordination Sequence:
#
# PCOD9180680 Si02
#       7
#     8   8   8   8   8   8   8
#     4   9  16  29  50  75 101 130 167 203 241 290
#     4  10  19  34  54  73  99 133 169 208 254 308
#     4  10  19  32  51  72  94 123 164 207 248 300
#     4   9  17  31  52  78 107 138 169 203 244 291
#     4   8  16  31  51  74 100 133 169 207 250 295
#     4   9  18  31  49  72  95 123 159 204 254 298
#     4  11  22  34  50  73 101 131 167 214 258 299
#
# _framework density 18.482824000000001
#
# number of rings (size 3 to 8) (size 9 to 14) (size 15 to 20)
#    0.000    2.571    1.429    2.143    0.000    2.000 
#    0.000    5.000    0.000    3.429    0.000    0.000 
#    0.000    0.000    0.000    0.000    0.000    0.000 
#
# Total GULP energy -155978.793990 kJ/mol
# GULP energy per Si atom -5570.671214 kJ/mol
# Density = 1.844076 g / cm^3
# Si number density = 18.482824 Si / 1000 Ang^3
#
#
#
# Elastic Constant Matrix: (Units=GPa)
#
#
# Indices 1 2 3 4 5 6 
#
# 1 129.1940 6.4767 57.1481 0.0000 5.3713 0.0000
# 2 6.4767 7.5619 6.9624 0.0000 -5.0096 0.0000
# 3 57.1481 6.9624 105.5352 0.0000 7.2639 0.0000
# 4 0.0000 0.0000 0.0000 12.6752 0.0000 2.9835
# 5 5.3713 -5.0096 7.2639 0.0000 20.1399 0.0000
# 6 0.0000 0.0000 0.0000 2.9835 0.0000 23.1646
#
#
#
# Elastic Compliance Matrix: (Units=1/GPa)
#
#
# Indices 1 2 3 4 5 6 
#
# 1 0.010373 -0.005790 -0.005071 0.000000 -0.002377 0.000000
# 2 -0.005790 0.182810 -0.012471 0.000000 0.051514 0.000000
# 3 -0.005071 -0.012471 0.013500 0.000000 -0.006619 0.000000
# 4 0.000000 0.000000 0.000000 0.081361 0.000000 -0.010479
# 5 -0.002377 0.051514 -0.006619 0.000000 0.065487 0.000000
# 6 0.000000 0.000000 0.000000 -0.010479 0.000000 0.044519
#
#
# Mechanical properties :
#
#
# Convention : Reuss Voigt Hill
#
# Bulk Modulus (GPa) = 6.24928 42.60727 24.42828
# Shear Modulus (GPa) = 10.03911 22.64288 16.34099
#
# Velocity S-wave (km/s) = 2.33310 3.50391 2.97664
# Velocity P-wave (km/s) = 3.26287 6.28269 5.00592
#
# Compressibility (1/GPa) = 0.16001834
#
# Stress axis : x y z
#
# Youngs Moduli (GPa) = 96.40758 5.47017 74.07455
#
# Poissons Ratio (x) = 0.03167 0.37565
# Poissons Ratio (y) = 0.55819 0.92377
# Poissons Ratio (z) = 0.48891 0.06822
#
# Static dielectric constant tensor:
#      x y z
#    x 1.651080 0.000000 0.001290 
#    y 0.000000 1.655590 0.000000 
#    z 0.001290 0.000000 1.655070 
# 
# From -- ./inp_files/313322.got.cif
#   From: 2010.05.17/outbox.cif.g08.bks.cpg/sg12_157_cif.got.tgz:313322.got - 2010.06.03 13:09:07.
