data_PCOD9180331
_publ_section_title
;
Structure prediction by ZEFSAII (Michael W. Deem and Ramdas Pophale) SiO2 
 PCOD9180331
Probable space group: C 2/M
;
_chemical_formula_sum "Si O2"
_cell_formula_units_Z 56
_cell_length_a 28.351567
_cell_length_b 9.721090
_cell_length_c 17.775252
_cell_angle_alpha 90.000000
_cell_angle_beta 40.826903
_cell_angle_gamma 90.000000
_cell_volume 3202.851149
_symmetry_space_group_name_H-M "C 2/M"
_symmetry_group_IT_number 12
_symmetry_cell_setting 'monoclinic'
loop_
_space_group_symop_operation_xyz
x,y,z
-x,y,-z
-x,-y,-z
x,-y,z
1/2+x,1/2+y,z
1/2-x,1/2+y,-z
1/2-x,1/2-y,-z
1/2+x,1/2-y,z
loop_
_atom_site_type_symbol
_atom_site_label
_atom_site_fract_x
_atom_site_fract_y
_atom_site_fract_z
Si Si1 0.854538 0.848937 0.287736
Si Si2 0.920766 0.661786 0.333837
Si Si3 0.549936 0.655088 0.142849
Si Si4 0.282637 0.337939 0.028548
Si Si5 0.426149 0.241691 0.054278
Si Si6 0.769946 0.657305 0.192059
Si Si7 0.201765 0.658112 0.399139
O O1 0.881457 0.731357 0.310247
O O2 0.895639 0.837129 0.158180
O O3 0.769747 0.836353 0.373862
O O4 0.868288 0.000000 0.303745
O O5 0.929174 0.500000 0.311321
O O6 0.870945 0.682451 0.466902
O O7 0.997308 0.736404 0.244556
O O8 0.523972 0.500000 0.185678
O O9 0.630393 0.665273 0.077702
O O10 0.553165 0.684546 0.048965
O O11 0.261072 0.500000 0.054648
O O12 0.264148 0.257469 0.127594
O O13 0.250000 0.250000 0.000000
O O14 0.353838 0.157620 0.119458
O O15 0.500000 0.177632 0.000000
O O16 0.749996 0.500000 0.199607
O O17 0.720482 0.728160 0.314941
O O18 0.201384 0.500000 0.369400
#
# Coordination Sequence:
#
# PCOD9180331 Si02
#       7
#     8   8   8   8   8   8   8
#     4  10  19  32  50  69  96 142 194 233 268 315
#     4  11  22  33  48  72 106 143 183 230 273 311
#     4  10  21  36  54  79 108 143 183 217 266 327
#     4  10  21  39  63  88 113 140 170 214 268 328
#     4  10  19  32  48  75 108 145 182 222 268 315
#     4  10  21  35  55  83 109 139 180 224 268 319
#     4   9  20  37  51  69 102 146 188 226 268 316
#
# _framework density 17.484421999999999
#
# number of rings (size 3 to 8) (size 9 to 14) (size 15 to 20)
#    0.000    2.000    1.429    2.143    0.000   10.571 
#    0.000    0.000    0.000    0.857    0.000    6.000 
#    0.000    0.000    0.000    0.000    0.000    0.000 
#
# Total GULP energy -156100.633051 kJ/mol
# GULP energy per Si atom -5575.022609 kJ/mol
# Density = 1.744463 g / cm^3
# Si number density = 17.484422 Si / 1000 Ang^3
#
#
#
# Elastic Constant Matrix: (Units=GPa)
#
#
# Indices 1 2 3 4 5 6 
#
# 1 81.9380 51.0617 24.1683 -0.0009 6.0000 0.0001
# 2 51.0617 167.3935 71.8549 0.0013 8.6256 0.0003
# 3 24.1683 71.8549 87.7306 -0.0009 1.0691 0.0005
# 4 -0.0009 0.0013 -0.0009 11.1403 0.0008 -2.2064
# 5 6.0000 8.6256 1.0691 0.0008 8.7263 -0.0002
# 6 0.0001 0.0003 0.0005 -2.2064 -0.0002 22.2587
#
#
#
# Elastic Compliance Matrix: (Units=1/GPa)
#
#
# Indices 1 2 3 4 5 6 
#
# 1 0.015433 -0.003977 -0.000914 0.000002 -0.006569 0.000000
# 2 -0.003977 0.010863 -0.007715 -0.000002 -0.007058 0.000000
# 3 -0.000914 -0.007715 0.017896 0.000002 0.006063 0.000000
# 4 0.000002 -0.000002 0.000002 0.091561 -0.000008 0.009076
# 5 -0.006569 -0.007058 0.006063 -0.000008 0.125346 0.000000
# 6 0.000000 0.000000 0.000000 0.009076 0.000000 0.045826
#
#
# Mechanical properties :
#
#
# Convention : Reuss Voigt Hill
#
# Bulk Modulus (GPa) = 52.69120 70.13688 61.41404
# Shear Modulus (GPa) = 14.77261 21.09022 17.93141
#
# Velocity S-wave (km/s) = 2.90987 3.47685 3.20592
# Velocity P-wave (km/s) = 6.44137 7.50460 6.99322
#
# Compressibility (1/GPa) = 0.01897850
#
# Stress axis : x y z
#
# Youngs Moduli (GPa) = 64.79507 92.05941 55.87928
#
# Poissons Ratio (x) = 0.36610 0.05110
# Poissons Ratio (y) = 0.25767 0.43113
# Poissons Ratio (z) = 0.05925 0.71027
#
# Static dielectric constant tensor:
#      x y z
#    x 1.585700 0.000000 -0.015540 
#    y 0.000000 1.596380 0.000000 
#    z -0.015540 0.000000 1.595030 
# 
# From -- ./inp_files/287369.got.cif
#   From: 2010.05.17/outbox.cif.g08.bks.cpg/sg12_144_cif.got.tgz:287369.got - 2010.06.03 13:09:07.
