data_PCOD9180913
_publ_section_title
;
Structure prediction by ZEFSAII (Michael W. Deem and Ramdas Pophale) SiO2 
 PCOD9180913
Probable space group: C 2/M
;
_chemical_formula_sum "Si O2"
_cell_formula_units_Z 56
_cell_length_a 31.640267
_cell_length_b 8.491355
_cell_length_c 15.124830
_cell_angle_alpha 90.000000
_cell_angle_beta 133.324532
_cell_angle_gamma 90.000000
_cell_volume 2956.161315
_symmetry_space_group_name_H-M "C 2/M"
_symmetry_group_IT_number 12
_symmetry_cell_setting 'monoclinic'
loop_
_space_group_symop_operation_xyz
x,y,z
-x,y,-z
-x,-y,-z
x,-y,z
1/2+x,1/2+y,z
1/2-x,1/2+y,-z
1/2-x,1/2-y,-z
1/2+x,1/2-y,z
loop_
_atom_site_type_symbol
_atom_site_label
_atom_site_fract_x
_atom_site_fract_y
_atom_site_fract_z
Si Si1 0.390124 0.309803 0.320292
Si Si2 0.146080 0.309679 0.059188
Si Si3 0.680062 0.190451 0.491665
Si Si4 0.192285 0.310166 0.307923
Si Si5 0.067122 0.688344 0.437729
Si Si6 0.259323 0.309856 0.112582
Si Si7 0.056240 0.188191 0.790362
O O1 0.392326 0.500000 0.326136
O O2 0.428529 0.245110 0.455052
O O3 0.323094 0.258445 0.236130
O O4 0.412059 0.258430 0.255132
O O5 0.144538 0.500000 0.055125
O O6 0.151588 0.257869 0.168900
O O7 0.205540 0.257872 0.095535
O O8 0.092160 0.248352 0.925693
O O9 0.741770 0.254339 0.613417
O O10 0.674559 0.241523 0.380999
O O11 0.625373 0.243335 0.470837
O O12 0.682052 0.000000 0.496479
O O13 0.192613 0.500000 0.308419
O O14 0.065886 0.500000 0.433882
O O15 0.009425 0.752401 0.309035
O O16 0.259487 0.500000 0.111876
O O17 0.250000 0.250000 0.000000
O O18 0.056921 0.000000 0.791534
#
# Coordination Sequence:
#
# PCOD9180913 Si02
#       7
#     8   8   8   8   8   8   8
#     4  10  21  37  55  78 107 142 182 222 268 318
#     4  10  20  34  55  81 109 142 179 217 265 321
#     4   9  19  36  57  84 112 138 174 220 269 318
#     4   9  18  35  60  85 110 140 173 216 269 321
#     4  11  23  37  55  79 107 141 182 225 267 316
#     4  10  19  32  51  77 108 138 170 211 260 312
#     4  11  23  38  55  75 106 146 184 224 267 316
#
# _framework density 18.943486
#
# number of rings (size 3 to 8) (size 9 to 14) (size 15 to 20)
#    0.000    2.000    1.429    2.143    0.000    6.286 
#    0.000    0.714    0.000    4.286    0.000    0.000 
#    0.000    0.000    0.000    0.000    0.000    0.000 
#
# Total GULP energy -156370.729902 kJ/mol
# GULP energy per Si atom -5584.668925 kJ/mol
# Density = 1.890037 g / cm^3
# Si number density = 18.943486 Si / 1000 Ang^3
#
#
#
# Elastic Constant Matrix: (Units=GPa)
#
#
# Indices 1 2 3 4 5 6 
#
# 1 45.5868 8.4243 48.8910 0.0000 -0.9265 0.0000
# 2 8.4243 5.2931 19.3274 0.0000 -2.2319 0.0000
# 3 48.8910 19.3274 167.8144 0.0000 -9.3606 0.0000
# 4 0.0000 0.0000 0.0000 30.0001 0.0000 3.2400
# 5 -0.9265 -2.2319 -9.3606 0.0000 24.8831 0.0000
# 6 0.0000 0.0000 0.0000 3.2400 0.0000 19.3676
#
#
#
# Elastic Compliance Matrix: (Units=1/GPa)
#
#
# Indices 1 2 3 4 5 6 
#
# 1 0.035138 -0.033578 -0.006604 0.000000 -0.004188 0.000000
# 2 -0.033578 0.364037 -0.031044 0.000000 0.019724 0.000000
# 3 -0.006604 -0.031044 0.011531 0.000000 0.001307 0.000000
# 4 0.000000 0.000000 0.000000 0.033947 0.000000 -0.005679
# 5 -0.004188 0.019724 0.001307 0.000000 0.042293 0.000000
# 6 0.000000 0.000000 0.000000 -0.005679 0.000000 0.052583
#
#
# Mechanical properties :
#
#
# Convention : Reuss Voigt Hill
#
# Bulk Modulus (GPa) = 3.72779 41.33109 22.52944
# Shear Modulus (GPa) = 6.48174 24.32027 15.40101
#
# Velocity S-wave (km/s) = 1.85177 3.58695 2.85440
# Velocity P-wave (km/s) = 2.55816 6.24663 4.77308
#
# Compressibility (1/GPa) = 0.26825515
#
# Stress axis : x y z
#
# Youngs Moduli (GPa) = 28.45886 2.74698 86.72180
#
# Poissons Ratio (x) = 0.09224 0.57267
# Poissons Ratio (y) = 0.95560 2.69217
# Poissons Ratio (z) = 0.18793 0.08528
#
# Static dielectric constant tensor:
#      x y z
#    x 1.661760 0.000000 -0.010830 
#    y 0.000000 1.648280 0.000000 
#    z -0.010830 0.000000 1.640250 
# 
# From -- ./inp_files/237819.got.cif
#   From: 2010.05.17/outbox.cif.g08.bks.cpg/sg12_119_cif.got.tgz:237819.got - 2010.06.03 13:09:07.
