data_PCOD9180474
_publ_section_title
;
Structure prediction by ZEFSAII (Michael W. Deem and Ramdas Pophale) SiO2 
 PCOD9180474
Probable space group: C 2/M
;
_chemical_formula_sum "Si O2"
_cell_formula_units_Z 56
_cell_length_a 22.853719
_cell_length_b 9.060933
_cell_length_c 21.960251
_cell_angle_alpha 90.000000
_cell_angle_beta 131.052904
_cell_angle_gamma 90.000000
_cell_volume 3429.241343
_symmetry_space_group_name_H-M "C 2/M"
_symmetry_group_IT_number 12
_symmetry_cell_setting 'monoclinic'
loop_
_space_group_symop_operation_xyz
x,y,z
-x,y,-z
-x,-y,-z
x,-y,z
1/2+x,1/2+y,z
1/2-x,1/2+y,-z
1/2-x,1/2-y,-z
1/2+x,1/2-y,z
loop_
_atom_site_type_symbol
_atom_site_label
_atom_site_fract_x
_atom_site_fract_y
_atom_site_fract_z
Si Si1 0.318483 0.674969 0.470254
Si Si2 0.360380 0.174566 0.622631
Si Si3 0.413687 0.324565 0.415608
Si Si4 0.243593 0.169207 0.090416
Si Si5 0.882250 0.322694 0.265952
Si Si6 0.987167 0.175936 0.233155
Si Si7 0.628471 0.168818 0.931181
O O1 0.332359 0.500000 0.490971
O O2 0.357610 0.766191 0.551428
O O3 0.226175 0.699942 0.410636
O O4 0.354555 0.711391 0.429732
O O5 0.426134 0.261642 0.703762
O O6 0.376491 0.000000 0.634564
O O7 0.500000 0.297833 0.500000
O O8 0.407457 0.500000 0.397679
O O9 0.397809 0.232956 0.344186
O O10 0.295180 0.215896 0.183358
O O11 0.306508 0.170735 0.078159
O O12 0.218064 0.000000 0.080558
O O13 0.172301 0.268296 0.020087
O O14 0.890372 0.500000 0.266024
O O15 0.941699 0.245186 0.260021
O O16 0.941081 0.232759 0.142293
O O17 0.985519 0.000000 0.235500
O O18 0.603783 0.000000 0.922367
#
# Coordination Sequence:
#
# PCOD9180474 Si02
#       7
#     8   8   8   8   8   8   8
#     4   9  19  34  50  70  96 126 157 191 235 280
#     4  10  19  32  50  70  94 123 158 198 234 275
#     4  10  20  33  49  70  97 127 157 190 230 278
#     4   8  15  27  41  61  91 123 153 186 227 276
#     4  10  20  32  47  69  96 126 160 195 232 277
#     4  11  20  30  46  68  96 127 158 194 238 282
#     4   9  16  26  42  65  92 121 154 190 229 276
#
# _framework density 16.330143
#
# number of rings (size 3 to 8) (size 9 to 14) (size 15 to 20)
#    0.000    2.429    0.000    4.286    0.000    6.571 
#    0.000    0.000    0.000    0.000    0.000    1.000 
#    0.000    8.000    0.000    0.000    0.000    0.000 
#
# Total GULP energy -156144.873970 kJ/mol
# GULP energy per Si atom -5576.602642 kJ/mol
# Density = 1.629298 g / cm^3
# Si number density = 16.330143 Si / 1000 Ang^3
#
#
#
# Elastic Constant Matrix: (Units=GPa)
#
#
# Indices 1 2 3 4 5 6 
#
# 1 34.2965 27.1379 26.5813 0.0000 0.2880 0.0000
# 2 27.1379 93.3903 68.5982 0.0000 10.6771 0.0000
# 3 26.5813 68.5982 118.7003 0.0000 8.2996 0.0000
# 4 0.0000 0.0000 0.0000 28.0292 0.0000 3.8990
# 5 0.2880 10.6771 8.2996 0.0000 15.9194 0.0000
# 6 0.0000 0.0000 0.0000 3.8990 0.0000 15.9688
#
#
#
# Elastic Compliance Matrix: (Units=1/GPa)
#
#
# Indices 1 2 3 4 5 6 
#
# 1 0.039671 -0.009537 -0.003912 0.000000 0.007718 0.000000
# 2 -0.009537 0.021713 -0.009762 0.000000 -0.009301 0.000000
# 3 -0.003912 -0.009762 0.015027 0.000000 -0.001216 0.000000
# 4 0.000000 0.000000 0.000000 0.036931 0.000000 -0.009017
# 5 0.007718 -0.009301 -0.001216 0.000000 0.069549 0.000000
# 6 0.000000 0.000000 0.000000 -0.009017 0.000000 0.064824
#
#
# Mechanical properties :
#
#
# Convention : Reuss Voigt Hill
#
# Bulk Modulus (GPa) = 33.34526 54.55799 43.95162
# Shear Modulus (GPa) = 16.44013 20.25480 18.34746
#
# Velocity S-wave (km/s) = 3.17635 3.52566 3.35555
# Velocity P-wave (km/s) = 5.82375 7.07500 6.47965
#
# Compressibility (1/GPa) = 0.02998927
#
# Stress axis : x y z
#
# Youngs Moduli (GPa) = 25.20742 46.05532 66.54520
#
# Poissons Ratio (x) = 0.43921 0.26033
# Poissons Ratio (y) = 0.24040 0.64963
# Poissons Ratio (z) = 0.09861 0.44960
#
# Static dielectric constant tensor:
#      x y z
#    x 1.528530 0.000000 0.011520 
#    y 0.000000 1.548970 0.000000 
#    z 0.011520 0.000000 1.553390 
# 
# From -- ./inp_files/287386.got.cif
#   From: 2010.05.17/outbox.cif.g08.bks.cpg/sg12_144_cif.got.tgz:287386.got - 2010.06.03 13:09:07.
