data_PCOD9180947
_publ_section_title
;
Structure prediction by ZEFSAII (Michael W. Deem and Ramdas Pophale) SiO2 
 PCOD9180947
Probable space group: C 2/M
;
_chemical_formula_sum "Si O2"
_cell_formula_units_Z 64
_cell_length_a 19.262986
_cell_length_b 28.575211
_cell_length_c 13.075406
_cell_angle_alpha 90.000000
_cell_angle_beta 153.548082
_cell_angle_gamma 90.000000
_cell_volume 3206.002983
_symmetry_space_group_name_H-M "C 2/M"
_symmetry_group_IT_number 12
_symmetry_cell_setting 'monoclinic'
loop_
_space_group_symop_operation_xyz
x,y,z
-x,y,-z
-x,-y,-z
x,-y,z
1/2+x,1/2+y,z
1/2-x,1/2+y,-z
1/2-x,1/2-y,-z
1/2+x,1/2-y,z
loop_
_atom_site_type_symbol
_atom_site_label
_atom_site_fract_x
_atom_site_fract_y
_atom_site_fract_z
Si Si1 0.285210 0.682635 0.467236
Si Si2 0.856747 0.447025 0.870584
Si Si3 0.676329 0.556055 0.219664
Si Si4 0.996385 0.252362 0.875898
Si Si5 0.836558 0.892153 0.224709
Si Si6 0.316103 0.446508 0.986118
Si Si7 0.828690 0.926116 0.568144
Si Si8 0.172028 0.790101 0.713208
O O1 0.110607 0.700487 0.264622
O O2 0.403307 0.715001 0.686423
O O3 0.320034 0.629132 0.537444
O O4 0.312101 0.691544 0.382565
O O5 0.895275 0.500000 0.955475
O O6 0.794803 0.415452 0.878654
O O7 0.735116 0.449434 0.618062
O O8 0.000000 0.424300 0.000000
O O9 0.664943 0.500000 0.194459
O O10 0.754624 0.564952 0.432966
O O11 0.500000 0.576633 0.000000
O O12 0.754678 0.571384 0.215807
O O13 0.000000 0.237502 0.000000
O O14 0.171219 0.260263 0.065941
O O15 0.815063 0.914074 0.084452
O O16 0.825914 0.836160 0.212877
O O17 0.000000 0.903833 0.500000
O O18 0.265358 0.500000 0.942327
O O19 0.498318 0.446428 0.196450
O O20 0.000000 0.767838 0.500000
#
# Coordination Sequence:
#
# PCOD9180947 Si02
#       8
#     8   8   8   8   8   8   8   8
#     4  10  20  36  56  84 109 144 188 225 291 341
#     4  11  23  33  48  82 117 149 186 228 281 332
#     4   8  16  29  47  75 108 144 181 227 279 316
#     4   9  21  38  59  80 111 143 179 235 283 349
#     4  11  20  33  54  80 110 149 186 228 278 337
#     4  10  19  32  51  78 111 146 186 232 276 327
#     4  11  18  31  55  79 111 143 186 236 277 334
#     4  10  20  36  56  83 112 144 185 225 288 343
#
# _framework density 19.962551999999999
#
# number of rings (size 3 to 8) (size 9 to 14) (size 15 to 20)
#    0.000    2.000    2.500    3.000    1.750    2.500 
#    0.000    0.000    0.000    0.750    0.000    3.500 
#    0.000    0.000    0.000    0.000    0.000    0.500 
#
# Total GULP energy -178292.256891 kJ/mol
# GULP energy per Si atom -5571.633028 kJ/mol
# Density = 1.991712 g / cm^3
# Si number density = 19.962552 Si / 1000 Ang^3
#
#
#
# Elastic Constant Matrix: (Units=GPa)
#
#
# Indices 1 2 3 4 5 6 
#
# 1 88.4924 7.9440 24.8008 0.0000 -5.4611 0.0000
# 2 7.9440 59.5164 10.1514 0.0000 0.5223 0.0000
# 3 24.8008 10.1514 35.9449 0.0000 3.7600 0.0000
# 4 0.0000 0.0000 0.0000 40.1615 0.0000 -36.8414
# 5 -5.4611 0.5223 3.7600 0.0000 45.7901 0.0000
# 6 0.0000 0.0000 0.0000 -36.8414 0.0000 57.0421
#
#
#
# Elastic Compliance Matrix: (Units=1/GPa)
#
#
# Indices 1 2 3 4 5 6 
#
# 1 0.014298 -0.000213 -0.010070 0.000000 0.002535 0.000000
# 2 -0.000213 0.017658 -0.004858 0.000000 0.000172 0.000000
# 3 -0.010070 -0.004858 0.036574 0.000000 -0.004149 0.000000
# 4 0.000000 0.000000 0.000000 0.061098 0.000000 0.039461
# 5 0.002535 0.000172 -0.004149 0.000000 0.022480 0.000000
# 6 0.000000 0.000000 0.000000 0.039461 0.000000 0.043017
#
#
# Mechanical properties :
#
#
# Convention : Reuss Voigt Hill
#
# Bulk Modulus (GPa) = 26.14513 29.97178 28.05845
# Shear Modulus (GPa) = 20.99453 38.00259 29.49856
#
# Velocity S-wave (km/s) = 3.24650 4.36787 3.84825
# Velocity P-wave (km/s) = 5.21331 6.36273 5.81648
#
# Compressibility (1/GPa) = 0.03824804
#
# Stress axis : x y z
#
# Youngs Moduli (GPa) = 69.93870 56.63292 27.34152
#
# Poissons Ratio (x) = 0.01207 0.27534
# Poissons Ratio (y) = 0.01490 0.13282
# Poissons Ratio (z) = 0.70430 0.27511
#
# Static dielectric constant tensor:
#      x y z
#    x 1.788990 0.000000 -0.128160 
#    y 0.000000 1.684870 0.000000 
#    z -0.128160 0.000000 2.090540 
# 
# From -- ./inp_files/161273.got.cif
#   From: 2010.05.17/outbox.cif.g08.bks.cpg/sg12_81_cif.got.tgz:161273.got - 2010.06.03 13:09:07.
