data_PCOD9180855
_publ_section_title
;
Structure prediction by ZEFSAII (Michael W. Deem and Ramdas Pophale) SiO2 
 PCOD9180855
Probable space group: C 2/M
;
_chemical_formula_sum "Si O2"
_cell_formula_units_Z 48
_cell_length_a 27.474430
_cell_length_b 8.659794
_cell_length_c 11.529206
_cell_angle_alpha 90.000000
_cell_angle_beta 89.546425
_cell_angle_gamma 90.000000
_cell_volume 2742.976221
_symmetry_space_group_name_H-M "C 2/M"
_symmetry_group_IT_number 12
_symmetry_cell_setting 'monoclinic'
loop_
_space_group_symop_operation_xyz
x,y,z
-x,y,-z
-x,-y,-z
x,-y,z
1/2+x,1/2+y,z
1/2-x,1/2+y,-z
1/2-x,1/2-y,-z
1/2+x,1/2-y,z
loop_
_atom_site_type_symbol
_atom_site_label
_atom_site_fract_x
_atom_site_fract_y
_atom_site_fract_z
Si Si1 0.944549 0.817209 0.117133
Si Si2 0.695778 0.185607 0.494567
Si Si3 0.945560 0.171132 0.464268
Si Si4 0.122308 0.322697 0.697419
Si Si5 0.452309 0.183367 0.859918
Si Si6 0.876045 0.825232 0.686461
O O1 0.896841 0.771021 0.191625
O O2 0.996033 0.764038 0.174343
O O3 0.946609 0.000000 0.099177
O O4 0.943588 0.731833 0.993416
O O5 0.750000 0.250000 0.500000
O O6 0.665614 0.235319 0.611619
O O7 0.669228 0.244416 0.377731
O O8 0.695165 0.000000 0.494382
O O9 0.923970 0.304716 0.386457
O O10 0.914388 0.164880 0.580930
O O11 0.000000 0.196514 0.500000
O O12 0.941214 0.000000 0.406459
O O13 0.131610 0.500000 0.728533
O O14 0.405983 0.238647 0.785954
O O15 0.458292 0.000000 0.849634
O O16 0.863262 0.000000 0.723461
#
# Coordination Sequence:
#
# PCOD9180855 Si02
#       6
#     8   8   8   8   8   8
#     4  11  21  34  52  75 106 144 182 214 251 303
#     4  10  21  37  57  80 105 134 171 217 268 318
#     4   9  17  28  44  68  99 133 166 202 246 300
#     4  10  20  33  50  74 102 132 169 213 259 306
#     4  11  21  34  52  76 108 143 179 216 254 299
#     4  10  19  32  51  76 105 136 172 212 257 310
#
# _framework density 17.499241000000001
#
# number of rings (size 3 to 8) (size 9 to 14) (size 15 to 20)
#    0.000    1.833    0.000    6.500    0.000    4.333 
#    0.000    0.000    0.000    1.000    0.000    0.000 
#    0.000    0.000    0.000    0.000    0.000    0.000 
#
# Total GULP energy -133776.326527 kJ/mol
# GULP energy per Si atom -5574.013605 kJ/mol
# Density = 1.745941 g / cm^3
# Si number density = 17.499241 Si / 1000 Ang^3
#
#
#
# Elastic Constant Matrix: (Units=GPa)
#
#
# Indices 1 2 3 4 5 6 
#
# 1 111.4290 27.8830 33.3602 0.0000 7.4317 0.0000
# 2 27.8830 79.6355 12.9457 0.0000 3.0343 0.0000
# 3 33.3602 12.9457 54.2827 0.0000 2.2523 0.0000
# 4 0.0000 0.0000 0.0000 26.5334 0.0000 3.8708
# 5 7.4317 3.0343 2.2523 0.0000 26.3808 0.0000
# 6 0.0000 0.0000 0.0000 3.8708 0.0000 21.5226
#
#
#
# Elastic Compliance Matrix: (Units=1/GPa)
#
#
# Indices 1 2 3 4 5 6 
#
# 1 0.011816 -0.002997 -0.006446 0.000000 -0.002434 0.000000
# 2 -0.002997 0.013864 -0.001439 0.000000 -0.000628 0.000000
# 3 -0.006446 -0.001439 0.022725 0.000000 0.000041 0.000000
# 4 0.000000 0.000000 0.000000 0.038704 0.000000 -0.006961
# 5 -0.002434 -0.000628 0.000041 0.000000 0.038661 0.000000
# 6 0.000000 0.000000 0.000000 -0.006961 0.000000 0.047715
#
#
# Mechanical properties :
#
#
# Convention : Reuss Voigt Hill
#
# Bulk Modulus (GPa) = 37.53417 43.74722 40.64070
# Shear Modulus (GPa) = 24.49428 26.29791 25.39609
#
# Velocity S-wave (km/s) = 3.74536 3.88081 3.81368
# Velocity P-wave (km/s) = 6.34029 6.71823 6.53199
#
# Compressibility (1/GPa) = 0.02664239
#
# Stress axis : x y z
#
# Youngs Moduli (GPa) = 84.62794 72.12795 44.00414
#
# Poissons Ratio (x) = 0.21614 0.28366
# Poissons Ratio (y) = 0.25360 0.06331
# Poissons Ratio (z) = 0.54554 0.10377
#
# Static dielectric constant tensor:
#      x y z
#    x 1.607370 0.000000 0.002630 
#    y 0.000000 1.641020 0.000000 
#    z 0.002630 0.000000 1.635040 
# 
# From -- ./inp_files/179263.got.cif
#   From: 2010.05.17/outbox.cif.g08.bks.cpg/sg12_90_cif.got.tgz:179263.got - 2010.06.03 13:09:07.
