data_PCOD9180662
_publ_section_title
;
Structure prediction by ZEFSAII (Michael W. Deem and Ramdas Pophale) SiO2 
 PCOD9180662
Probable space group: C 2/M
;
_chemical_formula_sum "Si O2"
_cell_formula_units_Z 60
_cell_length_a 14.456033
_cell_length_b 14.169492
_cell_length_c 16.879706
_cell_angle_alpha 90.000000
_cell_angle_beta 105.980191
_cell_angle_gamma 90.000000
_cell_volume 3323.938295
_symmetry_space_group_name_H-M "C 2/M"
_symmetry_group_IT_number 12
_symmetry_cell_setting 'monoclinic'
loop_
_space_group_symop_operation_xyz
x,y,z
-x,y,-z
-x,-y,-z
x,-y,z
1/2+x,1/2+y,z
1/2-x,1/2+y,-z
1/2-x,1/2-y,-z
1/2+x,1/2-y,z
loop_
_atom_site_type_symbol
_atom_site_label
_atom_site_fract_x
_atom_site_fract_y
_atom_site_fract_z
Si Si1 0.787968 0.778605 0.422560
Si Si2 0.166479 0.389934 0.273582
Si Si3 0.895832 0.301450 0.896525
Si Si4 0.102262 0.610784 0.936241
Si Si5 0.504037 0.106336 0.354667
Si Si6 0.721235 0.103031 0.693470
Si Si7 0.299209 0.608518 0.886600
Si Si8 0.500000 0.756700 0.500000
O O1 0.750000 0.750000 0.500000
O O2 0.738704 0.861643 0.361159
O O3 0.764503 0.687020 0.363636
O O4 0.902158 0.796214 0.455689
O O5 0.174981 0.500000 0.255707
O O6 0.169450 0.329359 0.194275
O O7 0.063584 0.372126 0.290640
O O8 0.873628 0.194007 0.917601
O O9 0.006862 0.325589 0.900296
O O10 0.872948 0.367979 0.966198
O O11 0.076679 0.500000 0.919148
O O12 0.197024 0.629697 0.905923
O O13 0.391274 0.107687 0.310429
O O14 0.524340 0.176914 0.430855
O O15 0.530627 0.000000 0.386384
O O16 0.780444 0.108818 0.787889
O O17 0.738290 0.000000 0.660216
O O18 0.326571 0.500000 0.915324
#
# Coordination Sequence:
#
# PCOD9180662 Si02
#       8
#     8   8   8   8   8   8   8   4
#     4  11  21  35  51  78 105 143 179 227 278 330
#     4  11  21  34  54  81 109 141 186 232 275 330
#     4  11  20  36  59  88 117 150 184 233 284 337
#     4  10  21  37  60  90 119 151 187 229 283 340
#     4   9  17  29  50  78 102 127 169 230 284 319
#     4   9  18  33  54  79 105 137 175 227 283 330
#     4  10  20  36  58  85 115 148 191 232 278 337
#     4  10  19  32  51  70 104 132 176 222 274 326
#
# _framework density 18.050875999999999
#
# number of rings (size 3 to 8) (size 9 to 14) (size 15 to 20)
#    0.000    1.867    2.667    3.000    0.000    3.200 
#    0.000    1.667    0.000    2.400    0.000    0.000 
#    0.000    0.000    0.000    0.000    0.000    0.000 
#
# Total GULP energy -167186.430692 kJ/mol
# GULP energy per Si atom -5572.881023 kJ/mol
# Density = 1.800979 g / cm^3
# Si number density = 18.050876 Si / 1000 Ang^3
#
#
#
# Elastic Constant Matrix: (Units=GPa)
#
#
# Indices 1 2 3 4 5 6 
#
# 1 58.7853 42.4691 18.4762 0.0000 -9.6703 0.0000
# 2 42.4691 80.6545 10.4272 0.0000 -4.1106 0.0000
# 3 18.4762 10.4272 65.0151 0.0000 -3.3744 0.0000
# 4 0.0000 0.0000 0.0000 14.2013 0.0000 -1.3387
# 5 -9.6703 -4.1106 -3.3744 0.0000 17.4741 0.0000
# 6 0.0000 0.0000 0.0000 -1.3387 0.0000 22.1305
#
#
#
# Elastic Compliance Matrix: (Units=1/GPa)
#
#
# Indices 1 2 3 4 5 6 
#
# 1 0.032284 -0.015558 -0.006002 0.000000 0.013047 0.000000
# 2 -0.015558 0.020278 0.000980 0.000000 -0.003651 0.000000
# 3 -0.006002 0.000980 0.016939 0.000000 0.000180 0.000000
# 4 0.000000 0.000000 0.000000 0.070820 0.000000 0.004284
# 5 0.013047 -0.003651 0.000180 0.000000 0.063624 0.000000
# 6 0.000000 0.000000 0.000000 0.004284 0.000000 0.045446
#
#
# Mechanical properties :
#
#
# Convention : Reuss Voigt Hill
#
# Bulk Modulus (GPa) = 35.28643 38.57778 36.93210
# Shear Modulus (GPa) = 16.66675 19.63333 18.15004
#
# Velocity S-wave (km/s) = 3.04192 3.30156 3.17439
# Velocity P-wave (km/s) = 5.65052 5.99598 5.82581
#
# Compressibility (1/GPa) = 0.02833951
#
# Stress axis : x y z
#
# Youngs Moduli (GPa) = 30.97528 49.31410 59.03551
#
# Poissons Ratio (x) = 0.76724 0.35434
# Poissons Ratio (y) = 0.48192 -0.05784
# Poissons Ratio (z) = 0.18592 -0.04831
#
# Static dielectric constant tensor:
#      x y z
#    x 1.647040 0.000000 0.033870 
#    y 0.000000 1.643910 0.000000 
#    z 0.033870 0.000000 1.653290 
# 
# From -- ./inp_files/269920.got.cif
#   From: 2010.05.17/outbox.cif.g08.bks.cpg/sg12_135_cif.got.tgz:269920.got - 2010.06.03 13:09:07.
