data_PCOD9180967
_publ_section_title
;
Structure prediction by ZEFSAII (Michael W. Deem and Ramdas Pophale) SiO2 
 PCOD9180967
Probable space group: C 2/M
;
_chemical_formula_sum "Si O2"
_cell_formula_units_Z 64
_cell_length_a 25.059142
_cell_length_b 7.832953
_cell_length_c 20.990002
_cell_angle_alpha 90.000000
_cell_angle_beta 126.676152
_cell_angle_gamma 90.000000
_cell_volume 3304.393327
_symmetry_space_group_name_H-M "C 2/M"
_symmetry_group_IT_number 12
_symmetry_cell_setting 'monoclinic'
loop_
_space_group_symop_operation_xyz
x,y,z
-x,y,-z
-x,-y,-z
x,-y,z
1/2+x,1/2+y,z
1/2-x,1/2+y,-z
1/2-x,1/2-y,-z
1/2+x,1/2-y,z
loop_
_atom_site_type_symbol
_atom_site_label
_atom_site_fract_x
_atom_site_fract_y
_atom_site_fract_z
Si Si1 0.073523 0.790901 0.028819
Si Si2 0.581650 0.199907 0.257786
Si Si3 0.411044 0.707833 0.240431
Si Si4 0.169929 0.198768 0.209062
Si Si5 0.938868 0.702920 0.618072
Si Si6 0.563970 0.300519 0.881559
Si Si7 0.925589 0.707395 0.468155
Si Si8 0.318017 0.701044 0.285786
O O1 0.127850 0.733462 0.118828
O O2 0.074497 0.000000 0.027473
O O3 0.084665 0.727858 0.964642
O O4 0.000000 0.741281 0.000000
O O5 0.643527 0.218911 0.255187
O O6 0.591317 0.267640 0.336675
O O7 0.516229 0.286970 0.181343
O O8 0.564551 0.000000 0.250631
O O9 0.411908 0.500000 0.240706
O O10 0.482020 0.765567 0.319197
O O11 0.408018 0.770232 0.165161
O O12 0.352570 0.765824 0.245449
O O13 0.247724 0.217557 0.252344
O O14 0.153013 0.000000 0.203118
O O15 0.927274 0.500000 0.607742
O O16 0.914643 0.769981 0.532765
O O17 0.582015 0.500000 0.895050
O O18 0.923650 0.500000 0.465829
O O19 0.871117 0.771237 0.379856
O O20 0.000000 0.758335 0.500000
O O21 0.306268 0.500000 0.269803
#
# Coordination Sequence:
#
# PCOD9180967 Si02
#       8
#     8   8   8   8   8   8   8   8
#     4   9  16  30  54  81 103 130 178 227 257 298
#     4  10  19  32  51  79 111 138 167 213 269 312
#     4   9  18  31  51  77 106 140 173 211 261 312
#     4  11  22  37  56  76 103 143 183 217 260 317
#     4   9  18  32  53  80 108 135 170 217 260 305
#     4   9  16  31  54  78 104 136 177 217 255 307
#     4  10  19  34  57  82 106 137 179 219 255 307
#     4  11  23  37  52  77 112 143 174 217 268 316
#
# _framework density 19.368153
#
# number of rings (size 3 to 8) (size 9 to 14) (size 15 to 20)
#    0.000    2.250    2.500    1.125    0.000    1.750 
#    0.000    3.125    0.000    0.000    0.000    0.000 
#    0.000    0.000    0.000    0.000    0.000    0.000 
#
# Total GULP energy -178507.640157 kJ/mol
# GULP energy per Si atom -5578.363755 kJ/mol
# Density = 1.932407 g / cm^3
# Si number density = 19.368153 Si / 1000 Ang^3
#
#
#
# Elastic Constant Matrix: (Units=GPa)
#
#
# Indices 1 2 3 4 5 6 
#
# 1 131.9405 -5.9434 63.3750 0.0000 -23.3894 0.0000
# 2 -5.9434 18.8814 3.1307 0.0000 -6.0570 0.0000
# 3 63.3750 3.1307 89.7912 0.0000 -17.1580 0.0000
# 4 0.0000 0.0000 0.0000 -0.5308 0.0000 -2.2413
# 5 -23.3894 -6.0570 -17.1580 0.0000 33.7381 0.0000
# 6 0.0000 0.0000 0.0000 -2.2413 0.0000 12.2001
#
#
#
# Elastic Compliance Matrix: (Units=1/GPa)
#
#
# Indices 1 2 3 4 5 6 
#
# 1 0.012951 0.007405 -0.008229 0.000000 0.006123 0.000000
# 2 0.007405 0.060433 -0.004740 0.000000 0.013573 0.000000
# 3 -0.008229 -0.004740 0.017564 0.000000 0.002377 0.000000
# 4 0.000000 0.000000 0.000000 -1.060956 -0.000001 -0.194911
# 5 0.006123 0.013573 0.002377 -0.000001 0.037530 0.000000
# 6 0.000000 0.000000 0.000000 -0.194911 0.000000 0.046159
#
#
# Mechanical properties :
#
#
# Convention : Reuss Voigt Hill
#
# Bulk Modulus (GPa) = 12.52812 40.19309 26.36060
# Shear Modulus (GPa) = -5.89216 21.08487 7.59635
#
# Velocity S-wave (km/s) = -1.74608 3.30303 1.98257
# Velocity P-wave (km/s) = 1.55480 5.94507 4.34518
#
# Compressibility (1/GPa) = 0.07982043
#
# Stress axis : x y z
#
# Youngs Moduli (GPa) = 77.21581 16.54726 56.93350
#
# Poissons Ratio (x) = -0.12253 0.46850
# Poissons Ratio (y) = -0.57179 0.26987
# Poissons Ratio (z) = 0.63540 0.07843
#
# Static dielectric constant tensor:
#      x y z
#    x 1.677150 0.000000 -0.055630 
#    y 0.000000 1.703550 0.000000 
#    z -0.055630 0.000000 1.668400 
# 
# From -- ./inp_files/324348.got.cif
#   From: 2010.05.17/outbox.cif.g08.bks.cpg/sg12_163_cif.got.tgz:324348.got - 2010.06.03 13:09:07.
