data_PCOD9180292
_publ_section_title
;
Structure prediction by ZEFSAII (Michael W. Deem and Ramdas Pophale) SiO2 
 PCOD9180292
Probable space group: C 2/M
;
_chemical_formula_sum "Si O2"
_cell_formula_units_Z 64
_cell_length_a 21.803027
_cell_length_b 7.340608
_cell_length_c 16.200508
_cell_angle_alpha 90.000000
_cell_angle_beta 63.738784
_cell_angle_gamma 90.000000
_cell_volume 2325.232302
_symmetry_space_group_name_H-M "C 2/M"
_symmetry_group_IT_number 12
_symmetry_cell_setting 'monoclinic'
loop_
_space_group_symop_operation_xyz
x,y,z
-x,y,-z
-x,-y,-z
x,-y,z
1/2+x,1/2+y,z
1/2-x,1/2+y,-z
1/2-x,1/2-y,-z
1/2+x,1/2-y,z
loop_
_atom_site_type_symbol
_atom_site_label
_atom_site_fract_x
_atom_site_fract_y
_atom_site_fract_z
Si Si1 0.660602 0.220752 0.631359
Si Si2 0.043941 0.292106 0.814341
Si Si3 0.577558 0.708225 0.515964
Si Si4 0.170360 0.285298 0.133547
Si Si5 0.296203 0.791818 0.154602
Si Si6 0.708239 0.723470 0.357699
Si Si7 0.962245 0.782937 0.696349
Si Si8 0.913793 0.275853 0.977084
O O1 0.615658 0.281570 0.738053
O O2 0.623053 0.293814 0.573181
O O3 0.738929 0.270761 0.600262
O O4 0.656029 0.000000 0.630741
O O5 0.055415 0.500000 0.833308
O O6 0.999444 0.294612 0.755620
O O7 0.990843 0.213455 0.912316
O O8 0.566954 0.500000 0.495440
O O9 0.632029 0.791645 0.420337
O O10 0.504702 0.783508 0.591019
O O11 0.178893 0.500000 0.120434
O O12 0.244293 0.204942 0.107873
O O13 0.117478 0.249674 0.240602
O O14 0.131060 0.218513 0.075771
O O15 0.248837 0.709151 0.253497
O O16 0.308068 0.000000 0.172975
O O17 0.369100 0.716926 0.082161
O O18 0.704036 0.500000 0.356381
O O19 0.972330 0.000000 0.691526
O O20 0.915311 0.500000 0.977300
#
# Coordination Sequence:
#
# PCOD9180292 Si02
#       8
#     8   8   8   8   8   8   8   8
#     4   9  16  28  48  71  94 122 153 185 225 268
#     4   8  14  26  44  68  96 119 144 184 228 264
#     4   9  17  30  48  70  94 119 151 190 226 263
#     4  10  19  32  49  69  93 116 145 190 235 272
#     4  10  19  32  48  65  90 124 158 187 220 269
#     4   9  18  31  46  67  95 124 154 189 225 262
#     4   9  16  27  46  70  91 114 148 186 226 272
#     4   8  15  28  47  69  91 117 149 186 226 267
#
# _framework density 27.52413
#
# number of rings (size 3 to 8) (size 9 to 14) (size 15 to 20)
#    0.000    3.000    0.000    2.250    0.000    0.500 
#    0.000    5.000    0.000    7.500    0.000    0.000 
#    0.000   14.000    0.000    0.000    0.000    0.000 
#
# Total GULP energy -178964.160316 kJ/mol
# GULP energy per Si atom -5592.630010 kJ/mol
# Density = 2.746148 g / cm^3
# Si number density = 27.524130 Si / 1000 Ang^3
#
#
#
# Elastic Constant Matrix: (Units=GPa)
#
#
# Indices 1 2 3 4 5 6 
#
# 1 132.6254 7.0040 50.2195 0.0000 -37.4200 0.0000
# 2 7.0040 122.2536 0.5480 -0.0004 -2.3374 0.0004
# 3 50.2195 0.5480 236.3044 -0.0001 -41.6984 -0.0005
# 4 0.0000 -0.0004 -0.0001 -2.4200 0.0000 -2.8074
# 5 -37.4200 -2.3374 -41.6984 0.0000 65.0269 -0.0001
# 6 0.0000 0.0004 -0.0005 -2.8074 -0.0001 -1.7659
#
#
#
# Elastic Compliance Matrix: (Units=1/GPa)
#
#
# Indices 1 2 3 4 5 6 
#
# 1 0.009299 -0.000440 -0.001166 0.000000 0.004588 0.000000
# 2 -0.000440 0.008206 0.000092 0.000004 0.000101 -0.000005
# 3 -0.001166 0.000092 0.004918 -0.000002 0.002486 0.000001
# 4 0.000000 0.000004 -0.000002 0.489471 -0.000001 -0.778130
# 5 0.004588 0.000101 0.002486 -0.000001 0.019616 0.000001
# 6 0.000000 -0.000005 0.000001 -0.778130 0.000001 0.670752
#
#
# Mechanical properties :
#
#
# Convention : Reuss Voigt Hill
#
# Bulk Modulus (GPa) = 51.55366 67.41401 59.48384
# Shear Modulus (GPa) = 4.12625 41.06232 22.59428
#
# Velocity S-wave (km/s) = 1.22572 3.86666 2.86823
# Velocity P-wave (km/s) = 4.55787 6.66938 5.71204
#
# Compressibility (1/GPa) = 0.01939726
#
# Stress axis : x y z
#
# Youngs Moduli (GPa) = 107.53706 121.85557 203.33210
#
# Poissons Ratio (x) = 0.05359 0.23701
# Poissons Ratio (y) = 0.04730 -0.01876
# Poissons Ratio (z) = 0.12535 -0.01124
#
# Static dielectric constant tensor:
#      x y z
#    x 2.126710 0.000000 0.050990 
#    y 0.000000 2.071600 0.000000 
#    z 0.050990 0.000000 2.202880 
# 
# From -- ./inp_files/326853.got.cif
#   From: 2010.05.17/outbox.cif.g08.bks.cpg/sg12_164_cif.got.tgz:326853.got - 2010.06.03 13:09:07.
