data_PCOD9180846
_publ_section_title
;
Structure prediction by ZEFSAII (Michael W. Deem and Ramdas Pophale) SiO2 
 PCOD9180846
Probable space group: C 2/M
;
_chemical_formula_sum "Si O2"
_cell_formula_units_Z 64
_cell_length_a 13.873785
_cell_length_b 29.155836
_cell_length_c 9.229111
_cell_angle_alpha 90.000000
_cell_angle_beta 98.975574
_cell_angle_gamma 90.000000
_cell_volume 3687.478857
_symmetry_space_group_name_H-M "C 2/M"
_symmetry_group_IT_number 12
_symmetry_cell_setting 'monoclinic'
loop_
_space_group_symop_operation_xyz
x,y,z
-x,y,-z
-x,-y,-z
x,-y,z
1/2+x,1/2+y,z
1/2-x,1/2+y,-z
1/2-x,1/2-y,-z
1/2+x,1/2-y,z
loop_
_atom_site_type_symbol
_atom_site_label
_atom_site_fract_x
_atom_site_fract_y
_atom_site_fract_z
Si Si1 0.959889 0.280073 0.845284
Si Si2 0.577294 0.372195 0.283814
Si Si3 0.149026 0.129618 0.867866
Si Si4 0.132155 0.250568 0.690914
Si Si5 0.805412 0.848646 0.419931
Si Si6 0.402933 0.828907 0.547142
Si Si7 0.887927 0.051595 0.919480
Si Si8 0.188504 0.798344 0.114836
O O1 0.921211 0.315677 0.718228
O O2 0.880550 0.245511 0.890256
O O3 0.036877 0.249402 0.770487
O O4 0.000000 0.303416 0.000000
O O5 0.465545 0.365384 0.204679
O O6 0.606161 0.364246 0.456468
O O7 0.608633 0.422208 0.232985
O O8 0.642034 0.335110 0.213349
O O9 0.202163 0.122644 0.728832
O O10 0.160444 0.086870 0.978569
O O11 0.184981 0.175273 0.960856
O O12 0.171930 0.202897 0.635116
O O13 0.108473 0.281984 0.546718
O O14 0.209340 0.279473 0.803988
O O15 0.703662 0.851427 0.482245
O O16 0.500000 0.851609 0.500000
O O17 0.848680 0.000000 0.905815
O O18 0.000000 0.049012 0.000000
#
# Coordination Sequence:
#
# PCOD9180846 Si02
#       8
#     8   8   8   8   8   8   8   8
#     4  11  22  32  46  65  92 130 182 223 246 289
#     4  10  19  32  51  76 103 132 170 206 245 298
#     4  10  22  31  50  80 103 133 166 214 250 295
#     4  11  22  33  49  66  94 145 177 216 257 290
#     4  12  20  33  50  71 102 134 175 216 257 292
#     4  10  22  37  46  62  92 136 178 215 258 291
#     4   8  16  35  56  75 106 139 159 187 248 316
#     4  11  19  34  47  69  98 134 181 214 247 289
#
# _framework density 17.356031000000002
#
# number of rings (size 3 to 8) (size 9 to 14) (size 15 to 20)
#    0.000    1.625    2.500    4.875    1.750    3.000 
#    0.000    0.625    0.000    3.000    0.000    0.000 
#    0.000    3.000    0.000    0.000    0.000    0.000 
#
# Total GULP energy -178453.329078 kJ/mol
# GULP energy per Si atom -5576.666534 kJ/mol
# Density = 1.731653 g / cm^3
# Si number density = 17.356031 Si / 1000 Ang^3
#
#
#
# Elastic Constant Matrix: (Units=GPa)
#
#
# Indices 1 2 3 4 5 6 
#
# 1 61.8545 14.8047 15.8664 0.0000 6.2528 0.0000
# 2 14.8047 57.2782 24.8884 0.0000 8.3920 0.0000
# 3 15.8664 24.8884 121.9911 0.0000 9.6730 0.0000
# 4 0.0000 0.0000 0.0000 10.9573 0.0000 1.4615
# 5 6.2528 8.3920 9.6730 0.0000 23.9839 0.0000
# 6 0.0000 0.0000 0.0000 1.4615 0.0000 8.9119
#
#
#
# Elastic Compliance Matrix: (Units=1/GPa)
#
#
# Indices 1 2 3 4 5 6 
#
# 1 0.017650 -0.003565 -0.001345 0.000000 -0.002811 0.000000
# 2 -0.003565 0.020551 -0.003339 0.000000 -0.004915 0.000000
# 3 -0.001345 -0.003339 0.009228 0.000000 -0.002203 0.000000
# 4 0.000000 0.000000 0.000000 0.093304 0.000000 -0.015301
# 5 -0.002811 -0.004915 -0.002203 0.000000 0.045036 0.000000
# 6 0.000000 0.000000 0.000000 -0.015301 0.000000 0.114718
#
#
# Mechanical properties :
#
#
# Convention : Reuss Voigt Hill
#
# Bulk Modulus (GPa) = 32.33215 39.13807 35.73511
# Shear Modulus (GPa) = 15.27664 21.14157 18.20911
#
# Velocity S-wave (km/s) = 2.97002 3.49393 3.24257
# Velocity P-wave (km/s) = 5.51639 6.23505 5.88670
#
# Compressibility (1/GPa) = 0.03092897
#
# Stress axis : x y z
#
# Youngs Moduli (GPa) = 56.65843 48.65871 108.36309
#
# Poissons Ratio (x) = 0.17349 0.14577
# Poissons Ratio (y) = 0.20201 0.36187
# Poissons Ratio (z) = 0.07622 0.16249
#
# Static dielectric constant tensor:
#      x y z
#    x 1.665310 0.000000 0.018640 
#    y 0.000000 1.569450 0.000000 
#    z 0.018640 0.000000 1.650520 
# 
# From -- ./inp_files/67000.got.cif
#   From: 2010.05.17/outbox.cif.g08.bks.cpg/sg12_34_cif.got.tgz:67000.got - 2010.06.03 13:09:07.
