data_PCOD9180487
_publ_section_title
;
Structure prediction by ZEFSAII (Michael W. Deem and Ramdas Pophale) SiO2 
 PCOD9180487
Probable space group: C 2/M
;
_chemical_formula_sum "Si O2"
_cell_formula_units_Z 48
_cell_length_a 30.394118
_cell_length_b 8.916240
_cell_length_c 23.327483
_cell_angle_alpha 90.000000
_cell_angle_beta 153.249614
_cell_angle_gamma 90.000000
_cell_volume 2845.460035
_symmetry_space_group_name_H-M "C 2/M"
_symmetry_group_IT_number 12
_symmetry_cell_setting 'monoclinic'
loop_
_space_group_symop_operation_xyz
x,y,z
-x,y,-z
-x,-y,-z
x,-y,z
1/2+x,1/2+y,z
1/2-x,1/2+y,-z
1/2-x,1/2-y,-z
1/2+x,1/2-y,z
loop_
_atom_site_type_symbol
_atom_site_label
_atom_site_fract_x
_atom_site_fract_y
_atom_site_fract_z
Si Si1 0.599412 0.680637 0.582274
Si Si2 0.645524 0.679063 0.396163
Si Si3 0.852730 0.674155 0.783942
Si Si4 0.849178 0.677996 0.478427
Si Si5 0.496357 0.677476 0.119432
Si Si6 0.808673 0.674382 0.867121
O O1 0.500000 0.714053 0.500000
O O2 0.606867 0.500000 0.582566
O O3 0.604623 0.757090 0.526171
O O4 0.695855 0.724947 0.730930
O O5 0.657727 0.500000 0.414472
O O6 0.750000 0.750000 0.500000
O O7 0.613760 0.746079 0.420273
O O8 0.563244 0.710471 0.252614
O O9 0.837427 0.500000 0.750062
O O10 0.764873 0.775000 0.657725
O O11 0.845433 0.682997 0.843897
O O12 0.951667 0.734303 0.871905
O O13 0.858988 0.500000 0.492255
O O14 0.499690 0.500000 0.112556
O O15 0.384666 0.731641 0.992812
O O16 0.811216 0.500000 0.887585
#
# Coordination Sequence:
#
# PCOD9180487 Si02
#       6
#     8   8   8   8   8   8
#     4   9  19  38  62  83 104 134 172 217 269 321
#     4  11  22  35  51  73 105 146 186 219 256 306
#     4  10  19  32  50  71 102 142 179 214 254 309
#     4  11  21  33  52  80 109 138 176 220 265 311
#     4  11  22  32  47  73 105 141 177 215 259 307
#     4   9  19  33  50  75 103 135 172 210 261 318
#
# _framework density 16.868977000000001
#
# number of rings (size 3 to 8) (size 9 to 14) (size 15 to 20)
#    0.000    1.833    1.667    4.500    0.000    7.667 
#    0.000    0.000    0.000    1.000    0.000    0.000 
#    0.000    0.000    0.000    0.000    0.000    0.000 
#
# Total GULP energy -133945.936791 kJ/mol
# GULP energy per Si atom -5581.080700 kJ/mol
# Density = 1.683058 g / cm^3
# Si number density = 16.868977 Si / 1000 Ang^3
#
#
#
# Elastic Constant Matrix: (Units=GPa)
#
#
# Indices 1 2 3 4 5 6 
#
# 1 69.1414 35.7083 55.0395 0.0000 14.5705 0.0000
# 2 35.7083 71.1198 54.9886 0.0000 0.2744 0.0000
# 3 55.0395 54.9886 119.9042 0.0000 10.3284 0.0000
# 4 0.0000 0.0000 0.0000 26.0656 0.0000 -0.8325
# 5 14.5705 0.2744 10.3284 0.0000 19.5606 0.0000
# 6 0.0000 0.0000 0.0000 -0.8325 0.0000 19.4312
#
#
#
# Elastic Compliance Matrix: (Units=1/GPa)
#
#
# Indices 1 2 3 4 5 6 
#
# 1 0.028540 -0.008158 -0.007897 0.000000 -0.016975 0.000000
# 2 -0.008158 0.024636 -0.008430 0.000000 0.010183 0.000000
# 3 -0.007897 -0.008430 0.016044 0.000000 -0.002471 0.000000
# 4 0.000000 0.000000 0.000000 0.038417 0.000000 0.001646
# 5 -0.016975 0.010183 -0.002471 0.000000 0.064929 0.000000
# 6 0.000000 0.000000 0.000000 0.001646 0.000000 0.051534
#
#
# Mechanical properties :
#
#
# Convention : Reuss Voigt Hill
#
# Bulk Modulus (GPa) = 49.38619 61.29310 55.33965
# Shear Modulus (GPa) = 17.86851 20.64009 19.25430
#
# Velocity S-wave (km/s) = 3.25815 3.50173 3.38213
# Velocity P-wave (km/s) = 6.59499 7.26382 6.93747
#
# Compressibility (1/GPa) = 0.02024857
#
# Stress axis : x y z
#
# Youngs Moduli (GPa) = 35.03841 40.59127 62.32841
#
# Poissons Ratio (x) = 0.33115 0.49222
# Poissons Ratio (y) = 0.28585 0.52545
# Poissons Ratio (z) = 0.27670 0.34220
#
# Static dielectric constant tensor:
#      x y z
#    x 1.555480 0.000000 -0.007020 
#    y 0.000000 1.565140 0.000000 
#    z -0.007020 0.000000 1.594000 
# 
# From -- ./inp_files/236847.got.cif
#   From: 2010.05.17/outbox.cif.g08.bks.cpg/sg12_119_cif.got.tgz:236847.got - 2010.06.03 13:09:07.
