data_PCOD9180445
_publ_section_title
;
Structure prediction by ZEFSAII (Michael W. Deem and Ramdas Pophale) SiO2 
 PCOD9180445
Probable space group: C 2/M
;
_chemical_formula_sum "Si O2"
_cell_formula_units_Z 48
_cell_length_a 14.231479
_cell_length_b 22.344813
_cell_length_c 12.912071
_cell_angle_alpha 90.000000
_cell_angle_beta 33.550285
_cell_angle_gamma 90.000000
_cell_volume 2269.276811
_symmetry_space_group_name_H-M "C 2/M"
_symmetry_group_IT_number 12
_symmetry_cell_setting 'monoclinic'
loop_
_space_group_symop_operation_xyz
x,y,z
-x,y,-z
-x,-y,-z
x,-y,z
1/2+x,1/2+y,z
1/2-x,1/2+y,-z
1/2-x,1/2-y,-z
1/2+x,1/2-y,z
loop_
_atom_site_type_symbol
_atom_site_label
_atom_site_fract_x
_atom_site_fract_y
_atom_site_fract_z
Si Si1 0.810387 0.127597 0.948953
Si Si2 0.585295 0.253379 0.261805
Si Si3 0.732471 0.248417 0.695111
Si Si4 0.190568 0.877825 0.626202
Si Si5 0.795037 0.067072 0.175645
Si Si6 0.971668 0.648882 0.214091
O O1 0.849653 0.194614 0.872559
O O2 0.001548 0.100399 0.768211
O O3 0.759698 0.110837 0.113110
O O4 0.642119 0.111008 0.036539
O O5 0.718937 0.240671 0.230588
O O6 0.407482 0.272198 0.478881
O O7 0.534540 0.195360 0.244795
O O8 0.677412 0.309302 0.685554
O O9 0.601532 0.194180 0.803663
O O10 0.267352 0.912447 0.654580
O O11 0.315369 0.883038 0.414410
O O12 0.738623 0.000000 0.202523
O O13 0.000000 0.067370 0.000000
#
# Coordination Sequence:
#
# PCOD9180445 Si02
#       6
#     8   8   8   8   8   8
#     4  11  20  33  52  75 103 139 180 218 266 317
#     4  10  19  32  49  76 108 143 181 213 258 325
#     4  10  19  32  52  76 111 147 175 211 264 326
#     4  10  19  36  51  72 110 143 172 223 262 314
#     4   9  20  37  58  81 105 142 188 229 277 318
#     4  11  20  33  50  78 107 146 180 209 264 328
#
# _framework density 21.152114000000001
#
# number of rings (size 3 to 8) (size 9 to 14) (size 15 to 20)
#    0.000    1.833    3.333    2.500    0.000    2.667 
#    0.000    1.667    0.000    0.000    0.000    5.833 
#    0.000    0.000    0.000    0.000    0.000    0.000 
#
# Total GULP energy -133730.870189 kJ/mol
# GULP energy per Si atom -5572.119591 kJ/mol
# Density = 2.110397 g / cm^3
# Si number density = 21.152114 Si / 1000 Ang^3
#
#
#
# Elastic Constant Matrix: (Units=GPa)
#
#
# Indices 1 2 3 4 5 6 
#
# 1 75.7137 15.9954 23.0767 -0.0190 -17.7498 -0.0003
# 2 15.9954 45.2843 15.2617 -0.0288 10.3269 0.0116
# 3 23.0767 15.2617 85.0943 -0.0517 -10.2386 0.0203
# 4 -0.0190 -0.0288 -0.0517 9.3764 0.0276 0.5015
# 5 -17.7498 10.3269 -10.2386 0.0276 29.2257 -0.0063
# 6 -0.0003 0.0116 0.0203 0.5015 -0.0063 15.6471
#
#
#
# Elastic Compliance Matrix: (Units=1/GPa)
#
#
# Indices 1 2 3 4 5 6 
#
# 1 0.019085 -0.009405 -0.001769 -0.000043 0.014294 0.000017
# 2 -0.009405 0.031472 -0.005344 0.000105 -0.018705 -0.000027
# 3 -0.001769 -0.005344 0.013873 0.000040 0.005674 -0.000013
# 4 -0.000043 0.000105 0.000040 0.106835 -0.000150 -0.003425
# 5 0.014294 -0.018705 0.005674 -0.000150 0.051495 0.000032
# 6 0.000017 -0.000027 -0.000013 -0.003425 0.000032 0.064019
#
#
# Mechanical properties :
#
#
# Convention : Reuss Voigt Hill
#
# Bulk Modulus (GPa) = 31.85474 34.97333 33.41404
# Shear Modulus (GPa) = 15.13872 20.96707 18.05290
#
# Velocity S-wave (km/s) = 2.67817 3.15183 2.92461
# Velocity P-wave (km/s) = 4.96548 5.46036 5.21879
#
# Compressibility (1/GPa) = 0.03139250
#
# Stress axis : x y z
#
# Youngs Moduli (GPa) = 52.39783 31.77476 72.08428
#
# Poissons Ratio (x) = 0.29884 0.12751
# Poissons Ratio (y) = 0.49279 0.38525
# Poissons Ratio (z) = 0.09269 0.16982
#
# Static dielectric constant tensor:
#      x y z
#    x 1.788140 0.000000 -0.047260 
#    y 0.000000 1.761100 0.000010 
#    z -0.047260 0.000010 1.904280 
# 
# From -- ./inp_files/218440.got.cif
#   From: 2010.05.17/outbox.cif.g08.bks.cpg/sg12_110_cif.got.tgz:218440.got - 2010.06.03 13:09:07.
