data_PCOD9180212
_publ_section_title
;
Structure prediction by ZEFSAII (Michael W. Deem and Ramdas Pophale) SiO2 
 PCOD9180212
Probable space group: C 2/M
;
_chemical_formula_sum "Si O2"
_cell_formula_units_Z 52
_cell_length_a 28.074745
_cell_length_b 15.147269
_cell_length_c 17.131189
_cell_angle_alpha 90.000000
_cell_angle_beta 20.872047
_cell_angle_gamma 90.000000
_cell_volume 2595.564178
_symmetry_space_group_name_H-M "C 2/M"
_symmetry_group_IT_number 12
_symmetry_cell_setting 'monoclinic'
loop_
_space_group_symop_operation_xyz
x,y,z
-x,y,-z
-x,-y,-z
x,-y,z
1/2+x,1/2+y,z
1/2-x,1/2+y,-z
1/2-x,1/2-y,-z
1/2+x,1/2-y,z
loop_
_atom_site_type_symbol
_atom_site_label
_atom_site_fract_x
_atom_site_fract_y
_atom_site_fract_z
Si Si1 0.155093 0.000000 0.940342
Si Si2 0.336869 0.811560 0.072031
Si Si3 0.449120 0.395311 0.490695
Si Si4 0.130821 0.839004 0.852381
Si Si5 0.050212 0.606724 0.337172
Si Si6 0.090973 0.394516 0.606252
Si Si7 0.677797 0.339839 0.030962
O O1 0.181816 0.076845 0.966209
O O2 0.130633 0.078137 0.912000
O O3 0.205484 0.870887 0.281868
O O4 0.360963 0.750427 0.110089
O O5 0.469457 0.865607 0.846867
O O6 0.310945 0.745434 0.039735
O O7 0.500000 0.374964 0.500000
O O8 0.469124 0.500000 0.447198
O O9 0.541205 0.343893 0.288416
O O10 0.267800 0.849428 0.593547
O O11 0.000000 0.840562 0.000000
O O12 0.059392 0.500000 0.321916
O O13 0.000000 0.633215 0.500000
O O14 0.950584 0.629429 0.419658
O O15 0.196287 0.647565 0.104601
O O16 0.106361 0.500000 0.585017
#
# Coordination Sequence:
#
# PCOD9180212 Si02
#       7
#     4   8   8   8   8   8   8
#     4  10  19  38  64  94 115 156 206 258 299 368
#     4  11  25  39  62  93 129 160 202 265 313 360
#     4  11  23  41  64  91 133 180 210 235 291 377
#     4  11  24  43  69  90 118 155 213 268 322 372
#     4  10  19  31  56  89 128 164 200 247 294 356
#     4  11  23  40  62  90 125 164 203 253 313 365
#     4  11  21  37  61  91 129 168 211 244 299 364
#
# _framework density 20.034179999999999
#
# number of rings (size 3 to 8) (size 9 to 14) (size 15 to 20)
#    0.000    1.231    2.308    4.385    2.154    7.385 
#    0.000    0.000    0.000    0.923    0.000    0.000 
#    0.000    0.000    0.000    0.000    0.000    0.000 
#
# Total GULP energy -144978.045361 kJ/mol
# GULP energy per Si atom -5576.078668 kJ/mol
# Density = 1.998858 g / cm^3
# Si number density = 20.034180 Si / 1000 Ang^3
#
#
#
# Elastic Constant Matrix: (Units=GPa)
#
#
# Indices 1 2 3 4 5 6 
#
# 1 51.8136 16.0644 36.3913 0.0000 -19.9863 0.0000
# 2 16.0644 45.4462 13.2560 0.0000 -2.7433 0.0001
# 3 36.3913 13.2560 141.3645 0.0000 -25.9297 0.0001
# 4 0.0000 0.0000 0.0000 29.7485 0.0001 5.5663
# 5 -19.9863 -2.7433 -25.9297 0.0001 28.3344 -0.0001
# 6 0.0000 0.0001 0.0001 5.5663 -0.0001 17.0610
#
#
#
# Elastic Compliance Matrix: (Units=1/GPa)
#
#
# Indices 1 2 3 4 5 6 
#
# 1 0.031838 -0.008987 -0.004078 0.000000 0.017856 0.000000
# 2 -0.008987 0.025162 -0.000916 0.000000 -0.004741 0.000000
# 3 -0.004078 -0.000916 0.009212 0.000000 0.005465 0.000000
# 4 0.000000 0.000000 0.000000 0.035801 0.000000 -0.011680
# 5 0.017856 -0.004741 0.005465 0.000000 0.052430 0.000000
# 6 0.000000 0.000000 0.000000 -0.011680 0.000000 0.062424
#
#
# Mechanical properties :
#
#
# Convention : Reuss Voigt Hill
#
# Bulk Modulus (GPa) = 26.14343 41.11642 33.62992
# Shear Modulus (GPa) = 19.41166 26.55630 22.98398
#
# Velocity S-wave (km/s) = 3.11614 3.64476 3.39077
# Velocity P-wave (km/s) = 5.10145 6.18709 5.67031
#
# Compressibility (1/GPa) = 0.03825053
#
# Stress axis : x y z
#
# Youngs Moduli (GPa) = 31.40892 39.74313 108.55403
#
# Poissons Ratio (x) = 0.35716 0.44270
# Poissons Ratio (y) = 0.28227 0.09939
# Poissons Ratio (z) = 0.12809 0.03639
#
# Static dielectric constant tensor:
#      x y z
#    x 1.674580 0.000000 0.010050 
#    y 0.000000 1.703730 0.000000 
#    z 0.010050 0.000000 1.745310 
# 
# From -- ./inp_files/296775.got.cif
#   From: 2010.05.17/outbox.cif.g08.bks.cpg/sg12_149_cif.got.tgz:296775.got - 2010.06.03 13:09:07.
