data_PCOD9180518
_publ_section_title
;
Structure prediction by ZEFSAII (Michael W. Deem and Ramdas Pophale) SiO2 
 PCOD9180518
Probable space group: C 2/M
;
_chemical_formula_sum "Si O2"
_cell_formula_units_Z 36
_cell_length_a 8.113543
_cell_length_b 13.976073
_cell_length_c 12.695821
_cell_angle_alpha 90.000000
_cell_angle_beta 71.645529
_cell_angle_gamma 90.000000
_cell_volume 1366.408670
_symmetry_space_group_name_H-M "C 2/M"
_symmetry_group_IT_number 12
_symmetry_cell_setting 'monoclinic'
loop_
_space_group_symop_operation_xyz
x,y,z
-x,y,-z
-x,-y,-z
x,-y,z
1/2+x,1/2+y,z
1/2-x,1/2+y,-z
1/2-x,1/2-y,-z
1/2+x,1/2-y,z
loop_
_atom_site_type_symbol
_atom_site_label
_atom_site_fract_x
_atom_site_fract_y
_atom_site_fract_z
Si Si1 0.330049 0.882877 0.245276
Si Si2 0.700758 0.652617 0.945630
Si Si3 0.500000 0.866224 0.000000
Si Si4 0.953618 0.117105 0.391821
Si Si5 0.355691 0.885305 0.686873
O O1 0.423369 0.830103 0.128959
O O2 0.127478 0.857588 0.291106
O O3 0.444743 0.858342 0.326284
O O4 0.343508 0.000000 0.229545
O O5 0.753315 0.639290 0.814701
O O6 0.827875 0.588104 0.988433
O O7 0.500000 0.633934 0.000000
O O8 0.750000 0.750000 0.000000
O O9 0.000000 0.148889 0.500000
O O10 0.769976 0.150196 0.380922
O O11 0.947986 0.000000 0.394520
O O12 0.362246 0.000000 0.672812
#
# Coordination Sequence:
#
# PCOD9180518 Si02
#       5
#     8   8   4   8   8
#     4   9  17  29  47  74 106 137 171 213 262 317
#     4  11  21  34  51  74 107 140 178 217 262 322
#     4  10  19  32  50  72 101 138 174 212 264 320
#     4   9  17  30  49  75 108 142 177 220 267 311
#     4   9  19  33  50  76 106 139 178 220 267 314
#
# _framework density 26.346437000000002
#
# number of rings (size 3 to 8) (size 9 to 14) (size 15 to 20)
#    0.000    2.444    1.111    1.667    0.000    2.222 
#    0.000    4.444    0.000    0.000    0.000    6.222 
#    0.000    0.222    0.000    0.000    0.000    0.444 
#
# Total GULP energy -100316.782886 kJ/mol
# GULP energy per Si atom -5573.154605 kJ/mol
# Density = 2.628647 g / cm^3
# Si number density = 26.346437 Si / 1000 Ang^3
#
#
#
# Elastic Constant Matrix: (Units=GPa)
#
#
# Indices 1 2 3 4 5 6 
#
# 1 173.4023 19.9783 26.1545 0.0000 49.6297 0.0000
# 2 19.9783 82.6567 -14.6118 0.0000 0.4919 0.0000
# 3 26.1545 -14.6118 72.7410 0.0000 31.6954 0.0000
# 4 0.0000 0.0000 0.0000 13.0104 0.0000 -4.7224
# 5 49.6297 0.4919 31.6954 0.0000 57.4928 0.0000
# 6 0.0000 0.0000 0.0000 -4.7224 0.0000 -63.8398
#
#
#
# Elastic Compliance Matrix: (Units=1/GPa)
#
#
# Indices 1 2 3 4 5 6 
#
# 1 0.007947 -0.001943 -0.000350 0.000000 -0.006651 0.000000
# 2 -0.001943 0.013191 0.003510 0.000000 -0.000370 0.000000
# 3 -0.000350 0.003510 0.019031 0.000000 -0.010220 0.000000
# 4 0.000000 0.000000 0.000000 0.074852 0.000000 -0.005537
# 5 -0.006651 -0.000370 -0.010220 0.000000 0.028772 0.000000
# 6 0.000000 0.000000 0.000000 -0.005537 0.000000 -0.015255
#
#
# Mechanical properties :
#
#
# Convention : Reuss Voigt Hill
#
# Bulk Modulus (GPa) = 23.47287 43.53802 33.50544
# Shear Modulus (GPa) = 35.63660 21.15128 28.39394
#
# Velocity S-wave (km/s) = 3.68178 2.83647 3.28642
# Velocity P-wave (km/s) = 5.19641 5.22384 5.21014
#
# Compressibility (1/GPa) = 0.04260237
#
# Stress axis : x y z
#
# Youngs Moduli (GPa) = 125.83236 75.81205 52.54505
#
# Poissons Ratio (x) = 0.14731 0.01838
# Poissons Ratio (y) = 0.24450 -0.18442
# Poissons Ratio (z) = 0.04402 -0.26607
#
# Static dielectric constant tensor:
#      x y z
#    x 2.107800 0.000000 -0.004110 
#    y 0.000000 2.289530 0.000000 
#    z -0.004110 0.000000 2.023860 
# 
# From -- ./inp_files/118782.got.cif
#   From: 2010.05.17/outbox.cif.g08.bks.cpg/sg12_60_cif.got.tgz:118782.got - 2010.06.03 13:09:07.
