data_PCOD9180072
_publ_section_title
;
Structure prediction by ZEFSAII (Michael W. Deem and Ramdas Pophale) SiO2 
 PCOD9180072
Probable space group: C 2/M
;
_chemical_formula_sum "Si O2"
_cell_formula_units_Z 64
_cell_length_a 22.706237
_cell_length_b 8.706897
_cell_length_c 22.487941
_cell_angle_alpha 90.000000
_cell_angle_beta 130.999519
_cell_angle_gamma 90.000000
_cell_volume 3355.376812
_symmetry_space_group_name_H-M "C 2/M"
_symmetry_group_IT_number 12
_symmetry_cell_setting 'monoclinic'
loop_
_space_group_symop_operation_xyz
x,y,z
-x,y,-z
-x,-y,-z
x,-y,z
1/2+x,1/2+y,z
1/2-x,1/2+y,-z
1/2-x,1/2-y,-z
1/2+x,1/2-y,z
loop_
_atom_site_type_symbol
_atom_site_label
_atom_site_fract_x
_atom_site_fract_y
_atom_site_fract_z
Si Si1 0.455683 0.677199 0.652849
Si Si2 0.086988 0.686207 0.041854
Si Si3 0.740769 0.680943 0.663754
Si Si4 0.687270 0.180708 0.504929
Si Si5 0.123482 0.814027 0.809769
Si Si6 0.747761 0.187553 0.198939
Si Si7 0.094347 0.177087 0.243148
Si Si8 0.429097 0.816507 0.102758
O O1 0.457385 0.500000 0.633609
O O2 0.398948 0.771957 0.573315
O O3 0.544279 0.731013 0.722079
O O4 0.418513 0.679460 0.694232
O O5 0.084541 0.500000 0.046419
O O6 0.158995 0.741563 0.129492
O O7 0.104895 0.719231 0.984636
O O8 0.000000 0.742604 0.000000
O O9 0.726138 0.500000 0.648878
O O10 0.703823 0.761790 0.582402
O O11 0.717576 0.735488 0.714464
O O12 0.833132 0.715359 0.722841
O O13 0.750000 0.250000 0.500000
O O14 0.697140 0.000000 0.509374
O O15 0.197631 0.768475 0.819903
O O16 0.118790 0.744450 0.872491
O O17 0.121241 0.000000 0.813882
O O18 0.746013 0.000000 0.198883
O O19 0.014395 0.239444 0.162707
O O20 0.109069 0.000000 0.235631
O O21 0.437783 0.000000 0.113199
#
# Coordination Sequence:
#
# PCOD9180072 Si02
#       8
#     8   8   8   8   8   8   8   8
#     4   9  18  33  53  77 106 141 181 226 274 325
#     4   9  17  31  53  83 116 145 181 231 280 331
#     4  11  21  34  56  82 109 142 185 231 279 334
#     4  12  23  35  54  82 115 145 177 223 280 337
#     4   9  19  37  58  78 108 147 190 235 276 324
#     4   9  19  36  57  80 107 148 193 230 275 333
#     4  10  19  32  52  78 112 147 180 223 277 334
#     4  10  19  31  53  83 111 144 188 233 276 325
#
# _framework density 19.073864
#
# number of rings (size 3 to 8) (size 9 to 14) (size 15 to 20)
#    0.000    2.125    1.250    3.750    0.000    4.500 
#    0.000    1.875    0.000   12.750    0.000    0.000 
#    0.000    0.000    0.000    0.000    0.000    0.000 
#
# Total GULP energy -178579.399276 kJ/mol
# GULP energy per Si atom -5580.606227 kJ/mol
# Density = 1.903045 g / cm^3
# Si number density = 19.073864 Si / 1000 Ang^3
#
#
#
# Elastic Constant Matrix: (Units=GPa)
#
#
# Indices 1 2 3 4 5 6 
#
# 1 77.6241 10.7956 35.2131 0.0000 -3.3886 0.0000
# 2 10.7956 50.9215 37.0143 0.0000 -8.2330 0.0000
# 3 35.2131 37.0143 119.2150 0.0000 -17.6472 0.0000
# 4 0.0000 0.0000 0.0000 19.7561 0.0000 -2.9772
# 5 -3.3886 -8.2330 -17.6472 0.0000 16.7523 0.0000
# 6 0.0000 0.0000 0.0000 -2.9772 0.0000 18.9331
#
#
#
# Elastic Compliance Matrix: (Units=1/GPa)
#
#
# Indices 1 2 3 4 5 6 
#
# 1 0.014928 -0.000084 -0.004671 0.000000 -0.001942 0.000000
# 2 -0.000084 0.025712 -0.007216 0.000000 0.005018 0.000000
# 3 -0.004671 -0.007216 0.013439 0.000000 0.009666 0.000000
# 4 0.000000 0.000000 0.000000 0.051846 0.000000 0.008153
# 5 -0.001942 0.005018 0.009666 0.000000 0.071949 0.000000
# 6 0.000000 0.000000 0.000000 0.008153 0.000000 0.054100
#
#
# Mechanical properties :
#
#
# Convention : Reuss Voigt Hill
#
# Bulk Modulus (GPa) = 33.17942 45.97852 39.57897
# Shear Modulus (GPa) = 18.79976 22.07081 20.43529
#
# Velocity S-wave (km/s) = 3.14288 3.40534 3.27674
# Velocity P-wave (km/s) = 5.53202 6.29441 5.92549
#
# Compressibility (1/GPa) = 0.03013916
#
# Stress axis : x y z
#
# Youngs Moduli (GPa) = 66.98654 38.89220 74.40998
#
# Poissons Ratio (x) = 0.00325 0.34757
# Poissons Ratio (y) = 0.00560 0.53692
# Poissons Ratio (z) = 0.31289 0.28063
#
# Static dielectric constant tensor:
#      x y z
#    x 1.670570 0.000000 -0.008800 
#    y 0.000000 1.651080 0.000000 
#    z -0.008800 0.000000 1.669600 
# 
# From -- ./inp_files/324332.got.cif
#   From: 2010.05.17/outbox.cif.g08.bks.cpg/sg12_163_cif.got.tgz:324332.got - 2010.06.03 13:09:07.
