data_PCOD9180232
_publ_section_title
;
Structure prediction by ZEFSAII (Michael W. Deem and Ramdas Pophale) SiO2 
 PCOD9180232
Probable space group: C 2/M
;
_chemical_formula_sum "Si O2"
_cell_formula_units_Z 48
_cell_length_a 21.489840
_cell_length_b 14.543652
_cell_length_c 11.642860
_cell_angle_alpha 90.000000
_cell_angle_beta 37.989990
_cell_angle_gamma 90.000000
_cell_volume 2239.809993
_symmetry_space_group_name_H-M "C 2/M"
_symmetry_group_IT_number 12
_symmetry_cell_setting 'monoclinic'
loop_
_space_group_symop_operation_xyz
x,y,z
-x,y,-z
-x,-y,-z
x,-y,z
1/2+x,1/2+y,z
1/2-x,1/2+y,-z
1/2-x,1/2-y,-z
1/2+x,1/2-y,z
loop_
_atom_site_type_symbol
_atom_site_label
_atom_site_fract_x
_atom_site_fract_y
_atom_site_fract_z
Si Si1 0.800229 0.500000 0.064713
Si Si2 0.575682 0.500000 0.495390
Si Si3 0.703046 0.805670 0.825486
Si Si4 0.123290 0.000000 0.835498
Si Si5 0.195942 0.000000 0.999444
Si Si6 0.925692 0.799899 0.435719
Si Si7 0.607713 0.702996 0.777981
Si Si8 0.356011 0.703916 0.883150
O O1 0.686296 0.500000 0.280253
O O2 0.835339 0.402737 0.067299
O O3 0.801383 0.500000 0.922991
O O4 0.500000 0.500000 0.500000
O O5 0.562790 0.409888 0.588328
O O6 0.824534 0.789991 0.658984
O O7 0.675554 0.782925 0.735879
O O8 0.645828 0.728003 0.980108
O O9 0.151564 0.098917 0.735941
O O10 0.170738 0.000000 0.898234
O O11 0.000000 0.000000 0.000000
O O12 0.152506 0.905075 0.111625
O O13 0.906598 0.771280 0.333716
O O14 0.034602 0.764806 0.321553
O O15 0.500000 0.704937 0.000000
O O16 0.250000 0.750000 0.000000
#
# Coordination Sequence:
#
# PCOD9180232 Si02
#       8
#     4   4   8   4   4   8   8   8
#     4  10  22  37  59  86 121 156 204 246 300 357
#     4  10  21  35  57  93 121 149 195 258 319 354
#     4  11  23  40  61  90 120 160 203 248 302 361
#     4  10  19  31  58  91 119 152 193 249 313 366
#     4  12  20  37  62  89 123 155 193 258 307 359
#     4  11  23  38  61  89 124 155 200 255 301 358
#     4  11  20  38  61  88 122 156 203 246 305 360
#     4  12  23  38  64  91 120 160 198 245 308 361
#
# _framework density 21.430388000000001
#
# number of rings (size 3 to 8) (size 9 to 14) (size 15 to 20)
#    0.000    1.000    5.000    3.500    2.333    0.000 
#    0.000    0.417    0.000    5.000    0.000    0.000 
#    0.000    0.000    0.000    0.000    0.000    0.000 
#
# Total GULP energy -133605.651554 kJ/mol
# GULP energy per Si atom -5566.902148 kJ/mol
# Density = 2.138161 g / cm^3
# Si number density = 21.430388 Si / 1000 Ang^3
#
#
#
# Elastic Constant Matrix: (Units=GPa)
#
#
# Indices 1 2 3 4 5 6 
#
# 1 121.3439 28.3344 9.2043 0.0000 4.7161 0.0000
# 2 28.3344 79.2269 12.2885 0.0000 -6.1752 0.0000
# 3 9.2043 12.2885 76.9733 0.0000 -8.6808 0.0000
# 4 0.0000 0.0000 0.0000 19.3036 0.0000 7.9620
# 5 4.7161 -6.1752 -8.6808 0.0000 29.8724 0.0000
# 6 0.0000 0.0000 0.0000 7.9620 0.0000 35.5517
#
#
#
# Elastic Compliance Matrix: (Units=1/GPa)
#
#
# Indices 1 2 3 4 5 6 
#
# 1 0.009176 -0.003338 -0.000833 0.000000 -0.002381 0.000000
# 2 -0.003338 0.014291 -0.001540 0.000000 0.003034 0.000000
# 3 -0.000833 -0.001540 0.013767 0.000000 0.003814 0.000000
# 4 0.000000 0.000000 0.000000 0.057076 0.000000 -0.012782
# 5 -0.002381 0.003034 0.003814 0.000000 0.035587 0.000000
# 6 0.000000 0.000000 0.000000 -0.012782 0.000000 0.030991
#
#
# Mechanical properties :
#
#
# Convention : Reuss Voigt Hill
#
# Bulk Modulus (GPa) = 38.74161 41.91096 40.32629
# Shear Modulus (GPa) = 27.63731 32.12666 29.88199
#
# Velocity S-wave (km/s) = 3.59504 3.87604 3.73818
# Velocity P-wave (km/s) = 5.94555 6.29530 6.12292
#
# Compressibility (1/GPa) = 0.02581204
#
# Stress axis : x y z
#
# Youngs Moduli (GPa) = 108.97734 69.97324 72.63696
#
# Poissons Ratio (x) = 0.23358 0.06050
# Poissons Ratio (y) = 0.36378 0.11188
# Poissons Ratio (z) = 0.09076 0.10778
#
# Static dielectric constant tensor:
#      x y z
#    x 1.925770 0.000000 -0.017430 
#    y 0.000000 1.808390 0.000000 
#    z -0.017430 0.000000 1.812860 
# 
# From -- ./inp_files/167617.got.cif
#   From: 2010.05.17/outbox.cif.g08.bks.cpg/sg12_84_cif.got.tgz:167617.got - 2010.06.03 13:09:07.
