data_PCOD9180686
_publ_section_title
;
Structure prediction by ZEFSAII (Michael W. Deem and Ramdas Pophale) SiO2 
 PCOD9180686
Probable space group: C 2/M
;
_chemical_formula_sum "Si O2"
_cell_formula_units_Z 56
_cell_length_a 7.250661
_cell_length_b 17.915625
_cell_length_c 20.781304
_cell_angle_alpha 90.000000
_cell_angle_beta 118.560107
_cell_angle_gamma 90.000000
_cell_volume 2371.008891
_symmetry_space_group_name_H-M "C 2/M"
_symmetry_group_IT_number 12
_symmetry_cell_setting 'monoclinic'
loop_
_space_group_symop_operation_xyz
x,y,z
-x,y,-z
-x,-y,-z
x,-y,z
1/2+x,1/2+y,z
1/2-x,1/2+y,-z
1/2-x,1/2-y,-z
1/2+x,1/2-y,z
loop_
_atom_site_type_symbol
_atom_site_label
_atom_site_fract_x
_atom_site_fract_y
_atom_site_fract_z
Si Si1 0.873400 0.638263 0.418463
Si Si2 0.864685 0.183628 0.140753
Si Si3 0.894209 0.081163 0.732498
Si Si4 0.063309 0.643625 0.856126
Si Si5 0.762913 0.582918 0.990060
Si Si6 0.042485 0.191211 0.580963
Si Si7 0.797420 0.416824 0.702679
O O1 0.812431 0.591795 0.345579
O O2 0.964305 0.719323 0.415042
O O3 0.651707 0.660245 0.412158
O O4 0.000000 0.604423 0.500000
O O5 0.859805 0.272336 0.141904
O O6 0.657121 0.154581 0.142457
O O7 0.854854 0.148068 0.068185
O O8 0.061093 0.148834 0.211784
O O9 0.096561 0.080893 0.718091
O O10 0.892943 0.000000 0.764508
O O11 0.998439 0.602300 0.779939
O O12 0.211983 0.600193 0.930388
O O13 0.675730 0.500000 0.964327
O O14 0.000000 0.582187 0.000000
O O15 0.243309 0.149009 0.643725
O O16 0.000000 0.172298 0.500000
O O17 0.811137 0.500000 0.676527
#
# Coordination Sequence:
#
# PCOD9180686 Si02
#       7
#     8   8   8   8   8   8   8
#     4  10  19  32  51  72  96 126 160 199 241 288
#     4  10  19  32  52  75 100 129 162 201 240 284
#     4   9  18  32  50  72  97 127 163 201 241 284
#     4  10  19  32  52  75 100 129 162 201 240 284
#     4   9  17  30  51  77 100 127 166 204 236 277
#     4  10  19  32  51  72  96 126 160 199 241 288
#     4   9  18  32  50  72  97 127 163 201 241 284
#
# _framework density 23.618635999999999
#
# number of rings (size 3 to 8) (size 9 to 14) (size 15 to 20)
#    0.000    2.429    0.000    3.857    0.000    4.000 
#    0.000    1.429    0.000   10.286    0.000    0.000 
#    0.000    0.000    0.000    0.000    0.000    0.000 
#
# Total GULP energy -156520.324450 kJ/mol
# GULP energy per Si atom -5590.011588 kJ/mol
# Density = 2.356488 g / cm^3
# Si number density = 23.618636 Si / 1000 Ang^3
#
#
#
# Elastic Constant Matrix: (Units=GPa)
#
#
# Indices 1 2 3 4 5 6 
#
# 1 53.4885 -12.2918 -9.4314 0.0000 2.6118 0.0000
# 2 -12.2918 88.7146 39.9647 0.0000 -5.1830 0.0000
# 3 -9.4314 39.9647 119.9427 0.0000 -5.3618 0.0000
# 4 0.0000 0.0000 0.0000 -43.3370 0.0000 -5.1320
# 5 2.6118 -5.1830 -5.3618 0.0000 13.8949 0.0000
# 6 0.0000 0.0000 0.0000 -5.1320 0.0000 20.4640
#
#
#
# Elastic Compliance Matrix: (Units=1/GPa)
#
#
# Indices 1 2 3 4 5 6 
#
# 1 0.019454 0.002245 0.000667 0.000000 -0.002562 0.000000
# 2 0.002245 0.013672 -0.004243 0.000000 0.003041 0.000000
# 3 0.000667 -0.004243 0.009898 0.000000 0.002111 0.000000
# 4 0.000000 0.000000 0.000000 -0.022409 0.000000 -0.005620
# 5 -0.002562 0.003041 0.002111 0.000000 0.074399 0.000000
# 6 0.000000 0.000000 0.000000 -0.005620 0.000000 0.047457
#
#
# Mechanical properties :
#
#
# Convention : Reuss Voigt Hill
#
# Bulk Modulus (GPa) = 24.77513 33.18098 28.97805
# Shear Modulus (GPa) = 31.52845 14.46467 22.99656
#
# Velocity S-wave (km/s) = 3.65759 2.47741 3.12374
# Velocity P-wave (km/s) = 5.32444 4.71832 5.03052
#
# Compressibility (1/GPa) = 0.04036306
#
# Stress axis : x y z
#
# Youngs Moduli (GPa) = 51.40254 73.14058 101.03108
#
# Poissons Ratio (x) = -0.16422 -0.06740
# Poissons Ratio (y) = -0.11541 0.42869
# Poissons Ratio (z) = -0.03429 0.31034
#
# Static dielectric constant tensor:
#      x y z
#    x 1.987860 0.000000 0.001300 
#    y 0.000000 1.848080 0.000000 
#    z 0.001300 0.000000 1.903860 
# 
# From -- ./inp_files/300662.got.cif
#   From: 2010.05.17/outbox.cif.g08.bks.cpg/sg12_151_cif.got.tgz:300662.got - 2010.06.03 13:09:07.
