data_PCOD9180538
_publ_section_title
;
Structure prediction by ZEFSAII (Michael W. Deem and Ramdas Pophale) SiO2 
 PCOD9180538
Probable space group: C 2/M
;
_chemical_formula_sum "Si O2"
_cell_formula_units_Z 56
_cell_length_a 23.502189
_cell_length_b 9.094316
_cell_length_c 15.129207
_cell_angle_alpha 90.000000
_cell_angle_beta 91.440380
_cell_angle_gamma 90.000000
_cell_volume 3232.639468
_symmetry_space_group_name_H-M "C 2/M"
_symmetry_group_IT_number 12
_symmetry_cell_setting 'monoclinic'
loop_
_space_group_symop_operation_xyz
x,y,z
-x,y,-z
-x,-y,-z
x,-y,z
1/2+x,1/2+y,z
1/2-x,1/2+y,-z
1/2-x,1/2-y,-z
1/2+x,1/2-y,z
loop_
_atom_site_type_symbol
_atom_site_label
_atom_site_fract_x
_atom_site_fract_y
_atom_site_fract_z
Si Si1 0.296870 0.673245 0.309189
Si Si2 0.833250 0.323207 0.658196
Si Si3 0.886948 0.667718 0.201446
Si Si4 0.520168 0.324059 0.904391
Si Si5 0.878857 0.825301 0.481917
Si Si6 0.028141 0.669969 0.625374
Si Si7 0.936773 0.175312 0.737999
O O1 0.298267 0.500000 0.289121
O O2 0.231794 0.716994 0.322800
O O3 0.329263 0.757994 0.232860
O O4 0.333230 0.693517 0.400542
O O5 0.837522 0.500000 0.652596
O O6 0.852854 0.250118 0.567105
O O7 0.877069 0.258519 0.731289
O O8 0.877442 0.500000 0.175540
O O9 0.928508 0.669910 0.289103
O O10 0.921693 0.752032 0.127465
O O11 0.527854 0.500000 0.906923
O O12 0.471989 0.293384 0.828648
O O13 0.500000 0.274034 0.000000
O O14 0.936590 0.746195 0.451535
O O15 0.887924 0.000000 0.495192
O O16 0.013336 0.500000 0.606131
O O17 0.974767 0.762536 0.658470
O O18 0.929923 0.000000 0.729183
#
# Coordination Sequence:
#
# PCOD9180538 Si02
#       7
#     8   8   8   8   8   8   8
#     4   9  19  34  51  70  97 134 172 207 242 285
#     4  11  22  34  48  69  99 135 170 205 247 289
#     4   9  17  29  50  78 103 127 158 200 245 287
#     4   9  18  34  57  81 103 127 155 192 242 299
#     4  10  19  32  50  72  96 127 171 215 249 282
#     4   9  17  31  49  70  98 130 163 202 248 294
#     4  10  20  34  51  73 100 129 162 199 244 297
#
# _framework density 17.323305999999999
#
# number of rings (size 3 to 8) (size 9 to 14) (size 15 to 20)
#    0.000    2.429    0.000    2.571    0.000    6.571 
#    0.000    2.857    0.000    0.857    0.000    0.000 
#    0.000    0.000    0.000    0.000    0.000    0.000 
#
# Total GULP energy -156286.117868 kJ/mol
# GULP energy per Si atom -5581.647067 kJ/mol
# Density = 1.728388 g / cm^3
# Si number density = 17.323306 Si / 1000 Ang^3
#
#
#
# Elastic Constant Matrix: (Units=GPa)
#
#
# Indices 1 2 3 4 5 6 
#
# 1 99.9109 52.4122 49.9598 0.0000 -19.2908 0.0000
# 2 52.4122 79.9371 52.9971 0.0000 -13.6827 0.0000
# 3 49.9598 52.9971 110.1447 0.0000 -27.6581 0.0000
# 4 0.0000 0.0000 0.0000 21.1014 0.0000 -4.2945
# 5 -19.2908 -13.6827 -27.6581 0.0000 19.5349 0.0000
# 6 0.0000 0.0000 0.0000 -4.2945 0.0000 28.6776
#
#
#
# Elastic Compliance Matrix: (Units=1/GPa)
#
#
# Indices 1 2 3 4 5 6 
#
# 1 0.016934 -0.008766 -0.001251 0.000000 0.008812 0.000000
# 2 -0.008766 0.022911 -0.008056 0.000000 -0.004015 0.000000
# 3 -0.001251 -0.008056 0.018302 0.000000 0.019035 0.000000
# 4 0.000000 0.000000 0.000000 0.048880 0.000000 0.007320
# 5 0.008812 -0.004015 0.019035 0.000000 0.084031 0.000000
# 6 0.000000 0.000000 0.000000 0.007320 0.000000 0.035967
#
#
# Mechanical properties :
#
#
# Convention : Reuss Voigt Hill
#
# Bulk Modulus (GPa) = 45.44816 66.74789 56.09802
# Shear Modulus (GPa) = 18.48400 22.83769 20.66084
#
# Velocity S-wave (km/s) = 3.27004 3.63481 3.45724
# Velocity P-wave (km/s) = 6.36787 7.49867 6.95629
#
# Compressibility (1/GPa) = 0.02200309
#
# Stress axis : x y z
#
# Youngs Moduli (GPa) = 59.05247 43.64702 54.63785
#
# Poissons Ratio (x) = 0.38260 0.06833
# Poissons Ratio (y) = 0.51764 0.44016
# Poissons Ratio (z) = 0.07385 0.35162
#
# Static dielectric constant tensor:
#      x y z
#    x 1.592670 0.000000 0.022880 
#    y 0.000000 1.578660 0.000000 
#    z 0.022880 0.000000 1.579770 
# 
# From -- ./inp_files/287031.got.cif
#   From: 2010.05.17/outbox.cif.g08.bks.cpg/sg12_144_cif.got.tgz:287031.got - 2010.06.03 13:09:07.
