data_PCOD9180901
_publ_section_title
;
Structure prediction by ZEFSAII (Michael W. Deem and Ramdas Pophale) SiO2 
 PCOD9180901
Probable space group: C 2/M
;
_chemical_formula_sum "Si O2"
_cell_formula_units_Z 60
_cell_length_a 22.715484
_cell_length_b 7.890798
_cell_length_c 20.236040
_cell_angle_alpha 90.000000
_cell_angle_beta 47.612079
_cell_angle_gamma 90.000000
_cell_volume 2679.021945
_symmetry_space_group_name_H-M "C 2/M"
_symmetry_group_IT_number 12
_symmetry_cell_setting 'monoclinic'
loop_
_space_group_symop_operation_xyz
x,y,z
-x,y,-z
-x,-y,-z
x,-y,z
1/2+x,1/2+y,z
1/2-x,1/2+y,-z
1/2-x,1/2-y,-z
1/2+x,1/2-y,z
loop_
_atom_site_type_symbol
_atom_site_label
_atom_site_fract_x
_atom_site_fract_y
_atom_site_fract_z
Si Si1 0.202629 0.295700 0.130339
Si Si2 0.118747 0.804194 0.602953
Si Si3 0.452330 0.809231 0.684219
Si Si4 0.158945 0.301245 0.430618
Si Si5 0.836596 0.207416 0.285092
Si Si6 0.867133 0.302074 0.959384
Si Si7 0.523171 0.302255 0.911939
Si Si8 0.000000 0.246991 0.500000
O O1 0.211984 0.500000 0.124221
O O2 0.136824 0.246104 0.234260
O O3 0.163489 0.244745 0.089526
O O4 0.291281 0.222480 0.064961
O O5 0.157330 0.709596 0.511470
O O6 0.141570 0.735477 0.657361
O O7 0.023284 0.792659 0.664881
O O8 0.143496 0.000000 0.580181
O O9 0.472457 0.819927 0.591695
O O10 0.456435 0.000000 0.708916
O O11 0.142418 0.500000 0.425577
O O12 0.245216 0.250845 0.339536
O O13 0.086963 0.186119 0.458550
O O14 0.901030 0.270736 0.183876
O O15 0.840865 0.000000 0.283406
O O16 0.886448 0.500000 0.940153
O O17 0.945278 0.208647 0.925123
O O18 0.542763 0.500000 0.909213
O O19 0.500000 0.224076 0.000000
#
# Coordination Sequence:
#
# PCOD9180901 Si02
#       8
#     8   8   8   8   8   8   8   4
#     4   9  19  34  55  82 107 137 178 219 259 312
#     4  10  19  32  51  77 106 134 167 211 262 307
#     4  10  19  33  53  77 104 137 176 212 252 302
#     4  10  19  34  53  74 103 136 172 210 252 306
#     4   9  19  34  54  78 102 131 170 216 261 305
#     4  10  20  35  55  80 110 139 170 217 273 317
#     4  10  21  37  56  77 102 138 182 222 263 314
#     4  10  19  32  53  78 103 134 169 210 253 296
#
# _framework density 22.396232000000001
#
# number of rings (size 3 to 8) (size 9 to 14) (size 15 to 20)
#    0.000    2.267    0.000    4.000    0.000    2.400 
#    0.000   10.000    0.000    3.200    0.000    0.000 
#    0.000    0.000    0.000    0.000    0.000    0.000 
#
# Total GULP energy -167299.927396 kJ/mol
# GULP energy per Si atom -5576.664247 kJ/mol
# Density = 2.234526 g / cm^3
# Si number density = 22.396232 Si / 1000 Ang^3
#
#
#
# Elastic Constant Matrix: (Units=GPa)
#
#
# Indices 1 2 3 4 5 6 
#
# 1 86.7573 9.1114 70.9780 -0.0059 -9.7765 -0.0002
# 2 9.1114 37.3555 5.2795 -0.0088 0.1810 0.0006
# 3 70.9780 5.2795 159.8067 -0.0006 -38.7003 -0.0002
# 4 -0.0059 -0.0088 -0.0006 26.5134 0.0056 1.9987
# 5 -9.7765 0.1810 -38.7003 0.0056 25.0346 0.0003
# 6 -0.0002 0.0006 -0.0002 1.9987 0.0003 4.8188
#
#
#
# Elastic Compliance Matrix: (Units=1/GPa)
#
#
# Indices 1 2 3 4 5 6 
#
# 1 0.019713 -0.003233 -0.010835 0.000005 -0.009028 -0.000001
# 2 -0.003233 0.027524 0.000276 0.000009 -0.001035 -0.000007
# 3 -0.010835 0.000276 0.016041 -0.000006 0.020563 0.000001
# 4 0.000005 0.000009 -0.000006 0.038934 -0.000017 -0.016149
# 5 -0.009028 -0.001035 0.020563 -0.000017 0.068215 0.000003
# 6 -0.000001 -0.000007 0.000001 -0.016149 0.000003 0.214219
#
#
# Mechanical properties :
#
#
# Convention : Reuss Voigt Hill
#
# Bulk Modulus (GPa) = 28.01592 50.51749 39.26670
# Shear Modulus (GPa) = 11.78888 24.51008 18.14948
#
# Velocity S-wave (km/s) = 2.29678 3.31174 2.84981
# Velocity P-wave (km/s) = 4.42380 6.10153 5.32910
#
# Compressibility (1/GPa) = 0.03569400
#
# Stress axis : x y z
#
# Youngs Moduli (GPa) = 50.72822 36.33138 62.34182
#
# Poissons Ratio (x) = 0.11746 0.67547
# Poissons Ratio (y) = 0.16401 -0.01721
# Poissons Ratio (z) = 0.54963 -0.01003
#
# Static dielectric constant tensor:
#      x y z
#    x 1.803870 0.000000 -0.000410 
#    y 0.000000 1.820350 0.000000 
#    z -0.000410 0.000000 1.843540 
# 
# From -- ./inp_files/320486.got.cif
#   From: 2010.05.17/outbox.cif.g08.bks.cpg/sg12_161_cif.got.tgz:320486.got - 2010.06.03 13:09:07.
