data_PCOD9180069
_publ_section_title
;
Structure prediction by ZEFSAII (Michael W. Deem and Ramdas Pophale) SiO2 
 PCOD9180069
Probable space group: C 2/M
;
_chemical_formula_sum "Si O2"
_cell_formula_units_Z 64
_cell_length_a 23.525040
_cell_length_b 9.093576
_cell_length_c 16.304393
_cell_angle_alpha 90.000000
_cell_angle_beta 91.626819
_cell_angle_gamma 90.000000
_cell_volume 3486.539763
_symmetry_space_group_name_H-M "C 2/M"
_symmetry_group_IT_number 12
_symmetry_cell_setting 'monoclinic'
loop_
_space_group_symop_operation_xyz
x,y,z
-x,y,-z
-x,-y,-z
x,-y,z
1/2+x,1/2+y,z
1/2-x,1/2+y,-z
1/2-x,1/2-y,-z
1/2+x,1/2-y,z
loop_
_atom_site_type_symbol
_atom_site_label
_atom_site_fract_x
_atom_site_fract_y
_atom_site_fract_z
Si Si1 0.759005 0.322580 0.088206
Si Si2 0.920072 0.824222 0.669515
Si Si3 0.834695 0.673400 0.554597
Si Si4 0.723546 0.825233 0.619702
Si Si5 0.153404 0.321015 0.776771
Si Si6 0.140475 0.823978 0.163116
Si Si7 0.475501 0.172894 0.248320
Si Si8 0.461669 0.827775 0.923740
O O1 0.760232 0.500000 0.079549
O O2 0.816236 0.274988 0.137741
O O3 0.704910 0.284926 0.143542
O O4 0.750000 0.250000 0.000000
O O5 0.890223 0.755496 0.589235
O O6 0.881196 0.779965 0.747211
O O7 0.982401 0.761260 0.690915
O O8 0.920958 0.000000 0.664922
O O9 0.840011 0.500000 0.569487
O O10 0.780628 0.738169 0.601337
O O11 0.819351 0.695826 0.458443
O O12 0.693475 0.780152 0.702324
O O13 0.737226 0.000000 0.624910
O O14 0.151478 0.500000 0.778425
O O15 0.089069 0.271653 0.759268
O O16 0.096979 0.754794 0.096082
O O17 0.135892 0.000000 0.159258
O O18 0.502062 0.182871 0.158290
O O19 0.475465 0.000000 0.271529
O O20 0.449395 0.000000 0.939104
O O21 0.500000 0.771176 0.000000
#
# Coordination Sequence:
#
# PCOD9180069 Si02
#       8
#     8   8   8   8   8   8   8   8
#     4  10  21  35  52  75 101 133 171 209 254 305
#     4  10  19  34  55  76 102 137 173 212 260 307
#     4  10  19  31  53  83 110 132 168 218 261 303
#     4   9  18  34  55  80 106 139 175 209 254 307
#     4   9  18  35  57  74 100 141 177 208 250 310
#     4   9  19  34  50  71  98 131 170 207 248 304
#     4   9  18  33  52  75 100 133 176 216 255 304
#     4   9  18  30  49  75  98 124 164 214 262 300
#
# _framework density 18.356309
#
# number of rings (size 3 to 8) (size 9 to 14) (size 15 to 20)
#    0.000    2.625    0.000    1.500    1.750    3.750 
#    0.000    3.750    0.000    3.750    0.000    0.000 
#    0.000    0.000    0.000    0.000    0.000    0.000 
#
# Total GULP energy -178515.204584 kJ/mol
# GULP energy per Si atom -5578.600143 kJ/mol
# Density = 1.831453 g / cm^3
# Si number density = 18.356309 Si / 1000 Ang^3
#
#
#
# Elastic Constant Matrix: (Units=GPa)
#
#
# Indices 1 2 3 4 5 6 
#
# 1 97.3101 30.8508 41.7012 0.0000 25.3401 0.0000
# 2 30.8508 25.8989 31.8933 0.0000 14.2795 0.0000
# 3 41.7012 31.8933 64.6098 0.0000 23.9475 0.0000
# 4 0.0000 0.0000 0.0000 22.8722 0.0000 6.1160
# 5 25.3401 14.2795 23.9475 0.0000 29.5016 0.0000
# 6 0.0000 0.0000 0.0000 6.1160 0.0000 27.1215
#
#
#
# Elastic Compliance Matrix: (Units=1/GPa)
#
#
# Indices 1 2 3 4 5 6 
#
# 1 0.017457 -0.016086 -0.000937 0.000000 -0.006448 0.000000
# 2 -0.016086 0.116217 -0.044709 0.000000 -0.006143 0.000000
# 3 -0.000937 -0.044709 0.042671 0.000000 -0.012193 0.000000
# 4 0.000000 0.000000 0.000000 0.046527 0.000000 -0.010492
# 5 -0.006448 -0.006143 -0.012193 0.000000 0.052306 0.000000
# 6 0.000000 0.000000 0.000000 -0.010492 0.000000 0.039237
#
#
# Mechanical properties :
#
#
# Convention : Reuss Voigt Hill
#
# Bulk Modulus (GPa) = 18.91000 44.07882 31.49441
# Shear Modulus (GPa) = 10.97684 21.45729 16.21707
#
# Velocity S-wave (km/s) = 2.44803 3.42268 2.97553
# Velocity P-wave (km/s) = 4.27954 6.29957 5.38512
#
# Compressibility (1/GPa) = 0.05288207
#
# Stress axis : x y z
#
# Youngs Moduli (GPa) = 57.28445 8.60458 23.43517
#
# Poissons Ratio (x) = 0.13841 0.02195
# Poissons Ratio (y) = 0.92147 1.04776
# Poissons Ratio (z) = 0.05366 0.38470
#
# Static dielectric constant tensor:
#      x y z
#    x 1.631750 0.000000 0.007790 
#    y 0.000000 1.617940 0.000000 
#    z 0.007790 0.000000 1.632330 
# 
# From -- ./inp_files/238653.got.cif
#   From: 2010.05.17/outbox.cif.g08.bks.cpg/sg12_120_cif.got.tgz:238653.got - 2010.06.03 13:09:07.
