data_PCOD9180886
_publ_section_title
;
Structure prediction by ZEFSAII (Michael W. Deem and Ramdas Pophale) SiO2 
 PCOD9180886
Probable space group: C 2/M
;
_chemical_formula_sum "Si O2"
_cell_formula_units_Z 56
_cell_length_a 29.319673
_cell_length_b 7.644873
_cell_length_c 12.103840
_cell_angle_alpha 90.000000
_cell_angle_beta 66.197141
_cell_angle_gamma 90.000000
_cell_volume 2482.246822
_symmetry_space_group_name_H-M "C 2/M"
_symmetry_group_IT_number 12
_symmetry_cell_setting 'monoclinic'
loop_
_space_group_symop_operation_xyz
x,y,z
-x,y,-z
-x,-y,-z
x,-y,z
1/2+x,1/2+y,z
1/2-x,1/2+y,-z
1/2-x,1/2-y,-z
1/2+x,1/2-y,z
loop_
_atom_site_type_symbol
_atom_site_label
_atom_site_fract_x
_atom_site_fract_y
_atom_site_fract_z
Si Si1 0.171132 0.201719 0.016472
Si Si2 0.015232 0.288386 0.214623
Si Si3 0.350106 0.707807 0.563886
Si Si4 0.580351 0.200139 0.960430
Si Si5 0.052680 0.207053 0.407359
Si Si6 0.903904 0.710808 0.299265
Si Si7 0.775406 0.787407 0.813047
O O1 0.187742 0.263508 0.121890
O O2 0.155639 0.000000 0.041523
O O3 0.127224 0.299213 0.996963
O O4 0.221334 0.214442 0.894418
O O5 0.015806 0.500000 0.212331
O O6 0.051207 0.229297 0.277461
O O7 0.958341 0.231901 0.291112
O O8 0.035442 0.223264 0.076986
O O9 0.349448 0.500000 0.583609
O O10 0.398736 0.780990 0.580406
O O11 0.360440 0.734557 0.424827
O O12 0.300453 0.771017 0.674047
O O13 0.596651 0.275686 0.826627
O O14 0.565428 0.000000 0.950324
O O15 0.000000 0.283716 0.500000
O O16 0.052027 0.000000 0.432526
O O17 0.902515 0.500000 0.300576
O O18 0.770795 0.000000 0.821370
#
# Coordination Sequence:
#
# PCOD9180886 Si02
#       7
#     8   8   8   8   8   8   8
#     4  10  20  36  59  85 108 132 173 222 265 316
#     4  10  20  34  54  78 105 141 184 224 261 309
#     4  10  20  35  54  78 109 145 178 211 262 320
#     4  10  21  37  55  76 106 144 180 219 270 314
#     4  10  19  32  51  76 110 143 170 211 266 315
#     4  10  21  36  53  75 107 144 183 223 259 306
#     4   9  19  36  58  82 110 139 168 212 270 322
#
# _framework density 22.560206999999998
#
# number of rings (size 3 to 8) (size 9 to 14) (size 15 to 20)
#    0.000    2.143    1.429    1.714    0.000    6.000 
#    0.000    0.714    0.000    2.571    0.000    0.000 
#    0.000    0.000    0.000    0.000    0.000    0.000 
#
# Total GULP energy -156372.457548 kJ/mol
# GULP energy per Si atom -5584.730627 kJ/mol
# Density = 2.250886 g / cm^3
# Si number density = 22.560207 Si / 1000 Ang^3
#
#
#
# Elastic Constant Matrix: (Units=GPa)
#
#
# Indices 1 2 3 4 5 6 
#
# 1 18.4029 -3.4982 -1.3718 0.0000 -2.6056 0.0000
# 2 -3.4982 44.4940 -8.8157 0.0000 -4.4679 0.0000
# 3 -1.3718 -8.8157 158.9222 0.0000 -13.1344 0.0000
# 4 0.0000 0.0000 0.0000 21.1939 0.0000 3.0492
# 5 -2.6056 -4.4679 -13.1344 0.0000 25.3175 0.0000
# 6 0.0000 0.0000 0.0000 3.0492 0.0000 14.5069
#
#
#
# Elastic Compliance Matrix: (Units=1/GPa)
#
#
# Indices 1 2 3 4 5 6 
#
# 1 0.056551 0.005482 0.001414 0.000000 0.007521 0.000000
# 2 0.005482 0.023846 0.001844 0.000000 0.005729 0.000000
# 3 0.001414 0.001844 0.006735 0.000000 0.003965 0.000000
# 4 0.000000 0.000000 0.000000 0.048655 0.000000 -0.010227
# 5 0.007521 0.005729 0.003965 0.000000 0.043340 0.000000
# 6 0.000000 0.000000 0.000000 -0.010227 0.000000 0.071082
#
#
# Mechanical properties :
#
#
# Convention : Reuss Voigt Hill
#
# Bulk Modulus (GPa) = 9.55929 21.60529 15.58229
# Shear Modulus (GPa) = 18.68448 27.90398 23.29423
#
# Velocity S-wave (km/s) = 2.88098 3.52073 3.21680
# Velocity P-wave (km/s) = 3.91320 5.11125 4.55181
#
# Compressibility (1/GPa) = 0.10461028
#
# Stress axis : x y z
#
# Youngs Moduli (GPa) = 17.68301 41.93491 148.48862
#
# Poissons Ratio (x) = -0.22987 -0.20993
# Poissons Ratio (y) = -0.09693 -0.27375
# Poissons Ratio (z) = -0.02500 -0.07731
#
# Static dielectric constant tensor:
#      x y z
#    x 1.810120 0.000000 -0.000670 
#    y 0.000000 1.855300 0.000000 
#    z -0.000670 0.000000 1.889470 
# 
# From -- ./inp_files/181118.got.cif
#   From: 2010.05.17/outbox.cif.g08.bks.cpg/sg12_91_cif.got.tgz:181118.got - 2010.06.03 13:09:07.
