data_PCOD9180646
_publ_section_title
;
Structure prediction by ZEFSAII (Michael W. Deem and Ramdas Pophale) SiO2 
 PCOD9180646
Probable space group: C 2/M
;
_chemical_formula_sum "Si O2"
_cell_formula_units_Z 56
_cell_length_a 15.021707
_cell_length_b 13.697667
_cell_length_c 19.371968
_cell_angle_alpha 90.000000
_cell_angle_beta 139.557821
_cell_angle_gamma 90.000000
_cell_volume 2585.653768
_symmetry_space_group_name_H-M "C 2/M"
_symmetry_group_IT_number 12
_symmetry_cell_setting 'monoclinic'
loop_
_space_group_symop_operation_xyz
x,y,z
-x,y,-z
-x,-y,-z
x,-y,z
1/2+x,1/2+y,z
1/2-x,1/2+y,-z
1/2-x,1/2-y,-z
1/2+x,1/2-y,z
loop_
_atom_site_type_symbol
_atom_site_label
_atom_site_fract_x
_atom_site_fract_y
_atom_site_fract_z
Si Si1 0.352457 0.115817 0.602173
Si Si2 0.157971 0.179988 0.091122
Si Si3 0.342121 0.107771 0.955905
Si Si4 0.605605 0.388698 0.920539
Si Si5 0.304284 0.307925 0.741621
Si Si6 0.377643 0.765460 0.482006
Si Si7 0.913346 0.609360 0.788859
O O1 0.412723 0.171693 0.571013
O O2 0.211926 0.173712 0.541731
O O3 0.445052 0.124877 0.726184
O O4 0.331256 0.000000 0.576772
O O5 0.233437 0.149721 0.205561
O O6 0.147644 0.297232 0.084432
O O7 0.199523 0.148637 0.039372
O O8 0.000000 0.142707 0.000000
O O9 0.456249 0.115186 0.083667
O O10 0.355037 0.000000 0.931063
O O11 0.195628 0.113958 0.905743
O O12 0.568074 0.500000 0.913138
O O13 0.465915 0.329846 0.829674
O O14 0.220726 0.333316 0.624470
O O15 0.301481 0.190353 0.741708
O O16 0.500000 0.740590 0.500000
O O17 0.857406 0.500000 0.761195
#
# Coordination Sequence:
#
# PCOD9180646 Si02
#       7
#     8   8   8   8   8   8   8
#     4   9  20  40  63  88 120 153 192 246 303 352
#     4  10  19  32  50  78 106 148 181 221 269 325
#     4  10  19  32  53  81 111 144 182 221 265 331
#     4  10  21  35  50  74 111 151 186 221 268 327
#     4  10  21  36  54  78 110 147 181 230 285 331
#     4  10  22  41  62  89 115 152 199 251 299 353
#     4   9  17  32  56  82 110 145 182 225 282 339
#
# _framework density 21.657965999999998
#
# number of rings (size 3 to 8) (size 9 to 14) (size 15 to 20)
#    0.000    2.286    2.857    0.429    0.000    5.714 
#    5.143    0.000    0.000    0.000    0.000    0.000 
#    0.000    0.000    0.000    0.000    0.000    0.000 
#
# Total GULP energy -155986.821751 kJ/mol
# GULP energy per Si atom -5570.957920 kJ/mol
# Density = 2.160867 g / cm^3
# Si number density = 21.657966 Si / 1000 Ang^3
#
#
#
# Elastic Constant Matrix: (Units=GPa)
#
#
# Indices 1 2 3 4 5 6 
#
# 1 95.9904 7.5091 12.6590 0.0000 -6.4426 0.0000
# 2 7.5091 60.5462 1.5208 0.0000 -2.0538 0.0000
# 3 12.6590 1.5208 63.2163 0.0000 -21.7458 0.0000
# 4 0.0000 0.0000 0.0000 -4.2112 0.0000 7.9868
# 5 -6.4426 -2.0538 -21.7458 0.0000 36.0572 0.0000
# 6 0.0000 0.0000 0.0000 7.9868 0.0000 4.3160
#
#
#
# Elastic Compliance Matrix: (Units=1/GPa)
#
#
# Indices 1 2 3 4 5 6 
#
# 1 0.010814 -0.001269 -0.001887 0.000000 0.000722 0.000000
# 2 -0.001269 0.016698 0.000128 0.000000 0.000802 0.000000
# 3 -0.001887 0.000128 0.020289 0.000000 0.011906 0.000000
# 4 0.000000 0.000000 0.000000 -0.052657 0.000000 0.097442
# 5 0.000722 0.000802 0.011906 0.000000 0.035089 0.000000
# 6 0.000000 0.000000 0.000000 0.097442 0.000000 0.051379
#
#
# Mechanical properties :
#
#
# Convention : Reuss Voigt Hill
#
# Bulk Modulus (GPa) = 23.95454 29.23674 26.59564
# Shear Modulus (GPa) = 49.22113 20.43667 34.82890
#
# Velocity S-wave (km/s) = 4.77241 3.07516 4.01450
# Velocity P-wave (km/s) = 6.43834 5.11247 5.81333
#
# Compressibility (1/GPa) = 0.04174574
#
# Stress axis : x y z
#
# Youngs Moduli (GPa) = 92.47039 59.88847 49.28749
#
# Poissons Ratio (x) = 0.07602 0.09299
# Poissons Ratio (y) = 0.11737 -0.00632
# Poissons Ratio (z) = 0.17445 -0.00768
#
# Static dielectric constant tensor:
#      x y z
#    x 1.844130 0.000000 -0.032110 
#    y 0.000000 1.820310 0.000000 
#    z -0.032110 0.000000 1.813440 
# 
# From -- ./inp_files/310873.got.cif
#   From: 2010.05.17/outbox.cif.g08.bks.cpg/sg12_156_cif.got.tgz:310873.got - 2010.06.03 13:09:07.
