data_PCOD9180235
_publ_section_title
;
Structure prediction by ZEFSAII (Michael W. Deem and Ramdas Pophale) SiO2 
 PCOD9180235
Probable space group: C 2/M
;
_chemical_formula_sum "Si O2"
_cell_formula_units_Z 28
_cell_length_a 8.336068
_cell_length_b 31.215826
_cell_length_c 7.357907
_cell_angle_alpha 90.000000
_cell_angle_beta 39.320842
_cell_angle_gamma 90.000000
_cell_volume 1213.244301
_symmetry_space_group_name_H-M "C 2/M"
_symmetry_group_IT_number 12
_symmetry_cell_setting 'monoclinic'
loop_
_space_group_symop_operation_xyz
x,y,z
-x,y,-z
-x,-y,-z
x,-y,z
1/2+x,1/2+y,z
1/2-x,1/2+y,-z
1/2-x,1/2-y,-z
1/2+x,1/2-y,z
loop_
_atom_site_type_symbol
_atom_site_label
_atom_site_fract_x
_atom_site_fract_y
_atom_site_fract_z
Si Si1 0.673628 0.630307 0.129136
Si Si2 0.998794 0.777673 0.212778
Si Si3 0.284418 0.000000 0.340990
Si Si4 0.822424 0.595006 0.400437
O O1 0.581665 0.678803 0.240655
O O2 0.748669 0.607744 0.255234
O O3 0.422282 0.608587 0.274299
O O4 0.922529 0.621777 0.791100
O O5 0.750000 0.750000 0.500000
O O6 0.000000 0.790293 0.000000
O O7 0.250000 0.750000 0.000000
O O8 0.336218 0.955953 0.400917
O O9 0.000000 0.000000 0.500000
O O10 0.500000 0.000000 0.000000
#
# Coordination Sequence:
#
# PCOD9180235 Si02
#       4
#     8   8   4   8
#     4  10  20  35  54  83 119 158 203 245 327 357
#     4  12  28  45  67  93 125 169 220 278 326 391
#     4  12  16  30  48  94 128 152 210 246 328 344
#     4  10  19  31  59  87 123 165 195 271 294 387
#
# _framework density 23.078616
#
# number of rings (size 3 to 8) (size 9 to 14) (size 15 to 20)
#    0.000    1.143    5.714    2.571   12.000    0.000 
#    0.000    0.000    0.000    0.000    0.000   11.000 
#    0.000    0.000    0.000    0.000    0.000    0.000 
#
# Total GULP energy -77999.647407 kJ/mol
# GULP energy per Si atom -5571.403386 kJ/mol
# Density = 2.302609 g / cm^3
# Si number density = 23.078616 Si / 1000 Ang^3
#
#
#
# Elastic Constant Matrix: (Units=GPa)
#
#
# Indices 1 2 3 4 5 6 
#
# 1 64.6705 18.0266 47.7258 0.0000 -10.3383 0.0000
# 2 18.0266 209.4467 56.8907 0.0000 -24.9453 0.0000
# 3 47.7258 56.8907 200.2541 0.0000 -61.9334 0.0000
# 4 0.0000 0.0000 0.0000 38.5835 0.0000 -19.6129
# 5 -10.3383 -24.9453 -61.9334 0.0000 58.3193 0.0000
# 6 0.0000 0.0000 0.0000 -19.6129 0.0000 2.5523
#
#
#
# Elastic Compliance Matrix: (Units=1/GPa)
#
#
# Indices 1 2 3 4 5 6 
#
# 1 0.018993 -0.000524 -0.005071 0.000000 -0.002243 0.000000
# 2 -0.000524 0.005225 -0.001038 0.000000 0.001040 0.000000
# 3 -0.005071 -0.001038 0.009056 0.000000 0.008274 0.000000
# 4 0.000000 0.000000 0.000000 -0.008918 0.000000 -0.068531
# 5 -0.002243 0.001040 0.008274 0.000000 0.025981 0.000000
# 6 0.000000 0.000000 0.000000 -0.068531 0.000000 -0.134818
#
#
# Mechanical properties :
#
#
# Convention : Reuss Voigt Hill
#
# Bulk Modulus (GPa) = 49.98080 79.96193 64.97136
# Shear Modulus (GPa) = -77.46745 43.33956 -17.06394
#
# Velocity S-wave (km/s) = -5.79997 4.33819 -2.72211
# Velocity P-wave (km/s) = 4.81135 7.73408 4.28176
#
# Compressibility (1/GPa) = 0.02000768
#
# Stress axis : x y z
#
# Youngs Moduli (GPa) = 52.65065 191.37325 110.42139
#
# Poissons Ratio (x) = 0.10035 0.55998
# Poissons Ratio (y) = 0.02761 0.11461
# Poissons Ratio (z) = 0.26701 0.19863
#
# Static dielectric constant tensor:
#      x y z
#    x 1.609540 0.000000 -0.114100 
#    y 0.000000 1.920680 0.000000 
#    z -0.114100 0.000000 1.990360 
# 
# From -- ./inp_files/40767.got.cif
#   From: 2010.05.17/outbox.cif.g08.bks.cpg/sg12_21_cif.got.tgz:40767.got - 2010.06.03 13:09:07.
