data_PCOD9180920
_publ_section_title
;
Structure prediction by ZEFSAII (Michael W. Deem and Ramdas Pophale) SiO2 
 PCOD9180920
Probable space group: C 2/M
;
_chemical_formula_sum "Si O2"
_cell_formula_units_Z 56
_cell_length_a 21.323220
_cell_length_b 9.130352
_cell_length_c 16.825494
_cell_angle_alpha 90.000000
_cell_angle_beta 120.415346
_cell_angle_gamma 90.000000
_cell_volume 2824.918050
_symmetry_space_group_name_H-M "C 2/M"
_symmetry_group_IT_number 12
_symmetry_cell_setting 'monoclinic'
loop_
_space_group_symop_operation_xyz
x,y,z
-x,y,-z
-x,-y,-z
x,-y,z
1/2+x,1/2+y,z
1/2-x,1/2+y,-z
1/2-x,1/2-y,-z
1/2+x,1/2-y,z
loop_
_atom_site_type_symbol
_atom_site_label
_atom_site_fract_x
_atom_site_fract_y
_atom_site_fract_z
Si Si1 0.827837 0.175042 0.062383
Si Si2 0.334315 0.834632 0.536258
Si Si3 0.226078 0.824401 0.654035
Si Si4 0.495444 0.835326 0.581261
Si Si5 0.480898 0.676668 0.079816
Si Si6 0.385365 0.176084 0.743431
Si Si7 0.380219 0.326056 0.273219
O O1 0.899160 0.221593 0.055958
O O2 0.845990 0.203330 0.166209
O O3 0.820321 0.000000 0.045603
O O4 0.750000 0.250000 0.000000
O O5 0.287767 0.742627 0.442851
O O6 0.411620 0.847776 0.543551
O O7 0.362236 0.777233 0.639474
O O8 0.303883 0.000000 0.526613
O O9 0.308183 0.794895 0.737616
O O10 0.168304 0.772670 0.683110
O O11 0.219361 0.000000 0.642639
O O12 0.500000 0.756005 0.500000
O O13 0.541493 0.748246 0.673908
O O14 0.526749 0.000000 0.595608
O O15 0.484211 0.500000 0.090155
O O16 0.544532 0.746992 0.174776
O O17 0.500000 0.713139 0.000000
O O18 0.397839 0.000000 0.749267
O O19 0.387665 0.500000 0.286454
#
# Coordination Sequence:
#
# PCOD9180920 Si02
#       7
#     8   8   8   8   8   8   8
#     4  10  23  42  64  91 120 151 193 245 298 353
#     4  10  20  35  54  80 114 150 193 238 286 340
#     4  10  21  35  53  82 116 151 192 237 284 341
#     4  10  19  32  51  77 109 145 186 233 279 334
#     4  10  23  43  64  89 120 153 195 246 299 356
#     4  10  22  38  58  84 115 152 196 243 289 345
#     4  10  21  36  55  81 114 149 190 237 288 346
#
# _framework density 19.823581999999998
#
# number of rings (size 3 to 8) (size 9 to 14) (size 15 to 20)
#    0.000    2.000    1.429    1.286    2.000    3.429 
#    0.000    0.000    0.000    0.000    0.000    0.000 
#    0.000    0.000    0.000    0.000    0.000    0.000 
#
# Total GULP energy -155998.994352 kJ/mol
# GULP energy per Si atom -5571.392655 kJ/mol
# Density = 1.977846 g / cm^3
# Si number density = 19.823582 Si / 1000 Ang^3
#
#
#
# Elastic Constant Matrix: (Units=GPa)
#
#
# Indices 1 2 3 4 5 6 
#
# 1 106.2024 25.7524 65.3744 0.0000 13.0833 0.0000
# 2 25.7524 18.5919 65.2181 0.0000 7.9213 0.0000
# 3 65.3744 65.2181 129.2179 0.0000 26.9722 0.0000
# 4 0.0000 0.0000 0.0000 31.2759 0.0000 4.6095
# 5 13.0833 7.9213 26.9722 0.0000 36.6181 0.0000
# 6 0.0000 0.0000 0.0000 4.6095 0.0000 17.6920
#
#
#
# Elastic Compliance Matrix: (Units=1/GPa)
#
#
# Indices 1 2 3 4 5 6 
#
# 1 0.013050 -0.006237 -0.003264 0.000000 -0.000909 0.000000
# 2 -0.006237 -0.062080 0.036892 0.000000 -0.011516 0.000000
# 3 -0.003264 0.036892 -0.009226 0.000000 -0.000019 0.000000
# 4 0.000000 0.000000 0.000000 0.033250 0.000000 -0.008663
# 5 -0.000909 -0.011516 -0.000019 0.000000 0.030139 0.000000
# 6 0.000000 0.000000 0.000000 -0.008663 0.000000 0.058780
#
#
# Mechanical properties :
#
#
# Convention : Reuss Voigt Hill
#
# Bulk Modulus (GPa) = -287.74854 62.96690 -112.39082
# Shear Modulus (GPa) = 627.10209 23.62837 325.36523
#
# Velocity S-wave (km/s) = 17.80529 3.45618 12.82524
# Velocity P-wave (km/s) = 16.65036 6.91083 12.74743
#
# Compressibility (1/GPa) = -0.00347526
#
# Stress axis : x y z
#
# Youngs Moduli (GPa) = 76.62904 -16.10815 -108.39298
#
# Poissons Ratio (x) = -0.10047 -0.35385
# Poissons Ratio (y) = 0.47796 3.99886
# Poissons Ratio (z) = 0.25015 0.59427
#
# Static dielectric constant tensor:
#      x y z
#    x 1.788860 0.000000 -0.010410 
#    y 0.000000 1.720460 0.000000 
#    z -0.010410 0.000000 1.700440 
# 
# From -- ./inp_files/288444.got.cif
#   From: 2010.05.17/outbox.cif.g08.bks.cpg/sg12_145_cif.got.tgz:288444.got - 2010.06.03 13:09:07.
