data_PCOD9180206
_publ_section_title
;
Structure prediction by ZEFSAII (Michael W. Deem and Ramdas Pophale) SiO2 
 PCOD9180206
Probable space group: C 2/M
;
_chemical_formula_sum "Si O2"
_cell_formula_units_Z 48
_cell_length_a 9.224623
_cell_length_b 21.594460
_cell_length_c 15.593047
_cell_angle_alpha 90.000000
_cell_angle_beta 130.433620
_cell_angle_gamma 90.000000
_cell_volume 2364.268011
_symmetry_space_group_name_H-M "C 2/M"
_symmetry_group_IT_number 12
_symmetry_cell_setting 'monoclinic'
loop_
_space_group_symop_operation_xyz
x,y,z
-x,y,-z
-x,-y,-z
x,-y,z
1/2+x,1/2+y,z
1/2-x,1/2+y,-z
1/2-x,1/2-y,-z
1/2+x,1/2-y,z
loop_
_atom_site_type_symbol
_atom_site_label
_atom_site_fract_x
_atom_site_fract_y
_atom_site_fract_z
Si Si1 0.810105 0.151474 0.894271
Si Si2 0.402400 0.931485 0.556854
Si Si3 0.344556 0.667544 0.615291
Si Si4 0.201370 0.252205 0.708848
Si Si5 0.922487 0.698953 0.064507
Si Si6 0.174927 0.070209 0.242881
O O1 0.702567 0.194821 0.783272
O O2 0.674020 0.141806 0.922188
O O3 0.897606 0.095012 0.874755
O O4 0.000000 0.185746 0.000000
O O5 0.500000 0.932763 0.500000
O O6 0.265703 0.872049 0.499923
O O7 0.595010 0.926092 0.684530
O O8 0.314043 0.000000 0.537133
O O9 0.215700 0.715280 0.621388
O O10 0.525905 0.705536 0.652206
O O11 0.390295 0.615618 0.705771
O O12 0.401237 0.219940 0.808839
O O13 0.750000 0.750000 0.000000
O O14 0.000000 0.684219 0.000000
O O15 0.128733 0.000000 0.246495
#
# Coordination Sequence:
#
# PCOD9180206 Si02
#       6
#     8   8   8   8   8   8
#     4  11  21  34  56  84 112 142 187 230 276 332
#     4   8  15  34  59  81 103 143 197 237 266 317
#     4  10  19  31  56  86 115 145 183 227 276 335
#     4  11  19  31  51  85 122 144 176 222 277 336
#     4  12  19  32  54  76 113 155 186 216 267 340
#     4   9  20  38  60  81 105 146 199 241 268 318
#
# _framework density 20.302267000000001
#
# number of rings (size 3 to 8) (size 9 to 14) (size 15 to 20)
#    0.000    1.833    5.000    1.500    2.333    0.333 
#    0.000   13.333    0.000    2.500    0.000    2.333 
#    0.000    0.000    0.000    0.000    0.000    0.000 
#
# Total GULP energy -133606.401834 kJ/mol
# GULP energy per Si atom -5566.933410 kJ/mol
# Density = 2.025606 g / cm^3
# Si number density = 20.302267 Si / 1000 Ang^3
#
#
#
# Elastic Constant Matrix: (Units=GPa)
#
#
# Indices 1 2 3 4 5 6 
#
# 1 86.5583 36.7803 4.7149 0.0000 15.3846 0.0000
# 2 36.7803 110.8531 17.0509 0.0000 21.7932 0.0000
# 3 4.7149 17.0509 42.2653 0.0000 19.0697 0.0000
# 4 0.0000 0.0000 0.0000 12.3938 0.0000 3.0182
# 5 15.3846 21.7932 19.0697 0.0000 17.4802 0.0000
# 6 0.0000 0.0000 0.0000 3.0182 0.0000 6.6015
#
#
#
# Elastic Compliance Matrix: (Units=1/GPa)
#
#
# Indices 1 2 3 4 5 6 
#
# 1 0.015652 -0.002651 0.007971 0.000000 -0.019166 0.000000
# 2 -0.002651 0.012708 0.002490 0.000000 -0.016226 0.000000
# 3 0.007971 0.002490 0.051858 0.000000 -0.066693 0.000000
# 4 0.000000 0.000000 0.000000 0.090795 0.000000 -0.041512
# 5 -0.019166 -0.016226 -0.066693 0.000000 0.167063 0.000000
# 6 0.000000 0.000000 0.000000 -0.041512 0.000000 0.170461
#
#
# Mechanical properties :
#
#
# Convention : Reuss Voigt Hill
#
# Bulk Modulus (GPa) = 10.43439 39.64099 25.03769
# Shear Modulus (GPa) = 9.52632 19.37046 14.44839
#
# Velocity S-wave (km/s) = 2.16851 3.09221 2.67060
# Velocity P-wave (km/s) = 3.37944 5.68479 4.67640
#
# Compressibility (1/GPa) = 0.09583694
#
# Stress axis : x y z
#
# Youngs Moduli (GPa) = 63.89050 78.69288 19.28360
#
# Poissons Ratio (x) = 0.20864 -0.15371
# Poissons Ratio (y) = 0.16940 -0.04802
# Poissons Ratio (z) = -0.50927 -0.19598
#
# Static dielectric constant tensor:
#      x y z
#    x 1.719460 0.000000 -0.009380 
#    y 0.000000 1.794340 0.000000 
#    z -0.009380 0.000000 1.900340 
# 
# From -- ./inp_files/259032.got.cif
#   From: 2010.05.17/outbox.cif.g08.bks.cpg/sg12_130_cif.got.tgz:259032.got - 2010.06.03 13:09:07.
