data_PCOD9180623
_publ_section_title
;
Structure prediction by ZEFSAII (Michael W. Deem and Ramdas Pophale) SiO2 
 PCOD9180623
Probable space group: C 2/M
;
_chemical_formula_sum "Si O2"
_cell_formula_units_Z 56
_cell_length_a 19.174974
_cell_length_b 9.127223
_cell_length_c 24.969243
_cell_angle_alpha 90.000000
_cell_angle_beta 45.701145
_cell_angle_gamma 90.000000
_cell_volume 3127.619400
_symmetry_space_group_name_H-M "C 2/M"
_symmetry_group_IT_number 12
_symmetry_cell_setting 'monoclinic'
loop_
_space_group_symop_operation_xyz
x,y,z
-x,y,-z
-x,-y,-z
x,-y,z
1/2+x,1/2+y,z
1/2-x,1/2+y,-z
1/2-x,1/2-y,-z
1/2+x,1/2-y,z
loop_
_atom_site_type_symbol
_atom_site_label
_atom_site_fract_x
_atom_site_fract_y
_atom_site_fract_z
Si Si1 0.946825 0.825670 0.761943
Si Si2 0.038769 0.327300 0.813818
Si Si3 0.216717 0.328278 0.212556
Si Si4 0.728008 0.326342 0.316814
Si Si5 0.181867 0.171828 0.460849
Si Si6 0.051006 0.172776 0.917242
Si Si7 0.397675 0.829163 0.396620
O O1 0.844063 0.761630 0.797976
O O2 0.979724 0.760188 0.800961
O O3 0.024498 0.765949 0.676992
O O4 0.946637 0.000000 0.763191
O O5 0.019244 0.500000 0.820038
O O6 0.154863 0.305901 0.741312
O O7 0.017934 0.266693 0.884131
O O8 0.192686 0.500000 0.222632
O O9 0.194229 0.265242 0.283789
O O10 0.332256 0.310851 0.141466
O O11 0.711431 0.500000 0.316453
O O12 0.680817 0.286015 0.399033
O O13 0.293558 0.183434 0.421977
O O14 0.118633 0.268978 0.534867
O O15 0.154687 0.000000 0.479980
O O16 0.030940 0.000000 0.918287
O O17 0.000000 0.215187 0.000000
O O18 0.425289 0.000000 0.381398
#
# Coordination Sequence:
#
# PCOD9180623 Si02
#       7
#     8   8   8   8   8   8   8
#     4  12  23  36  54  78 110 147 185 225 273 324
#     4  10  19  34  57  84 111 142 182 224 266 317
#     4  10  21  36  56  81 110 143 178 220 270 322
#     4   9  17  33  54  77 107 141 180 225 270 321
#     4   9  17  31  50  76 107 141 180 225 275 322
#     4   9  19  38  62  88 115 142 175 216 264 322
#     4  10  19  32  50  76 108 142 181 229 276 319
#
# _framework density 17.904992
#
# number of rings (size 3 to 8) (size 9 to 14) (size 15 to 20)
#    0.000    2.143    1.429    2.571    0.000    2.571 
#    0.000    1.429    0.000    4.286    0.000    0.000 
#    0.000    0.000    0.000    0.000    0.000    0.000 
#
# Total GULP energy -156340.381186 kJ/mol
# GULP energy per Si atom -5583.585042 kJ/mol
# Density = 1.786424 g / cm^3
# Si number density = 17.904992 Si / 1000 Ang^3
#
#
#
# Elastic Constant Matrix: (Units=GPa)
#
#
# Indices 1 2 3 4 5 6 
#
# 1 74.7295 73.7677 37.2156 0.0000 19.5923 0.0001
# 2 73.7677 124.0943 53.0646 0.0000 19.3243 0.0001
# 3 37.2156 53.0646 93.3191 0.0000 32.1288 0.0000
# 4 0.0000 0.0000 0.0000 26.6352 0.0000 6.3370
# 5 19.5923 19.3243 32.1288 0.0000 18.7265 0.0000
# 6 0.0001 0.0001 0.0000 6.3370 0.0000 31.5582
#
#
#
# Elastic Compliance Matrix: (Units=1/GPa)
#
#
# Indices 1 2 3 4 5 6 
#
# 1 0.039341 -0.021678 0.007591 0.000000 -0.031813 0.000000
# 2 -0.021678 0.022609 -0.009741 0.000000 0.016062 0.000000
# 3 0.007591 -0.009741 0.030543 0.000000 -0.050291 0.000000
# 4 0.000000 0.000000 0.000000 0.039428 0.000000 -0.007917
# 5 -0.031813 0.016062 -0.050291 0.000000 0.156393 0.000000
# 6 0.000000 0.000000 0.000000 -0.007917 0.000000 0.033277
#
#
# Mechanical properties :
#
#
# Convention : Reuss Voigt Hill
#
# Bulk Modulus (GPa) = 22.30377 68.91542 45.60960
# Shear Modulus (GPa) = 13.01425 23.92365 18.46895
#
# Velocity S-wave (km/s) = 2.69894 3.65930 3.21518
# Velocity P-wave (km/s) = 4.71128 7.51179 6.26989
#
# Compressibility (1/GPa) = 0.04483546
#
# Stress axis : x y z
#
# Youngs Moduli (GPa) = 25.41864 44.22980 32.74094
#
# Poissons Ratio (x) = 0.95882 -0.24852
# Poissons Ratio (y) = 0.55103 0.31894
# Poissons Ratio (z) = -0.19294 0.43085
#
# Static dielectric constant tensor:
#      x y z
#    x 1.609390 0.000000 -0.008080 
#    y 0.000000 1.592040 0.000000 
#    z -0.008080 0.000000 1.595580 
# 
# From -- ./inp_files/342346.got.cif
#   From: 2010.05.17/outbox.cif.g08.bks.cpg/sg12_172_cif.got.tgz:342346.got - 2010.06.03 13:09:07.
