data_PCOD9180904
_publ_section_title
;
Structure prediction by ZEFSAII (Michael W. Deem and Ramdas Pophale) SiO2 
 PCOD9180904
Probable space group: C 2/M
;
_chemical_formula_sum "Si O2"
_cell_formula_units_Z 64
_cell_length_a 31.786949
_cell_length_b 7.483984
_cell_length_c 14.840309
_cell_angle_alpha 90.000000
_cell_angle_beta 52.917847
_cell_angle_gamma 90.000000
_cell_volume 2816.458202
_symmetry_space_group_name_H-M "C 2/M"
_symmetry_group_IT_number 12
_symmetry_cell_setting 'monoclinic'
loop_
_space_group_symop_operation_xyz
x,y,z
-x,y,-z
-x,-y,-z
x,-y,z
1/2+x,1/2+y,z
1/2-x,1/2+y,-z
1/2-x,1/2-y,-z
1/2+x,1/2-y,z
loop_
_atom_site_type_symbol
_atom_site_label
_atom_site_fract_x
_atom_site_fract_y
_atom_site_fract_z
Si Si1 0.632932 0.789825 0.412559
Si Si2 0.794040 0.213821 0.017247
Si Si3 0.050652 0.715324 0.378551
Si Si4 0.303110 0.713336 0.376677
Si Si5 0.252044 0.280814 0.263779
Si Si6 0.092826 0.215860 0.656874
Si Si7 0.506871 0.718687 0.094774
Si Si8 0.587756 0.712557 0.135608
O O1 0.602549 0.717195 0.364664
O O2 0.691647 0.718772 0.355241
O O3 0.596855 0.769948 0.547537
O O4 0.640183 0.000000 0.386729
O O5 0.853177 0.283621 0.923963
O O6 0.797956 0.000000 0.017712
O O7 0.750000 0.250000 0.000000
O O8 0.772707 0.277616 0.140675
O O9 0.050380 0.500000 0.384491
O O10 0.053315 0.759943 0.270029
O O11 0.000000 0.779609 0.500000
O O12 0.310315 0.500000 0.361945
O O13 0.250000 0.750000 0.500000
O O14 0.290819 0.780209 0.292631
O O15 0.354255 0.783066 0.361884
O O16 0.251959 0.500000 0.266982
O O17 0.042410 0.273479 0.779209
O O18 0.092761 0.000000 0.657235
O O19 0.507507 0.500000 0.091788
O O20 0.558676 0.778842 0.082914
O O21 0.500000 0.776793 0.000000
O O22 0.591992 0.500000 0.118259
#
# Coordination Sequence:
#
# PCOD9180904 Si02
#       8
#     8   8   8   8   8   8   8   8
#     4  10  19  33  53  75 102 140 175 211 264 322
#     4  10  21  37  57  81 109 144 184 225 269 322
#     4  10  21  36  56  80 106 141 183 221 266 324
#     4  10  19  32  51  77 106 138 174 217 267 318
#     4   9  18  32  51  73 101 137 175 210 257 321
#     4  10  20  32  52  80 107 136 174 222 270 311
#     4   9  19  35  55  80 109 141 179 222 267 321
#     4  10  21  36  57  84 111 142 181 227 278 321
#
# _framework density 22.723576000000001
#
# number of rings (size 3 to 8) (size 9 to 14) (size 15 to 20)
#    0.000    2.250    1.250    1.500    1.750    2.250 
#    0.000    1.250    0.000    1.500    0.000    0.000 
#    0.000    0.000    0.000    0.000    0.000    0.000 
#
# Total GULP energy -178794.283783 kJ/mol
# GULP energy per Si atom -5587.321368 kJ/mol
# Density = 2.267186 g / cm^3
# Si number density = 22.723576 Si / 1000 Ang^3
#
#
#
# Elastic Constant Matrix: (Units=GPa)
#
#
# Indices 1 2 3 4 5 6 
#
# 1 144.3884 1.6100 48.4239 -0.0001 18.9618 0.0000
# 2 1.6100 61.6726 -13.4274 -0.0007 -2.6161 -0.0004
# 3 48.4239 -13.4274 113.9375 0.0000 16.0072 0.0000
# 4 -0.0001 -0.0007 0.0000 -6.7110 0.0000 -12.9666
# 5 18.9618 -2.6161 16.0072 0.0000 47.3715 0.0000
# 6 0.0000 -0.0004 0.0000 -12.9666 0.0000 -1.0954
#
#
#
# Elastic Compliance Matrix: (Units=1/GPa)
#
#
# Indices 1 2 3 4 5 6 
#
# 1 0.008362 -0.001046 -0.003358 0.000000 -0.002270 0.000000
# 2 -0.001046 0.016776 0.002344 0.000000 0.000553 -0.000001
# 3 -0.003358 0.002344 0.010785 0.000000 -0.002171 0.000000
# 4 0.000000 0.000000 0.000000 0.006813 0.000000 -0.080647
# 5 -0.002270 0.000553 -0.002171 0.000000 0.022782 0.000000
# 6 0.000000 -0.000001 0.000000 -0.080647 0.000000 0.041740
#
#
# Mechanical properties :
#
#
# Convention : Reuss Voigt Hill
#
# Bulk Modulus (GPa) = 31.44414 43.69016 37.56715
# Shear Modulus (GPa) = 40.99060 26.80582 33.89821
#
# Velocity S-wave (km/s) = 4.25182 3.43833 3.86653
# Velocity P-wave (km/s) = 6.16211 5.91873 6.04165
#
# Compressibility (1/GPa) = 0.03180243
#
# Stress axis : x y z
#
# Youngs Moduli (GPa) = 119.59223 59.61006 92.72036
#
# Poissons Ratio (x) = 0.06233 0.31136
# Poissons Ratio (y) = 0.12506 -0.21731
# Poissons Ratio (z) = 0.40160 -0.13971
#
# Static dielectric constant tensor:
#      x y z
#    x 1.866570 0.000000 -0.005540 
#    y 0.000000 1.870390 0.000000 
#    z -0.005540 0.000000 1.802400 
# 
# From -- ./inp_files/248947.got.cif
#   From: 2010.05.17/outbox.cif.g08.bks.cpg/sg12_125_cif.got.tgz:248947.got - 2010.06.03 13:09:07.
