data_PCOD9180239
_publ_section_title
;
Structure prediction by ZEFSAII (Michael W. Deem and Ramdas Pophale) SiO2 
 PCOD9180239
Probable space group: C 2/M
;
_chemical_formula_sum "Si O2"
_cell_formula_units_Z 44
_cell_length_a 23.953976
_cell_length_b 18.884949
_cell_length_c 14.118943
_cell_angle_alpha 90.000000
_cell_angle_beta 21.424715
_cell_angle_gamma 90.000000
_cell_volume 2333.025933
_symmetry_space_group_name_H-M "C 2/M"
_symmetry_group_IT_number 12
_symmetry_cell_setting 'monoclinic'
loop_
_space_group_symop_operation_xyz
x,y,z
-x,y,-z
-x,-y,-z
x,-y,z
1/2+x,1/2+y,z
1/2-x,1/2+y,-z
1/2-x,1/2-y,-z
1/2+x,1/2-y,z
loop_
_atom_site_type_symbol
_atom_site_label
_atom_site_fract_x
_atom_site_fract_y
_atom_site_fract_z
Si Si1 0.858390 0.000000 0.831736
Si Si2 0.000000 0.131562 0.500000
Si Si3 0.262228 0.149439 0.214352
Si Si4 0.128136 0.500000 0.714575
Si Si5 0.182643 0.237745 0.711493
Si Si6 0.001910 0.500000 0.384579
Si Si7 0.350554 0.500000 0.524188
Si Si8 0.583442 0.117016 0.624978
O O1 0.908355 0.925023 0.708175
O O2 0.965246 0.000000 0.757106
O O3 0.682141 0.000000 0.085806
O O4 0.880515 0.173797 0.624559
O O5 0.284896 0.195016 0.272793
O O6 0.219515 0.068909 0.312415
O O7 0.418618 0.151582 0.907739
O O8 0.288060 0.500000 0.516943
O O9 0.110772 0.567227 0.673762
O O10 0.000000 0.500000 0.000000
O O11 0.250000 0.250000 0.500000
O O12 0.280040 0.172416 0.598204
O O13 0.000000 0.225648 0.000000
O O14 0.930512 0.567708 0.445068
O O15 0.000000 0.500000 0.500000
#
# Coordination Sequence:
#
# PCOD9180239 Si02
#       8
#     4   4   8   4   8   4   4   8
#     4   9  17  33  62  96 124 154 200 278 333 378
#     4   9  18  34  64  96 122 151 218 278 314 371
#     4  11  20  39  66  98 129 166 219 280 334 391
#     4  11  19  34  67 100 124 158 228 276 323 400
#     4  12  26  45  66  95 141 183 223 275 344 410
#     4  11  23  46  67  92 134 175 221 281 351 400
#     4  10  19  31  64 104 121 151 214 283 326 372
#     4  11  23  42  66  95 129 176 225 277 337 406
#
# _framework density 18.859628000000001
#
# number of rings (size 3 to 8) (size 9 to 14) (size 15 to 20)
#    0.000    1.273    5.455    2.182    0.000    0.000 
#   11.455    1.818    0.000    0.000    0.000    0.000 
#    0.000    0.000    0.000    0.000    0.000    0.000 
#
# Total GULP energy -122677.813175 kJ/mol
# GULP energy per Si atom -5576.264235 kJ/mol
# Density = 1.881670 g / cm^3
# Si number density = 18.859628 Si / 1000 Ang^3
#
#
#
# Elastic Constant Matrix: (Units=GPa)
#
#
# Indices 1 2 3 4 5 6 
#
# 1 141.3729 43.9843 46.9383 0.0005 -17.0378 -0.0001
# 2 43.9843 88.1428 52.4050 0.0023 -8.1632 -0.0011
# 3 46.9383 52.4050 94.3370 0.0037 -27.4115 -0.0017
# 4 0.0005 0.0023 0.0037 23.2460 -0.0009 -13.6153
# 5 -17.0378 -8.1632 -27.4115 -0.0009 38.6419 0.0004
# 6 -0.0001 -0.0011 -0.0017 -13.6153 0.0004 18.8333
#
#
#
# Elastic Compliance Matrix: (Units=1/GPa)
#
#
# Indices 1 2 3 4 5 6 
#
# 1 0.008964 -0.002919 -0.002355 0.000001 0.001665 0.000000
# 2 -0.002919 0.018371 -0.010076 0.000000 -0.004554 0.000000
# 3 -0.002355 -0.010076 0.020720 -0.000002 0.011531 0.000000
# 4 0.000001 0.000000 -0.000002 0.074610 0.000000 0.053939
# 5 0.001665 -0.004554 0.011531 0.000000 0.033831 0.000000
# 6 0.000000 0.000000 0.000000 0.053939 0.000000 0.092092
#
#
# Mechanical properties :
#
#
# Convention : Reuss Voigt Hill
#
# Bulk Modulus (GPa) = 57.61902 67.83423 62.72663
# Shear Modulus (GPa) = 17.53940 28.17924 22.85932
#
# Velocity S-wave (km/s) = 3.05289 3.86963 3.48527
# Velocity P-wave (km/s) = 6.56085 7.48407 7.03762
#
# Compressibility (1/GPa) = 0.01735538
#
# Stress axis : x y z
#
# Youngs Moduli (GPa) = 111.55493 54.43456 48.26298
#
# Poissons Ratio (x) = 0.15889 0.11365
# Poissons Ratio (y) = 0.32562 0.48629
# Poissons Ratio (z) = 0.26269 0.54848
#
# Static dielectric constant tensor:
#      x y z
#    x 1.679600 0.000000 -0.029670 
#    y 0.000000 1.654800 0.000000 
#    z -0.029670 0.000000 1.621300 
# 
# From -- ./inp_files/190134.got.cif
#   From: 2010.05.17/outbox.cif.g08.bks.cpg/sg12_96_cif.got.tgz:190134.got - 2010.06.03 13:09:07.
