data_PCOD9180043
_publ_section_title
;
Structure prediction by ZEFSAII (Michael W. Deem and Ramdas Pophale) SiO2 
 PCOD9180043
Probable space group: C 2/M
;
_chemical_formula_sum "Si O2"
_cell_formula_units_Z 64
_cell_length_a 24.907402
_cell_length_b 8.995049
_cell_length_c 20.949398
_cell_angle_alpha 90.000000
_cell_angle_beta 127.629825
_cell_angle_gamma 90.000000
_cell_volume 3717.177498
_symmetry_space_group_name_H-M "C 2/M"
_symmetry_group_IT_number 12
_symmetry_cell_setting 'monoclinic'
loop_
_space_group_symop_operation_xyz
x,y,z
-x,y,-z
-x,-y,-z
x,-y,z
1/2+x,1/2+y,z
1/2-x,1/2+y,-z
1/2-x,1/2-y,-z
1/2+x,1/2-y,z
loop_
_atom_site_type_symbol
_atom_site_label
_atom_site_fract_x
_atom_site_fract_y
_atom_site_fract_z
Si Si1 0.681713 0.322966 0.370576
Si Si2 0.818753 0.177104 0.128231
Si Si3 0.322280 0.322262 0.481774
Si Si4 0.452357 0.821534 0.774694
Si Si5 0.461998 0.178885 0.038031
Si Si6 0.952664 0.321826 0.277040
Si Si7 0.675651 0.676963 0.019370
Si Si8 0.528528 0.678630 0.451000
O O1 0.681353 0.500000 0.364270
O O2 0.670279 0.285384 0.437446
O O3 0.755474 0.258400 0.407782
O O4 0.620510 0.253036 0.286593
O O5 0.879422 0.250935 0.211304
O O6 0.745702 0.246386 0.091005
O O7 0.817798 0.000000 0.136587
O O8 0.831547 0.207313 0.062020
O O9 0.312498 0.500000 0.470049
O O10 0.392224 0.281613 0.498344
O O11 0.491284 0.779266 0.867582
O O12 0.499120 0.780869 0.747977
O O13 0.444186 0.000000 0.768517
O O14 0.452199 0.000000 0.033109
O O15 0.500000 0.215954 0.000000
O O16 0.389624 0.256790 0.993124
O O17 0.947565 0.500000 0.275244
O O18 0.986667 0.259595 0.365513
O O19 0.679985 0.500000 0.030935
O O20 0.500000 0.713760 0.500000
O O21 0.523415 0.500000 0.437459
#
# Coordination Sequence:
#
# PCOD9180043 Si02
#       8
#     8   8   8   8   8   8   8   8
#     4  10  19  31  53  81 107 137 175 222 270 317
#     4  10  20  34  56  83 112 145 184 229 277 333
#     4   9  18  33  52  77 108 139 175 219 265 317
#     4  10  20  34  54  81 110 141 180 226 271 320
#     4  10  21  38  58  80 111 151 189 224 271 335
#     4  11  21  34  56  84 113 142 181 232 277 322
#     4  10  20  34  55  83 114 145 181 231 283 328
#     4  10  21  38  58  80 110 148 185 221 270 332
#
# _framework density 17.217364
#
# number of rings (size 3 to 8) (size 9 to 14) (size 15 to 20)
#    0.000    2.000    2.500    1.500    0.000    3.500 
#    0.000    1.250    0.000    3.000    0.000    0.000 
#    0.000    0.000    0.000    0.000    0.000    0.000 
#
# Total GULP energy -178658.173244 kJ/mol
# GULP energy per Si atom -5583.067914 kJ/mol
# Density = 1.717818 g / cm^3
# Si number density = 17.217364 Si / 1000 Ang^3
#
#
#
# Elastic Constant Matrix: (Units=GPa)
#
#
# Indices 1 2 3 4 5 6 
#
# 1 150.0935 59.5536 88.9728 0.0000 22.5036 0.0000
# 2 59.5536 40.0000 53.5573 0.0000 9.5426 0.0000
# 3 88.9728 53.5573 127.4053 0.0000 21.8138 0.0000
# 4 0.0000 0.0000 0.0000 29.8024 0.0000 6.9384
# 5 22.5036 9.5426 21.8138 0.0000 33.0728 0.0000
# 6 0.0000 0.0000 0.0000 6.9384 0.0000 25.6554
#
#
#
# Elastic Compliance Matrix: (Units=1/GPa)
#
#
# Indices 1 2 3 4 5 6 
#
# 1 0.017146 -0.021637 -0.002198 0.000000 -0.003974 0.000000
# 2 -0.021637 0.084507 -0.021148 0.000000 0.004288 0.000000
# 3 -0.002198 -0.021148 0.019134 0.000000 -0.005023 0.000000
# 4 0.000000 0.000000 0.000000 0.035809 0.000000 -0.009684
# 5 -0.003974 0.004288 -0.005023 0.000000 0.035016 0.000000
# 6 0.000000 0.000000 0.000000 -0.009684 0.000000 0.041597
#
#
# Mechanical properties :
#
#
# Convention : Reuss Voigt Hill
#
# Bulk Modulus (GPa) = 32.44573 80.18513 56.31543
# Shear Modulus (GPa) = 14.99472 25.40045 20.19758
#
# Velocity S-wave (km/s) = 2.95431 3.84511 3.42876
# Velocity P-wave (km/s) = 5.52476 8.14779 6.96094
#
# Compressibility (1/GPa) = 0.03082069
#
# Stress axis : x y z
#
# Youngs Moduli (GPa) = 58.32118 11.83330 52.26262
#
# Poissons Ratio (x) = 0.25604 0.11488
# Poissons Ratio (y) = 1.26190 1.10527
# Poissons Ratio (z) = 0.12820 0.25026
#
# Static dielectric constant tensor:
#      x y z
#    x 1.569740 0.000000 -0.003060 
#    y 0.000000 1.568570 0.000000 
#    z -0.003060 0.000000 1.557530 
# 
# From -- ./inp_files/324259.got.cif
#   From: 2010.05.17/outbox.cif.g08.bks.cpg/sg12_163_cif.got.tgz:324259.got - 2010.06.03 13:09:07.
