data_PCOD9180614
_publ_section_title
;
Structure prediction by ZEFSAII (Michael W. Deem and Ramdas Pophale) SiO2 
 PCOD9180614
Probable space group: C 2/M
;
_chemical_formula_sum "Si O2"
_cell_formula_units_Z 56
_cell_length_a 19.664879
_cell_length_b 8.799815
_cell_length_c 32.500322
_cell_angle_alpha 90.000000
_cell_angle_beta 34.339109
_cell_angle_gamma 90.000000
_cell_volume 3172.493408
_symmetry_space_group_name_H-M "C 2/M"
_symmetry_group_IT_number 12
_symmetry_cell_setting 'monoclinic'
loop_
_space_group_symop_operation_xyz
x,y,z
-x,y,-z
-x,-y,-z
x,-y,z
1/2+x,1/2+y,z
1/2-x,1/2+y,-z
1/2-x,1/2-y,-z
1/2+x,1/2-y,z
loop_
_atom_site_type_symbol
_atom_site_label
_atom_site_fract_x
_atom_site_fract_y
_atom_site_fract_z
Si Si1 0.309768 0.184165 0.099606
Si Si2 0.099496 0.182834 0.416845
Si Si3 0.024650 0.683505 0.055098
Si Si4 0.639301 0.818782 0.310162
Si Si5 0.561073 0.317637 0.263722
Si Si6 0.876462 0.681390 0.295212
Si Si7 0.919281 0.181261 0.186921
O O1 0.408517 0.225791 0.084927
O O2 0.178242 0.235528 0.178927
O O3 0.308738 0.000000 0.099440
O O4 0.360783 0.231849 0.029698
O O5 0.083216 0.260805 0.380858
O O6 0.234603 0.221182 0.364451
O O7 0.000000 0.227238 0.500000
O O8 0.094059 0.000000 0.414189
O O9 0.025287 0.500000 0.058673
O O10 0.008485 0.756944 0.107542
O O11 0.580787 0.740827 0.299946
O O12 0.782233 0.779504 0.241135
O O13 0.629391 0.000000 0.311895
O O14 0.558574 0.500000 0.264688
O O15 0.443852 0.252540 0.300222
O O16 0.886965 0.500000 0.290660
O O17 0.934132 0.745430 0.224278
O O18 0.928283 0.000000 0.185808
#
# Coordination Sequence:
#
# PCOD9180614 Si02
#       7
#     8   8   8   8   8   8   8
#     4   8  16  28  48  74 101 135 175 220 263 306
#     4   9  19  38  62  84 105 133 171 212 255 307
#     4   9  15  29  50  73  99 133 179 222 265 306
#     4  10  20  33  53  81 110 139 173 212 255 307
#     4  11  20  34  54  78 108 141 177 215 259 309
#     4  10  21  36  55  78 106 138 170 211 263 313
#     4  10  19  32  50  76 105 136 177 221 260 307
#
# _framework density 17.651731000000002
#
# number of rings (size 3 to 8) (size 9 to 14) (size 15 to 20)
#    0.000    2.429    1.429    2.571    0.000    2.000 
#    0.000    4.286    0.000    0.000    0.000    0.000 
#    0.000    0.000    0.000    0.000    0.000    0.000 
#
# Total GULP energy -156206.603685 kJ/mol
# GULP energy per Si atom -5578.807274 kJ/mol
# Density = 1.761155 g / cm^3
# Si number density = 17.651731 Si / 1000 Ang^3
#
#
#
# Elastic Constant Matrix: (Units=GPa)
#
#
# Indices 1 2 3 4 5 6 
#
# 1 112.8975 44.5393 47.1641 0.0020 15.4225 0.0186
# 2 44.5393 37.4636 31.5686 0.0052 8.2880 0.0029
# 3 47.1641 31.5686 114.8320 0.0013 21.8021 0.0001
# 4 0.0020 0.0052 0.0013 15.9186 0.0000 1.6756
# 5 15.4225 8.2880 21.8021 0.0000 19.0327 0.0006
# 6 0.0186 0.0029 0.0001 1.6756 0.0006 26.6081
#
#
#
# Elastic Compliance Matrix: (Units=1/GPa)
#
#
# Indices 1 2 3 4 5 6 
#
# 1 0.017291 -0.018596 -0.001108 0.000005 -0.004645 -0.000010
# 2 -0.018596 0.055171 -0.007449 -0.000016 -0.000423 0.000008
# 3 -0.001108 -0.007449 0.013322 0.000001 -0.011119 0.000002
# 4 0.000005 -0.000016 0.000001 0.063239 0.000001 -0.003982
# 5 -0.004645 -0.000423 -0.011119 0.000001 0.069226 0.000002
# 6 -0.000010 0.000008 0.000002 -0.003982 0.000002 0.037833
#
#
# Mechanical properties :
#
#
# Convention : Reuss Voigt Hill
#
# Bulk Modulus (GPa) = 31.76712 56.85967 44.31340
# Shear Modulus (GPa) = 15.58208 21.77330 18.67769
#
# Velocity S-wave (km/s) = 2.97434 3.51592 3.25641
# Velocity P-wave (km/s) = 5.46180 6.98313 6.26879
#
# Compressibility (1/GPa) = 0.03147909
#
# Stress axis : x y z
#
# Youngs Moduli (GPa) = 57.83301 18.12541 75.06182
#
# Poissons Ratio (x) = 0.33706 0.08315
# Poissons Ratio (y) = 1.07546 0.55914
# Poissons Ratio (z) = 0.06407 0.13502
#
# Static dielectric constant tensor:
#      x y z
#    x 1.582500 0.000000 -0.007170 
#    y 0.000000 1.584330 0.000000 
#    z -0.007170 0.000000 1.603840 
# 
# From -- ./inp_files/275190.got.cif
#   From: 2010.05.17/outbox.cif.g08.bks.cpg/sg12_138_cif.got.tgz:275190.got - 2010.06.03 13:09:07.
