data_PCOD9180220
_publ_section_title
;
Structure prediction by ZEFSAII (Michael W. Deem and Ramdas Pophale) SiO2 
 PCOD9180220
Probable space group: C 2/M
;
_chemical_formula_sum "Si O2"
_cell_formula_units_Z 56
_cell_length_a 20.669084
_cell_length_b 15.496344
_cell_length_c 11.474436
_cell_angle_alpha 90.000000
_cell_angle_beta 127.734262
_cell_angle_gamma 90.000000
_cell_volume 2906.565929
_symmetry_space_group_name_H-M "C 2/M"
_symmetry_group_IT_number 12
_symmetry_cell_setting 'monoclinic'
loop_
_space_group_symop_operation_xyz
x,y,z
-x,y,-z
-x,-y,-z
x,-y,z
1/2+x,1/2+y,z
1/2-x,1/2+y,-z
1/2-x,1/2-y,-z
1/2+x,1/2-y,z
loop_
_atom_site_type_symbol
_atom_site_label
_atom_site_fract_x
_atom_site_fract_y
_atom_site_fract_z
Si Si1 0.837217 0.228093 0.040099
Si Si2 0.493357 0.719742 0.357781
Si Si3 0.144632 0.159931 0.372978
Si Si4 0.109092 0.595034 0.014964
Si Si5 0.906436 0.098952 0.923266
Si Si6 0.466194 0.093459 0.690159
Si Si7 0.681546 0.856535 0.343201
O O1 0.903370 0.201198 0.210010
O O2 0.750000 0.250000 0.000000
O O3 0.859898 0.321616 0.016427
O O4 0.855011 0.159535 0.955071
O O5 0.500000 0.698736 0.500000
O O6 0.562246 0.671216 0.357296
O O7 0.508526 0.822468 0.353847
O O8 0.133538 0.100870 0.248380
O O9 0.221835 0.131983 0.535728
O O10 0.163662 0.254676 0.339550
O O11 0.138240 0.500000 0.008692
O O12 0.142346 0.608578 0.181464
O O13 0.013891 0.596788 0.868374
O O14 0.912035 0.000000 0.972651
O O15 0.000000 0.131644 0.000000
O O16 0.370310 0.100185 0.610746
O O17 0.486602 0.000000 0.660525
#
# Coordination Sequence:
#
# PCOD9180220 Si02
#       7
#     8   8   8   8   8   8   8
#     4  11  24  40  66  93 126 165 214 269 319 372
#     4  10  22  38  60  84 123 169 205 251 324 388
#     4  10  21  37  60  88 121 161 214 260 309 372
#     4  10  20  35  58  89 125 161 197 244 314 385
#     4  11  23  43  69  92 122 171 224 265 312 375
#     4   9  19  34  54  87 122 157 197 246 308 378
#     4  10  19  31  57  89 121 155 196 251 310 366
#
# _framework density 19.266722999999999
#
# number of rings (size 3 to 8) (size 9 to 14) (size 15 to 20)
#    0.000    1.857    2.857    0.857    2.000    4.286 
#    0.000    0.000    0.000    0.857    0.000    0.000 
#    0.000    0.000    0.000    0.000    0.000    0.000 
#
# Total GULP energy -155917.655371 kJ/mol
# GULP energy per Si atom -5568.487692 kJ/mol
# Density = 1.922287 g / cm^3
# Si number density = 19.266723 Si / 1000 Ang^3
#
#
#
# Elastic Constant Matrix: (Units=GPa)
#
#
# Indices 1 2 3 4 5 6 
#
# 1 120.0391 34.7953 61.9949 0.0000 17.6270 0.0000
# 2 34.7953 80.6075 15.4275 0.0000 -0.4608 0.0000
# 3 61.9949 15.4275 84.3626 0.0000 -4.3861 0.0000
# 4 0.0000 0.0000 0.0000 19.1762 0.0000 2.7834
# 5 17.6270 -0.4608 -4.3861 0.0000 31.9591 0.0000
# 6 0.0000 0.0000 0.0000 2.7834 0.0000 -5.5901
#
#
#
# Elastic Compliance Matrix: (Units=1/GPa)
#
#
# Indices 1 2 3 4 5 6 
#
# 1 0.018573 -0.005548 -0.013266 0.000000 -0.012145 0.000000
# 2 -0.005548 0.014514 0.001604 0.000000 0.003489 0.000000
# 3 -0.013266 0.001604 0.021846 0.000000 0.010338 0.000000
# 4 0.000000 0.000000 0.000000 0.048633 0.000000 0.024215
# 5 -0.012145 0.003489 0.010338 0.000000 0.039457 0.000000
# 6 0.000000 0.000000 0.000000 0.024215 0.000000 -0.166829
#
#
# Mechanical properties :
#
#
# Convention : Reuss Voigt Hill
#
# Bulk Modulus (GPa) = 48.74645 56.60497 52.67571
# Shear Modulus (GPa) = 286.51752 20.62846 153.57299
#
# Velocity S-wave (km/s) = 12.20794 3.27567 8.93767
# Velocity P-wave (km/s) = 14.96889 6.61439 11.57190
#
# Compressibility (1/GPa) = 0.02051431
#
# Stress axis : x y z
#
# Youngs Moduli (GPa) = 53.84085 68.90120 45.77473
#
# Poissons Ratio (x) = 0.38226 0.60723
# Poissons Ratio (y) = 0.29870 -0.07343
# Poissons Ratio (z) = 0.71423 -0.11053
#
# Static dielectric constant tensor:
#      x y z
#    x 1.734930 0.000000 0.011160 
#    y 0.000000 1.712670 0.000000 
#    z 0.011160 0.000000 1.705030 
# 
# From -- ./inp_files/168509.got.cif
#   From: 2010.05.17/outbox.cif.g08.bks.cpg/sg12_85_cif.got.tgz:168509.got - 2010.06.03 13:09:07.
