data_PCOD9180347
_publ_section_title
;
Structure prediction by ZEFSAII (Michael W. Deem and Ramdas Pophale) SiO2 
 PCOD9180347
Probable space group: C 2/M
;
_chemical_formula_sum "Si O2"
_cell_formula_units_Z 60
_cell_length_a 24.872599
_cell_length_b 9.577618
_cell_length_c 11.764747
_cell_angle_alpha 90.000000
_cell_angle_beta 70.398942
_cell_angle_gamma 90.000000
_cell_volume 2640.193793
_symmetry_space_group_name_H-M "C 2/M"
_symmetry_group_IT_number 12
_symmetry_cell_setting 'monoclinic'
loop_
_space_group_symop_operation_xyz
x,y,z
-x,y,-z
-x,-y,-z
x,-y,z
1/2+x,1/2+y,z
1/2-x,1/2+y,-z
1/2-x,1/2-y,-z
1/2+x,1/2-y,z
loop_
_atom_site_type_symbol
_atom_site_label
_atom_site_fract_x
_atom_site_fract_y
_atom_site_fract_z
Si Si1 0.600800 0.668490 0.780856
Si Si2 0.891382 0.838608 0.484727
Si Si3 0.565594 0.159863 0.347674
Si Si4 0.523617 0.662936 0.175356
Si Si5 0.351621 0.335040 0.024891
Si Si6 0.264785 0.263135 0.650496
Si Si7 0.771193 0.500000 0.474434
Si Si8 0.306738 0.161137 0.852662
O O1 0.607225 0.500000 0.778512
O O2 0.610869 0.710292 0.643842
O O3 0.534064 0.699243 0.850537
O O4 0.642204 0.718895 0.850565
O O5 0.928960 0.740350 0.537658
O O6 0.826948 0.831478 0.577317
O O7 0.910447 0.000000 0.475319
O O8 0.528196 0.243323 0.283846
O O9 0.629905 0.160017 0.249730
O O10 0.548049 0.000000 0.372875
O O11 0.518604 0.500000 0.211847
O O12 0.582722 0.676301 0.066585
O O13 0.337486 0.500000 0.033114
O O14 0.313924 0.251452 0.961368
O O15 0.223078 0.377021 0.627322
O O16 0.267141 0.225688 0.782112
O O17 0.261780 0.121526 0.579914
O O18 0.292220 0.000000 0.886658
#
# Coordination Sequence:
#
# PCOD9180347 Si02
#       8
#     8   8   8   8   8   8   4   8
#     4   9  18  31  47  70  95 130 171 207 244 280
#     4  10  19  32  49  68 100 134 162 192 236 297
#     4   9  18  30  46  67  95 131 164 202 249 286
#     4   9  16  29  49  69  94 124 168 218 250 279
#     4   9  17  29  49  72  93 126 172 213 241 271
#     4  10  19  33  52  81 105 124 152 187 239 292
#     4  10  20  32  54  82 106 120 148 188 240 298
#     4   9  17  30  48  70 101 128 154 196 241 279
#
# _framework density 22.725605000000002
#
# number of rings (size 3 to 8) (size 9 to 14) (size 15 to 20)
#    0.000    2.667    1.333    0.800    1.867    3.733 
#    0.000    4.667    0.000    3.200    0.000    5.600 
#    0.000    0.000    0.000    0.000    0.000    0.000 
#
# Total GULP energy -167178.971640 kJ/mol
# GULP energy per Si atom -5572.632388 kJ/mol
# Density = 2.267388 g / cm^3
# Si number density = 22.725605 Si / 1000 Ang^3
#
#
#
# Elastic Constant Matrix: (Units=GPa)
#
#
# Indices 1 2 3 4 5 6 
#
# 1 103.3068 30.1356 50.8629 0.0000 24.2112 0.0000
# 2 30.1356 145.3578 96.3031 0.0000 42.9899 0.0000
# 3 50.8629 96.3031 185.0650 0.0000 54.1194 0.0000
# 4 0.0000 0.0000 0.0000 10.5098 0.0000 45.8568
# 5 24.2112 42.9899 54.1194 0.0000 48.3858 0.0000
# 6 0.0000 0.0000 0.0000 45.8568 0.0000 -53.5843
#
#
#
# Elastic Compliance Matrix: (Units=1/GPa)
#
#
# Indices 1 2 3 4 5 6 
#
# 1 0.011541 0.000076 -0.002234 0.000000 -0.003344 0.000000
# 2 0.000076 0.011301 -0.004390 0.000000 -0.005168 0.000000
# 3 -0.002234 -0.004390 0.010157 0.000000 -0.006342 0.000000
# 4 0.000000 0.000000 0.000000 0.020099 0.000000 0.017201
# 5 -0.003344 -0.005168 -0.006342 0.000000 0.034026 0.000000
# 6 0.000000 0.000000 0.000000 0.017201 0.000000 -0.003942
#
#
# Mechanical properties :
#
#
# Convention : Reuss Voigt Hill
#
# Bulk Modulus (GPa) = 50.24288 87.59253 68.91771
# Shear Modulus (GPa) = 48.58556 18.15745 33.37151
#
# Velocity S-wave (km/s) = 4.62878 2.82970 3.83620
# Velocity P-wave (km/s) = 7.12208 7.02165 7.07204
#
# Compressibility (1/GPa) = 0.01990332
#
# Stress axis : x y z
#
# Youngs Moduli (GPa) = 86.64621 88.48776 98.45908
#
# Poissons Ratio (x) = -0.00674 0.21992
# Poissons Ratio (y) = -0.00660 0.43226
# Poissons Ratio (z) = 0.19353 0.38849
#
# Static dielectric constant tensor:
#      x y z
#    x 1.932710 0.000000 -0.051040 
#    y 0.000000 1.766800 0.000000 
#    z -0.051040 0.000000 1.854260 
# 
# From -- ./inp_files/186645.got.cif
#   From: 2010.05.17/outbox.cif.g08.bks.cpg/sg12_94_cif.got.tgz:186645.got - 2010.06.03 13:09:07.
