data_PCOD9180068
_publ_section_title
;
Structure prediction by ZEFSAII (Michael W. Deem and Ramdas Pophale) SiO2 
 PCOD9180068
Probable space group: C 2/M
;
_chemical_formula_sum "Si O2"
_cell_formula_units_Z 50
_cell_length_a 25.250310
_cell_length_b 7.261912
_cell_length_c 15.699895
_cell_angle_alpha 90.000000
_cell_angle_beta 128.510099
_cell_angle_gamma 90.000000
_cell_volume 2252.671753
_symmetry_space_group_name_H-M "C 2/M"
_symmetry_group_IT_number 12
_symmetry_cell_setting 'monoclinic'
loop_
_space_group_symop_operation_xyz
x,y,z
-x,y,-z
-x,-y,-z
x,-y,z
1/2+x,1/2+y,z
1/2-x,1/2+y,-z
1/2-x,1/2-y,-z
1/2+x,1/2-y,z
loop_
_atom_site_type_symbol
_atom_site_label
_atom_site_fract_x
_atom_site_fract_y
_atom_site_fract_z
Si Si1 0.426026 0.724334 0.961533
Si Si2 0.399689 0.722580 0.306567
Si Si3 0.000000 0.500000 0.500000
Si Si4 0.562844 0.277319 0.836147
Si Si5 0.669772 0.284650 0.283634
Si Si6 0.411140 0.275392 0.633968
Si Si7 0.176786 0.780387 0.608268
O O1 0.424137 0.500000 0.961388
O O2 0.369824 0.789225 0.838287
O O3 0.500000 0.774741 0.000000
O O4 0.417751 0.787465 0.050431
O O5 0.411688 0.500000 0.324262
O O6 0.390794 0.768677 0.198311
O O7 0.339215 0.772578 0.310922
O O8 0.462053 0.838255 0.404927
O O9 0.560899 0.500000 0.839044
O O10 0.486438 0.218532 0.735271
O O11 0.652837 0.500000 0.269189
O O12 0.640241 0.213988 0.343116
O O13 0.749642 0.269149 0.352206
O O14 0.412170 0.500000 0.631256
O O15 0.381831 0.210498 0.514075
O O16 0.173885 0.000000 0.602666
#
# Coordination Sequence:
#
# PCOD9180068 Si02
#       7
#     8   8   2   8   8   8   8
#     4   9  15  28  54  85 110 141 189 247 296 342
#     4  10  22  38  58  87 120 158 196 238 291 347
#     4  12  22  36  64  86 122 156 196 244 288 338
#     4   9  16  31  56  82 114 145 189 241 295 347
#     4  10  19  31  53  83 109 140 191 240 285 345
#     4   9  16  28  50  79 107 142 182 234 284 345
#     4  10  21  36  52  73 114 159 191 221 283 357
#
# _framework density 22.195865999999999
#
# number of rings (size 3 to 8) (size 9 to 14) (size 15 to 20)
#    0.000    2.400    1.600    1.680    1.120    2.560 
#    0.000    0.800    3.520    0.480    0.000    0.000 
#    0.000    0.000    0.000    0.000    0.000    0.000 
#
# Total GULP energy -139357.648423 kJ/mol
# GULP energy per Si atom -5574.305937 kJ/mol
# Density = 2.214535 g / cm^3
# Si number density = 22.195866 Si / 1000 Ang^3
#
#
#
# Elastic Constant Matrix: (Units=GPa)
#
#
# Indices 1 2 3 4 5 6 
#
# 1 106.0029 -8.0493 29.8543 0.0000 -35.5185 0.0000
# 2 -8.0493 104.2060 -6.5833 0.0000 -6.2922 0.0000
# 3 29.8543 -6.5833 75.1739 0.0000 -24.6210 0.0000
# 4 0.0000 0.0000 0.0000 -13.4955 0.0000 17.0357
# 5 -35.5185 -6.2922 -24.6210 0.0000 43.2232 0.0000
# 6 0.0000 0.0000 0.0000 17.0357 0.0000 -2.8674
#
#
#
# Elastic Compliance Matrix: (Units=1/GPa)
#
#
# Indices 1 2 3 4 5 6 
#
# 1 0.013519 0.001546 -0.001870 0.000000 0.010269 0.000000
# 2 0.001546 0.010019 0.001423 0.000000 0.003540 0.000000
# 3 -0.001870 0.001423 0.016884 0.000000 0.008288 0.000000
# 4 0.000000 0.000000 0.000000 0.011400 0.000000 0.067731
# 5 0.010269 0.003540 0.008288 0.000000 0.036810 0.000000
# 6 0.000000 0.000000 0.000000 0.067731 0.000000 0.053656
#
#
# Mechanical properties :
#
#
# Convention : Reuss Voigt Hill
#
# Bulk Modulus (GPa) = 23.46337 35.09179 29.27758
# Shear Modulus (GPa) = 32.40488 23.38281 27.89384
#
# Velocity S-wave (km/s) = 3.82508 3.24925 3.54886
# Velocity P-wave (km/s) = 5.48655 5.47003 5.47830
#
# Compressibility (1/GPa) = 0.04261962
#
# Stress axis : x y z
#
# Youngs Moduli (GPa) = 73.97262 99.80628 59.22663
#
# Poissons Ratio (x) = -0.15431 0.11076
# Poissons Ratio (y) = -0.11437 -0.08426
# Poissons Ratio (z) = 0.13834 -0.14199
#
# Static dielectric constant tensor:
#      x y z
#    x 1.830550 0.000000 -0.041820 
#    y 0.000000 1.860140 0.000000 
#    z -0.041820 0.000000 1.779250 
# 
# From -- ./inp_files/244380.got.cif
#   From: 2010.05.17/outbox.cif.g08.bks.cpg/sg12_123_cif.got.tgz:244380.got - 2010.06.03 13:09:07.
