data_PCOD9180822
_publ_section_title
;
Structure prediction by ZEFSAII (Michael W. Deem and Ramdas Pophale) SiO2 
 PCOD9180822
Probable space group: C 2/M
;
_chemical_formula_sum "Si O2"
_cell_formula_units_Z 48
_cell_length_a 23.555539
_cell_length_b 8.846382
_cell_length_c 27.116441
_cell_angle_alpha 90.000000
_cell_angle_beta 150.818970
_cell_angle_gamma 90.000000
_cell_volume 2755.046602
_symmetry_space_group_name_H-M "C 2/M"
_symmetry_group_IT_number 12
_symmetry_cell_setting 'monoclinic'
loop_
_space_group_symop_operation_xyz
x,y,z
-x,y,-z
-x,-y,-z
x,-y,z
1/2+x,1/2+y,z
1/2-x,1/2+y,-z
1/2-x,1/2-y,-z
1/2+x,1/2-y,z
loop_
_atom_site_type_symbol
_atom_site_label
_atom_site_fract_x
_atom_site_fract_y
_atom_site_fract_z
Si Si1 0.561512 0.183926 0.995441
Si Si2 0.069712 0.678916 0.203279
Si Si3 0.431672 0.820814 0.621276
Si Si4 0.202424 0.820516 0.387030
Si Si5 0.366165 0.672433 0.106398
Si Si6 0.671047 0.672299 0.805263
O O1 0.696923 0.234915 0.098747
O O2 0.567640 0.000000 0.995989
O O3 0.500000 0.222955 0.000000
O O4 0.481661 0.233402 0.888460
O O5 0.088505 0.500000 0.214183
O O6 0.177182 0.754494 0.313611
O O7 0.966921 0.721346 0.162937
O O8 0.332623 0.789867 0.505249
O O9 0.381955 0.745687 0.633960
O O10 0.558530 0.762319 0.701042
O O11 0.437187 0.000000 0.634036
O O12 0.182174 0.000000 0.370387
O O13 0.381088 0.500000 0.099366
O O14 0.355359 0.665319 0.156616
O O15 0.250000 0.750000 0.000000
O O16 0.670817 0.500000 0.785361
#
# Coordination Sequence:
#
# PCOD9180822 Si02
#       6
#     8   8   8   8   8   8
#     4   9  19  36  55  75 100 131 170 217 261 298
#     4  11  20  32  52  77 103 135 172 207 255 310
#     4  10  20  32  49  74 106 141 173 205 247 303
#     4  10  20  33  48  73 108 141 171 206 250 300
#     4  11  20  30  46  74 107 137 166 203 254 308
#     4  10  19  32  51  75 104 136 169 207 255 305
#
# _framework density 17.422573
#
# number of rings (size 3 to 8) (size 9 to 14) (size 15 to 20)
#    0.000    1.833    3.333    2.000    0.000    2.667 
#    0.000    0.000    0.000    5.500    0.000    7.000 
#    0.000    0.000    0.000    0.000    0.000    0.000 
#
# Total GULP energy -133679.357851 kJ/mol
# GULP energy per Si atom -5569.973244 kJ/mol
# Density = 1.738292 g / cm^3
# Si number density = 17.422573 Si / 1000 Ang^3
#
#
#
# Elastic Constant Matrix: (Units=GPa)
#
#
# Indices 1 2 3 4 5 6 
#
# 1 70.1999 15.2069 54.6768 0.0000 -4.7554 0.0000
# 2 15.2069 36.7559 55.3248 0.0000 -1.6018 0.0000
# 3 54.6768 55.3248 165.2548 0.0002 -6.0638 0.0000
# 4 0.0000 0.0000 0.0002 23.8167 0.0000 0.3795
# 5 -4.7554 -1.6018 -6.0638 0.0000 11.0985 0.0000
# 6 0.0000 0.0000 0.0000 0.3795 0.0000 12.9584
#
#
#
# Elastic Compliance Matrix: (Units=1/GPa)
#
#
# Indices 1 2 3 4 5 6 
#
# 1 0.019637 0.003223 -0.007399 0.000000 0.004837 0.000000
# 2 0.003223 0.055422 -0.019671 0.000000 -0.001368 0.000000
# 3 -0.007399 -0.019671 0.015168 0.000000 0.002278 0.000000
# 4 0.000000 0.000000 0.000000 0.042007 0.000000 -0.001230
# 5 0.004837 -0.001368 0.002278 0.000000 0.093222 0.000000
# 6 0.000000 0.000000 0.000000 -0.001230 0.000000 0.077206
#
#
# Mechanical properties :
#
#
# Convention : Reuss Voigt Hill
#
# Bulk Modulus (GPa) = 23.51050 58.06972 40.79011
# Shear Modulus (GPa) = 13.71610 19.37486 16.54548
#
# Velocity S-wave (km/s) = 2.80886 3.33837 3.08499
# Velocity P-wave (km/s) = 4.90338 6.94709 6.01271
#
# Compressibility (1/GPa) = 0.04253419
#
# Stress axis : x y z
#
# Youngs Moduli (GPa) = 50.92370 18.04323 65.92637
#
# Poissons Ratio (x) = -0.05815 0.48777
# Poissons Ratio (y) = -0.16412 1.29685
# Poissons Ratio (z) = 0.37677 0.35493
#
# Static dielectric constant tensor:
#      x y z
#    x 1.565070 0.000000 0.001310 
#    y 0.000000 1.634370 0.000000 
#    z 0.001310 0.000000 1.660250 
# 
# From -- ./inp_files/367214.got.cif
#   From: 2010.05.17/outbox.cif.g08.bks.cpg/sg12_184_cif.got.tgz:367214.got - 2010.06.03 13:09:07.
