data_PCOD9180385
_publ_section_title
;
Structure prediction by ZEFSAII (Michael W. Deem and Ramdas Pophale) SiO2 
 PCOD9180385
Probable space group: C 2/M
;
_chemical_formula_sum "Si O2"
_cell_formula_units_Z 64
_cell_length_a 25.899789
_cell_length_b 8.193091
_cell_length_c 18.355324
_cell_angle_alpha 90.000000
_cell_angle_beta 103.035781
_cell_angle_gamma 90.000000
_cell_volume 3794.611234
_symmetry_space_group_name_H-M "C 2/M"
_symmetry_group_IT_number 12
_symmetry_cell_setting 'monoclinic'
loop_
_space_group_symop_operation_xyz
x,y,z
-x,y,-z
-x,-y,-z
x,-y,z
1/2+x,1/2+y,z
1/2-x,1/2+y,-z
1/2-x,1/2-y,-z
1/2+x,1/2-y,z
loop_
_atom_site_type_symbol
_atom_site_label
_atom_site_fract_x
_atom_site_fract_y
_atom_site_fract_z
Si Si1 0.568533 0.196715 0.907629
Si Si2 0.237917 0.802583 0.078540
Si Si3 0.619606 0.305148 0.073540
Si Si4 0.654508 0.196968 0.815617
Si Si5 0.031792 0.802438 0.335858
Si Si6 0.047131 0.695017 0.180065
Si Si7 0.912975 0.802592 0.338597
Si Si8 0.437433 0.689315 0.501372
O O1 0.612820 0.255193 0.864107
O O2 0.510331 0.257010 0.866487
O O3 0.567737 0.000000 0.903716
O O4 0.585370 0.244419 0.994030
O O5 0.179889 0.743207 0.083756
O O6 0.286749 0.746266 0.144317
O O7 0.237359 0.000000 0.080298
O O8 0.250000 0.750000 0.000000
O O9 0.620997 0.500000 0.070576
O O10 0.592128 0.253895 0.139564
O O11 0.632658 0.250320 0.730677
O O12 0.654359 0.000000 0.817709
O O13 0.053711 0.749308 0.265375
O O14 0.063316 0.740248 0.417408
O O15 0.970219 0.748642 0.324612
O O16 0.031614 0.000000 0.339282
O O17 0.045718 0.500000 0.177407
O O18 0.909191 0.740038 0.420782
O O19 0.914551 0.000000 0.342303
O O20 0.500000 0.688164 0.500000
O O21 0.420487 0.500000 0.501752
#
# Coordination Sequence:
#
# PCOD9180385 Si02
#       8
#     8   8   8   8   8   8   8   8
#     4  10  20  34  50  68  96 131 159 188 238 292
#     4  10  21  36  53  70  91 121 160 202 243 284
#     4  11  23  36  51  71  91 120 166 209 238 273
#     4  10  19  32  49  70  98 129 156 191 241 288
#     4   9  16  28  47  69  97 130 161 193 229 273
#     4  11  22  34  48  69  99 132 161 190 234 290
#     4   9  16  27  46  72  99 126 160 195 229 277
#     4   7  12  24  42  66  96 128 156 187 230 276
#
# _framework density 16.866022999999998
#
# number of rings (size 3 to 8) (size 9 to 14) (size 15 to 20)
#    0.000    2.375    2.500    2.625    0.000    4.000 
#    0.000    0.625    0.000    2.250    0.000    0.875 
#    0.000    0.000    0.000    0.000    0.000    0.000 
#
# Total GULP energy -178399.064592 kJ/mol
# GULP energy per Si atom -5574.970769 kJ/mol
# Density = 1.682763 g / cm^3
# Si number density = 16.866023 Si / 1000 Ang^3
#
#
#
# Elastic Constant Matrix: (Units=GPa)
#
#
# Indices 1 2 3 4 5 6 
#
# 1 86.4925 8.7275 69.4484 0.0000 -11.3914 0.0000
# 2 8.7275 1.7920 -3.4446 0.0000 -0.0567 0.0000
# 3 69.4484 -3.4446 160.4427 0.0000 1.6228 0.0000
# 4 0.0000 0.0000 0.0000 -4.5301 0.0000 19.9786
# 5 -11.3914 -0.0567 1.6228 0.0000 18.4225 0.0000
# 6 0.0000 0.0000 0.0000 19.9786 0.0000 0.7920
#
#
#
# Elastic Compliance Matrix: (Units=1/GPa)
#
#
# Indices 1 2 3 4 5 6 
#
# 1 -0.082490 0.489950 0.046767 0.000000 -0.053619 0.000000
# 2 0.489950 -2.328003 -0.265286 0.000000 0.319162 0.000000
# 3 0.046767 -0.265286 -0.020008 0.000000 0.029864 0.000000
# 4 0.000000 0.000000 0.000000 -0.001967 0.000000 0.049608
# 5 -0.053619 0.319162 0.029864 0.000000 0.019478 0.000000
# 6 0.000000 0.000000 0.000000 0.049608 0.000000 0.011248
#
#
# Mechanical properties :
#
#
# Convention : Reuss Voigt Hill
#
# Bulk Modulus (GPa) = -0.52976 44.24330 21.85677
# Shear Modulus (GPa) = -1.39906 14.53660 6.56877
#
# Velocity S-wave (km/s) = -0.91177 2.93898 1.97563
# Velocity P-wave (km/s) = 1.19298 6.14865 4.26513
#
# Compressibility (1/GPa) = -1.88763755
#
# Stress axis : x y z
#
# Youngs Moduli (GPa) = -12.12272 -0.42955 -49.97962
#
# Poissons Ratio (x) = 0.21046 2.33741
# Poissons Ratio (y) = 5.93953 -13.25887
# Poissons Ratio (z) = 0.56695 -0.11395
#
# Static dielectric constant tensor:
#      x y z
#    x 1.558980 0.000000 0.008410 
#    y 0.000000 1.596560 0.000000 
#    z 0.008410 0.000000 1.586670 
# 
# From -- ./inp_files/287746.got.cif
#   From: 2010.05.17/outbox.cif.g08.bks.cpg/sg12_144_cif.got.tgz:287746.got - 2010.06.03 13:09:07.
