data_PCOD9180340
_publ_section_title
;
Structure prediction by ZEFSAII (Michael W. Deem and Ramdas Pophale) SiO2 
 PCOD9180340
Probable space group: C 2/M
;
_chemical_formula_sum "Si O2"
_cell_formula_units_Z 56
_cell_length_a 23.420882
_cell_length_b 8.982293
_cell_length_c 22.333615
_cell_angle_alpha 90.000000
_cell_angle_beta 48.300327
_cell_angle_gamma 90.000000
_cell_volume 3508.018643
_symmetry_space_group_name_H-M "C 2/M"
_symmetry_group_IT_number 12
_symmetry_cell_setting 'monoclinic'
loop_
_space_group_symop_operation_xyz
x,y,z
-x,y,-z
-x,-y,-z
x,-y,z
1/2+x,1/2+y,z
1/2-x,1/2+y,-z
1/2-x,1/2-y,-z
1/2+x,1/2-y,z
loop_
_atom_site_type_symbol
_atom_site_label
_atom_site_fract_x
_atom_site_fract_y
_atom_site_fract_z
Si Si1 0.644076 0.322949 0.124286
Si Si2 0.516228 0.822679 0.737572
Si Si3 0.241444 0.671045 0.412475
Si Si4 0.870636 0.170243 0.427253
Si Si5 0.585623 0.681225 0.924676
Si Si6 0.124814 0.819302 0.762118
Si Si7 0.301935 0.678495 0.047652
O O1 0.637098 0.500000 0.137474
O O2 0.568992 0.241194 0.200105
O O3 0.721122 0.261233 0.100713
O O4 0.654804 0.294372 0.045516
O O5 0.561289 0.768562 0.646938
O O6 0.563165 0.753507 0.760824
O O7 0.516775 0.000000 0.740834
O O8 0.217225 0.500000 0.421273
O O9 0.170932 0.767527 0.484852
O O10 0.304975 0.672579 0.421371
O O11 0.290567 0.721386 0.320921
O O12 0.895189 0.000000 0.417434
O O13 0.584414 0.500000 0.926656
O O14 0.609647 0.724062 0.840962
O O15 0.645599 0.727256 0.933642
O O16 0.500000 0.732227 0.000000
O O17 0.118399 0.000000 0.761066
O O18 0.289117 0.500000 0.060522
#
# Coordination Sequence:
#
# PCOD9180340 Si02
#       7
#     8   8   8   8   8   8   8
#     4  10  19  32  49  67  91 121 153 191 232 272
#     4  11  20  29  44  67  94 121 152 190 230 272
#     4   8  14  24  38  59  88 119 150 183 220 266
#     4   9  16  26  41  61  87 118 150 184 225 272
#     4   9  16  28  48  71  94 122 155 188 221 262
#     4   9  17  29  45  66  93 125 157 187 224 270
#     4   9  18  32  50  70  91 119 156 192 225 264
#
# _framework density 15.963426
#
# number of rings (size 3 to 8) (size 9 to 14) (size 15 to 20)
#    0.000    2.714    0.000    3.857    0.000    6.286 
#    0.000    0.714    0.000    1.714    0.000    1.000 
#    0.000    8.000    0.000    0.000    0.000    0.000 
#
# Total GULP energy -156036.770884 kJ/mol
# GULP energy per Si atom -5572.741817 kJ/mol
# Density = 1.592709 g / cm^3
# Si number density = 15.963426 Si / 1000 Ang^3
#
#
#
# Elastic Constant Matrix: (Units=GPa)
#
#
# Indices 1 2 3 4 5 6 
#
# 1 69.4909 30.0981 64.8335 -0.0001 -1.3679 0.0002
# 2 30.0981 61.9777 58.7687 -0.0002 -10.0585 0.0006
# 3 64.8335 58.7687 155.3208 0.0000 -3.7561 0.0001
# 4 -0.0001 -0.0002 0.0000 24.1599 0.0000 -4.5085
# 5 -1.3679 -10.0585 -3.7561 0.0000 19.4037 0.0000
# 6 0.0002 0.0006 0.0001 -4.5085 0.0000 16.7516
#
#
#
# Elastic Compliance Matrix: (Units=1/GPa)
#
#
# Indices 1 2 3 4 5 6 
#
# 1 0.024076 -0.003796 -0.008661 0.000000 -0.001947 0.000000
# 2 -0.003796 0.028470 -0.008879 0.000000 0.012772 -0.000001
# 3 -0.008661 -0.008879 0.013349 0.000000 -0.002629 0.000000
# 4 0.000000 0.000000 0.000000 0.043580 0.000000 0.011729
# 5 -0.001947 0.012772 -0.002629 0.000000 0.057511 0.000000
# 6 0.000000 -0.000001 0.000000 0.011729 0.000000 0.062853
#
#
# Mechanical properties :
#
#
# Convention : Reuss Voigt Hill
#
# Bulk Modulus (GPa) = 43.05715 66.02114 54.53914
# Shear Modulus (GPa) = 17.84107 20.93564 19.38836
#
# Velocity S-wave (km/s) = 3.34671 3.62536 3.48882
# Velocity P-wave (km/s) = 6.47803 7.67931 7.10411
#
# Compressibility (1/GPa) = 0.02322495
#
# Stress axis : x y z
#
# Youngs Moduli (GPa) = 41.53442 35.12435 74.90972
#
# Poissons Ratio (x) = 0.13333 0.64878
# Poissons Ratio (y) = 0.15766 0.66512
# Poissons Ratio (z) = 0.35972 0.31187
#
# Static dielectric constant tensor:
#      x y z
#    x 1.505870 0.000000 0.008430 
#    y 0.000000 1.535260 0.000000 
#    z 0.008430 0.000000 1.546590 
# 
# From -- ./inp_files/348487.got.cif
#   From: 2010.05.17/outbox.cif.g08.bks.cpg/sg12_175_cif.got.tgz:348487.got - 2010.06.03 13:09:07.
