data_PCOD9180745
_publ_section_title
;
Structure prediction by ZEFSAII (Michael W. Deem and Ramdas Pophale) SiO2 
 PCOD9180745
Probable space group: C 2/M
;
_chemical_formula_sum "Si O2"
_cell_formula_units_Z 56
_cell_length_a 38.882396
_cell_length_b 8.469736
_cell_length_c 24.066866
_cell_angle_alpha 90.000000
_cell_angle_beta 156.239202
_cell_angle_gamma 90.000000
_cell_volume 3193.451885
_symmetry_space_group_name_H-M "C 2/M"
_symmetry_group_IT_number 12
_symmetry_cell_setting 'monoclinic'
loop_
_space_group_symop_operation_xyz
x,y,z
-x,y,-z
-x,-y,-z
x,-y,z
1/2+x,1/2+y,z
1/2-x,1/2+y,-z
1/2-x,1/2-y,-z
1/2+x,1/2-y,z
loop_
_atom_site_type_symbol
_atom_site_label
_atom_site_fract_x
_atom_site_fract_y
_atom_site_fract_z
Si Si1 0.942225 0.189254 0.728417
Si Si2 0.747787 0.690282 0.934368
Si Si3 0.173833 0.809648 0.347996
Si Si4 0.095307 0.807370 0.628814
Si Si5 0.709965 0.189235 0.575298
Si Si6 0.715996 0.690552 0.709156
Si Si7 0.630794 0.809435 0.983699
O O1 0.910603 0.241811 0.743506
O O2 0.872138 0.249862 0.580495
O O3 0.940854 0.000000 0.724795
O O4 0.036383 0.247397 0.853787
O O5 0.748341 0.500000 0.935850
O O6 0.661858 0.740366 0.775069
O O7 0.826756 0.741482 0.012034
O O8 0.750000 0.750000 0.000000
O O9 0.250000 0.750000 0.500000
O O10 0.204624 0.758215 0.332438
O O11 0.172815 0.000000 0.345992
O O12 0.137075 0.759105 0.631910
O O13 0.000000 0.751181 0.500000
O O14 0.093655 0.000000 0.626115
O O15 0.710432 0.247185 0.638851
O O16 0.707233 0.000000 0.570633
O O17 0.715478 0.500000 0.706804
O O18 0.802416 0.739228 0.869323
O O19 0.628543 0.000000 0.980350
#
# Coordination Sequence:
#
# PCOD9180745 Si02
#       7
#     8   8   8   8   8   8   8
#     4  10  19  32  52  75  96 124 168 209 239 285
#     4   9  18  32  50  72  98 127 158 196 241 288
#     4   8  16  30  47  69  96 125 157 198 245 289
#     4   8  15  30  51  71  92 122 159 196 235 278
#     4  10  19  32  51  74 101 129 157 197 251 298
#     4   9  18  33  51  71  98 131 165 199 236 287
#     4   9  19  35  50  68 101 137 164 198 246 290
#
# _framework density 17.535882999999998
#
# number of rings (size 3 to 8) (size 9 to 14) (size 15 to 20)
#    0.000    3.000    0.000    2.571    0.000    3.429 
#    0.000    4.286    0.000    5.143    0.000    0.000 
#    0.000    0.000    0.000    0.000    0.000    0.000 
#
# Total GULP energy -155926.188112 kJ/mol
# GULP energy per Si atom -5568.792433 kJ/mol
# Density = 1.749597 g / cm^3
# Si number density = 17.535883 Si / 1000 Ang^3
#
#
#
# Elastic Constant Matrix: (Units=GPa)
#
#
# Indices 1 2 3 4 5 6 
#
# 1 213.6411 30.9022 112.7094 0.0000 11.8910 0.0000
# 2 30.9022 14.6472 23.0592 0.0000 3.6038 0.0000
# 3 112.7094 23.0592 108.3905 0.0000 27.9056 0.0000
# 4 0.0000 0.0000 0.0000 22.0166 0.0000 -1.5589
# 5 11.8910 3.6038 27.9056 0.0000 28.4875 0.0000
# 6 0.0000 0.0000 0.0000 -1.5589 0.0000 25.4606
#
#
#
# Elastic Compliance Matrix: (Units=1/GPa)
#
#
# Indices 1 2 3 4 5 6 
#
# 1 0.012502 -0.006654 -0.013985 0.000000 0.009323 0.000000
# 2 -0.006654 0.108959 -0.017956 0.000000 0.006583 0.000000
# 3 -0.013985 -0.017956 0.034100 0.000000 -0.025295 0.000000
# 4 0.000000 0.000000 0.000000 0.045618 0.000000 0.002793
# 5 0.009323 0.006583 -0.025295 0.000000 0.055157 0.000000
# 6 0.000000 0.000000 0.000000 0.002793 0.000000 0.039447
#
#
# Mechanical properties :
#
#
# Convention : Reuss Voigt Hill
#
# Bulk Modulus (GPa) = 12.75966 74.44671 43.60319
# Shear Modulus (GPa) = 12.52826 26.52681 19.52754
#
# Velocity S-wave (km/s) = 2.67579 3.89358 3.34065
# Velocity P-wave (km/s) = 4.10349 7.92208 6.30865
#
# Compressibility (1/GPa) = 0.07837198
#
# Stress axis : x y z
#
# Youngs Moduli (GPa) = 79.98500 9.17779 29.32518
#
# Poissons Ratio (x) = 0.06107 0.41011
# Poissons Ratio (y) = 0.53222 0.52656
# Poissons Ratio (z) = 1.11859 0.16479
#
# Static dielectric constant tensor:
#      x y z
#    x 1.619090 0.000000 0.025080 
#    y 0.000000 1.614280 0.000000 
#    z 0.025080 0.000000 1.570060 
# 
# From -- ./inp_files/329625.got.cif
#   From: 2010.05.17/outbox.cif.g08.bks.cpg/sg12_165_cif.got.tgz:329625.got - 2010.06.03 13:09:07.
