data_PCOD9180861
_publ_section_title
;
Structure prediction by ZEFSAII (Michael W. Deem and Ramdas Pophale) SiO2 
 PCOD9180861
Probable space group: C 2/M
;
_chemical_formula_sum "Si O2"
_cell_formula_units_Z 48
_cell_length_a 17.599207
_cell_length_b 12.999160
_cell_length_c 12.899189
_cell_angle_alpha 90.000000
_cell_angle_beta 72.298537
_cell_angle_gamma 90.000000
_cell_volume 2811.291383
_symmetry_space_group_name_H-M "C 2/M"
_symmetry_group_IT_number 12
_symmetry_cell_setting 'monoclinic'
loop_
_space_group_symop_operation_xyz
x,y,z
-x,y,-z
-x,-y,-z
x,-y,z
1/2+x,1/2+y,z
1/2-x,1/2+y,-z
1/2-x,1/2-y,-z
1/2+x,1/2-y,z
loop_
_atom_site_type_symbol
_atom_site_label
_atom_site_fract_x
_atom_site_fract_y
_atom_site_fract_z
Si Si1 0.702544 0.738233 0.782273
Si Si2 0.035344 0.245713 0.376633
Si Si3 0.887992 0.879711 0.351689
Si Si4 0.183960 0.879566 0.397789
Si Si5 0.352678 0.121352 0.811717
Si Si6 0.594193 0.879233 0.972645
O O1 0.653051 0.655970 0.736564
O O2 0.746410 0.812793 0.681521
O O3 0.771461 0.681647 0.819076
O O4 0.645625 0.806077 0.877947
O O5 0.101662 0.161132 0.381178
O O6 0.079463 0.331257 0.290741
O O7 0.000000 0.286581 0.500000
O O8 0.964600 0.190241 0.344170
O O9 0.827737 0.865560 0.474087
O O10 0.909932 0.000000 0.340925
O O11 0.195121 0.000000 0.372120
O O12 0.342728 0.000000 0.796731
O O13 0.378877 0.135809 0.919728
O O14 0.607177 0.000000 0.940903
O O15 0.500000 0.858467 0.000000
#
# Coordination Sequence:
#
# PCOD9180861 Si02
#       6
#     8   8   8   8   8   8
#     4  11  20  33  53  76 104 135 167 206 254 305
#     4   9  18  33  54  77 102 136 173 206 244 293
#     4  10  19  32  51  76 106 136 167 207 253 297
#     4   9  18  32  51  76 104 135 172 209 244 291
#     4  10  21  36  53  76 105 134 166 207 255 302
#     4  10  21  37  56  75  97 131 173 213 252 296
#
# _framework density 17.074003999999999
#
# number of rings (size 3 to 8) (size 9 to 14) (size 15 to 20)
#    0.000    2.167    0.000    3.500    0.000    2.333 
#    0.000    0.833    0.000   13.000    0.000    0.000 
#    0.000    0.000    0.000    0.000    0.000    0.000 
#
# Total GULP energy -133943.260303 kJ/mol
# GULP energy per Si atom -5580.969179 kJ/mol
# Density = 1.703514 g / cm^3
# Si number density = 17.074004 Si / 1000 Ang^3
#
#
#
# Elastic Constant Matrix: (Units=GPa)
#
#
# Indices 1 2 3 4 5 6 
#
# 1 96.4509 48.9490 62.9575 0.0000 -0.5806 0.0000
# 2 48.9490 96.8705 65.0463 0.0000 -7.1447 0.0000
# 3 62.9575 65.0463 90.6557 0.0000 -4.3184 0.0000
# 4 0.0000 0.0000 0.0000 29.3764 0.0000 0.0002
# 5 -0.5806 -7.1447 -4.3184 0.0000 25.9355 0.0000
# 6 0.0000 0.0000 0.0000 0.0002 0.0000 18.7393
#
#
#
# Elastic Compliance Matrix: (Units=1/GPa)
#
#
# Indices 1 2 3 4 5 6 
#
# 1 0.019174 -0.001608 -0.012260 0.000000 -0.002055 0.000000
# 2 -0.001608 0.020311 -0.013297 0.000000 0.003345 0.000000
# 3 -0.012260 -0.013297 0.029129 0.000000 0.000913 0.000000
# 4 0.000000 0.000000 0.000000 0.034041 0.000000 0.000000
# 5 -0.002055 0.003345 0.000913 0.000000 0.039585 0.000000
# 6 0.000000 0.000000 0.000000 0.000000 0.000000 0.053364
#
#
# Mechanical properties :
#
#
# Convention : Reuss Voigt Hill
#
# Bulk Modulus (GPa) = 70.00857 70.87586 70.44221
# Shear Modulus (GPa) = 19.63116 21.94518 20.78817
#
# Velocity S-wave (km/s) = 3.39450 3.58899 3.49310
# Velocity P-wave (km/s) = 7.51369 7.66652 7.59049
#
# Compressibility (1/GPa) = 0.01428397
#
# Stress axis : x y z
#
# Youngs Moduli (GPa) = 52.15297 49.23368 34.32947
#
# Poissons Ratio (x) = 0.07917 0.42088
# Poissons Ratio (y) = 0.08387 0.45649
# Poissons Ratio (z) = 0.63940 0.65468
#
# Static dielectric constant tensor:
#      x y z
#    x 1.558790 0.000000 0.002450 
#    y 0.000000 1.547320 0.000000 
#    z 0.002450 0.000000 1.560490 
# 
# From -- ./inp_files/143118.got.cif
#   From: 2010.05.17/outbox.cif.g08.bks.cpg/sg12_72_cif.got.tgz:143118.got - 2010.06.03 13:09:07.
