data_PCOD9180699
_publ_section_title
;
Structure prediction by ZEFSAII (Michael W. Deem and Ramdas Pophale) SiO2 
 PCOD9180699
Probable space group: C 2/M
;
_chemical_formula_sum "Si O2"
_cell_formula_units_Z 56
_cell_length_a 23.832987
_cell_length_b 8.718059
_cell_length_c 19.255981
_cell_angle_alpha 90.000000
_cell_angle_beta 127.089494
_cell_angle_gamma 90.000000
_cell_volume 3191.541812
_symmetry_space_group_name_H-M "C 2/M"
_symmetry_group_IT_number 12
_symmetry_cell_setting 'monoclinic'
loop_
_space_group_symop_operation_xyz
x,y,z
-x,y,-z
-x,-y,-z
x,-y,z
1/2+x,1/2+y,z
1/2-x,1/2+y,-z
1/2-x,1/2-y,-z
1/2+x,1/2-y,z
loop_
_atom_site_type_symbol
_atom_site_label
_atom_site_fract_x
_atom_site_fract_y
_atom_site_fract_z
Si Si1 0.783901 0.823883 0.796586
Si Si2 0.783871 0.175831 0.627357
Si Si3 0.863581 0.816659 0.474026
Si Si4 0.566453 0.182325 0.254598
Si Si5 0.631492 0.814514 0.677233
Si Si6 0.997899 0.183440 0.333514
Si Si7 0.936559 0.813438 0.901752
O O1 0.782311 0.825534 0.710954
O O2 0.708401 0.757620 0.761008
O O3 0.859999 0.757016 0.871730
O O4 0.784367 0.000000 0.821332
O O5 0.709875 0.250604 0.551471
O O6 0.855370 0.263815 0.663442
O O7 0.788603 0.000000 0.606810
O O8 0.876198 0.747819 0.406813
O O9 0.931212 0.778789 0.570588
O O10 0.857195 0.000000 0.464087
O O11 0.510814 0.251549 0.266685
O O12 0.554184 0.247676 0.168361
O O13 0.563639 0.000000 0.251947
O O14 0.568531 0.756197 0.677598
O O15 0.632546 0.000000 0.675426
O O16 0.990853 0.000000 0.326790
O O17 0.933299 0.000000 0.894091
O O18 0.000000 0.772740 0.000000
#
# Coordination Sequence:
#
# PCOD9180699 Si02
#       7
#     8   8   8   8   8   8   8
#     4   7  13  27  48  75 101 126 159 199 243 291
#     4   9  17  32  52  72  99 133 169 211 255 303
#     4  10  20  33  50  73  99 132 176 222 262 298
#     4  11  22  35  52  75 104 135 168 208 258 313
#     4  10  19  32  51  73 101 137 176 216 254 297
#     4  11  23  36  49  68 100 139 178 219 258 302
#     4   9  17  33  59  85 107 132 161 197 248 311
#
# _framework density 17.546379000000002
#
# number of rings (size 3 to 8) (size 9 to 14) (size 15 to 20)
#    0.000    2.429    0.000    5.143    0.000    4.857 
#    0.000    0.714    0.000    0.857    0.000    0.000 
#    0.000    0.000    0.000    0.000    0.000    0.000 
#
# Total GULP energy -156182.333640 kJ/mol
# GULP energy per Si atom -5577.940487 kJ/mol
# Density = 1.750644 g / cm^3
# Si number density = 17.546379 Si / 1000 Ang^3
#
#
#
# Elastic Constant Matrix: (Units=GPa)
#
#
# Indices 1 2 3 4 5 6 
#
# 1 112.3289 31.5967 63.0326 0.0000 7.8726 0.0000
# 2 31.5967 46.6374 36.9658 0.0000 9.1289 0.0000
# 3 63.0326 36.9658 100.5179 0.0000 22.5866 0.0000
# 4 0.0000 0.0000 0.0000 18.3520 0.0000 1.6738
# 5 7.8726 9.1289 22.5866 0.0000 21.1989 0.0000
# 6 0.0000 0.0000 0.0000 1.6738 0.0000 24.3460
#
#
#
# Elastic Compliance Matrix: (Units=1/GPa)
#
#
# Indices 1 2 3 4 5 6 
#
# 1 0.014698 -0.003891 -0.009119 0.000000 0.005933 0.000000
# 2 -0.003891 0.031332 -0.008382 0.000000 -0.003117 0.000000
# 3 -0.009119 -0.008382 0.022584 0.000000 -0.017067 0.000000
# 4 0.000000 0.000000 0.000000 0.054834 0.000000 -0.003770
# 5 0.005933 -0.003117 -0.017067 0.000000 0.064495 0.000000
# 6 0.000000 0.000000 0.000000 -0.003770 0.000000 0.041334
#
#
# Mechanical properties :
#
#
# Convention : Reuss Voigt Hill
#
# Bulk Modulus (GPa) = 38.71498 58.07491 48.39495
# Shear Modulus (GPa) = 17.81439 21.30534 19.55986
#
# Velocity S-wave (km/s) = 3.18979 3.48836 3.34241
# Velocity P-wave (km/s) = 5.97316 7.02813 6.52201
#
# Compressibility (1/GPa) = 0.02582979
#
# Stress axis : x y z
#
# Youngs Moduli (GPa) = 68.03481 31.91595 44.27858
#
# Poissons Ratio (x) = 0.12420 0.40378
# Poissons Ratio (y) = 0.26475 0.37114
# Poissons Ratio (z) = 0.62042 0.26752
#
# Static dielectric constant tensor:
#      x y z
#    x 1.605680 0.000000 0.022150 
#    y 0.000000 1.590990 0.000000 
#    z 0.022150 0.000000 1.598180 
# 
# From -- ./inp_files/288439.got.cif
#   From: 2010.05.17/outbox.cif.g08.bks.cpg/sg12_145_cif.got.tgz:288439.got - 2010.06.03 13:09:07.
