data_PCOD9180372
_publ_section_title
;
Structure prediction by ZEFSAII (Michael W. Deem and Ramdas Pophale) SiO2 
 PCOD9180372
Probable space group: C 2/M
;
_chemical_formula_sum "Si O2"
_cell_formula_units_Z 52
_cell_length_a 19.303698
_cell_length_b 7.900567
_cell_length_c 13.886250
_cell_angle_alpha 90.000000
_cell_angle_beta 102.986242
_cell_angle_gamma 90.000000
_cell_volume 2063.629608
_symmetry_space_group_name_H-M "C 2/M"
_symmetry_group_IT_number 12
_symmetry_cell_setting 'monoclinic'
loop_
_space_group_symop_operation_xyz
x,y,z
-x,y,-z
-x,-y,-z
x,-y,z
1/2+x,1/2+y,z
1/2-x,1/2+y,-z
1/2-x,1/2-y,-z
1/2+x,1/2-y,z
loop_
_atom_site_type_symbol
_atom_site_label
_atom_site_fract_x
_atom_site_fract_y
_atom_site_fract_z
Si Si1 0.644022 0.319314 0.468206
Si Si2 0.123475 0.796608 0.941069
Si Si3 0.719802 0.000000 0.415105
Si Si4 0.485136 0.201046 0.778536
Si Si5 0.562400 0.194711 0.615887
Si Si6 0.806404 0.804869 0.229253
Si Si7 0.156525 0.803122 0.165239
O O1 0.636444 0.500000 0.412258
O O2 0.714599 0.356801 0.555742
O O3 0.579317 0.287745 0.521794
O O4 0.660384 0.151385 0.413877
O O5 0.049585 0.733570 0.873344
O O6 0.183021 0.755835 0.879646
O O7 0.118226 0.000000 0.946588
O O8 0.140499 0.733927 0.052918
O O9 0.510648 0.266361 0.682188
O O10 0.414575 0.283645 0.796828
O O11 0.475078 0.000000 0.769258
O O12 0.639153 0.195190 0.693733
O O13 0.544094 0.000000 0.593465
O O14 0.723995 0.793650 0.229326
O O15 0.829329 0.000000 0.246829
O O16 0.177242 0.000000 0.165402
#
# Coordination Sequence:
#
# PCOD9180372 Si02
#       7
#     8   8   4   8   8   8   8
#     4   9  15  27  46  71 105 134 158 194 245 283
#     4   9  19  34  50  67  88 119 159 208 258 299
#     4   8  16  26  44  76 104 128 160 198 232 290
#     4  10  21  33  47  69  94 124 163 202 245 295
#     4  10  19  32  49  70 101 132 160 199 243 293
#     4  10  20  33  48  68  92 123 164 202 250 303
#     4  11  21  33  48  65  92 124 162 209 250 294
#
# _framework density 25.198322000000001
#
# number of rings (size 3 to 8) (size 9 to 14) (size 15 to 20)
#    0.462    1.846    0.769    2.769    0.000    5.538 
#    0.000    0.000    0.000    0.000    0.000    0.000 
#    0.000    7.385    0.000    0.000    0.000    0.000 
#
# Total GULP energy -145035.969570 kJ/mol
# GULP energy per Si atom -5578.306522 kJ/mol
# Density = 2.514097 g / cm^3
# Si number density = 25.198322 Si / 1000 Ang^3
#
#
#
# Elastic Constant Matrix: (Units=GPa)
#
#
# Indices 1 2 3 4 5 6 
#
# 1 125.3541 3.5205 39.8920 0.0000 -12.4440 0.0000
# 2 3.5205 95.1615 11.6058 0.0000 -5.6049 0.0000
# 3 39.8920 11.6058 119.6220 0.0000 11.7686 0.0000
# 4 0.0000 0.0000 0.0000 8.0300 0.0000 -11.1191
# 5 -12.4440 -5.6049 11.7686 0.0000 38.8066 0.0000
# 6 0.0000 0.0000 0.0000 -11.1191 0.0000 36.4520
#
#
#
# Elastic Compliance Matrix: (Units=1/GPa)
#
#
# Indices 1 2 3 4 5 6 
#
# 1 0.009540 0.000337 -0.003628 0.000000 0.004208 0.000000
# 2 0.000337 0.010785 -0.001363 0.000000 0.002079 0.000000
# 3 -0.003628 -0.001363 0.010138 0.000000 -0.004435 0.000000
# 4 0.000000 0.000000 0.000000 0.215595 0.000000 0.065763
# 5 0.004208 0.002079 -0.004435 0.000000 0.028764 0.000000
# 6 0.000000 0.000000 0.000000 0.065763 0.000000 0.047493
#
#
# Mechanical properties :
#
#
# Convention : Reuss Voigt Hill
#
# Bulk Modulus (GPa) = 47.27086 50.01934 48.64510
# Shear Modulus (GPa) = 14.76341 35.66567 25.21454
#
# Velocity S-wave (km/s) = 2.42314 3.76626 3.16673
# Velocity P-wave (km/s) = 5.16034 6.22947 5.71994
#
# Compressibility (1/GPa) = 0.02115468
#
# Stress axis : x y z
#
# Youngs Moduli (GPa) = 104.81802 92.72374 98.63635
#
# Poissons Ratio (x) = -0.03129 0.35788
# Poissons Ratio (y) = -0.03537 0.13448
# Poissons Ratio (z) = 0.38031 0.12642
#
# Static dielectric constant tensor:
#      x y z
#    x 1.974290 0.000000 -0.000190 
#    y 0.000000 1.931930 0.000000 
#    z -0.000190 0.000000 2.056850 
# 
# From -- ./inp_files/274378.got.cif
#   From: 2010.05.17/outbox.cif.g08.bks.cpg/sg12_138_cif.got.tgz:274378.got - 2010.06.03 13:09:07.
