data_PCOD9180561
_publ_section_title
;
Structure prediction by ZEFSAII (Michael W. Deem and Ramdas Pophale) SiO2 
 PCOD9180561
Probable space group: C 2/M
;
_chemical_formula_sum "Si O2"
_cell_formula_units_Z 48
_cell_length_a 15.577335
_cell_length_b 14.695946
_cell_length_c 18.047688
_cell_angle_alpha 90.000000
_cell_angle_beta 151.499725
_cell_angle_gamma 90.000000
_cell_volume 1971.419384
_symmetry_space_group_name_H-M "C 2/M"
_symmetry_group_IT_number 12
_symmetry_cell_setting 'monoclinic'
loop_
_space_group_symop_operation_xyz
x,y,z
-x,y,-z
-x,-y,-z
x,-y,z
1/2+x,1/2+y,z
1/2-x,1/2+y,-z
1/2-x,1/2-y,-z
1/2+x,1/2-y,z
loop_
_atom_site_type_symbol
_atom_site_label
_atom_site_fract_x
_atom_site_fract_y
_atom_site_fract_z
Si Si1 0.770925 0.392244 0.573184
Si Si2 0.346153 0.402484 0.099293
Si Si3 0.138070 0.153461 0.049069
Si Si4 0.824232 0.276145 0.745920
Si Si5 0.719048 0.898556 0.586958
Si Si6 0.876774 0.802790 0.270689
O O1 0.750253 0.500000 0.572465
O O2 0.878764 0.337912 0.717435
O O3 0.843786 0.383933 0.545075
O O4 0.578594 0.339853 0.428134
O O5 0.280811 0.500000 0.076527
O O6 0.289059 0.389762 0.971070
O O7 0.563421 0.404069 0.256028
O O8 0.311980 0.334150 0.140049
O O9 0.997842 0.230557 0.914213
O O10 0.305402 0.198702 0.217911
O O11 0.000000 0.101136 0.000000
O O12 0.700704 0.191712 0.622336
O O13 0.722560 0.336352 0.730115
O O14 0.661398 0.000000 0.568833
#
# Coordination Sequence:
#
# PCOD9180561 Si02
#       6
#     8   8   8   8   8   8
#     4  10  20  34  54  77 101 134 176 215 251 302
#     4   9  17  31  52  75 101 133 169 210 253 304
#     4   9  19  34  52  75 100 130 167 210 258 303
#     4  10  19  32  53  78 104 135 171 212 256 302
#     4   8  16  32  53  77 103 133 171 214 258 300
#     4  10  19  32  50  73 104 136 166 203 254 307
#
# _framework density 24.347937999999999
#
# number of rings (size 3 to 8) (size 9 to 14) (size 15 to 20)
#    0.000    2.667    0.000    3.000    0.000    2.333 
#    0.000    4.167    0.000   12.500    0.000    3.500 
#    0.000    0.000    0.000    0.000    0.000    0.000 
#
# Total GULP energy -133771.691622 kJ/mol
# GULP energy per Si atom -5573.820484 kJ/mol
# Density = 2.429252 g / cm^3
# Si number density = 24.347938 Si / 1000 Ang^3
#
#
#
# Elastic Constant Matrix: (Units=GPa)
#
#
# Indices 1 2 3 4 5 6 
#
# 1 115.8817 56.0489 27.1855 -0.0004 -19.8937 0.0025
# 2 56.0489 96.3372 32.0747 0.0007 0.6475 0.0052
# 3 27.1855 32.0747 55.8359 -0.0017 -11.3502 -0.0002
# 4 -0.0004 0.0007 -0.0017 6.1015 -0.0021 4.3244
# 5 -19.8937 0.6475 -11.3502 -0.0021 44.2033 0.0009
# 6 0.0025 0.0052 -0.0002 4.3244 0.0009 -50.6820
#
#
#
# Elastic Compliance Matrix: (Units=1/GPa)
#
#
# Indices 1 2 3 4 5 6 
#
# 1 0.013563 -0.007586 -0.001037 0.000003 0.005949 0.000000
# 2 -0.007586 0.017283 -0.007365 -0.000007 -0.005558 0.000001
# 3 -0.001037 -0.007365 0.023815 0.000009 0.005756 0.000000
# 4 0.000003 -0.000007 0.000009 0.154549 0.000011 0.013187
# 5 0.005949 -0.005558 0.005756 0.000011 0.026860 0.000001
# 6 0.000000 0.000001 0.000000 0.013187 0.000001 -0.018606
#
#
# Mechanical properties :
#
#
# Convention : Reuss Voigt Hill
#
# Bulk Modulus (GPa) = 44.07823 55.40811 49.74317
# Shear Modulus (GPa) = 19.45525 10.10761 14.78143
#
# Velocity S-wave (km/s) = 2.82982 2.03969 2.46660
# Velocity P-wave (km/s) = 5.36842 5.32478 5.34665
#
# Compressibility (1/GPa) = 0.02268694
#
# Stress axis : x y z
#
# Youngs Moduli (GPa) = 73.73003 57.86052 41.99020
#
# Poissons Ratio (x) = 0.43892 0.04353
# Poissons Ratio (y) = 0.55930 0.30924
# Poissons Ratio (z) = 0.07643 0.42612
#
# Static dielectric constant tensor:
#      x y z
#    x 1.988420 0.000000 -0.025920 
#    y 0.000000 1.960720 0.000000 
#    z -0.025920 0.000000 2.002880 
# 
# From -- ./inp_files/105047.got.cif
#   From: 2010.05.17/outbox.cif.g08.bks.cpg/sg12_53_cif.got.tgz:105047.got - 2010.06.03 13:09:07.
