data_PCOD9180228
_publ_section_title
;
Structure prediction by ZEFSAII (Michael W. Deem and Ramdas Pophale) SiO2 
 PCOD9180228
Probable space group: C 2/M
;
_chemical_formula_sum "Si O2"
_cell_formula_units_Z 44
_cell_length_a 25.047733
_cell_length_b 17.339479
_cell_length_c 7.500021
_cell_angle_alpha 90.000000
_cell_angle_beta 33.127573
_cell_angle_gamma 90.000000
_cell_volume 1780.168538
_symmetry_space_group_name_H-M "C 2/M"
_symmetry_group_IT_number 12
_symmetry_cell_setting 'monoclinic'
loop_
_space_group_symop_operation_xyz
x,y,z
-x,y,-z
-x,-y,-z
x,-y,z
1/2+x,1/2+y,z
1/2-x,1/2+y,-z
1/2-x,1/2-y,-z
1/2+x,1/2-y,z
loop_
_atom_site_type_symbol
_atom_site_label
_atom_site_fract_x
_atom_site_fract_y
_atom_site_fract_z
Si Si1 0.113988 0.588420 0.428087
Si Si2 0.861780 0.835839 0.932692
Si Si3 0.812317 0.588980 0.391998
Si Si4 0.253888 0.201887 0.305813
Si Si5 0.839030 0.086485 0.656061
Si Si6 0.500000 0.791883 0.500000
O O1 0.075298 0.500000 0.517189
O O2 0.122644 0.606086 0.615981
O O3 0.056783 0.653200 0.479326
O O4 0.226286 0.585545 0.043332
O O5 0.897234 0.885897 0.667060
O O6 0.938735 0.772675 0.785033
O O7 0.799693 0.891552 0.233980
O O8 0.783350 0.769660 0.089256
O O9 0.821460 0.500000 0.327114
O O10 0.828920 0.635868 0.164859
O O11 0.250000 0.250000 0.500000
O O12 0.163549 0.153143 0.484538
O O13 0.864102 0.000000 0.527255
#
# Coordination Sequence:
#
# PCOD9180228 Si02
#       6
#     8   8   8   8   8   4
#     4   9  19  34  55  79 109 144 180 226 275 328
#     4  10  21  34  54  85 108 143 184 226 271 318
#     4   9  19  37  58  81 108 140 182 230 277 324
#     4  10  19  31  58  85 110 134 180 238 273 317
#     4  10  19  36  59  80 107 142 188 233 269 318
#     4  12  21  32  55  78 118 146 178 228 273 326
#
# _framework density 24.716760000000001
#
# number of rings (size 3 to 8) (size 9 to 14) (size 15 to 20)
#    0.000    2.182    1.818    3.000    5.091    0.000 
#    0.000    2.727    0.000    2.182    0.000    3.818 
#    0.000    0.000    0.000    0.000    0.000    0.000 
#
# Total GULP energy -122470.504800 kJ/mol
# GULP energy per Si atom -5566.841127 kJ/mol
# Density = 2.466050 g / cm^3
# Si number density = 24.716760 Si / 1000 Ang^3
#
#
#
# Elastic Constant Matrix: (Units=GPa)
#
#
# Indices 1 2 3 4 5 6 
#
# 1 42.1747 16.1666 1.4619 0.0000 9.7994 0.0000
# 2 16.1666 120.1293 0.2977 0.0000 -9.1882 0.0000
# 3 1.4619 0.2977 28.9203 0.0000 -0.5663 0.0000
# 4 0.0000 0.0000 0.0000 29.9946 0.0000 3.2331
# 5 9.7994 -9.1882 -0.5663 0.0000 29.2589 0.0000
# 6 0.0000 0.0000 0.0000 3.2331 0.0000 52.0433
#
#
#
# Elastic Compliance Matrix: (Units=1/GPa)
#
#
# Indices 1 2 3 4 5 6 
#
# 1 0.028057 -0.004603 -0.001584 0.000000 -0.010873 0.000000
# 2 -0.004603 0.009285 0.000225 0.000000 0.004462 0.000000
# 3 -0.001584 0.000225 0.034680 0.000000 0.001272 0.000000
# 4 0.000000 0.000000 0.000000 0.033564 0.000000 -0.002085
# 5 -0.010873 0.004462 0.001272 0.000000 0.039245 0.000000
# 6 0.000000 0.000000 0.000000 -0.002085 0.000000 0.019344
#
#
# Mechanical properties :
#
#
# Convention : Reuss Voigt Hill
#
# Bulk Modulus (GPa) = 16.63998 25.23074 20.93536
# Shear Modulus (GPa) = 25.49293 33.81258 29.65275
#
# Velocity S-wave (km/s) = 3.21503 3.70266 3.46743
# Velocity P-wave (km/s) = 4.53087 5.33945 4.95169
#
# Compressibility (1/GPa) = 0.06009623
#
# Stress axis : x y z
#
# Youngs Moduli (GPa) = 35.64198 107.70530 28.83473
#
# Poissons Ratio (x) = 0.49582 0.04567
# Poissons Ratio (y) = 0.16408 -0.00647
# Poissons Ratio (z) = 0.05645 -0.02418
#
# Static dielectric constant tensor:
#      x y z
#    x 2.034040 0.000000 -0.040390 
#    y 0.000000 1.968270 0.000000 
#    z -0.040390 0.000000 2.265600 
# 
# From -- ./inp_files/112262.got.cif
#   From: 2010.05.17/outbox.cif.g08.bks.cpg/sg12_57_cif.got.tgz:112262.got - 2010.06.03 13:09:07.
