data_PCOD9180024
_publ_section_title
;
Structure prediction by ZEFSAII (Michael W. Deem and Ramdas Pophale) SiO2 
 PCOD9180024
Probable space group: C 2/M
;
_chemical_formula_sum "Si O2"
_cell_formula_units_Z 56
_cell_length_a 19.277080
_cell_length_b 7.589030
_cell_length_c 30.600558
_cell_angle_alpha 90.000000
_cell_angle_beta 36.978194
_cell_angle_gamma 90.000000
_cell_volume 2692.777442
_symmetry_space_group_name_H-M "C 2/M"
_symmetry_group_IT_number 12
_symmetry_cell_setting 'monoclinic'
loop_
_space_group_symop_operation_xyz
x,y,z
-x,y,-z
-x,-y,-z
x,-y,z
1/2+x,1/2+y,z
1/2-x,1/2+y,-z
1/2-x,1/2-y,-z
1/2+x,1/2-y,z
loop_
_atom_site_type_symbol
_atom_site_label
_atom_site_fract_x
_atom_site_fract_y
_atom_site_fract_z
Si Si1 0.206433 0.713958 0.200473
Si Si2 0.885012 0.288104 0.927873
Si Si3 0.919152 0.716223 0.500712
Si Si4 0.453485 0.787688 0.798107
Si Si5 0.027608 0.292320 0.938290
Si Si6 0.510164 0.795100 0.362366
Si Si7 0.656279 0.291514 0.631924
O O1 0.204724 0.500000 0.201579
O O2 0.146475 0.771925 0.185241
O O3 0.336984 0.773242 0.138605
O O4 0.122998 0.778989 0.281354
O O5 0.899576 0.500000 0.919794
O O6 0.932955 0.221163 0.857300
O O7 0.953425 0.218012 0.935557
O O8 0.750000 0.250000 0.000000
O O9 0.917890 0.500000 0.501125
O O10 0.969718 0.779023 0.428886
O O11 0.786416 0.773419 0.572177
O O12 0.000000 0.770919 0.500000
O O13 0.574690 0.740746 0.714695
O O14 0.447730 0.000000 0.801926
O O15 0.998795 0.500000 0.954923
O O16 0.000000 0.215774 0.000000
O O17 0.408478 0.786392 0.377664
O O18 0.536039 0.000000 0.357605
O O19 0.660962 0.500000 0.621902
#
# Coordination Sequence:
#
# PCOD9180024 Si02
#       7
#     8   8   8   8   8   8   8
#     4   9  18  32  52  75  96 128 170 205 243 294
#     4  10  21  36  54  76 102 135 171 206 250 300
#     4   9  18  32  50  74 104 136 171 212 254 297
#     4   9  19  36  54  73 102 136 168 206 253 301
#     4  10  21  35  51  74 104 133 160 200 254 299
#     4   9  18  34  54  74 102 137 168 206 256 304
#     4  10  19  31  53  80 100 128 172 213 250 299
#
# _framework density 20.796371000000001
#
# number of rings (size 3 to 8) (size 9 to 14) (size 15 to 20)
#    0.000    2.571    0.000    2.571    0.000    4.857 
#    0.000    2.143    0.000    3.857    0.000    0.000 
#    0.000    0.000    0.000    0.000    0.000    0.000 
#
# Total GULP energy -156324.342037 kJ/mol
# GULP energy per Si atom -5583.012216 kJ/mol
# Density = 2.074904 g / cm^3
# Si number density = 20.796371 Si / 1000 Ang^3
#
#
#
# Elastic Constant Matrix: (Units=GPa)
#
#
# Indices 1 2 3 4 5 6 
#
# 1 162.2843 -6.8343 134.1460 -0.1372 5.9920 -0.0448
# 2 -6.8343 41.6715 -9.3923 0.2049 8.0406 0.0848
# 3 134.1460 -9.3923 168.7721 0.0144 15.6272 0.0134
# 4 -0.1372 0.2049 0.0144 276.0322 -0.0288 117.9089
# 5 5.9920 8.0406 15.6272 -0.0288 38.0177 -0.0107
# 6 -0.0448 0.0848 0.0134 117.9089 -0.0107 70.1627
#
#
#
# Elastic Compliance Matrix: (Units=1/GPa)
#
#
# Indices 1 2 3 4 5 6 
#
# 1 0.018380 -0.001036 -0.014990 0.000014 0.003484 -0.000008
# 2 -0.001036 0.025714 0.002852 -0.000022 -0.006447 0.000004
# 3 -0.014990 0.002852 0.018541 -0.000013 -0.005862 0.000005
# 4 0.000014 -0.000022 -0.000013 0.012839 0.000011 -0.021577
# 5 0.003484 -0.006447 -0.005862 0.000011 0.029528 -0.000004
# 6 -0.000008 0.000004 0.000005 -0.021577 -0.000004 0.050512
#
#
# Mechanical properties :
#
#
# Convention : Reuss Voigt Hill
#
# Bulk Modulus (GPa) = 27.55812 67.61851 47.58831
# Shear Modulus (GPa) = 25.77873 93.82976 59.80425
#
# Velocity S-wave (km/s) = 3.52458 6.72431 5.36838
# Velocity P-wave (km/s) = 5.46294 9.63709 7.83318
#
# Compressibility (1/GPa) = 0.03628695
#
# Stress axis : x y z
#
# Youngs Moduli (GPa) = 54.40613 38.88912 53.93505
#
# Poissons Ratio (x) = 0.04030 0.80846
# Poissons Ratio (y) = 0.05638 -0.15380
# Poissons Ratio (z) = 0.81552 -0.11090
#
# Static dielectric constant tensor:
#      x y z
#    x 1.714320 -0.000170 0.024730 
#    y -0.000170 -0.528880 -0.000690 
#    z 0.024730 -0.000690 1.725820 
# 
# From -- ./inp_files/362906.got.cif
#   From: 2010.05.17/outbox.cif.g08.bks.cpg/sg12_182_cif.got.tgz:362906.got - 2010.06.03 13:09:07.
