data_PCOD9180370
_publ_section_title
;
Structure prediction by ZEFSAII (Michael W. Deem and Ramdas Pophale) SiO2 
 PCOD9180370
Probable space group: C 2/M
;
_chemical_formula_sum "Si O2"
_cell_formula_units_Z 48
_cell_length_a 24.867044
_cell_length_b 8.689078
_cell_length_c 32.720993
_cell_angle_alpha 90.000000
_cell_angle_beta 155.382205
_cell_angle_gamma 90.000000
_cell_volume 2945.134932
_symmetry_space_group_name_H-M "C 2/M"
_symmetry_group_IT_number 12
_symmetry_cell_setting 'monoclinic'
loop_
_space_group_symop_operation_xyz
x,y,z
-x,y,-z
-x,-y,-z
x,-y,z
1/2+x,1/2+y,z
1/2-x,1/2+y,-z
1/2-x,1/2-y,-z
1/2+x,1/2-y,z
loop_
_atom_site_type_symbol
_atom_site_label
_atom_site_fract_x
_atom_site_fract_y
_atom_site_fract_z
Si Si1 0.998484 0.316144 0.265812
Si Si2 0.451709 0.816053 0.329972
Si Si3 0.242009 0.183662 0.949059
Si Si4 0.571544 0.315875 0.989643
Si Si5 0.763913 0.684781 0.463759
Si Si6 0.179851 0.682923 0.149393
O O1 0.991879 0.500000 0.256535
O O2 0.143164 0.256988 0.356762
O O3 0.967832 0.281438 0.292518
O O4 0.891504 0.236055 0.164279
O O5 0.588290 0.777300 0.445695
O O6 0.326562 0.729442 0.259668
O O7 0.431953 0.000000 0.319507
O O8 0.250576 0.000000 0.955412
O O9 0.250000 0.250000 0.000000
O O10 0.355729 0.252736 0.999599
O O11 0.576699 0.500000 0.994421
O O12 0.424993 0.257390 0.892824
O O13 0.644283 0.250330 0.080058
O O14 0.752252 0.500000 0.456553
O O15 0.750000 0.750000 0.500000
O O16 0.163826 0.500000 0.137593
#
# Coordination Sequence:
#
# PCOD9180370 Si02
#       6
#     8   8   8   8   8   8
#     4  10  19  32  49  70 100 133 168 208 254 300
#     4   9  17  29  46  70 102 136 167 201 251 305
#     4  12  24  38  55  75 100 133 174 213 253 300
#     4  11  21  35  51  70 100 134 169 209 255 301
#     4   9  17  28  44  67  98 132 168 205 249 302
#     4  11  20  30  49  75 102 134 170 207 252 304
#
# _framework density 16.298064
#
# number of rings (size 3 to 8) (size 9 to 14) (size 15 to 20)
#    0.000    1.667    1.667    7.500    0.000    3.333 
#    0.000    0.000    0.000    0.000    0.000    1.167 
#    0.000    9.333    0.000    0.000    0.000    0.000 
#
# Total GULP energy -133929.861228 kJ/mol
# GULP energy per Si atom -5580.410884 kJ/mol
# Density = 1.626097 g / cm^3
# Si number density = 16.298064 Si / 1000 Ang^3
#
#
#
# Elastic Constant Matrix: (Units=GPa)
#
#
# Indices 1 2 3 4 5 6 
#
# 1 93.0441 49.6605 60.1585 0.0000 16.1385 0.0001
# 2 49.6605 120.7601 55.6891 -0.0002 13.5294 0.0000
# 3 60.1585 55.6891 99.5257 -0.0005 30.0736 0.0000
# 4 0.0000 -0.0002 -0.0005 29.6124 -0.0001 5.5800
# 5 16.1385 13.5294 30.0736 -0.0001 26.4740 0.0000
# 6 0.0001 0.0000 0.0000 5.5800 0.0000 22.9493
#
#
#
# Elastic Compliance Matrix: (Units=1/GPa)
#
#
# Indices 1 2 3 4 5 6 
#
# 1 0.018621 -0.003267 -0.009900 0.000000 0.001565 0.000000
# 2 -0.003267 0.011813 -0.005196 0.000000 0.001858 0.000000
# 3 -0.009900 -0.005196 0.024839 0.000000 -0.019526 0.000000
# 4 0.000000 0.000000 0.000000 0.035391 0.000000 -0.008605
# 5 0.001565 0.001858 -0.019526 0.000000 0.058051 0.000000
# 6 0.000000 0.000000 0.000000 -0.008605 0.000000 0.045667
#
#
# Mechanical properties :
#
#
# Convention : Reuss Voigt Hill
#
# Bulk Modulus (GPa) = 53.91928 71.59398 62.75663
# Shear Modulus (GPa) = 21.07116 25.66192 23.36654
#
# Velocity S-wave (km/s) = 3.59954 3.97235 3.79053
# Velocity P-wave (km/s) = 7.10145 8.06614 7.59912
#
# Compressibility (1/GPa) = 0.01854624
#
# Stress axis : x y z
#
# Youngs Moduli (GPa) = 53.70243 84.65549 40.25858
#
# Poissons Ratio (x) = 0.27661 0.39856
# Poissons Ratio (y) = 0.17547 0.20918
# Poissons Ratio (z) = 0.53166 0.43986
#
# Static dielectric constant tensor:
#      x y z
#    x 1.524770 0.000000 0.037270 
#    y 0.000000 1.540600 0.000000 
#    z 0.037270 0.000000 1.563630 
# 
# From -- ./inp_files/365553.got.cif
#   From: 2010.05.17/outbox.cif.g08.bks.cpg/sg12_183_cif.got.tgz:365553.got - 2010.06.03 13:09:07.
