data_PCOD9180979
_publ_section_title
;
Structure prediction by ZEFSAII (Michael W. Deem and Ramdas Pophale) SiO2 
 PCOD9180979
Probable space group: C 2/M
;
_chemical_formula_sum "Si O2"
_cell_formula_units_Z 48
_cell_length_a 19.077759
_cell_length_b 13.934740
_cell_length_c 8.098879
_cell_angle_alpha 90.000000
_cell_angle_beta 90.079728
_cell_angle_gamma 90.000000
_cell_volume 2153.033158
_symmetry_space_group_name_H-M "C 2/M"
_symmetry_group_IT_number 12
_symmetry_cell_setting 'monoclinic'
loop_
_space_group_symop_operation_xyz
x,y,z
-x,y,-z
-x,-y,-z
x,-y,z
1/2+x,1/2+y,z
1/2-x,1/2+y,-z
1/2-x,1/2-y,-z
1/2+x,1/2-y,z
loop_
_atom_site_type_symbol
_atom_site_label
_atom_site_fract_x
_atom_site_fract_y
_atom_site_fract_z
Si Si1 0.694408 0.884820 0.754358
Si Si2 0.285767 0.615476 0.068485
Si Si3 0.083224 0.605518 0.004118
Si Si4 0.925206 0.113745 0.558802
Si Si5 0.726357 0.617635 0.567071
Si Si6 0.422531 0.690140 0.921465
O O1 0.615953 0.870942 0.823832
O O2 0.721729 0.848878 0.578595
O O3 0.703173 0.000000 0.744803
O O4 0.742012 0.851535 0.908858
O O5 0.285999 0.500000 0.064526
O O6 0.256691 0.646055 0.245924
O O7 0.365146 0.649848 0.046776
O O8 0.111686 0.500000 0.055020
O O9 0.097035 0.698714 0.113204
O O10 0.000000 0.597600 0.000000
O O11 0.853419 0.148248 0.474756
O O12 0.919079 0.131255 0.753543
O O13 0.000000 0.155230 0.500000
O O14 0.927123 0.000000 0.525677
O O15 0.727035 0.500000 0.564831
O O16 0.500000 0.685993 0.000000
#
# Coordination Sequence:
#
# PCOD9180979 Si02
#       6
#     8   8   8   8   8   8
#     4   9  17  34  59  80 109 150 187 230 283 332
#     4  10  19  32  54  87 122 148 181 221 268 342
#     4   9  20  39  62  80 100 143 195 243 293 333
#     4  10  19  32  51  79 120 160 184 213 268 334
#     4   9  17  31  51  80 117 153 183 217 266 330
#     4  11  21  33  54  82 113 149 192 231 275 329
#
# _framework density 22.294129999999999
#
# number of rings (size 3 to 8) (size 9 to 14) (size 15 to 20)
#    0.000    2.333    1.667    1.500    0.000    3.333 
#    0.000    0.833    7.333    0.500    0.000    0.000 
#    0.000    0.000    0.000    0.000    0.000    0.000 
#
# Total GULP energy -133996.633341 kJ/mol
# GULP energy per Si atom -5583.193056 kJ/mol
# Density = 2.224339 g / cm^3
# Si number density = 22.294130 Si / 1000 Ang^3
#
#
#
# Elastic Constant Matrix: (Units=GPa)
#
#
# Indices 1 2 3 4 5 6 
#
# 1 115.6273 31.0778 69.1597 0.0000 -29.2442 0.0000
# 2 31.0778 46.6833 3.8373 0.0000 -0.2827 0.0000
# 3 69.1597 3.8373 144.3741 0.0000 -28.3542 0.0000
# 4 0.0000 0.0000 0.0000 8.4170 0.0000 9.5013
# 5 -29.2442 -0.2827 -28.3542 0.0000 37.7589 0.0000
# 6 0.0000 0.0000 0.0000 9.5013 0.0000 8.7129
#
#
#
# Elastic Compliance Matrix: (Units=1/GPa)
#
#
# Indices 1 2 3 4 5 6 
#
# 1 0.017783 -0.011252 -0.006488 0.000000 0.008817 0.000000
# 2 -0.011252 0.028590 0.003473 0.000000 -0.005893 0.000000
# 3 -0.006488 0.003473 0.010510 0.000000 0.002894 0.000000
# 4 0.000000 0.000000 0.000000 -0.514407 0.000000 0.560952
# 5 0.008817 -0.005893 0.002894 0.000000 0.035441 0.000000
# 6 0.000000 0.000000 0.000000 0.560952 0.000000 -0.496936
#
#
# Mechanical properties :
#
#
# Convention : Reuss Voigt Hill
#
# Bulk Modulus (GPa) = 35.27376 57.20379 46.23877
# Shear Modulus (GPa) = -5.67516 24.48509 9.40496
#
# Velocity S-wave (km/s) = -1.59722 3.31762 2.05615
# Velocity P-wave (km/s) = 3.52914 6.35530 5.14027
#
# Compressibility (1/GPa) = 0.02834969
#
# Stress axis : x y z
#
# Youngs Moduli (GPa) = 56.23212 34.97672 95.14338
#
# Poissons Ratio (x) = 0.39356 0.61731
# Poissons Ratio (y) = 0.63272 -0.33042
# Poissons Ratio (z) = 0.36484 -0.12147
#
# Static dielectric constant tensor:
#      x y z
#    x 1.838410 0.000000 -0.026850 
#    y 0.000000 1.886270 0.000000 
#    z -0.026850 0.000000 1.790320 
# 
# From -- ./inp_files/85698.got.cif
#   From: 2010.05.17/outbox.cif.g08.bks.cpg/sg12_43_cif.got.tgz:85698.got - 2010.06.03 13:09:07.
