data_PCOD9180377
_publ_section_title
;
Structure prediction by ZEFSAII (Michael W. Deem and Ramdas Pophale) SiO2 
 PCOD9180377
Probable space group: C 2/M
;
_chemical_formula_sum "Si O2"
_cell_formula_units_Z 40
_cell_length_a 21.181890
_cell_length_b 7.613913
_cell_length_c 14.937021
_cell_angle_alpha 90.000000
_cell_angle_beta 119.688912
_cell_angle_gamma 90.000000
_cell_volume 2092.763344
_symmetry_space_group_name_H-M "C 2/M"
_symmetry_group_IT_number 12
_symmetry_cell_setting 'monoclinic'
loop_
_space_group_symop_operation_xyz
x,y,z
-x,y,-z
-x,-y,-z
x,-y,z
1/2+x,1/2+y,z
1/2-x,1/2+y,-z
1/2-x,1/2-y,-z
1/2+x,1/2-y,z
loop_
_atom_site_type_symbol
_atom_site_label
_atom_site_fract_x
_atom_site_fract_y
_atom_site_fract_z
Si Si1 0.176283 0.707977 0.503200
Si Si2 0.262016 0.715650 0.726283
Si Si3 0.298139 0.710674 0.947870
Si Si4 0.036558 0.785552 0.931051
Si Si5 0.906474 0.207128 0.722830
O O1 0.168214 0.500000 0.502407
O O2 0.250000 0.750000 0.500000
O O3 0.195172 0.773922 0.616126
O O4 0.111415 0.771960 0.394447
O O5 0.261658 0.500000 0.724133
O O6 0.263693 0.773715 0.829965
O O7 0.337263 0.774762 0.731320
O O8 0.302803 0.500000 0.942998
O O9 0.250000 0.750000 0.000000
O O10 0.380715 0.777235 0.015978
O O11 0.982304 0.724089 0.814546
O O12 0.039509 0.000000 0.930895
O O13 0.000000 0.738038 0.000000
O O14 0.907117 0.000000 0.741448
#
# Coordination Sequence:
#
# PCOD9180377 Si02
#       5
#     8   8   8   8   8
#     4   9  16  26  42  67  94 122 152 189 234 278
#     4   8  14  26  45  65  89 120 155 188 223 274
#     4  10  19  32  49  70  95 124 158 195 233 281
#     4   9  15  27  51  73  90 121 164 198 228 276
#     4   9  15  26  46  72  93 115 152 197 237 273
#
# _framework density 19.113484
#
# number of rings (size 3 to 8) (size 9 to 14) (size 15 to 20)
#    0.000    3.000    2.000    1.800    0.000    0.000 
#    0.000    6.000    0.000    2.400    0.000    8.400 
#    0.000    0.000    0.000    0.000    0.000    0.000 
#
# Total GULP energy -111382.894982 kJ/mol
# GULP energy per Si atom -5569.144749 kJ/mol
# Density = 1.906998 g / cm^3
# Si number density = 19.113484 Si / 1000 Ang^3
#
#
#
# Elastic Constant Matrix: (Units=GPa)
#
#
# Indices 1 2 3 4 5 6 
#
# 1 87.7705 -2.5414 77.3610 0.0000 -1.6066 0.0000
# 2 -2.5414 30.2632 -2.6549 0.0000 0.6958 0.0000
# 3 77.3610 -2.6549 231.9152 0.0000 4.4145 0.0000
# 4 0.0000 0.0000 0.0000 17.8966 0.0000 -3.2834
# 5 -1.6066 0.6958 4.4145 0.0000 21.0037 0.0000
# 6 0.0000 0.0000 0.0000 -3.2834 0.0000 12.2459
#
#
#
# Elastic Compliance Matrix: (Units=1/GPa)
#
#
# Indices 1 2 3 4 5 6 
#
# 1 0.016278 0.000833 -0.005465 0.000000 0.002366 0.000000
# 2 0.000833 0.033148 0.000122 0.000000 -0.001060 0.000000
# 3 -0.005465 0.000122 0.006169 0.000000 -0.001719 0.000000
# 4 0.000000 0.000000 0.000000 0.058767 0.000000 0.015757
# 5 0.002366 -0.001060 -0.001719 0.000000 0.048188 0.000000
# 6 0.000000 0.000000 0.000000 0.015757 0.000000 0.085884
#
#
# Mechanical properties :
#
#
# Convention : Reuss Voigt Hill
#
# Bulk Modulus (GPa) = 21.47099 54.91980 38.19539
# Shear Modulus (GPa) = 18.31627 28.74820 23.53223
#
# Velocity S-wave (km/s) = 3.09898 3.88245 3.51263
# Velocity P-wave (km/s) = 4.90538 6.99241 6.03973
#
# Compressibility (1/GPa) = 0.04657448
#
# Stress axis : x y z
#
# Youngs Moduli (GPa) = 61.43251 30.16729 162.09666
#
# Poissons Ratio (x) = -0.02513 0.88593
# Poissons Ratio (y) = -0.05118 -0.01974
# Poissons Ratio (z) = 0.33576 -0.00367
#
# Static dielectric constant tensor:
#      x y z
#    x 1.613650 0.000000 0.014430 
#    y 0.000000 1.708820 0.000000 
#    z 0.014430 0.000000 1.732140 
# 
# From -- ./inp_files/179666.got.cif
#   From: 2010.05.17/outbox.cif.g08.bks.cpg/sg12_90_cif.got.tgz:179666.got - 2010.06.03 13:09:07.
