data_PCOD9180361
_publ_section_title
;
Structure prediction by ZEFSAII (Michael W. Deem and Ramdas Pophale) SiO2 
 PCOD9180361
Probable space group: C 2/M
;
_chemical_formula_sum "Si O2"
_cell_formula_units_Z 64
_cell_length_a 32.961236
_cell_length_b 8.385333
_cell_length_c 16.105590
_cell_angle_alpha 90.000000
_cell_angle_beta 125.978914
_cell_angle_gamma 90.000000
_cell_volume 3602.252606
_symmetry_space_group_name_H-M "C 2/M"
_symmetry_group_IT_number 12
_symmetry_cell_setting 'monoclinic'
loop_
_space_group_symop_operation_xyz
x,y,z
-x,y,-z
-x,-y,-z
x,-y,z
1/2+x,1/2+y,z
1/2-x,1/2+y,-z
1/2-x,1/2-y,-z
1/2+x,1/2-y,z
loop_
_atom_site_type_symbol
_atom_site_label
_atom_site_fract_x
_atom_site_fract_y
_atom_site_fract_z
Si Si1 0.368436 0.195396 0.585413
Si Si2 0.712503 0.809901 0.648808
Si Si3 0.711299 0.190719 0.383451
Si Si4 0.324462 0.807567 0.044732
Si Si5 0.781402 0.809426 0.159245
Si Si6 0.941426 0.179318 0.904634
Si Si7 0.468860 0.813610 0.767435
Si Si8 0.920707 0.306326 0.055841
O O1 0.332346 0.247397 0.466567
O O2 0.341213 0.242684 0.639303
O O3 0.425944 0.252435 0.654615
O O4 0.369046 0.000000 0.584749
O O5 0.765792 0.755023 0.674222
O O6 0.706266 0.751710 0.734642
O O7 0.711627 0.000000 0.645420
O O8 0.750000 0.250000 0.500000
O O9 0.711453 0.000000 0.379352
O O10 0.318536 0.748681 0.131654
O O11 0.374639 0.755708 0.058035
O O12 0.324314 0.000000 0.045252
O O13 0.274350 0.753602 0.935692
O O14 0.781047 0.000000 0.159824
O O15 0.943689 0.292609 0.827817
O O16 0.924425 0.000000 0.863231
O O17 0.914595 0.245261 0.954299
O O18 0.000000 0.169648 0.000000
O O19 0.525339 0.748001 0.843437
O O20 0.474715 0.000000 0.755365
O O21 0.922259 0.500000 0.054380
#
# Coordination Sequence:
#
# PCOD9180361 Si02
#       8
#     8   8   8   8   8   8   8   8
#     4   8  16  29  46  68  94 125 157 192 227 261
#     4  10  19  32  49  69  95 125 157 193 233 274
#     4   9  16  28  44  64  92 124 158 193 228 264
#     4   9  19  35  52  72  95 116 145 189 238 282
#     4  10  20  34  52  72  93 118 149 187 234 285
#     4   9  17  28  41  62  94 126 155 188 224 261
#     4   9  16  29  48  68  92 124 161 191 221 266
#     4   9  17  30  50  71  91 120 155 190 228 273
#
# _framework density 17.766660999999999
#
# number of rings (size 3 to 8) (size 9 to 14) (size 15 to 20)
#    0.000    2.875    0.000    2.250    0.000    3.500 
#    0.000    8.750    0.000    0.750    0.000    5.250 
#    0.000    0.000    0.000    0.000    0.000    0.000 
#
# Total GULP energy -178174.179739 kJ/mol
# GULP energy per Si atom -5567.943117 kJ/mol
# Density = 1.772622 g / cm^3
# Si number density = 17.766661 Si / 1000 Ang^3
#
#
#
# Elastic Constant Matrix: (Units=GPa)
#
#
# Indices 1 2 3 4 5 6 
#
# 1 127.4777 13.1598 43.9298 0.0000 -9.7378 0.0000
# 2 13.1598 11.8733 -1.2833 0.0000 -2.6114 0.0000
# 3 43.9298 -1.2833 57.9175 0.0000 -8.9037 0.0000
# 4 0.0000 0.0000 0.0000 17.5820 0.0000 -7.5119
# 5 -9.7378 -2.6114 -8.9037 0.0000 27.1262 0.0000
# 6 0.0000 0.0000 0.0000 -7.5119 0.0000 21.0053
#
#
#
# Elastic Compliance Matrix: (Units=1/GPa)
#
#
# Indices 1 2 3 4 5 6 
#
# 1 0.012939 -0.015483 -0.010186 0.000000 -0.000189 0.000000
# 2 -0.015483 0.105193 0.015562 0.000000 0.009677 0.000000
# 3 -0.010186 0.015562 0.026334 0.000000 0.006485 0.000000
# 4 0.000000 0.000000 0.000000 0.067134 0.000000 0.024008
# 5 -0.000189 0.009677 0.006485 0.000000 0.039857 0.000000
# 6 0.000000 0.000000 0.000000 0.024008 0.000000 0.056193
#
#
# Mechanical properties :
#
#
# Convention : Reuss Voigt Hill
#
# Bulk Modulus (GPa) = 8.04816 34.32013 21.18415
# Shear Modulus (GPa) = 13.53986 22.57351 18.05668
#
# Velocity S-wave (km/s) = 2.76360 3.56835 3.19144
# Velocity P-wave (km/s) = 3.83706 6.02798 5.05271
#
# Compressibility (1/GPa) = 0.12425203
#
# Stress axis : x y z
#
# Youngs Moduli (GPa) = 77.28837 9.50630 37.97421
#
# Poissons Ratio (x) = 0.14719 0.38680
# Poissons Ratio (y) = 1.19666 -0.59096
# Poissons Ratio (z) = 0.78725 -0.14794
#
# Static dielectric constant tensor:
#      x y z
#    x 1.614490 0.000000 0.036900 
#    y 0.000000 1.624380 0.000000 
#    z 0.036900 0.000000 1.630180 
# 
# From -- ./inp_files/249233.got.cif
#   From: 2010.05.17/outbox.cif.g08.bks.cpg/sg12_125_cif.got.tgz:249233.got - 2010.06.03 13:09:07.
