data_PCOD9180734
_publ_section_title
;
Structure prediction by ZEFSAII (Michael W. Deem and Ramdas Pophale) SiO2 
 PCOD9180734
Probable space group: C 2/M
;
_chemical_formula_sum "Si O2"
_cell_formula_units_Z 64
_cell_length_a 23.900275
_cell_length_b 8.924969
_cell_length_c 19.917977
_cell_angle_alpha 90.000000
_cell_angle_beta 120.335786
_cell_angle_gamma 90.000000
_cell_volume 3666.958761
_symmetry_space_group_name_H-M "C 2/M"
_symmetry_group_IT_number 12
_symmetry_cell_setting 'monoclinic'
loop_
_space_group_symop_operation_xyz
x,y,z
-x,y,-z
-x,-y,-z
x,-y,z
1/2+x,1/2+y,z
1/2-x,1/2+y,-z
1/2-x,1/2-y,-z
1/2+x,1/2-y,z
loop_
_atom_site_type_symbol
_atom_site_label
_atom_site_fract_x
_atom_site_fract_y
_atom_site_fract_z
Si Si1 0.555052 0.322329 0.230587
Si Si2 0.313624 0.172017 0.671787
Si Si3 0.830067 0.181123 0.412948
Si Si4 0.943617 0.681037 0.915129
Si Si5 0.043239 0.821115 0.712591
Si Si6 0.330698 0.822352 0.264428
Si Si7 0.458861 0.176962 0.543877
Si Si8 0.300675 0.827332 0.826848
O O1 0.559469 0.500000 0.224634
O O2 0.622461 0.266139 0.304672
O O3 0.547202 0.246637 0.153422
O O4 0.494996 0.287148 0.242288
O O5 0.242289 0.223333 0.605415
O O6 0.307858 0.173294 0.749851
O O7 0.323628 0.000000 0.656831
O O8 0.837336 0.244194 0.341595
O O9 0.888517 0.250226 0.490500
O O10 0.833250 0.000000 0.412946
O O11 0.943936 0.500000 0.910273
O O12 0.871033 0.722429 0.895423
O O13 0.000000 0.727824 0.000000
O O14 0.111929 0.740401 0.746592
O O15 0.998336 0.760714 0.625358
O O16 0.051372 0.000000 0.711537
O O17 0.260374 0.775287 0.194146
O O18 0.336016 0.000000 0.276136
O O19 0.500000 0.192745 0.500000
O O20 0.453408 0.000000 0.555115
O O21 0.287882 0.000000 0.838642
#
# Coordination Sequence:
#
# PCOD9180734 Si02
#       8
#     8   8   8   8   8   8   8   8
#     4  10  21  35  53  79 106 135 172 211 254 305
#     4   8  16  31  51  73  98 133 172 209 254 307
#     4  10  19  32  51  73  99 133 171 213 263 310
#     4   9  18  34  58  85 110 138 169 201 246 304
#     4  11  23  37  52  71 101 141 177 210 259 315
#     4  11  20  30  48  75 102 132 174 218 257 297
#     4  11  22  34  50  76 102 128 174 225 265 303
#     4   8  15  29  49  75 105 134 166 205 249 298
#
# _framework density 17.453156
#
# number of rings (size 3 to 8) (size 9 to 14) (size 15 to 20)
#    0.000    2.250    1.250    4.125    0.000    7.750 
#    0.000    0.625    0.000    0.750    0.000    0.000 
#    0.000    0.000    0.000    0.000    0.000    0.000 
#
# Total GULP energy -178508.777943 kJ/mol
# GULP energy per Si atom -5578.399311 kJ/mol
# Density = 1.741343 g / cm^3
# Si number density = 17.453156 Si / 1000 Ang^3
#
#
#
# Elastic Constant Matrix: (Units=GPa)
#
#
# Indices 1 2 3 4 5 6 
#
# 1 101.3280 48.3292 40.6356 0.0000 24.0649 0.0000
# 2 48.3292 55.8207 20.9122 0.0000 7.4299 0.0000
# 3 40.6356 20.9122 62.4460 0.0000 26.5117 0.0000
# 4 0.0000 0.0000 0.0000 13.7579 0.0000 3.5605
# 5 24.0649 7.4299 26.5117 0.0000 27.8227 0.0000
# 6 0.0000 0.0000 0.0000 3.5605 0.0000 26.5114
#
#
#
# Elastic Compliance Matrix: (Units=1/GPa)
#
#
# Indices 1 2 3 4 5 6 
#
# 1 0.021520 -0.015609 -0.004440 0.000000 -0.010214 0.000000
# 2 -0.015609 0.031859 -0.004420 0.000000 0.009204 0.000000
# 3 -0.004440 -0.004420 0.030652 0.000000 -0.024187 0.000000
# 4 0.000000 0.000000 0.000000 0.075303 0.000000 -0.010113
# 5 -0.010214 0.009204 -0.024187 0.000000 0.065366 0.000000
# 6 0.000000 0.000000 0.000000 -0.010113 0.000000 0.039078
#
#
# Mechanical properties :
#
#
# Convention : Reuss Voigt Hill
#
# Bulk Modulus (GPa) = 28.49502 48.81653 38.65578
# Shear Modulus (GPa) = 15.41241 20.93292 18.17266
#
# Velocity S-wave (km/s) = 2.97488 3.46696 3.23030
# Velocity P-wave (km/s) = 5.30678 6.63756 6.00912
#
# Compressibility (1/GPa) = 0.03509385
#
# Stress axis : x y z
#
# Youngs Moduli (GPa) = 46.46762 31.38793 32.62442
#
# Poissons Ratio (x) = 0.48994 0.14486
# Poissons Ratio (y) = 0.72532 0.14419
# Poissons Ratio (z) = 0.20632 0.13872
#
# Static dielectric constant tensor:
#      x y z
#    x 1.608910 0.000000 0.025490 
#    y 0.000000 1.581430 0.000000 
#    z 0.025490 0.000000 1.588740 
# 
# From -- ./inp_files/320126.got.cif
#   From: 2010.05.17/outbox.cif.g08.bks.cpg/sg12_161_cif.got.tgz:320126.got - 2010.06.03 13:09:07.
