data_PCOD9180757
_publ_section_title
;
Structure prediction by ZEFSAII (Michael W. Deem and Ramdas Pophale) SiO2 
 PCOD9180757
Probable space group: C 2/M
;
_chemical_formula_sum "Si O2"
_cell_formula_units_Z 56
_cell_length_a 18.871621
_cell_length_b 9.052248
_cell_length_c 19.545307
_cell_angle_alpha 90.000000
_cell_angle_beta 103.974395
_cell_angle_gamma 90.000000
_cell_volume 3240.116372
_symmetry_space_group_name_H-M "C 2/M"
_symmetry_group_IT_number 12
_symmetry_cell_setting 'monoclinic'
loop_
_space_group_symop_operation_xyz
x,y,z
-x,y,-z
-x,-y,-z
x,-y,z
1/2+x,1/2+y,z
1/2-x,1/2+y,-z
1/2-x,1/2-y,-z
1/2+x,1/2-y,z
loop_
_atom_site_type_symbol
_atom_site_label
_atom_site_fract_x
_atom_site_fract_y
_atom_site_fract_z
Si Si1 0.866902 0.177366 0.636723
Si Si2 0.098960 0.324838 0.220541
Si Si3 0.082572 0.178239 0.502322
Si Si4 0.719195 0.324514 0.060402
Si Si5 0.249049 0.324095 0.784248
Si Si6 0.197929 0.675870 0.629371
Si Si7 0.433626 0.822549 0.934470
O O1 0.912727 0.245877 0.709883
O O2 0.894341 0.225028 0.568747
O O3 0.781061 0.216118 0.626631
O O4 0.871526 0.000000 0.642489
O O5 0.097106 0.500000 0.230061
O O6 0.179609 0.271140 0.216699
O O7 0.051414 0.287297 0.142152
O O8 0.139212 0.241158 0.570345
O O9 0.000000 0.224142 0.500000
O O10 0.085682 0.000000 0.505032
O O11 0.715256 0.500000 0.050165
O O12 0.767784 0.296216 0.140274
O O13 0.639237 0.260531 0.058736
O O14 0.750000 0.250000 0.000000
O O15 0.267660 0.500000 0.782682
O O16 0.192904 0.293703 0.709825
O O17 0.190095 0.500000 0.617393
O O18 0.420776 0.000000 0.934977
O O19 0.500000 0.786222 0.000000
#
# Coordination Sequence:
#
# PCOD9180757 Si02
#       7
#     8   8   8   8   8   8   8
#     4   9  18  33  51  70  95 125 157 196 240 284
#     4   9  16  27  48  75  96 120 160 203 239 281
#     4  10  21  35  49  68  97 130 157 187 236 288
#     4  10  19  32  51  74 102 134 167 203 244 293
#     4   8  16  31  49  70  97 127 157 196 246 287
#     4   9  17  31  52  74  92 117 157 199 238 280
#     4   9  18  33  51  72 101 133 164 204 252 295
#
# _framework density 17.283328999999998
#
# number of rings (size 3 to 8) (size 9 to 14) (size 15 to 20)
#    0.000    2.857    0.000    2.143    0.000    4.571 
#    0.000    1.429    0.000    5.143    0.000    0.000 
#    0.000    0.000    0.000    0.000    0.000    0.000 
#
# Total GULP energy -155923.181086 kJ/mol
# GULP energy per Si atom -5568.685039 kJ/mol
# Density = 1.724399 g / cm^3
# Si number density = 17.283329 Si / 1000 Ang^3
#
#
#
# Elastic Constant Matrix: (Units=GPa)
#
#
# Indices 1 2 3 4 5 6 
#
# 1 56.3166 26.2523 74.8545 0.0000 1.6325 0.0000
# 2 26.2523 25.0522 56.3037 0.0000 1.7445 0.0000
# 3 74.8545 56.3037 210.6527 0.0000 5.4925 0.0000
# 4 0.0000 0.0000 0.0000 32.9580 0.0000 0.5787
# 5 1.6325 1.7445 5.4925 0.0000 23.9155 0.0000
# 6 0.0000 0.0000 0.0000 0.5787 0.0000 16.2501
#
#
#
# Elastic Compliance Matrix: (Units=1/GPa)
#
#
# Indices 1 2 3 4 5 6 
#
# 1 0.038747 -0.024212 -0.007318 0.000000 0.000802 0.000000
# 2 -0.024212 0.115129 -0.022125 0.000000 -0.001664 0.000000
# 3 -0.007318 -0.022125 0.013286 0.000000 -0.000938 0.000000
# 4 0.000000 0.000000 0.000000 0.030361 0.000000 -0.001081
# 5 0.000802 -0.001664 -0.000938 0.000000 0.042096 0.000000
# 6 0.000000 0.000000 0.000000 -0.001081 0.000000 0.061577
#
#
# Mechanical properties :
#
#
# Convention : Reuss Voigt Hill
#
# Bulk Modulus (GPa) = 16.70792 67.42695 42.06743
# Shear Modulus (GPa) = 11.66981 23.59878 17.63429
#
# Velocity S-wave (km/s) = 2.60129 3.69915 3.19769
# Velocity P-wave (km/s) = 4.32555 7.57247 6.16655
#
# Compressibility (1/GPa) = 0.05985186
#
# Stress axis : x y z
#
# Youngs Moduli (GPa) = 25.80846 8.68588 75.26914
#
# Poissons Ratio (x) = 0.21030 0.55082
# Poissons Ratio (y) = 0.62487 1.66533
# Poissons Ratio (z) = 0.18887 0.19218
#
# Static dielectric constant tensor:
#      x y z
#    x 1.560320 0.000000 -0.006010 
#    y 0.000000 1.577000 0.000000 
#    z -0.006010 0.000000 1.630790 
# 
# From -- ./inp_files/280188.got.cif
#   From: 2010.05.17/outbox.cif.g08.bks.cpg/sg12_141_cif.got.tgz:280188.got - 2010.06.03 13:09:07.
