data_PCOD9180346
_publ_section_title
;
Structure prediction by ZEFSAII (Michael W. Deem and Ramdas Pophale) SiO2 
 PCOD9180346
Probable space group: C 2/M
;
_chemical_formula_sum "Si O2"
_cell_formula_units_Z 64
_cell_length_a 9.479058
_cell_length_b 28.930452
_cell_length_c 11.221921
_cell_angle_alpha 90.000000
_cell_angle_beta 94.112077
_cell_angle_gamma 90.000000
_cell_volume 3069.503667
_symmetry_space_group_name_H-M "C 2/M"
_symmetry_group_IT_number 12
_symmetry_cell_setting 'monoclinic'
loop_
_space_group_symop_operation_xyz
x,y,z
-x,y,-z
-x,-y,-z
x,-y,z
1/2+x,1/2+y,z
1/2-x,1/2+y,-z
1/2-x,1/2-y,-z
1/2+x,1/2-y,z
loop_
_atom_site_type_symbol
_atom_site_label
_atom_site_fract_x
_atom_site_fract_y
_atom_site_fract_z
Si Si1 0.452792 0.122431 0.291232
Si Si2 0.975487 0.948560 0.793354
Si Si3 0.173711 0.764874 0.114002
Si Si4 0.267238 0.597155 0.309358
Si Si5 0.484769 0.327404 0.362722
Si Si6 0.955437 0.726050 0.273067
Si Si7 0.168322 0.862956 0.161393
Si Si8 0.759048 0.446013 0.430632
O O1 0.604029 0.102175 0.265342
O O2 0.476882 0.175911 0.333250
O O3 0.335678 0.128636 0.180265
O O4 0.377683 0.087324 0.378862
O O5 0.133099 0.934170 0.766733
O O6 0.908365 0.910085 0.874060
O O7 0.876186 0.946595 0.667217
O O8 0.967765 0.000000 0.839803
O O9 0.293631 0.769019 0.222666
O O10 0.126808 0.817506 0.088192
O O11 0.052135 0.732544 0.160212
O O12 0.250000 0.750000 0.000000
O O13 0.341159 0.647775 0.311119
O O14 0.274616 0.575243 0.442396
O O15 0.500000 0.340121 0.500000
O O16 0.487289 0.272259 0.349084
O O17 0.608770 0.349025 0.289796
O O18 0.803843 0.500000 0.444375
#
# Coordination Sequence:
#
# PCOD9180346 Si02
#       8
#     8   8   8   8   8   8   8   8
#     4  10  20  32  44  64  99 131 159 211 263 294
#     4   9  17  31  49  67  94 134 173 217 265 298
#     4  10  19  35  58  79 102 130 164 213 268 308
#     4  11  19  28  45  69  94 130 181 222 247 282
#     4  10  19  32  49  67  99 143 178 204 239 291
#     4  10  21  36  51  76 105 132 172 210 248 314
#     4   8  18  34  48  71 103 134 171 208 247 312
#     4  10  20  32  45  64  94 135 182 222 255 295
#
# _framework density 20.850276000000001
#
# number of rings (size 3 to 8) (size 9 to 14) (size 15 to 20)
#    0.000    2.250    0.000    4.500    0.000    3.500 
#    0.000    6.875    0.000    0.000    0.000    0.875 
#    0.000   30.000    0.000    4.000    0.000    2.125 
#
# Total GULP energy -178520.066339 kJ/mol
# GULP energy per Si atom -5578.752073 kJ/mol
# Density = 2.080282 g / cm^3
# Si number density = 20.850276 Si / 1000 Ang^3
#
#
#
# Elastic Constant Matrix: (Units=GPa)
#
#
# Indices 1 2 3 4 5 6 
#
# 1 133.2034 32.9897 13.5273 0.0000 -4.3243 0.0000
# 2 32.9897 183.3851 18.4923 0.0000 -19.4370 0.0000
# 3 13.5273 18.4923 26.6437 0.0000 -2.5629 0.0000
# 4 0.0000 0.0000 0.0000 -7.9005 0.0000 1.4467
# 5 -4.3243 -19.4370 -2.5629 0.0000 22.3264 0.0000
# 6 0.0000 0.0000 0.0000 1.4467 0.0000 26.3462
#
#
#
# Elastic Compliance Matrix: (Units=1/GPa)
#
#
# Indices 1 2 3 4 5 6 
#
# 1 0.008127 -0.001100 -0.003340 0.000000 0.000233 0.000000
# 2 -0.001100 0.006542 -0.003493 0.000000 0.005081 0.000000
# 3 -0.003340 -0.003493 0.041759 0.000000 0.001106 0.000000
# 4 0.000000 0.000000 0.000000 -0.125314 0.000000 0.006881
# 5 0.000233 0.005081 0.001106 0.000000 0.049386 0.000000
# 6 0.000000 0.000000 0.000000 0.006881 0.000000 0.037578
#
#
# Mechanical properties :
#
#
# Convention : Reuss Voigt Hill
#
# Bulk Modulus (GPa) = 24.65444 52.58340 38.61892
# Shear Modulus (GPa) = 105.34565 26.70262 66.02414
#
# Velocity S-wave (km/s) = 7.11579 3.58255 5.63335
# Velocity P-wave (km/s) = 8.90858 6.51054 7.80224
#
# Compressibility (1/GPa) = 0.04056065
#
# Stress axis : x y z
#
# Youngs Moduli (GPa) = 123.05296 152.86472 23.94718
#
# Poissons Ratio (x) = 0.16823 0.07998
# Poissons Ratio (y) = 0.13542 0.08364
# Poissons Ratio (z) = 0.41097 0.53394
#
# Static dielectric constant tensor:
#      x y z
#    x 1.755680 0.000000 0.035850 
#    y 0.000000 1.807110 0.000000 
#    z 0.035850 0.000000 1.774940 
# 
# From -- ./inp_files/125743.got.cif
#   From: 2010.05.17/outbox.cif.g08.bks.cpg/sg12_63_cif.got.tgz:125743.got - 2010.06.03 13:09:07.
