data_PCOD9180380
_publ_section_title
;
Structure prediction by ZEFSAII (Michael W. Deem and Ramdas Pophale) SiO2 
 PCOD9180380
Probable space group: C 2/M
;
_chemical_formula_sum "Si O2"
_cell_formula_units_Z 64
_cell_length_a 20.488914
_cell_length_b 7.397115
_cell_length_c 21.845448
_cell_angle_alpha 90.000000
_cell_angle_beta 68.529977
_cell_angle_gamma 90.000000
_cell_volume 3081.127031
_symmetry_space_group_name_H-M "C 2/M"
_symmetry_group_IT_number 12
_symmetry_cell_setting 'monoclinic'
loop_
_space_group_symop_operation_xyz
x,y,z
-x,y,-z
-x,-y,-z
x,-y,z
1/2+x,1/2+y,z
1/2-x,1/2+y,-z
1/2-x,1/2-y,-z
1/2+x,1/2-y,z
loop_
_atom_site_type_symbol
_atom_site_label
_atom_site_fract_x
_atom_site_fract_y
_atom_site_fract_z
Si Si1 0.080948 0.778680 0.970412
Si Si2 0.167977 0.786437 0.822269
Si Si3 0.674386 0.281643 0.189819
Si Si4 0.676701 0.715534 0.557990
Si Si5 0.029843 0.219876 0.297927
Si Si6 0.967924 0.220656 0.447509
Si Si7 0.882031 0.220877 0.293069
Si Si8 0.672740 0.284601 0.051688
O O1 0.123265 0.716392 0.895614
O O2 0.083366 0.000000 0.969241
O O3 0.119079 0.716131 0.019170
O O4 0.000000 0.725717 0.000000
O O5 0.250503 0.765248 0.807289
O O6 0.145303 0.715182 0.763405
O O7 0.153255 0.000000 0.825411
O O8 0.672311 0.500000 0.189395
O O9 0.605432 0.218372 0.249243
O O10 0.668834 0.214426 0.121940
O O11 0.669399 0.500000 0.564265
O O12 0.750000 0.750000 0.500000
O O13 0.611334 0.780479 0.539493
O O14 0.664290 0.780144 0.632153
O O15 0.013212 0.274238 0.372998
O O16 0.962588 0.273522 0.280013
O O17 0.030304 0.000000 0.296481
O O18 0.000000 0.283907 0.500000
O O19 0.967679 0.000000 0.449249
O O20 0.880351 0.000000 0.292888
O O21 0.661636 0.500000 0.059386
O O22 0.750000 0.250000 0.000000
#
# Coordination Sequence:
#
# PCOD9180380 Si02
#       8
#     8   8   8   8   8   8   8   8
#     4   9  18  30  47  72  93 115 158 203 229 262
#     4  10  19  32  50  69  94 126 157 192 232 276
#     4  10  20  31  48  72  98 123 151 193 238 279
#     4   9  17  30  48  71  96 123 155 191 232 277
#     4   8  15  28  45  67  92 120 155 192 231 270
#     4   8  14  26  45  68  93 120 154 192 226 268
#     4   8  16  30  48  69  93 123 160 196 227 267
#     4  10  19  32  49  70  96 123 152 192 237 276
#
# _framework density 20.771619999999999
#
# number of rings (size 3 to 8) (size 9 to 14) (size 15 to 20)
#    0.000    3.000    1.250    1.500    1.750    1.000 
#    0.000    1.875    0.000    5.625    0.000    0.000 
#    0.000    0.000    0.000    0.000    0.000    0.000 
#
# Total GULP energy -178559.458119 kJ/mol
# GULP energy per Si atom -5579.983066 kJ/mol
# Density = 2.072434 g / cm^3
# Si number density = 20.771620 Si / 1000 Ang^3
#
#
#
# Elastic Constant Matrix: (Units=GPa)
#
#
# Indices 1 2 3 4 5 6 
#
# 1 206.8112 -2.2900 151.3363 0.0000 14.6179 -0.0009
# 2 -2.2900 68.2266 0.7160 0.0002 6.5482 -0.0010
# 3 151.3363 0.7160 192.0360 0.0000 3.9458 -0.0004
# 4 0.0000 0.0002 0.0000 5.2122 0.0001 -9.7851
# 5 14.6179 6.5482 3.9458 0.0001 46.9411 -0.0001
# 6 -0.0009 -0.0010 -0.0004 -9.7851 -0.0001 13.5688
#
#
#
# Elastic Compliance Matrix: (Units=1/GPa)
#
#
# Indices 1 2 3 4 5 6 
#
# 1 0.011845 0.000785 -0.009275 -0.000003 -0.003018 -0.000002
# 2 0.000785 0.014908 -0.000627 -0.000005 -0.002271 -0.000002
# 3 -0.009275 -0.000627 0.012479 0.000002 0.001927 0.000001
# 4 -0.000003 -0.000005 0.000002 -0.542234 0.000002 -0.391029
# 5 -0.003018 -0.002271 0.001927 0.000002 0.022398 0.000002
# 6 -0.000002 -0.000002 0.000001 -0.391029 0.000002 -0.208290
#
#
# Mechanical properties :
#
#
# Convention : Reuss Voigt Hill
#
# Bulk Modulus (GPa) = 47.62716 85.17760 66.40238
# Shear Modulus (GPa) = -7.53399 34.29852 13.38226
#
# Velocity S-wave (km/s) = -1.90655 4.06793 2.54098
# Velocity P-wave (km/s) = 4.25819 7.94731 6.37542
#
# Compressibility (1/GPa) = 0.02099642
#
# Stress axis : x y z
#
# Youngs Moduli (GPa) = 84.42707 67.07836 80.13144
#
# Poissons Ratio (x) = -0.05263 0.74323
# Poissons Ratio (y) = -0.06624 0.05026
# Poissons Ratio (z) = 0.78307 0.04207
#
# Static dielectric constant tensor:
#      x y z
#    x 1.870360 -0.000010 0.231240 
#    y -0.000010 1.826880 -0.000010 
#    z 0.231240 -0.000010 2.016910 
# 
# From -- ./inp_files/315345.got.cif
#   From: 2010.05.17/outbox.cif.g08.bks.cpg/sg12_158_cif.got.tgz:315345.got - 2010.06.03 13:09:07.
