data_PCOD9180665
_publ_section_title
;
Structure prediction by ZEFSAII (Michael W. Deem and Ramdas Pophale) SiO2 
 PCOD9180665
Probable space group: C 2/M
;
_chemical_formula_sum "Si O2"
_cell_formula_units_Z 48
_cell_length_a 7.950371
_cell_length_b 19.635391
_cell_length_c 16.235811
_cell_angle_alpha 90.000000
_cell_angle_beta 75.827601
_cell_angle_gamma 90.000000
_cell_volume 2457.407351
_symmetry_space_group_name_H-M "C 2/M"
_symmetry_group_IT_number 12
_symmetry_cell_setting 'monoclinic'
loop_
_space_group_symop_operation_xyz
x,y,z
-x,y,-z
-x,-y,-z
x,-y,z
1/2+x,1/2+y,z
1/2-x,1/2+y,-z
1/2-x,1/2-y,-z
1/2+x,1/2-y,z
loop_
_atom_site_type_symbol
_atom_site_label
_atom_site_fract_x
_atom_site_fract_y
_atom_site_fract_z
Si Si1 0.598340 0.671976 0.403576
Si Si2 0.581466 0.921635 0.249979
Si Si3 0.498084 0.828024 0.403576
Si Si4 0.168555 0.078365 0.249979
Si Si5 0.249135 0.172922 0.096332
Si Si6 0.154533 0.672922 0.096332
O O1 0.500000 0.655221 0.500000
O O2 0.557156 0.750000 0.385688
O O3 0.800062 0.669438 0.399876
O O4 0.568325 0.620120 0.332636
O O5 0.599038 0.879880 0.332636
O O6 0.374876 0.921334 0.250248
O O7 0.678690 0.881094 0.165851
O O8 0.634534 0.000000 0.250713
O O9 0.500000 0.844779 0.500000
O O10 0.155459 0.118906 0.165851
O O11 0.114753 0.000000 0.250713
O O12 0.189568 0.250000 0.120864
O O13 0.452903 0.169285 0.094195
O O14 0.235049 0.160902 0.000000
#
# Coordination Sequence:
#
# PCOD9180665 Si02
#       6
#     8   8   8   8   8   8
#     4  10  19  32  51  71  93 122 156 195 234 274
#     4   9  18  31  47  70  98 125 154 191 234 276
#     4  10  19  32  51  71  93 122 156 195 234 274
#     4   9  18  31  47  70  98 125 154 191 234 276
#     4   9  17  30  50  73  95 122 156 193 231 273
#     4   9  17  30  50  73  95 122 156 193 231 273
#
# _framework density 19.532779999999999
#
# number of rings (size 3 to 8) (size 9 to 14) (size 15 to 20)
#    0.000    2.667    0.000    3.000    0.000    1.333 
#    0.000    5.000    0.000    8.000    0.000    4.667 
#    0.000    0.000    0.000    0.000    0.000    0.000 
#
# Total GULP energy -133925.557314 kJ/mol
# GULP energy per Si atom -5580.231555 kJ/mol
# Density = 1.948832 g / cm^3
# Si number density = 19.532780 Si / 1000 Ang^3
#
#
#
# Elastic Constant Matrix: (Units=GPa)
#
#
# Indices 1 2 3 4 5 6 
#
# 1 19.9619 6.5970 9.6677 0.0000 -0.3723 0.0000
# 2 6.5970 191.3222 154.9783 0.0000 -5.7454 0.0000
# 3 9.6677 154.9783 166.0567 0.0000 -5.2847 0.0000
# 4 0.0000 0.0000 0.0000 5.5123 0.0000 0.5084
# 5 -0.3723 -5.7454 -5.2847 0.0000 10.1444 0.0000
# 6 0.0000 0.0000 0.0000 0.5084 0.0000 18.6407
#
#
#
# Elastic Compliance Matrix: (Units=1/GPa)
#
#
# Indices 1 2 3 4 5 6 
#
# 1 0.051889 0.002706 -0.005529 0.000000 0.000557 0.000000
# 2 0.002706 0.021593 -0.020253 0.000000 0.001778 0.000000
# 3 -0.005529 -0.020253 0.025294 0.000000 0.001503 0.000000
# 4 0.000000 0.000000 0.000000 0.181870 0.000000 -0.004960
# 5 0.000557 0.001778 0.001503 0.000000 0.100387 0.000000
# 6 0.000000 0.000000 0.000000 -0.004960 0.000000 0.053781
#
#
# Mechanical properties :
#
#
# Convention : Reuss Voigt Hill
#
# Bulk Modulus (GPa) = 19.00279 79.98074 49.49176
# Shear Modulus (GPa) = 10.02998 20.59934 15.31466
#
# Velocity S-wave (km/s) = 2.26850 3.25099 2.80313
# Velocity P-wave (km/s) = 4.07569 7.42481 5.98911
#
# Compressibility (1/GPa) = 0.05262386
#
# Stress axis : x y z
#
# Youngs Moduli (GPa) = 19.27188 46.31218 39.53570
#
# Poissons Ratio (x) = -0.12532 0.21858
# Poissons Ratio (y) = -0.05215 0.80072
# Poissons Ratio (z) = 0.10655 0.93796
#
# Static dielectric constant tensor:
#      x y z
#    x 1.712640 0.000000 0.000440 
#    y 0.000000 1.651960 0.000000 
#    z 0.000440 0.000000 1.701170 
# 
# From -- ./inp_files/256153.got.cif
#   From: 2010.05.17/outbox.cif.g08.bks.cpg/sg12_129_cif.got.tgz:256153.got - 2010.06.03 13:09:07.
