data_PCOD9180020
_publ_section_title
;
Structure prediction by ZEFSAII (Michael W. Deem and Ramdas Pophale) SiO2 
 PCOD9180020
Probable space group: C 2/M
;
_chemical_formula_sum "Si O2"
_cell_formula_units_Z 52
_cell_length_a 11.509040
_cell_length_b 14.247431
_cell_length_c 22.821860
_cell_angle_alpha 90.000000
_cell_angle_beta 32.165464
_cell_angle_gamma 90.000000
_cell_volume 1992.219145
_symmetry_space_group_name_H-M "C 2/M"
_symmetry_group_IT_number 12
_symmetry_cell_setting 'monoclinic'
loop_
_space_group_symop_operation_xyz
x,y,z
-x,y,-z
-x,-y,-z
x,-y,z
1/2+x,1/2+y,z
1/2-x,1/2+y,-z
1/2-x,1/2-y,-z
1/2+x,1/2-y,z
loop_
_atom_site_type_symbol
_atom_site_label
_atom_site_fract_x
_atom_site_fract_y
_atom_site_fract_z
Si Si1 0.000000 0.653553 0.000000
Si Si2 0.995788 0.107737 0.222406
Si Si3 0.703367 0.852000 0.449929
Si Si4 0.539138 0.112325 0.107078
Si Si5 0.051023 0.113406 0.886126
Si Si6 0.334631 0.360271 0.520127
Si Si7 0.532724 0.111473 0.232663
O O1 0.242577 0.607650 0.896234
O O2 0.003265 0.679957 0.929537
O O3 0.899489 0.159728 0.319512
O O4 0.908158 0.144578 0.197904
O O5 0.927286 0.000000 0.259737
O O6 0.500000 0.895100 0.500000
O O7 0.613588 0.750112 0.507389
O O8 0.801467 0.895924 0.467821
O O9 0.430227 0.142511 0.214644
O O10 0.493954 0.000000 0.112349
O O11 0.797097 0.121535 0.008947
O O12 0.226755 0.150016 0.857105
O O13 0.084844 0.000000 0.869827
O O14 0.500000 0.397919 0.500000
O O15 0.105744 0.371945 0.650717
O O16 0.548864 0.000000 0.216222
#
# Coordination Sequence:
#
# PCOD9180020 Si02
#       7
#     4   8   8   8   8   8   8
#     4  10  19  32  50  82 118 146 173 212 279 340
#     4  10  19  32  58  85 110 140 180 229 272 326
#     4  10  22  41  61  77 104 152 190 225 277 329
#     4   9  16  27  47  75 109 144 174 208 264 329
#     4   8  15  29  49  79 108 136 174 218 267 323
#     4  10  23  40  55  78 108 145 186 228 279 332
#     4  10  19  31  53  79 108 141 178 227 274 319
#
# _framework density 26.101547
#
# number of rings (size 3 to 8) (size 9 to 14) (size 15 to 20)
#    0.000    2.462    0.000    3.692    2.154    3.077 
#    0.000    0.000    3.385    1.846    0.000    0.000 
#    0.000    0.000    0.000    0.000    0.000    0.000 
#
# Total GULP energy -145002.154905 kJ/mol
# GULP energy per Si atom -5577.005958 kJ/mol
# Density = 2.604214 g / cm^3
# Si number density = 26.101547 Si / 1000 Ang^3
#
#
#
# Elastic Constant Matrix: (Units=GPa)
#
#
# Indices 1 2 3 4 5 6 
#
# 1 210.4621 12.2571 53.8244 -0.0004 41.6862 -0.0007
# 2 12.2571 98.7725 -7.6939 0.0008 -1.6634 -0.0003
# 3 53.8244 -7.6939 85.8698 -0.0002 39.8276 -0.0016
# 4 -0.0004 0.0008 -0.0002 11.8855 0.0001 -3.8437
# 5 41.6862 -1.6634 39.8276 0.0001 59.0038 0.0005
# 6 -0.0007 -0.0003 -0.0016 -3.8437 0.0005 -2.7879
#
#
#
# Elastic Compliance Matrix: (Units=1/GPa)
#
#
# Indices 1 2 3 4 5 6 
#
# 1 0.005984 -0.000995 -0.002717 0.000000 -0.002422 0.000000
# 2 -0.000995 0.010370 0.001589 -0.000001 -0.000077 0.000000
# 3 -0.002717 0.001589 0.018313 -0.000003 -0.010397 -0.000008
# 4 0.000000 -0.000001 -0.000003 0.058190 0.000002 -0.080229
# 5 -0.002422 -0.000077 -0.010397 0.000002 0.025675 0.000008
# 6 0.000000 0.000000 -0.000008 -0.080229 0.000008 -0.248082
#
#
# Mechanical properties :
#
#
# Convention : Reuss Voigt Hill
#
# Bulk Modulus (GPa) = 32.87197 56.87550 44.87373
# Shear Modulus (GPa) = -43.41672 36.06806 -3.67433
#
# Velocity S-wave (km/s) = -4.08288 3.72134 -1.18775
# Velocity P-wave (km/s) = 3.09924 6.34838 3.91769
#
# Compressibility (1/GPa) = 0.03042106
#
# Stress axis : x y z
#
# Youngs Moduli (GPa) = 167.11622 96.43024 54.60586
#
# Poissons Ratio (x) = 0.09594 0.14834
# Poissons Ratio (y) = 0.16627 -0.08674
# Poissons Ratio (z) = 0.45398 -0.15318
#
# Static dielectric constant tensor:
#      x y z
#    x 2.091610 0.000000 0.030810 
#    y 0.000000 2.103830 0.000000 
#    z 0.030810 0.000000 2.027950 
# 
# From -- ./inp_files/306899.got.cif
#   From: 2010.05.17/outbox.cif.g08.bks.cpg/sg12_154_cif.got.tgz:306899.got - 2010.06.03 13:09:07.
