data_PCOD9180601
_publ_section_title
;
Structure prediction by ZEFSAII (Michael W. Deem and Ramdas Pophale) SiO2 
 PCOD9180601
Probable space group: C 2/M
;
_chemical_formula_sum "Si O2"
_cell_formula_units_Z 40
_cell_length_a 30.853328
_cell_length_b 7.492288
_cell_length_c 15.488853
_cell_angle_alpha 90.000000
_cell_angle_beta 30.481445
_cell_angle_gamma 90.000000
_cell_volume 1816.208720
_symmetry_space_group_name_H-M "C 2/M"
_symmetry_group_IT_number 12
_symmetry_cell_setting 'monoclinic'
loop_
_space_group_symop_operation_xyz
x,y,z
-x,y,-z
-x,-y,-z
x,-y,z
1/2+x,1/2+y,z
1/2-x,1/2+y,-z
1/2-x,1/2-y,-z
1/2+x,1/2-y,z
loop_
_atom_site_type_symbol
_atom_site_label
_atom_site_fract_x
_atom_site_fract_y
_atom_site_fract_z
Si Si1 0.286629 0.214124 0.711493
Si Si2 0.103472 0.712378 0.078155
Si Si3 0.525688 0.781350 0.551902
Si Si4 0.193485 0.713247 0.513260
Si Si5 0.993583 0.281718 0.109627
O O1 0.378631 0.276926 0.587295
O O2 0.273242 0.281359 0.636032
O O3 0.291697 0.000000 0.699887
O O4 0.204203 0.256195 0.910182
O O5 0.091058 0.500000 0.098670
O O6 0.043919 0.779254 0.258006
O O7 0.067420 0.779204 0.047947
O O8 0.500000 0.725828 0.500000
O O9 0.525885 0.000000 0.552614
O O10 0.189097 0.500000 0.513582
O O11 0.250000 0.750000 0.500000
O O12 0.097056 0.775263 0.695557
O O13 0.994923 0.500000 0.105069
O O14 0.000000 0.221012 0.000000
#
# Coordination Sequence:
#
# PCOD9180601 Si02
#       5
#     8   8   8   8   8
#     4  10  20  35  54  79 111 141 173 221 273 315
#     4  10  19  34  56  80 104 139 184 220 258 318
#     4   9  18  35  58  80 105 141 182 221 264 318
#     4  10  19  32  50  75 106 140 177 217 262 313
#     4   9  16  28  48  72  99 133 175 214 248 301
#
# _framework density 22.023900000000001
#
# number of rings (size 3 to 8) (size 9 to 14) (size 15 to 20)
#    0.000    2.400    2.000    1.200    0.000    3.200 
#    0.000    2.000    0.000    4.800    0.000    0.000 
#    0.000    0.000    0.000    0.000    0.000    0.000 
#
# Total GULP energy -111709.115072 kJ/mol
# GULP energy per Si atom -5585.455754 kJ/mol
# Density = 2.197377 g / cm^3
# Si number density = 22.023900 Si / 1000 Ang^3
#
#
#
# Elastic Constant Matrix: (Units=GPa)
#
#
# Indices 1 2 3 4 5 6 
#
# 1 159.7703 4.3034 97.4917 0.0000 6.8939 0.0000
# 2 4.3034 57.2009 0.7545 -0.0001 4.8357 0.0000
# 3 97.4917 0.7545 195.9462 -0.0001 -6.3194 0.0000
# 4 0.0000 -0.0001 -0.0001 11.7413 0.0000 -1.6588
# 5 6.8939 4.8357 -6.3194 0.0000 31.8789 0.0000
# 6 0.0000 0.0000 0.0000 -1.6588 0.0000 -0.4345
#
#
#
# Elastic Compliance Matrix: (Units=1/GPa)
#
#
# Indices 1 2 3 4 5 6 
#
# 1 0.009261 -0.000392 -0.004699 0.000000 -0.002875 0.000000
# 2 -0.000392 0.017731 0.000043 0.000000 -0.002596 0.000001
# 3 -0.004699 0.000043 0.007522 0.000000 0.002501 0.000000
# 4 0.000000 0.000000 0.000000 0.055326 0.000000 -0.211238
# 5 -0.002875 -0.002596 0.002501 0.000000 0.032880 0.000000
# 6 0.000000 0.000001 0.000000 -0.211238 0.000000 -1.495193
#
#
# Mechanical properties :
#
#
# Convention : Reuss Voigt Hill
#
# Bulk Modulus (GPa) = 40.95359 68.66851 54.81105
# Shear Modulus (GPa) = -3.69211 29.32833 12.81811
#
# Velocity S-wave (km/s) = -1.29617 3.65315 2.41510
# Velocity P-wave (km/s) = 4.04912 7.00291 5.71997
#
# Compressibility (1/GPa) = 0.02441788
#
# Stress axis : x y z
#
# Youngs Moduli (GPa) = 107.98182 56.39961 132.94674
#
# Poissons Ratio (x) = 0.02209 0.62470
# Poissons Ratio (y) = 0.04230 -0.00570
# Poissons Ratio (z) = 0.50739 -0.00242
#
# Static dielectric constant tensor:
#      x y z
#    x 1.803680 0.000000 0.013200 
#    y 0.000000 1.853140 0.000000 
#    z 0.013200 0.000000 1.792250 
# 
# From -- ./inp_files/202861.got.cif
#   From: 2010.05.17/outbox.cif.g08.bks.cpg/sg12_102_cif.got.tgz:202861.got - 2010.06.03 13:09:07.
