data_PCOD9180929
_publ_section_title
;
Structure prediction by ZEFSAII (Michael W. Deem and Ramdas Pophale) SiO2 
 PCOD9180929
Probable space group: C 2/M
;
_chemical_formula_sum "Si O2"
_cell_formula_units_Z 64
_cell_length_a 27.372749
_cell_length_b 10.388802
_cell_length_c 12.407682
_cell_angle_alpha 90.000000
_cell_angle_beta 84.860724
_cell_angle_gamma 90.000000
_cell_volume 3514.188961
_symmetry_space_group_name_H-M "C 2/M"
_symmetry_group_IT_number 12
_symmetry_cell_setting 'monoclinic'
loop_
_space_group_symop_operation_xyz
x,y,z
-x,y,-z
-x,-y,-z
x,-y,z
1/2+x,1/2+y,z
1/2-x,1/2+y,-z
1/2-x,1/2-y,-z
1/2+x,1/2-y,z
loop_
_atom_site_type_symbol
_atom_site_label
_atom_site_fract_x
_atom_site_fract_y
_atom_site_fract_z
Si Si1 0.056308 0.156924 0.490197
Si Si2 0.960536 0.853536 0.926797
Si Si3 0.377999 0.346461 0.329889
Si Si4 0.866548 0.854366 0.096200
Si Si5 0.293348 0.865292 0.043117
Si Si6 0.897401 0.156577 0.747143
Si Si7 0.711508 0.759325 0.184952
Si Si8 0.737142 0.653965 0.601562
O O1 0.085874 0.207330 0.587496
O O2 0.086361 0.188972 0.376793
O O3 0.000000 0.200143 0.500000
O O4 0.055170 0.000000 0.493768
O O5 0.941568 0.799003 0.817508
O O6 0.979144 0.000000 0.900396
O O7 0.910377 0.860895 0.003671
O O8 0.000000 0.792033 0.000000
O O9 0.386032 0.500000 0.329361
O O10 0.387001 0.305464 0.206118
O O11 0.320859 0.326486 0.366445
O O12 0.825570 0.757779 0.064998
O O13 0.846723 0.000000 0.114657
O O14 0.245050 0.853494 0.126707
O O15 0.318728 0.000000 0.063135
O O16 0.284567 0.857752 0.916484
O O17 0.844669 0.216086 0.786611
O O18 0.893787 0.000000 0.758383
O O19 0.734146 0.808095 0.293684
O O20 0.744979 0.500000 0.577277
O O21 0.750000 0.750000 0.500000
#
# Coordination Sequence:
#
# PCOD9180929 Si02
#       8
#     8   8   8   8   8   8   8   8
#     4   9  18  30  48  76 108 141 179 228 285 337
#     4   9  18  30  50  81 110 141 184 234 287 340
#     4   9  18  33  51  73 106 144 178 219 273 329
#     4  10  19  35  57  80 113 150 183 225 282 338
#     4  11  23  36  57  86 117 152 194 236 277 336
#     4  10  19  32  51  77 112 148 186 234 285 341
#     4  11  22  37  56  80 114 154 191 232 284 341
#     4  11  23  39  58  81 113 151 192 232 279 334
#
# _framework density 18.211883
#
# number of rings (size 3 to 8) (size 9 to 14) (size 15 to 20)
#    0.000    2.000    2.500    1.500    1.750    4.000 
#    0.000    0.000    0.000    0.375    0.000    0.000 
#    0.000    4.750    0.000    0.000    0.000    0.000 
#
# Total GULP energy -178221.775642 kJ/mol
# GULP energy per Si atom -5569.430489 kJ/mol
# Density = 1.817043 g / cm^3
# Si number density = 18.211883 Si / 1000 Ang^3
#
#
#
# Elastic Constant Matrix: (Units=GPa)
#
#
# Indices 1 2 3 4 5 6 
#
# 1 70.6307 17.2778 21.5645 0.0000 24.6462 0.0000
# 2 17.2778 59.1425 23.7618 0.0000 8.1207 0.0000
# 3 21.5645 23.7618 118.6191 0.0000 25.1286 0.0000
# 4 0.0000 0.0000 0.0000 -6.3800 0.0000 6.0797
# 5 24.6462 8.1207 25.1286 0.0000 38.2333 0.0000
# 6 0.0000 0.0000 0.0000 6.0797 0.0000 14.7381
#
#
#
# Elastic Compliance Matrix: (Units=1/GPa)
#
#
# Indices 1 2 3 4 5 6 
#
# 1 0.019159 -0.003923 -0.000299 0.000000 -0.011321 0.000000
# 2 -0.003923 0.019290 -0.003275 0.000000 0.000584 0.000000
# 3 -0.000299 -0.003275 0.010401 0.000000 -0.005947 0.000000
# 4 0.000000 0.000000 0.000000 -0.112512 0.000000 0.046413
# 5 -0.011321 0.000584 -0.005947 0.000000 0.037238 0.000000
# 6 0.000000 0.000000 0.000000 0.046413 0.000000 0.048705
#
#
# Mechanical properties :
#
#
# Convention : Reuss Voigt Hill
#
# Bulk Modulus (GPa) = 29.53588 41.51116 35.52352
# Shear Modulus (GPa) = 102.96583 21.70415 62.33499
#
# Velocity S-wave (km/s) = 7.52731 3.45593 5.85679
# Velocity P-wave (km/s) = 9.58125 6.22636 8.07985
#
# Compressibility (1/GPa) = 0.03385713
#
# Stress axis : x y z
#
# Youngs Moduli (GPa) = 52.19360 51.84087 96.14816
#
# Poissons Ratio (x) = 0.20335 0.02875
# Poissons Ratio (y) = 0.20474 0.31485
# Poissons Ratio (z) = 0.01561 0.16976
#
# Static dielectric constant tensor:
#      x y z
#    x 1.634010 0.000000 0.019750 
#    y 0.000000 1.625640 0.000000 
#    z 0.019750 0.000000 1.681000 
# 
# From -- ./inp_files/182077.got.cif
#   From: 2010.05.17/outbox.cif.g08.bks.cpg/sg12_92_cif.got.tgz:182077.got - 2010.06.03 13:09:07.
