data_PCOD9180719
_publ_section_title
;
Structure prediction by ZEFSAII (Michael W. Deem and Ramdas Pophale) SiO2 
 PCOD9180719
Probable space group: C 2/M
;
_chemical_formula_sum "Si O2"
_cell_formula_units_Z 48
_cell_length_a 15.359815
_cell_length_b 9.603721
_cell_length_c 16.791004
_cell_angle_alpha 90.000000
_cell_angle_beta 117.260179
_cell_angle_gamma 90.000000
_cell_volume 2201.773160
_symmetry_space_group_name_H-M "C 2/M"
_symmetry_group_IT_number 12
_symmetry_cell_setting 'monoclinic'
loop_
_space_group_symop_operation_xyz
x,y,z
-x,y,-z
-x,-y,-z
x,-y,z
1/2+x,1/2+y,z
1/2-x,1/2+y,-z
1/2-x,1/2-y,-z
1/2+x,1/2-y,z
loop_
_atom_site_type_symbol
_atom_site_label
_atom_site_fract_x
_atom_site_fract_y
_atom_site_fract_z
Si Si1 0.625749 0.333876 0.371673
Si Si2 0.191827 0.343616 0.165603
Si Si3 0.343725 0.153925 0.032735
Si Si4 0.589746 0.332327 0.704147
Si Si5 0.817803 0.165303 0.421219
Si Si6 0.481662 0.656550 0.895851
O O1 0.635717 0.500000 0.359449
O O2 0.515087 0.283033 0.307641
O O3 0.715727 0.248133 0.372730
O O4 0.638075 0.314283 0.472640
O O5 0.185479 0.500000 0.199799
O O6 0.148454 0.361233 0.059162
O O7 0.306069 0.301543 0.210319
O O8 0.123259 0.221276 0.169269
O O9 0.331821 0.000000 0.062849
O O10 0.250000 0.250000 0.000000
O O11 0.437120 0.237464 0.101275
O O12 0.580924 0.500000 0.702338
O O13 0.610629 0.292467 0.620825
O O14 0.800173 0.000000 0.406129
O O15 0.494004 0.500000 0.870186
O O16 0.500000 0.648028 0.000000
#
# Coordination Sequence:
#
# PCOD9180719 Si02
#       6
#     8   8   8   8   8   8
#     4   9  17  31  52  76 102 135 173 211 248 297
#     4   9  18  33  51  71  97 129 164 203 250 304
#     4  10  19  32  51  73  97 128 167 207 249 298
#     4   9  17  32  53  74 102 137 172 206 252 309
#     4   9  17  31  52  76 101 133 174 212 249 297
#     4   9  17  31  51  71  93 122 159 201 243 292
#
# _framework density 21.800611
#
# number of rings (size 3 to 8) (size 9 to 14) (size 15 to 20)
#    0.000    2.833    0.000    1.500    0.000    4.667 
#    3.000    2.500    0.000    4.000    0.000    0.000 
#    0.000    0.000    0.000    0.000    0.000    0.000 
#
# Total GULP energy -133864.192155 kJ/mol
# GULP energy per Si atom -5577.674673 kJ/mol
# Density = 2.175099 g / cm^3
# Si number density = 21.800611 Si / 1000 Ang^3
#
#
#
# Elastic Constant Matrix: (Units=GPa)
#
#
# Indices 1 2 3 4 5 6 
#
# 1 82.8311 44.1516 13.9480 0.0000 39.0547 0.0000
# 2 44.1516 117.7368 19.4488 0.0000 31.4797 0.0000
# 3 13.9480 19.4488 94.8719 0.0000 16.1792 0.0000
# 4 0.0000 0.0000 0.0000 14.3616 0.0000 12.7009
# 5 39.0547 31.4797 16.1792 0.0000 46.1275 0.0000
# 6 0.0000 0.0000 0.0000 12.7009 0.0000 26.6514
#
#
#
# Elastic Compliance Matrix: (Units=1/GPa)
#
#
# Indices 1 2 3 4 5 6 
#
# 1 0.021475 -0.003931 0.000310 0.000000 -0.015608 0.000000
# 2 -0.003931 0.011195 -0.001044 0.000000 -0.003945 0.000000
# 3 0.000310 -0.001044 0.011309 0.000000 -0.003517 0.000000
# 4 0.000000 0.000000 0.000000 0.120352 0.000000 -0.057354
# 5 -0.015608 -0.003945 -0.003517 0.000000 0.038820 0.000000
# 6 0.000000 0.000000 0.000000 -0.057354 0.000000 0.064854
#
#
# Mechanical properties :
#
#
# Convention : Reuss Voigt Hill
#
# Bulk Modulus (GPa) = 28.86079 50.05961 39.46020
# Shear Modulus (GPa) = 17.30794 31.95422 24.63108
#
# Velocity S-wave (km/s) = 2.82072 3.83266 3.36495
# Velocity P-wave (km/s) = 4.88629 6.52672 5.76515
#
# Compressibility (1/GPa) = 0.03464909
#
# Stress axis : x y z
#
# Youngs Moduli (GPa) = 46.56502 89.32448 88.42759
#
# Poissons Ratio (x) = 0.35116 -0.02745
# Poissons Ratio (y) = 0.18306 0.09234
# Poissons Ratio (z) = -0.01446 0.09327
#
# Static dielectric constant tensor:
#      x y z
#    x 1.857890 0.000000 -0.066830 
#    y 0.000000 1.747070 0.000000 
#    z -0.066830 0.000000 1.858040 
# 
# From -- ./inp_files/273693.got.cif
#   From: 2010.05.17/outbox.cif.g08.bks.cpg/sg12_137_cif.got.tgz:273693.got - 2010.06.03 13:09:07.
