data_PCOD9180750
_publ_section_title
;
Structure prediction by ZEFSAII (Michael W. Deem and Ramdas Pophale) SiO2 
 PCOD9180750
Probable space group: C 2/M
;
_chemical_formula_sum "Si O2"
_cell_formula_units_Z 60
_cell_length_a 14.578759
_cell_length_b 21.817454
_cell_length_c 16.387632
_cell_angle_alpha 90.000000
_cell_angle_beta 139.475435
_cell_angle_gamma 90.000000
_cell_volume 3386.906142
_symmetry_space_group_name_H-M "C 2/M"
_symmetry_group_IT_number 12
_symmetry_cell_setting 'monoclinic'
loop_
_space_group_symop_operation_xyz
x,y,z
-x,y,-z
-x,-y,-z
x,-y,z
1/2+x,1/2+y,z
1/2-x,1/2+y,-z
1/2-x,1/2-y,-z
1/2+x,1/2-y,z
loop_
_atom_site_type_symbol
_atom_site_label
_atom_site_fract_x
_atom_site_fract_y
_atom_site_fract_z
Si Si1 0.500000 0.658398 0.000000
Si Si2 0.953580 0.626843 0.380588
Si Si3 0.253979 0.928125 0.115645
Si Si4 0.842711 0.834459 0.410202
Si Si5 0.703323 0.073570 0.202695
Si Si6 0.883240 0.574107 0.031433
Si Si7 0.749012 0.321785 0.476990
Si Si8 0.698110 0.289977 0.267709
O O1 0.378719 0.613999 0.952795
O O2 0.427743 0.698684 0.880337
O O3 0.871628 0.581449 0.265174
O O4 0.840007 0.679922 0.325384
O O5 0.000000 0.600376 0.500000
O O6 0.092886 0.653725 0.431649
O O7 0.318968 0.906517 0.073524
O O8 0.216346 0.000000 0.084880
O O9 0.814965 0.891666 0.333024
O O10 0.819837 0.851552 0.489612
O O11 0.734309 0.780336 0.312144
O O12 0.000000 0.810710 0.500000
O O13 0.547386 0.090084 0.131356
O O14 0.718626 0.000000 0.216651
O O15 0.701149 0.093642 0.106501
O O16 0.880324 0.500000 0.028544
O O17 0.750000 0.250000 0.500000
O O18 0.673662 0.324608 0.337778
#
# Coordination Sequence:
#
# PCOD9180750 Si02
#       8
#     4   8   8   8   8   8   8   8
#     4  10  21  34  52  74 101 130 160 208 254 288
#     4   9  17  32  52  72  97 128 165 209 248 288
#     4  10  19  32  51  74 101 133 167 201 247 303
#     4  11  21  32  52  75  99 133 167 203 250 299
#     4   9  18  33  52  75 102 131 166 205 245 292
#     4   8  16  32  52  71  96 132 166 199 240 289
#     4   9  17  32  53  72  97 130 164 202 246 294
#     4   9  19  35  51  72  99 129 166 204 249 298
#
# _framework density 17.715282999999999
#
# number of rings (size 3 to 8) (size 9 to 14) (size 15 to 20)
#    0.000    2.667    0.000    3.800    0.000    2.667 
#    0.000    0.000    0.000   13.600    0.000    0.000 
#    0.000    0.000    0.000    0.000    0.000    0.000 
#
# Total GULP energy -167134.189913 kJ/mol
# GULP energy per Si atom -5571.139664 kJ/mol
# Density = 1.767496 g / cm^3
# Si number density = 17.715283 Si / 1000 Ang^3
#
#
#
# Elastic Constant Matrix: (Units=GPa)
#
#
# Indices 1 2 3 4 5 6 
#
# 1 104.0273 15.2850 53.8561 0.0000 -20.8239 0.0000
# 2 15.2850 40.5114 30.8884 0.0000 -5.9404 0.0000
# 3 53.8561 30.8884 132.3355 0.0000 -12.8807 0.0000
# 4 0.0000 0.0000 0.0000 26.6547 0.0000 -4.7646
# 5 -20.8239 -5.9404 -12.8807 0.0000 21.4976 0.0000
# 6 0.0000 0.0000 0.0000 -4.7646 0.0000 16.5628
#
#
#
# Elastic Compliance Matrix: (Units=1/GPa)
#
#
# Indices 1 2 3 4 5 6 
#
# 1 0.014263 -0.000198 -0.004693 0.000000 0.010950 0.000000
# 2 -0.000198 0.030420 -0.006605 0.000000 0.004256 0.000000
# 3 -0.004693 -0.006605 0.011031 0.000000 0.000239 0.000000
# 4 0.000000 0.000000 0.000000 0.039551 0.000000 0.011378
# 5 0.010950 0.004256 0.000239 0.000000 0.058443 0.000000
# 6 0.000000 0.000000 0.000000 0.011378 0.000000 0.063649
#
#
# Mechanical properties :
#
#
# Convention : Reuss Voigt Hill
#
# Bulk Modulus (GPa) = 30.56035 52.99259 41.77647
# Shear Modulus (GPa) = 19.90001 24.73268 22.31635
#
# Velocity S-wave (km/s) = 3.35524 3.74052 3.55311
# Velocity P-wave (km/s) = 5.68317 6.97379 6.36130
#
# Compressibility (1/GPa) = 0.03272214
#
# Stress axis : x y z
#
# Youngs Moduli (GPa) = 70.10992 32.87359 90.65100
#
# Poissons Ratio (x) = 0.00651 0.42540
# Poissons Ratio (y) = 0.01388 0.59879
# Poissons Ratio (z) = 0.32900 0.21714
#
# Static dielectric constant tensor:
#      x y z
#    x 1.622260 0.000000 -0.018930 
#    y 0.000000 1.590260 0.000000 
#    z -0.018930 0.000000 1.621460 
# 
# From -- ./inp_files/217935.got.cif
#   From: 2010.05.17/outbox.cif.g08.bks.cpg/sg12_109_cif.got.tgz:217935.got - 2010.06.03 13:09:07.
