data_PCOD9180571
_publ_section_title
;
Structure prediction by ZEFSAII (Michael W. Deem and Ramdas Pophale) SiO2 
 PCOD9180571
Probable space group: C 2/M
;
_chemical_formula_sum "Si O2"
_cell_formula_units_Z 64
_cell_length_a 25.930219
_cell_length_b 8.714861
_cell_length_c 24.504569
_cell_angle_alpha 90.000000
_cell_angle_beta 45.925880
_cell_angle_gamma 90.000000
_cell_volume 3978.364415
_symmetry_space_group_name_H-M "C 2/M"
_symmetry_group_IT_number 12
_symmetry_cell_setting 'monoclinic'
loop_
_space_group_symop_operation_xyz
x,y,z
-x,y,-z
-x,-y,-z
x,-y,z
1/2+x,1/2+y,z
1/2-x,1/2+y,-z
1/2-x,1/2-y,-z
1/2+x,1/2-y,z
loop_
_atom_site_type_symbol
_atom_site_label
_atom_site_fract_x
_atom_site_fract_y
_atom_site_fract_z
Si Si1 0.305503 0.682507 0.689933
Si Si2 0.436791 0.822627 0.000792
Si Si3 0.537289 0.814736 0.414484
Si Si4 0.773703 0.684504 0.593556
Si Si5 0.379361 0.814488 0.327100
Si Si6 0.443418 0.814198 0.165018
Si Si7 0.414587 0.186562 0.421948
Si Si8 0.331582 0.318484 0.159341
O O1 0.303084 0.500000 0.688349
O O2 0.384931 0.739692 0.645824
O O3 0.284940 0.752096 0.646071
O O4 0.245510 0.741480 0.776105
O O5 0.478663 0.768556 0.915932
O O6 0.414580 0.000000 0.010836
O O7 0.500000 0.819641 0.000000
O O8 0.372051 0.727139 0.073763
O O9 0.500000 0.778505 0.500000
O O10 0.483400 0.764309 0.406225
O O11 0.545350 0.000000 0.406571
O O12 0.771765 0.500000 0.597122
O O13 0.699737 0.746913 0.623594
O O14 0.841706 0.732425 0.506754
O O15 0.426835 0.772611 0.239427
O O16 0.411229 0.763909 0.361634
O O17 0.373634 0.000000 0.331945
O O18 0.382415 0.743467 0.170955
O O19 0.439023 0.000000 0.162674
O O20 0.415601 0.000000 0.421712
O O21 0.325217 0.500000 0.168722
#
# Coordination Sequence:
#
# PCOD9180571 Si02
#       8
#     8   8   8   8   8   8   8   8
#     4  12  23  34  50  73  99 130 168 209 252 301
#     4   8  15  28  44  65  97 133 161 191 237 291
#     4  10  19  36  56  72  96 129 166 210 255 295
#     4  11  20  33  50  72 100 134 169 206 250 290
#     4  10  19  32  50  74 102 136 170 200 238 292
#     4   9  17  29  46  69 101 135 163 194 237 290
#     4   9  19  34  52  72  98 132 170 207 247 292
#     4  11  20  30  47  71  98 127 163 203 246 295
#
# _framework density 16.087014
#
# number of rings (size 3 to 8) (size 9 to 14) (size 15 to 20)
#    0.000    2.000    2.500    3.750    0.000    2.500 
#    0.000    1.250    0.000    0.000    0.000    0.875 
#    0.000    0.000    0.000    0.000    0.000    0.000 
#
# Total GULP energy -178525.274787 kJ/mol
# GULP energy per Si atom -5578.914837 kJ/mol
# Density = 1.605040 g / cm^3
# Si number density = 16.087014 Si / 1000 Ang^3
#
#
#
# Elastic Constant Matrix: (Units=GPa)
#
#
# Indices 1 2 3 4 5 6 
#
# 1 108.9788 26.4615 65.4728 0.0001 -0.1417 0.0001
# 2 26.4615 39.4209 42.1117 0.0015 -2.0090 0.0062
# 3 65.4728 42.1117 130.0581 0.0000 -13.8763 -0.0001
# 4 0.0001 0.0015 0.0000 22.1190 -0.0001 -7.3514
# 5 -0.1417 -2.0090 -13.8763 -0.0001 12.5625 0.0001
# 6 0.0001 0.0062 -0.0001 -7.3514 0.0001 18.6608
#
#
#
# Elastic Compliance Matrix: (Units=1/GPa)
#
#
# Indices 1 2 3 4 5 6 
#
# 1 0.014037 -0.002074 -0.007270 0.000000 -0.008204 0.000001
# 2 -0.002074 0.039944 -0.012708 -0.000008 -0.007672 -0.000017
# 3 -0.007270 -0.012708 0.017273 0.000003 0.016966 0.000005
# 4 0.000000 -0.000008 0.000003 0.052021 0.000002 0.020494
# 5 -0.008204 -0.007672 0.016966 0.000002 0.097023 0.000003
# 6 0.000001 -0.000017 0.000005 0.020494 0.000003 0.061662
#
#
# Mechanical properties :
#
#
# Convention : Reuss Voigt Hill
#
# Bulk Modulus (GPa) = 36.83235 60.72775 48.78005
# Shear Modulus (GPa) = 14.92030 20.29590 17.60810
#
# Velocity S-wave (km/s) = 3.04875 3.55580 3.31199
# Velocity P-wave (km/s) = 5.94463 7.39525 6.70926
#
# Compressibility (1/GPa) = 0.02715004
#
# Stress axis : x y z
#
# Youngs Moduli (GPa) = 71.24168 25.03516 57.89220
#
# Poissons Ratio (x) = 0.05193 0.42087
# Poissons Ratio (y) = 0.14777 0.73569
# Poissons Ratio (z) = 0.51792 0.31814
#
# Static dielectric constant tensor:
#      x y z
#    x 1.509220 0.000000 0.009230 
#    y 0.000000 1.541340 0.000000 
#    z 0.009230 0.000000 1.562570 
# 
# From -- ./inp_files/287764.got.cif
#   From: 2010.05.17/outbox.cif.g08.bks.cpg/sg12_144_cif.got.tgz:287764.got - 2010.06.03 13:09:07.
