data_PCOD9180451
_publ_section_title
;
Structure prediction by ZEFSAII (Michael W. Deem and Ramdas Pophale) SiO2 
 PCOD9180451
Probable space group: C 2/M
;
_chemical_formula_sum "Si O2"
_cell_formula_units_Z 52
_cell_length_a 29.477542
_cell_length_b 20.228823
_cell_length_c 9.684186
_cell_angle_alpha 90.000000
_cell_angle_beta 32.073670
_cell_angle_gamma 90.000000
_cell_volume 3066.387780
_symmetry_space_group_name_H-M "C 2/M"
_symmetry_group_IT_number 12
_symmetry_cell_setting 'monoclinic'
loop_
_space_group_symop_operation_xyz
x,y,z
-x,y,-z
-x,-y,-z
x,-y,z
1/2+x,1/2+y,z
1/2-x,1/2+y,-z
1/2-x,1/2-y,-z
1/2+x,1/2-y,z
loop_
_atom_site_type_symbol
_atom_site_label
_atom_site_fract_x
_atom_site_fract_y
_atom_site_fract_z
Si Si1 0.602884 0.500000 0.255764
Si Si2 0.898594 0.855787 0.626549
Si Si3 0.740370 0.859890 0.484023
Si Si4 0.914063 0.187656 0.889789
Si Si5 0.418864 0.767253 0.133581
Si Si6 0.780259 0.000000 0.316717
Si Si7 0.840799 0.854321 0.490700
Si Si8 0.600577 0.500000 0.722876
O O1 0.500000 0.500000 0.500000
O O2 0.622831 0.430931 0.278464
O O3 0.661302 0.500000 0.969206
O O4 0.896062 0.811576 0.772320
O O5 0.839478 0.832502 0.653179
O O6 0.998434 0.854258 0.322157
O O7 0.666666 0.809881 0.632372
O O8 0.758963 0.854600 0.600603
O O9 0.724156 0.934631 0.480462
O O10 0.829929 0.842634 0.177640
O O11 0.932083 0.251955 0.937026
O O12 0.403029 0.697240 0.252437
O O13 0.500000 0.798316 0.000000
O O14 0.848924 0.000000 0.263477
O O15 0.873923 0.929932 0.409786
O O16 0.500000 0.500000 0.000000
#
# Coordination Sequence:
#
# PCOD9180451 Si02
#       8
#     4   8   8   8   8   4   8   4
#     4  12  19  28  47  75 117 152 170 199 253 322
#     4  11  20  29  51  76 116 149 170 197 256 318
#     4  10  21  37  56  77 100 144 180 229 274 306
#     4  10  19  32  49  78 112 140 174 203 255 320
#     4  11  21  38  58  72 102 139 190 235 268 303
#     4  10  20  36  51  74 111 134 181 227 260 316
#     4  10  20  33  48  79 110 141 177 213 250 327
#     4  10  21  24  47  75 108 145 178 198 251 310
#
# _framework density 16.958062999999999
#
# number of rings (size 3 to 8) (size 9 to 14) (size 15 to 20)
#    0.000    1.538    4.615    2.769    6.462    0.000 
#    0.000    3.462    0.000    0.000    0.000    0.000 
#    0.000    3.692    0.000    0.000    0.000    0.000 
#
# Total GULP energy -144799.017604 kJ/mol
# GULP energy per Si atom -5569.192985 kJ/mol
# Density = 1.691947 g / cm^3
# Si number density = 16.958063 Si / 1000 Ang^3
#
#
#
# Elastic Constant Matrix: (Units=GPa)
#
#
# Indices 1 2 3 4 5 6 
#
# 1 98.2191 36.7910 42.2837 0.0000 23.3684 0.0000
# 2 36.7910 60.0527 30.8655 0.0000 -0.3701 0.0000
# 3 42.2837 30.8655 48.6468 0.0000 15.7123 0.0000
# 4 0.0000 0.0000 0.0000 11.5267 0.0000 6.9511
# 5 23.3684 -0.3701 15.7123 0.0000 21.3554 0.0000
# 6 0.0000 0.0000 0.0000 6.9511 0.0000 0.0399
#
#
#
# Elastic Compliance Matrix: (Units=1/GPa)
#
#
# Indices 1 2 3 4 5 6 
#
# 1 0.020834 -0.009912 -0.005773 0.000000 -0.018722 0.000000
# 2 -0.009912 0.034212 -0.022018 0.000000 0.027640 0.000000
# 3 -0.005773 -0.022018 0.049356 0.000000 -0.030379 0.000000
# 4 0.000000 0.000000 0.000000 -0.000834 0.000000 0.145245
# 5 -0.018722 0.027640 -0.030379 0.000000 0.090144 0.000000
# 6 0.000000 0.000000 0.000000 0.145245 0.000000 -0.240852
#
#
# Mechanical properties :
#
#
# Convention : Reuss Voigt Hill
#
# Bulk Modulus (GPa) = 34.48809 47.42210 40.95509
# Shear Modulus (GPa) = 131.81890 13.04961 72.43426
#
# Velocity S-wave (km/s) = 8.82616 2.77704 6.54267
# Velocity P-wave (km/s) = 11.14673 6.18932 9.01546
#
# Compressibility (1/GPa) = 0.02899552
#
# Stress axis : x y z
#
# Youngs Moduli (GPa) = 47.99900 29.22961 20.26095
#
# Poissons Ratio (x) = 0.28973 0.11696
# Poissons Ratio (y) = 0.47577 0.44611
# Poissons Ratio (z) = 0.27708 0.64359
#
# Static dielectric constant tensor:
#      x y z
#    x 1.629690 0.000000 0.033360 
#    y 0.000000 1.609320 0.000000 
#    z 0.033360 0.000000 1.582030 
# 
# From -- ./inp_files/113280.got.cif
#   From: 2010.05.17/outbox.cif.g08.bks.cpg/sg12_57_cif.got.tgz:113280.got - 2010.06.03 13:09:07.
