data_PCOD9180629
_publ_section_title
;
Structure prediction by ZEFSAII (Michael W. Deem and Ramdas Pophale) SiO2 
 PCOD9180629
Probable space group: C 2/M
;
_chemical_formula_sum "Si O2"
_cell_formula_units_Z 56
_cell_length_a 27.288436
_cell_length_b 8.792070
_cell_length_c 13.969840
_cell_angle_alpha 90.000000
_cell_angle_beta 59.765451
_cell_angle_gamma 90.000000
_cell_volume 2895.746527
_symmetry_space_group_name_H-M "C 2/M"
_symmetry_group_IT_number 12
_symmetry_cell_setting 'monoclinic'
loop_
_space_group_symop_operation_xyz
x,y,z
-x,y,-z
-x,-y,-z
x,-y,z
1/2+x,1/2+y,z
1/2-x,1/2+y,-z
1/2-x,1/2-y,-z
1/2+x,1/2-y,z
loop_
_atom_site_type_symbol
_atom_site_label
_atom_site_fract_x
_atom_site_fract_y
_atom_site_fract_z
Si Si1 0.837124 0.317823 0.760205
Si Si2 0.232579 0.318983 0.778446
Si Si3 0.130549 0.819377 0.773965
Si Si4 0.035195 0.320000 0.752137
Si Si5 0.823371 0.176982 0.976716
Si Si6 0.059652 0.825673 0.036589
Si Si7 0.031342 0.314650 0.372362
O O1 0.834403 0.500000 0.757755
O O2 0.796126 0.247042 0.720350
O O3 0.814876 0.262230 0.885688
O O4 0.902789 0.267987 0.690199
O O5 0.233478 0.500000 0.777787
O O6 0.190754 0.258586 0.736784
O O7 0.204868 0.256721 0.904394
O O8 0.094352 0.759029 0.720547
O O9 0.138577 0.000000 0.761638
O O10 0.090693 0.788728 0.906504
O O11 0.044051 0.500000 0.737188
O O12 0.990312 0.282073 0.880343
O O13 0.004380 0.264845 0.685367
O O14 0.890336 0.180230 0.934509
O O15 0.805690 0.000000 0.988609
O O16 0.038467 0.000000 0.052933
O O17 0.031964 0.500000 0.368135
O O18 0.000000 0.267782 0.500000
#
# Coordination Sequence:
#
# PCOD9180629 Si02
#       7
#     8   8   8   8   8   8   8
#     4  11  20  34  56  79 107 145 185 228 277 328
#     4  11  22  35  52  78 112 147 185 226 266 323
#     4  10  21  36  52  76 111 151 184 218 267 328
#     4  11  20  32  54  81 107 141 183 229 273 322
#     4  10  19  32  50  76 112 150 186 224 268 323
#     4   9  18  31  48  72 108 148 182 218 266 322
#     4   9  20  38  59  84 111 141 182 231 283 331
#
# _framework density 19.338709000000001
#
# number of rings (size 3 to 8) (size 9 to 14) (size 15 to 20)
#    0.000    1.857    1.429    4.714    0.000    4.571 
#    0.000    0.000    0.000    7.714    0.000    0.000 
#    0.000    0.000    0.000    0.000    0.000    0.000 
#
# Total GULP energy -156327.407763 kJ/mol
# GULP energy per Si atom -5583.121706 kJ/mol
# Density = 1.929469 g / cm^3
# Si number density = 19.338709 Si / 1000 Ang^3
#
#
#
# Elastic Constant Matrix: (Units=GPa)
#
#
# Indices 1 2 3 4 5 6 
#
# 1 199.6627 66.3613 36.7087 0.0000 0.0897 0.0000
# 2 66.3613 74.4164 12.5253 0.0000 0.8069 0.0000
# 3 36.7087 12.5253 30.5090 0.0000 -1.6090 0.0000
# 4 0.0000 0.0000 0.0000 5.6496 0.0000 0.8643
# 5 0.0897 0.8069 -1.6090 0.0000 11.2790 0.0000
# 6 0.0000 0.0000 0.0000 0.8643 0.0000 35.9505
#
#
#
# Elastic Compliance Matrix: (Units=1/GPa)
#
#
# Indices 1 2 3 4 5 6 
#
# 1 0.008515 -0.006289 -0.007701 0.000000 -0.000716 0.000000
# 2 -0.006289 0.019121 -0.000355 0.000000 -0.001369 0.000000
# 3 -0.007701 -0.000355 0.042513 0.000000 0.006151 0.000000
# 4 0.000000 0.000000 0.000000 0.177657 0.000000 -0.004271
# 5 -0.000716 -0.001369 0.006151 0.000000 0.089641 0.000000
# 6 0.000000 0.000000 0.000000 -0.004271 0.000000 0.027919
#
#
# Mechanical properties :
#
#
# Convention : Reuss Voigt Hill
#
# Bulk Modulus (GPa) = 24.12027 59.53094 41.82560
# Shear Modulus (GPa) = 12.25861 23.17534 17.71697
#
# Velocity S-wave (km/s) = 2.52045 3.46553 3.03006
# Velocity P-wave (km/s) = 4.57928 6.84568 5.82380
#
# Compressibility (1/GPa) = 0.04145891
#
# Stress axis : x y z
#
# Youngs Moduli (GPa) = 117.43982 52.29847 23.52205
#
# Poissons Ratio (x) = 0.32892 0.18114
# Poissons Ratio (y) = 0.73862 0.00835
# Poissons Ratio (z) = 0.90441 0.01856
#
# Static dielectric constant tensor:
#      x y z
#    x 1.744450 0.000000 -0.004490 
#    y 0.000000 1.652940 0.000000 
#    z -0.004490 0.000000 1.647840 
# 
# From -- ./inp_files/243613.got.cif
#   From: 2010.05.17/outbox.cif.g08.bks.cpg/sg12_122_cif.got.tgz:243613.got - 2010.06.03 13:09:07.
