data_PCOD9180104
_publ_section_title
;
Structure prediction by ZEFSAII (Michael W. Deem and Ramdas Pophale) SiO2 
 PCOD9180104
Probable space group: C 2/M
;
_chemical_formula_sum "Si O2"
_cell_formula_units_Z 52
_cell_length_a 5.164826
_cell_length_b 24.045653
_cell_length_c 21.261278
_cell_angle_alpha 90.000000
_cell_angle_beta 87.413215
_cell_angle_gamma 90.000000
_cell_volume 2637.781801
_symmetry_space_group_name_H-M "C 2/M"
_symmetry_group_IT_number 12
_symmetry_cell_setting 'monoclinic'
loop_
_space_group_symop_operation_xyz
x,y,z
-x,y,-z
-x,-y,-z
x,-y,z
1/2+x,1/2+y,z
1/2-x,1/2+y,-z
1/2-x,1/2-y,-z
1/2+x,1/2-y,z
loop_
_atom_site_type_symbol
_atom_site_label
_atom_site_fract_x
_atom_site_fract_y
_atom_site_fract_z
Si Si1 0.601700 0.880557 0.723587
Si Si2 0.583312 0.565492 0.066396
Si Si3 0.055253 0.433217 0.147805
Si Si4 0.304700 0.214850 0.379120
Si Si5 0.181026 0.059631 0.557879
Si Si6 0.602850 0.561766 0.694341
Si Si7 0.000000 0.342979 0.500000
O O1 0.478076 0.890619 0.793903
O O2 0.616513 0.826605 0.678726
O O3 0.402657 0.921324 0.689065
O O4 0.898128 0.899300 0.730009
O O5 0.632623 0.500000 0.054266
O O6 0.845481 0.583981 0.097467
O O7 0.341379 0.570008 0.116077
O O8 0.500000 0.590282 0.000000
O O9 0.009491 0.500000 0.165155
O O10 0.510163 0.265374 0.373783
O O11 0.338319 0.191143 0.449947
O O12 0.015344 0.063545 0.622801
O O13 0.340264 0.115041 0.545747
O O14 0.000000 0.056738 0.500000
O O15 0.326392 0.000000 0.561394
O O16 0.578605 0.500000 0.720711
#
# Coordination Sequence:
#
# PCOD9180104 Si02
#       7
#     8   8   8   8   8   8   4
#     4  12  23  41  60  83 120 152 197 254 295 347
#     4   9  17  30  49  80 126 167 195 222 254 313
#     4  10  19  31  53  85 117 159 198 224 274 343
#     4  12  28  46  64  84 107 147 205 262 313 358
#     4  10  22  36  57  87 116 145 180 225 294 379
#     4  11  22  37  58  86 116 151 181 226 298 364
#     4  12  23  42  66  80 112 142 195 246 308 364
#
# _framework density 19.713535
#
# number of rings (size 3 to 8) (size 9 to 14) (size 15 to 20)
#    0.000    1.231    1.538    5.308    2.154    3.077 
#    0.000    0.000    0.000    0.000    0.000    0.000 
#    0.000   12.308    0.000    0.000    0.000    0.000 
#
# Total GULP energy -144923.870711 kJ/mol
# GULP energy per Si atom -5573.995027 kJ/mol
# Density = 1.966867 g / cm^3
# Si number density = 19.713535 Si / 1000 Ang^3
#
#
#
# Elastic Constant Matrix: (Units=GPa)
#
#
# Indices 1 2 3 4 5 6 
#
# 1 43.7454 -0.4670 -15.5110 0.0000 13.3433 0.0000
# 2 -0.4670 43.6484 7.4273 0.0000 -2.9378 0.0000
# 3 -15.5110 7.4273 73.7702 0.0000 10.6594 0.0000
# 4 0.0000 0.0000 0.0000 19.1578 0.0000 -11.2086
# 5 13.3433 -2.9378 10.6594 0.0000 25.9743 0.0000
# 6 0.0000 0.0000 0.0000 -11.2086 0.0000 -52.5018
#
#
#
# Elastic Compliance Matrix: (Units=1/GPa)
#
#
# Indices 1 2 3 4 5 6 
#
# 1 0.033082 -0.002861 0.010361 0.000000 -0.021570 0.000000
# 2 -0.002861 0.023920 -0.003841 0.000000 0.005751 0.000000
# 3 0.010361 -0.003841 0.018021 0.000000 -0.013152 0.000000
# 4 0.000000 0.000000 0.000000 0.046402 0.000000 -0.009906
# 5 -0.021570 0.005751 -0.013152 0.000000 0.055629 0.000000
# 6 0.000000 0.000000 0.000000 -0.009906 0.000000 -0.016932
#
#
# Mechanical properties :
#
#
# Convention : Reuss Voigt Hill
#
# Bulk Modulus (GPa) = 12.14457 16.00697 14.07577
# Shear Modulus (GPa) = 27.73896 9.84035 18.78966
#
# Velocity S-wave (km/s) = 3.75521 2.23663 3.09064
# Velocity P-wave (km/s) = 4.99760 3.84804 4.46001
#
# Compressibility (1/GPa) = 0.08234135
#
# Stress axis : x y z
#
# Youngs Moduli (GPa) = 30.22792 41.80524 55.49005
#
# Poissons Ratio (x) = 0.11960 -0.57491
# Poissons Ratio (y) = 0.08648 0.21313
# Poissons Ratio (z) = -0.31318 0.16057
#
# Static dielectric constant tensor:
#      x y z
#    x 1.789560 0.000000 0.040570 
#    y 0.000000 1.732490 0.000000 
#    z 0.040570 0.000000 1.769260 
# 
# From -- ./inp_files/297854.got.cif
#   From: 2010.05.17/outbox.cif.g08.bks.cpg/sg12_149_cif.got.tgz:297854.got - 2010.06.03 13:09:07.
