data_PCOD9180786
_publ_section_title
;
Structure prediction by ZEFSAII (Michael W. Deem and Ramdas Pophale) SiO2 
 PCOD9180786
Probable space group: C 2/M
;
_chemical_formula_sum "Si O2"
_cell_formula_units_Z 64
_cell_length_a 20.958074
_cell_length_b 9.148509
_cell_length_c 23.984788
_cell_angle_alpha 90.000000
_cell_angle_beta 126.114824
_cell_angle_gamma 90.000000
_cell_volume 3715.023259
_symmetry_space_group_name_H-M "C 2/M"
_symmetry_group_IT_number 12
_symmetry_cell_setting 'monoclinic'
loop_
_space_group_symop_operation_xyz
x,y,z
-x,y,-z
-x,-y,-z
x,-y,z
1/2+x,1/2+y,z
1/2-x,1/2+y,-z
1/2-x,1/2-y,-z
1/2+x,1/2-y,z
loop_
_atom_site_type_symbol
_atom_site_label
_atom_site_fract_x
_atom_site_fract_y
_atom_site_fract_z
Si Si1 0.201565 0.324226 0.555762
Si Si2 0.543058 0.675529 0.680274
Si Si3 0.863172 0.175391 0.589156
Si Si4 0.074128 0.675603 0.578402
Si Si5 0.938308 0.167801 0.916274
Si Si6 0.635549 0.324053 0.838580
Si Si7 0.061674 0.674199 0.906688
Si Si8 0.680994 0.174431 0.069541
O O1 0.193994 0.500000 0.546999
O O2 0.160255 0.251758 0.480887
O O3 0.294362 0.286863 0.598028
O O4 0.153826 0.281249 0.586398
O O5 0.546245 0.500000 0.675106
O O6 0.452735 0.714944 0.649769
O O7 0.564499 0.749302 0.632911
O O8 0.601012 0.715729 0.760424
O O9 0.860167 0.000000 0.579851
O O10 0.073667 0.500000 0.585340
O O11 0.000000 0.712592 0.500000
O O12 0.860509 0.243189 0.900710
O O13 0.981737 0.256705 0.890168
O O14 0.924740 0.000000 0.893314
O O15 0.000000 0.169294 0.000000
O O16 0.628635 0.500000 0.841557
O O17 0.587039 0.245898 0.862057
O O18 0.727851 0.285098 0.890445
O O19 0.054517 0.500000 0.898606
O O20 0.130507 0.706488 0.987813
O O21 0.675883 0.000000 0.076387
#
# Coordination Sequence:
#
# PCOD9180786 Si02
#       8
#     8   8   8   8   8   8   8   8
#     4   9  17  30  49  73  97 122 157 200 245 289
#     4  10  21  35  51  72 101 135 168 205 252 305
#     4   9  17  30  49  72  97 125 158 198 241 291
#     4  10  19  32  51  74  99 129 163 205 253 300
#     4   9  17  30  51  78 105 132 165 210 261 309
#     4  10  21  36  51  71 104 142 174 214 265 311
#     4  10  19  32  53  79 103 133 176 219 259 309
#     4   9  18  33  53  76 104 137 174 218 262 305
#
# _framework density 17.227349
#
# number of rings (size 3 to 8) (size 9 to 14) (size 15 to 20)
#    0.000    2.500    1.250    1.125    0.000    3.750 
#    0.000    1.250    0.000    1.500    0.000    0.000 
#    0.000    0.000    0.000    0.000    0.000    0.000 
#
# Total GULP energy -178426.004553 kJ/mol
# GULP energy per Si atom -5575.812642 kJ/mol
# Density = 1.718814 g / cm^3
# Si number density = 17.227349 Si / 1000 Ang^3
#
#
#
# Elastic Constant Matrix: (Units=GPa)
#
#
# Indices 1 2 3 4 5 6 
#
# 1 135.6791 40.8562 39.2856 0.0000 -28.4469 0.0000
# 2 40.8562 25.2154 25.1205 0.0000 -14.9635 0.0000
# 3 39.2856 25.1205 49.7605 0.0000 -22.4498 0.0000
# 4 0.0000 0.0000 0.0000 17.4243 0.0000 -7.0995
# 5 -28.4469 -14.9635 -22.4498 0.0000 14.2879 0.0000
# 6 0.0000 0.0000 0.0000 -7.0995 0.0000 32.7377
#
#
#
# Elastic Compliance Matrix: (Units=1/GPa)
#
#
# Indices 1 2 3 4 5 6 
#
# 1 0.016002 -0.019932 0.008192 0.000000 0.023857 0.000000
# 2 -0.019932 0.131599 -0.022064 0.000000 0.063469 0.000000
# 3 0.008192 -0.022064 0.074541 0.000000 0.110324 0.000000
# 4 0.000000 0.000000 0.000000 0.062954 0.000000 0.013652
# 5 0.023857 0.063469 0.110324 0.000000 0.357303 0.000000
# 6 0.000000 0.000000 0.000000 0.013652 0.000000 0.033506
#
#
# Mechanical properties :
#
#
# Convention : Reuss Voigt Hill
#
# Bulk Modulus (GPa) = 6.47111 46.79775 26.63443
# Shear Modulus (GPa) = 6.28911 19.91616 13.10264
#
# Velocity S-wave (km/s) = 1.91274 3.40380 2.76084
# Velocity P-wave (km/s) = 2.93982 6.53235 5.06528
#
# Compressibility (1/GPa) = 0.15453308
#
# Stress axis : x y z
#
# Youngs Moduli (GPa) = 62.49091 7.59886 13.41545
#
# Poissons Ratio (x) = 0.15146 -0.10989
# Poissons Ratio (y) = 1.24555 0.29600
# Poissons Ratio (z) = -0.51190 0.16766
#
# Static dielectric constant tensor:
#      x y z
#    x 1.586060 0.000000 0.020780 
#    y 0.000000 1.572700 0.000000 
#    z 0.020780 0.000000 1.558000 
# 
# From -- ./inp_files/346285.got.cif
#   From: 2010.05.17/outbox.cif.g08.bks.cpg/sg12_174_cif.got.tgz:346285.got - 2010.06.03 13:09:07.
