data_PCOD9180498
_publ_section_title
;
Structure prediction by ZEFSAII (Michael W. Deem and Ramdas Pophale) SiO2 
 PCOD9180498
Probable space group: C 2/M
;
_chemical_formula_sum "Si O2"
_cell_formula_units_Z 64
_cell_length_a 16.149054
_cell_length_b 9.080137
_cell_length_c 26.194917
_cell_angle_alpha 90.000000
_cell_angle_beta 134.349518
_cell_angle_gamma 90.000000
_cell_volume 2746.733516
_symmetry_space_group_name_H-M "C 2/M"
_symmetry_group_IT_number 12
_symmetry_cell_setting 'monoclinic'
loop_
_space_group_symop_operation_xyz
x,y,z
-x,y,-z
-x,-y,-z
x,-y,z
1/2+x,1/2+y,z
1/2-x,1/2+y,-z
1/2-x,1/2-y,-z
1/2+x,1/2-y,z
loop_
_atom_site_type_symbol
_atom_site_label
_atom_site_fract_x
_atom_site_fract_y
_atom_site_fract_z
Si Si1 0.831581 0.174460 0.969769
Si Si2 0.562178 0.668717 0.726479
Si Si3 0.090150 0.826434 0.888591
Si Si4 0.894717 0.332695 0.511994
Si Si5 0.377943 0.668706 0.369468
Si Si6 0.706052 0.673905 0.157888
Si Si7 0.367207 0.824438 0.769367
Si Si8 0.833301 0.667826 0.607152
O O1 0.717368 0.270649 0.929767
O O2 0.863006 0.198033 0.924452
O O3 0.801972 0.000000 0.961356
O O4 0.917650 0.205177 0.053615
O O5 0.571272 0.500000 0.748764
O O6 0.590700 0.665525 0.677759
O O7 0.660990 0.773314 0.792337
O O8 0.433209 0.732794 0.674793
O O9 0.991637 0.746146 0.813975
O O10 0.078831 0.000000 0.876988
O O11 0.884716 0.500000 0.489502
O O12 0.863717 0.334050 0.559454
O O13 0.796365 0.230190 0.445156
O O14 0.024645 0.271294 0.564413
O O15 0.388540 0.500000 0.392291
O O16 0.244119 0.718451 0.312555
O O17 0.702251 0.500000 0.168604
O O18 0.662775 0.767670 0.186758
O O19 0.373671 0.000000 0.771265
O O20 0.841108 0.500000 0.629070
#
# Coordination Sequence:
#
# PCOD9180498 Si02
#       8
#     8   8   8   8   8   8   8   8
#     4   9  20  37  54  73  98 127 158 197 243 289
#     4   9  16  26  39  58  86 117 152 193 236 279
#     4  10  20  35  55  75  96 125 161 199 240 288
#     4   9  15  21  32  51  76 109 149 191 230 271
#     4   8  15  26  38  54  81 117 151 186 230 278
#     4  10  19  32  50  71  97 128 162 198 240 290
#     4  10  20  33  49  71 100 130 161 199 242 287
#     4   9  15  22  33  50  76 113 153 188 227 277
#
# _framework density 23.300405000000001
#
# number of rings (size 3 to 8) (size 9 to 14) (size 15 to 20)
#    0.000    2.750    0.000    3.000    0.000    8.500 
#    0.000    2.500    0.000    0.000    0.000    0.000 
#    0.000    1.000    0.000   10.500    0.000   13.500 
#
# Total GULP energy -178981.024255 kJ/mol
# GULP energy per Si atom -5593.157008 kJ/mol
# Density = 2.324737 g / cm^3
# Si number density = 23.300405 Si / 1000 Ang^3
#
#
#
# Elastic Constant Matrix: (Units=GPa)
#
#
# Indices 1 2 3 4 5 6 
#
# 1 75.9695 19.9969 34.3903 0.0000 8.8752 0.0000
# 2 19.9969 79.2409 51.5178 0.0000 12.6977 0.0000
# 3 34.3903 51.5178 130.3406 0.0000 10.1379 0.0000
# 4 0.0000 0.0000 0.0000 29.4737 0.0000 10.2272
# 5 8.8752 12.6977 10.1379 0.0000 54.5812 0.0000
# 6 0.0000 0.0000 0.0000 10.2272 0.0000 17.6900
#
#
#
# Elastic Compliance Matrix: (Units=1/GPa)
#
#
# Indices 1 2 3 4 5 6 
#
# 1 0.015227 -0.001431 -0.003333 0.000000 -0.001524 0.000000
# 2 -0.001431 0.017534 -0.006345 0.000000 -0.002668 0.000000
# 3 -0.003333 -0.006345 0.011063 0.000000 -0.000037 0.000000
# 4 0.000000 0.000000 0.000000 0.042443 0.000000 -0.024538
# 5 -0.001524 -0.002668 -0.000037 0.000000 0.019197 0.000000
# 6 0.000000 0.000000 0.000000 -0.024538 0.000000 0.070715
#
#
# Mechanical properties :
#
#
# Convention : Reuss Voigt Hill
#
# Bulk Modulus (GPa) = 46.28868 55.26235 50.77551
# Shear Modulus (GPa) = 24.31925 32.32538 28.32232
#
# Velocity S-wave (km/s) = 3.23418 3.72873 3.49023
# Velocity P-wave (km/s) = 5.81857 6.50436 6.17100
#
# Compressibility (1/GPa) = 0.02160355
#
# Stress axis : x y z
#
# Youngs Moduli (GPa) = 65.67313 57.03319 90.39538
#
# Poissons Ratio (x) = 0.08163 0.30132
# Poissons Ratio (y) = 0.09399 0.57357
# Poissons Ratio (z) = 0.21891 0.36188
#
# Static dielectric constant tensor:
#      x y z
#    x 1.984560 0.000000 -0.055030 
#    y 0.000000 1.773050 0.000000 
#    z -0.055030 0.000000 1.857790 
# 
# From -- ./inp_files/378324.got.cif
#   From: 2010.05.17/outbox.cif.g08.bks.cpg/sg12_190_cif.got.tgz:378324.got - 2010.06.03 13:09:07.
