data_PCOD9180556
_publ_section_title
;
Structure prediction by ZEFSAII (Michael W. Deem and Ramdas Pophale) SiO2 
 PCOD9180556
Probable space group: C 2/M
;
_chemical_formula_sum "Si O2"
_cell_formula_units_Z 56
_cell_length_a 18.467060
_cell_length_b 7.825387
_cell_length_c 29.804963
_cell_angle_alpha 90.000000
_cell_angle_beta 40.108036
_cell_angle_gamma 90.000000
_cell_volume 2774.813049
_symmetry_space_group_name_H-M "C 2/M"
_symmetry_group_IT_number 12
_symmetry_cell_setting 'monoclinic'
loop_
_space_group_symop_operation_xyz
x,y,z
-x,y,-z
-x,-y,-z
x,-y,z
1/2+x,1/2+y,z
1/2-x,1/2+y,-z
1/2-x,1/2-y,-z
1/2+x,1/2-y,z
loop_
_atom_site_type_symbol
_atom_site_label
_atom_site_fract_x
_atom_site_fract_y
_atom_site_fract_z
Si Si1 0.998181 0.302087 0.128529
Si Si2 0.989710 0.197279 0.283138
Si Si3 0.176328 0.290879 0.718769
Si Si4 0.378329 0.701111 0.568476
Si Si5 0.711757 0.705426 0.567812
Si Si6 0.409155 0.303050 0.008752
Si Si7 0.345015 0.299311 0.864954
O O1 0.985818 0.500000 0.121718
O O2 0.040275 0.205722 0.065000
O O3 0.091704 0.288198 0.123444
O O4 0.881675 0.243292 0.206885
O O5 0.903008 0.213017 0.282328
O O6 0.913882 0.269814 0.359436
O O7 0.102954 0.268670 0.206804
O O8 0.012924 0.000000 0.283812
O O9 0.169652 0.500000 0.718552
O O10 0.302220 0.235344 0.646193
O O11 0.500000 0.778244 0.500000
O O12 0.395428 0.500000 0.569462
O O13 0.299718 0.720959 0.562091
O O14 0.711561 0.500000 0.573201
O O15 0.750000 0.750000 0.500000
O O16 0.390455 0.500000 0.030343
O O17 0.500000 0.227594 0.000000
O O18 0.287655 0.218034 0.068424
O O19 0.374503 0.500000 0.853730
#
# Coordination Sequence:
#
# PCOD9180556 Si02
#       7
#     8   8   8   8   8   8   8
#     4  10  19  33  55  79 101 127 165 208 246 291
#     4   8  16  30  49  73  98 126 161 204 248 288
#     4   8  15  28  48  74  99 126 162 203 245 289
#     4   9  17  31  51  74 102 134 166 203 249 296
#     4  10  19  32  50  73 102 134 169 206 246 292
#     4  11  24  39  52  70 101 136 166 200 246 296
#     4  10  19  34  57  80 100 125 163 207 249 294
#
# _framework density 20.181539000000001
#
# number of rings (size 3 to 8) (size 9 to 14) (size 15 to 20)
#    0.000    2.571    0.000    2.143    0.000    3.143 
#    0.000    1.429    0.000    6.857    0.000    0.000 
#    0.000    0.000    0.000    0.000    0.000    0.000 
#
# Total GULP energy -155985.436008 kJ/mol
# GULP energy per Si atom -5570.908429 kJ/mol
# Density = 2.013560 g / cm^3
# Si number density = 20.181539 Si / 1000 Ang^3
#
#
#
# Elastic Constant Matrix: (Units=GPa)
#
#
# Indices 1 2 3 4 5 6 
#
# 1 35.7779 -10.6840 51.3284 -0.0005 -2.3022 -0.0005
# 2 -10.6840 31.1788 -2.6151 -0.0029 -3.9443 0.0006
# 3 51.3284 -2.6151 206.9168 0.0002 -5.1983 -0.0004
# 4 -0.0005 -0.0029 0.0002 19.0665 0.0004 -8.3959
# 5 -2.3022 -3.9443 -5.1983 0.0004 26.8252 -0.0003
# 6 -0.0005 0.0006 -0.0004 -8.3959 -0.0003 23.8224
#
#
#
# Elastic Compliance Matrix: (Units=1/GPa)
#
#
# Indices 1 2 3 4 5 6 
#
# 1 0.050997 0.017010 -0.012323 0.000005 0.004490 0.000002
# 2 0.017010 0.038414 -0.003573 0.000007 0.006416 0.000002
# 3 -0.012323 -0.003573 0.007843 -0.000001 -0.000063 0.000000
# 4 0.000005 0.000007 -0.000001 0.062083 0.000001 0.021880
# 5 0.004490 0.006416 -0.000063 0.000001 0.038595 0.000001
# 6 0.000002 0.000002 0.000000 0.021880 0.000001 0.049689
#
#
# Mechanical properties :
#
#
# Convention : Reuss Voigt Hill
#
# Bulk Modulus (GPa) = 10.05203 38.88134 24.46669
# Shear Modulus (GPa) = 17.94988 29.66575 23.80782
#
# Velocity S-wave (km/s) = 2.98555 3.83815 3.43838
# Velocity P-wave (km/s) = 4.10808 6.24095 5.28326
#
# Compressibility (1/GPa) = 0.09948236
#
# Stress axis : x y z
#
# Youngs Moduli (GPa) = 19.60885 26.03230 127.50300
#
# Poissons Ratio (x) = -0.44280 1.57119
# Poissons Ratio (y) = -0.33354 0.45554
# Poissons Ratio (z) = 0.24164 0.09301
#
# Static dielectric constant tensor:
#      x y z
#    x 1.665190 0.000000 -0.010420 
#    y 0.000000 1.738410 0.000000 
#    z -0.010420 0.000000 1.792940 
# 
# From -- ./inp_files/377630.got.cif
#   From: 2010.05.17/outbox.cif.g08.bks.cpg/sg12_189_cif.got.tgz:377630.got - 2010.06.03 13:09:07.
