data_PCOD9180202
_publ_section_title
;
Structure prediction by ZEFSAII (Michael W. Deem and Ramdas Pophale) SiO2 
 PCOD9180202
Probable space group: C 2/M
;
_chemical_formula_sum "Si O2"
_cell_formula_units_Z 56
_cell_length_a 16.177048
_cell_length_b 24.511356
_cell_length_c 19.141098
_cell_angle_alpha 90.000000
_cell_angle_beta 157.097036
_cell_angle_gamma 90.000000
_cell_volume 2953.755905
_symmetry_space_group_name_H-M "C 2/M"
_symmetry_group_IT_number 12
_symmetry_cell_setting 'monoclinic'
loop_
_space_group_symop_operation_xyz
x,y,z
-x,y,-z
-x,-y,-z
x,-y,z
1/2+x,1/2+y,z
1/2-x,1/2+y,-z
1/2-x,1/2-y,-z
1/2+x,1/2-y,z
loop_
_atom_site_type_symbol
_atom_site_label
_atom_site_fract_x
_atom_site_fract_y
_atom_site_fract_z
Si Si1 0.016691 0.122268 0.336337
Si Si2 0.415464 0.254125 0.791480
Si Si3 0.836573 0.700589 0.519642
Si Si4 0.211865 0.675612 0.198548
Si Si5 0.686248 0.061559 0.981620
Si Si6 0.793531 0.083769 0.373227
Si Si7 0.327602 0.827632 0.111396
O O1 0.887107 0.170606 0.275160
O O2 0.176396 0.150121 0.407159
O O3 0.148881 0.093846 0.501143
O O4 0.847325 0.083251 0.166842
O O5 0.205646 0.276492 0.589941
O O6 0.353152 0.232615 0.818838
O O7 0.525922 0.204595 0.832368
O O8 0.598837 0.299361 0.934135
O O9 0.750000 0.750000 0.500000
O O10 0.058046 0.682515 0.725488
O O11 0.279143 0.639182 0.316572
O O12 0.000000 0.650951 0.000000
O O13 0.440781 0.059624 0.815379
O O14 0.687836 0.109699 0.924812
O O15 0.745476 0.000000 0.005905
O O16 0.000000 0.056038 0.500000
#
# Coordination Sequence:
#
# PCOD9180202 Si02
#       7
#     8   8   8   8   8   8   8
#     4  11  21  37  53  77 113 144 187 227 275 326
#     4  10  19  33  55  76 107 138 180 226 282 336
#     4  10  19  31  56  79 102 142 181 218 289 337
#     4  11  20  34  55  76 110 148 179 225 279 322
#     4  12  23  38  56  77 108 152 199 236 267 312
#     4  10  21  36  51  71 105 145 189 233 266 315
#     4  10  19  35  53  78 102 138 184 226 281 322
#
# _framework density 18.958912000000002
#
# number of rings (size 3 to 8) (size 9 to 14) (size 15 to 20)
#    0.000    1.429    5.714    0.857    4.000    0.857 
#    0.000    5.000    0.000    0.000    0.000    0.000 
#    0.000    0.571    0.000    2.571    0.000    0.000 
#
# Total GULP energy -156172.346924 kJ/mol
# GULP energy per Si atom -5577.583819 kJ/mol
# Density = 1.891576 g / cm^3
# Si number density = 18.958912 Si / 1000 Ang^3
#
#
#
# Elastic Constant Matrix: (Units=GPa)
#
#
# Indices 1 2 3 4 5 6 
#
# 1 23.0723 24.4044 15.8885 0.0080 -11.8146 0.0095
# 2 24.4044 109.1125 37.0702 -0.0202 -9.3654 0.0132
# 3 15.8885 37.0702 131.4426 -0.0208 -30.8312 0.0325
# 4 0.0080 -0.0202 -0.0208 -65.0038 -0.0121 4.1563
# 5 -11.8146 -9.3654 -30.8312 -0.0121 26.8464 0.0146
# 6 0.0095 0.0132 0.0325 4.1563 0.0146 -0.5935
#
#
#
# Elastic Compliance Matrix: (Units=1/GPa)
#
#
# Indices 1 2 3 4 5 6 
#
# 1 0.071922 -0.014326 0.002186 0.000207 0.029163 0.003117
# 2 -0.014326 0.012992 -0.003214 -0.000036 -0.005463 -0.000503
# 3 0.002186 -0.003214 0.011240 0.000095 0.012748 0.001559
# 4 0.000207 -0.000036 0.000095 -0.027854 0.000281 -0.195030
# 5 0.029163 -0.005463 0.012748 0.000281 0.062816 0.004560
# 6 0.003117 -0.000503 0.001559 -0.195030 0.004560 -3.050255
#
#
# Mechanical properties :
#
#
# Convention : Reuss Voigt Hill
#
# Bulk Modulus (GPa) = 15.27952 46.48371 30.88162
# Shear Modulus (GPa) = -1.74422 4.66743 1.46161
#
# Velocity S-wave (km/s) = -0.96021 1.57074 0.87898
# Velocity P-wave (km/s) = 2.61676 5.27835 4.16584
#
# Compressibility (1/GPa) = 0.06544708
#
# Stress axis : x y z
#
# Youngs Moduli (GPa) = 13.90393 76.97004 88.96925
#
# Poissons Ratio (x) = 1.10269 -0.19452
# Poissons Ratio (y) = 0.19919 0.28591
# Poissons Ratio (z) = -0.03040 0.24735
#
# Static dielectric constant tensor:
#      x y z
#    x 1.663410 0.000000 -0.000750 
#    y 0.000000 1.676880 0.000000 
#    z -0.000750 0.000000 1.714800 
# 
# From -- ./inp_files/318294.got.cif
#   From: 2010.05.17/outbox.cif.g08.bks.cpg/sg12_160_cif.got.tgz:318294.got - 2010.06.03 13:09:07.
