data_PCOD9180315
_publ_section_title
;
Structure prediction by ZEFSAII (Michael W. Deem and Ramdas Pophale) SiO2 
 PCOD9180315
Probable space group: C 2/M
;
_chemical_formula_sum "Si O2"
_cell_formula_units_Z 56
_cell_length_a 26.000972
_cell_length_b 7.467018
_cell_length_c 16.017068
_cell_angle_alpha 90.000000
_cell_angle_beta 55.985455
_cell_angle_gamma 90.000000
_cell_volume 2577.624377
_symmetry_space_group_name_H-M "C 2/M"
_symmetry_group_IT_number 12
_symmetry_cell_setting 'monoclinic'
loop_
_space_group_symop_operation_xyz
x,y,z
-x,y,-z
-x,-y,-z
x,-y,z
1/2+x,1/2+y,z
1/2-x,1/2+y,-z
1/2-x,1/2-y,-z
1/2+x,1/2-y,z
loop_
_atom_site_type_symbol
_atom_site_label
_atom_site_fract_x
_atom_site_fract_y
_atom_site_fract_z
Si Si1 0.655448 0.218296 0.065607
Si Si2 0.479571 0.791891 0.779170
Si Si3 0.268055 0.205772 0.846687
Si Si4 0.661185 0.216444 0.510996
Si Si5 0.532087 0.218476 0.555724
Si Si6 0.229228 0.779426 0.703715
Si Si7 0.892558 0.796460 0.261109
O O1 0.584352 0.278856 0.125104
O O2 0.683799 0.279249 0.129089
O O3 0.659966 0.000000 0.057499
O O4 0.701444 0.287823 0.952900
O O5 0.498654 0.716840 0.671059
O O6 0.539997 0.783475 0.782800
O O7 0.466494 0.000000 0.775231
O O8 0.259156 0.283245 0.763067
O O9 0.287408 0.000000 0.816308
O O10 0.604506 0.264035 0.500369
O O11 0.726035 0.274026 0.412893
O O12 0.642704 0.291646 0.617515
O O13 0.661410 0.000000 0.519148
O O14 0.500000 0.280199 0.500000
O O15 0.529395 0.000000 0.558209
O O16 0.158627 0.717359 0.754662
O O17 0.227729 0.000000 0.705612
O O18 0.904064 0.000000 0.225582
#
# Coordination Sequence:
#
# PCOD9180315 Si02
#       7
#     8   8   8   8   8   8   8
#     4   9  18  33  53  75  99 124 156 199 249 296
#     4   9  18  32  50  71  95 127 163 198 239 287
#     4   9  18  33  53  76  99 123 157 202 247 289
#     4   9  17  30  48  70  98 129 163 199 237 280
#     4   8  14  23  41  70  95 115 150 196 231 268
#     4   9  18  31  50  74  97 126 166 204 235 280
#     4  10  19  32  48  70 100 131 164 198 237 285
#
# _framework density 21.725431
#
# number of rings (size 3 to 8) (size 9 to 14) (size 15 to 20)
#    0.000    3.000    0.000    1.714    2.000    0.571 
#    0.000    3.571    0.000   11.143    0.000    0.000 
#    0.000    0.000    0.000    0.000    0.000    0.000 
#
# Total GULP energy -156167.139202 kJ/mol
# GULP energy per Si atom -5577.397829 kJ/mol
# Density = 2.167598 g / cm^3
# Si number density = 21.725431 Si / 1000 Ang^3
#
#
#
# Elastic Constant Matrix: (Units=GPa)
#
#
# Indices 1 2 3 4 5 6 
#
# 1 46.6317 -8.1249 10.2084 0.0000 -15.7411 -0.0004
# 2 -8.1249 59.5974 -9.5329 -0.0001 0.6766 0.0002
# 3 10.2084 -9.5329 31.9631 0.0000 -20.5674 0.0000
# 4 0.0000 -0.0001 0.0000 11.4342 0.0000 -1.1042
# 5 -15.7411 0.6766 -20.5674 0.0000 34.2717 0.0000
# 6 -0.0004 0.0002 0.0000 -1.1042 0.0000 7.4879
#
#
#
# Elastic Compliance Matrix: (Units=1/GPa)
#
#
# Indices 1 2 3 4 5 6 
#
# 1 0.026064 0.003514 0.000623 0.000000 0.012276 0.000001
# 2 0.003514 0.018544 0.008490 0.000000 0.006343 0.000000
# 3 0.000623 0.008490 0.054893 0.000000 0.033061 0.000000
# 4 0.000000 0.000000 0.000000 0.088721 0.000000 0.013083
# 5 0.012276 0.006343 0.033061 0.000000 0.054533 0.000000
# 6 0.000001 0.000000 0.000000 0.013083 0.000000 0.135478
#
#
# Mechanical properties :
#
#
# Convention : Reuss Voigt Hill
#
# Bulk Modulus (GPa) = 8.01576 13.69925 10.85751
# Shear Modulus (GPa) = 12.67216 20.34819 16.51018
#
# Velocity S-wave (km/s) = 2.41775 3.06372 2.75970
# Velocity P-wave (km/s) = 3.38993 4.33988 3.89398
#
# Compressibility (1/GPa) = 0.12475417
#
# Stress axis : x y z
#
# Youngs Moduli (GPa) = 38.36656 53.92503 18.21713
#
# Poissons Ratio (x) = -0.18947 -0.01134
# Poissons Ratio (y) = -0.13480 -0.15466
# Poissons Ratio (z) = -0.02388 -0.45782
#
# Static dielectric constant tensor:
#      x y z
#    x 1.800510 0.000000 -0.008740 
#    y 0.000000 1.856910 0.000000 
#    z -0.008740 0.000000 1.752950 
# 
# From -- ./inp_files/291829.got.cif
#   From: 2010.05.17/outbox.cif.g08.bks.cpg/sg12_146_cif.got.tgz:291829.got - 2010.06.03 13:09:07.
