data_PCOD9180336
_publ_section_title
;
Structure prediction by ZEFSAII (Michael W. Deem and Ramdas Pophale) SiO2 
 PCOD9180336
Probable space group: C 2/M
;
_chemical_formula_sum "Si O2"
_cell_formula_units_Z 64
_cell_length_a 12.906394
_cell_length_b 13.997451
_cell_length_c 17.488313
_cell_angle_alpha 90.000000
_cell_angle_beta 93.870078
_cell_angle_gamma 90.000000
_cell_volume 3152.175024
_symmetry_space_group_name_H-M "C 2/M"
_symmetry_group_IT_number 12
_symmetry_cell_setting 'monoclinic'
loop_
_space_group_symop_operation_xyz
x,y,z
-x,y,-z
-x,-y,-z
x,-y,z
1/2+x,1/2+y,z
1/2-x,1/2+y,-z
1/2-x,1/2-y,-z
1/2+x,1/2-y,z
loop_
_atom_site_type_symbol
_atom_site_label
_atom_site_fract_x
_atom_site_fract_y
_atom_site_fract_z
Si Si1 0.023479 0.613699 0.311030
Si Si2 0.907008 0.203443 0.055239
Si Si3 0.141204 0.615467 0.174357
Si Si4 0.301805 0.110226 0.553711
Si Si5 0.071688 0.893767 0.613648
Si Si6 0.078002 0.692905 0.563486
Si Si7 0.185249 0.612868 0.004816
Si Si8 0.122063 0.887210 0.791753
O O1 0.015034 0.500000 0.305996
O O2 0.055371 0.651471 0.229482
O O3 0.119590 0.635863 0.373218
O O4 0.923661 0.650253 0.351907
O O5 0.805946 0.142360 0.021930
O O6 0.932178 0.166325 0.141142
O O7 0.867963 0.313316 0.055326
O O8 0.000000 0.191703 0.000000
O O9 0.140747 0.500000 0.180338
O O10 0.131607 0.635863 0.084319
O O11 0.257355 0.646086 0.204667
O O12 0.188404 0.110167 0.585811
O O13 0.317851 0.174806 0.478970
O O14 0.321944 0.000000 0.532180
O O15 0.028534 0.797353 0.575550
O O16 0.074862 0.880540 0.705139
O O17 0.028487 0.000000 0.594600
O O18 0.000000 0.641159 0.500000
O O19 0.174747 0.500000 0.988295
O O20 0.124577 0.000000 0.811479
#
# Coordination Sequence:
#
# PCOD9180336 Si02
#       8
#     8   8   8   8   8   8   8   8
#     4   9  15  26  46  70  94 117 146 191 243 282
#     4  10  20  33  53  81 105 134 175 218 262 303
#     4   8  13  26  48  70  94 125 158 193 237 288
#     4   9  16  29  48  68  87 114 153 195 237 277
#     4  10  19  32  49  65  87 125 167 197 227 278
#     4  10  20  29  42  70 100 122 147 192 246 289
#     4   9  19  34  52  77 109 140 172 211 260 313
#     4   9  17  31  51  73  94 122 165 212 243 279
#
# _framework density 20.303440999999999
#
# number of rings (size 3 to 8) (size 9 to 14) (size 15 to 20)
#    0.000    2.750    1.250    1.875    0.000    4.000 
#    0.000    0.000    0.000    1.500    0.000    0.000 
#    0.000    0.000    0.000    0.000    0.000    0.000 
#
# Total GULP energy -178157.779737 kJ/mol
# GULP energy per Si atom -5567.430617 kJ/mol
# Density = 2.025723 g / cm^3
# Si number density = 20.303441 Si / 1000 Ang^3
#
#
#
# Elastic Constant Matrix: (Units=GPa)
#
#
# Indices 1 2 3 4 5 6 
#
# 1 33.7674 12.5093 31.2446 0.0000 -27.7333 0.0000
# 2 12.5093 83.5300 56.1882 0.0000 -15.4459 0.0000
# 3 31.2446 56.1882 102.5745 0.0000 -34.0382 0.0000
# 4 0.0000 0.0000 0.0000 31.2353 0.0000 -3.2022
# 5 -27.7333 -15.4459 -34.0382 0.0000 31.2151 0.0000
# 6 0.0000 0.0000 0.0000 -3.2022 0.0000 16.6114
#
#
#
# Elastic Compliance Matrix: (Units=1/GPa)
#
#
# Indices 1 2 3 4 5 6 
#
# 1 0.110509 0.003843 -0.004003 0.000000 0.095718 0.000000
# 2 0.003843 0.019277 -0.011646 0.000000 0.000254 0.000000
# 3 -0.004003 -0.011646 0.022339 0.000000 0.015039 0.000000
# 4 0.000000 0.000000 0.000000 0.032661 0.000000 0.006296
# 5 0.095718 0.000254 0.015039 0.000000 0.133602 0.000000
# 6 0.000000 0.000000 0.000000 0.006296 0.000000 0.061413
#
#
# Mechanical properties :
#
#
# Convention : Reuss Voigt Hill
#
# Bulk Modulus (GPa) = 7.78140 46.63957 27.21048
# Shear Modulus (GPa) = 11.20447 23.80769 17.50608
#
# Velocity S-wave (km/s) = 2.35170 3.42803 2.93955
# Velocity P-wave (km/s) = 3.34886 6.22010 4.99522
#
# Compressibility (1/GPa) = 0.12851160
#
# Stress axis : x y z
#
# Youngs Moduli (GPa) = 9.04905 51.87519 44.76574
#
# Poissons Ratio (x) = -0.19936 0.17922
# Poissons Ratio (y) = -0.03478 0.52134
# Poissons Ratio (z) = 0.03623 0.60414
#
# Static dielectric constant tensor:
#      x y z
#    x 1.787060 0.000000 -0.023250 
#    y 0.000000 1.790080 0.000000 
#    z -0.023250 0.000000 1.771540 
# 
# From -- ./inp_files/269871.got.cif
#   From: 2010.05.17/outbox.cif.g08.bks.cpg/sg12_135_cif.got.tgz:269871.got - 2010.06.03 13:09:07.
