data_PCOD9180021
_publ_section_title
;
Structure prediction by ZEFSAII (Michael W. Deem and Ramdas Pophale) SiO2 
 PCOD9180021
Probable space group: C 2/M
;
_chemical_formula_sum "Si O2"
_cell_formula_units_Z 64
_cell_length_a 11.256420
_cell_length_b 14.017102
_cell_length_c 32.858351
_cell_angle_alpha 90.000000
_cell_angle_beta 137.489376
_cell_angle_gamma 90.000000
_cell_volume 3503.285233
_symmetry_space_group_name_H-M "C 2/M"
_symmetry_group_IT_number 12
_symmetry_cell_setting 'monoclinic'
loop_
_space_group_symop_operation_xyz
x,y,z
-x,y,-z
-x,-y,-z
x,-y,z
1/2+x,1/2+y,z
1/2-x,1/2+y,-z
1/2-x,1/2-y,-z
1/2+x,1/2-y,z
loop_
_atom_site_type_symbol
_atom_site_label
_atom_site_fract_x
_atom_site_fract_y
_atom_site_fract_z
Si Si1 0.903278 0.890006 0.763110
Si Si2 0.972950 0.389285 0.835147
Si Si3 0.549394 0.755247 0.465788
Si Si4 0.894926 0.887564 0.934399
Si Si5 0.126825 0.808609 0.157849
Si Si6 0.529052 0.808900 0.252762
Si Si7 0.468175 0.110751 0.373509
Si Si8 0.261322 0.387093 0.383719
O O1 0.948532 0.859845 0.820872
O O2 0.981692 0.805113 0.755848
O O3 0.695571 0.881060 0.699106
O O4 0.953421 0.000000 0.768070
O O5 0.930261 0.500000 0.833347
O O6 0.896407 0.305124 0.843559
O O7 0.913276 0.359288 0.774637
O O8 0.185411 0.378673 0.888746
O O9 0.500000 0.783838 0.500000
O O10 0.750000 0.750000 0.500000
O O11 0.452448 0.825798 0.409548
O O12 0.456093 0.653007 0.437009
O O13 0.942674 0.840101 0.903547
O O14 0.933666 0.000000 0.940351
O O15 0.000000 0.849887 0.000000
O O16 0.330412 0.840287 0.210718
O O17 0.661063 0.838770 0.320972
O O18 0.645231 0.137428 0.394067
O O19 0.479104 0.000000 0.387900
O O20 0.257233 0.500000 0.377617
#
# Coordination Sequence:
#
# PCOD9180021 Si02
#       8
#     8   8   8   8   8   8   8   8
#     4  10  19  32  54  82 109 137 177 226 279 331
#     4   9  19  33  50  77 110 144 180 225 279 328
#     4  12  25  42  63  86 118 152 193 241 287 346
#     4   9  18  33  52  75 105 142 187 232 273 324
#     4  10  19  31  53  79 108 145 179 226 277 333
#     4  10  19  33  54  81 112 139 180 224 277 335
#     4  10  21  38  61  85 111 147 186 233 288 339
#     4  11  22  38  62  86 112 149 192 234 284 347
#
# _framework density 18.268567000000001
#
# number of rings (size 3 to 8) (size 9 to 14) (size 15 to 20)
#    0.000    1.875    3.750    0.750    0.000    3.000 
#    0.000    0.000    0.000    2.625    0.000    0.000 
#    0.000    0.000    0.000    0.000    0.000    0.000 
#
# Total GULP energy -178321.232338 kJ/mol
# GULP energy per Si atom -5572.538511 kJ/mol
# Density = 1.822699 g / cm^3
# Si number density = 18.268567 Si / 1000 Ang^3
#
#
#
# Elastic Constant Matrix: (Units=GPa)
#
#
# Indices 1 2 3 4 5 6 
#
# 1 56.8209 28.1315 38.5044 0.0000 -19.2776 0.0000
# 2 28.1315 70.8868 46.5365 0.0000 -21.3483 0.0000
# 3 38.5044 46.5365 99.6450 0.0000 -31.2427 0.0000
# 4 0.0000 0.0000 0.0000 23.5148 0.0000 1.4798
# 5 -19.2776 -21.3483 -31.2427 0.0000 27.2484 0.0000
# 6 0.0000 0.0000 0.0000 1.4798 0.0000 25.7624
#
#
#
# Elastic Compliance Matrix: (Units=1/GPa)
#
#
# Indices 1 2 3 4 5 6 
#
# 1 0.026452 -0.004183 -0.005352 0.000000 0.009301 0.000000
# 2 -0.004183 0.022150 -0.006581 0.000000 0.006849 0.000000
# 3 -0.005352 -0.006581 0.019318 0.000000 0.013208 0.000000
# 4 0.000000 0.000000 0.000000 0.042681 0.000000 -0.002452
# 5 0.009301 0.006849 0.013208 0.000000 0.063790 0.000000
# 6 0.000000 0.000000 0.000000 -0.002452 0.000000 0.038957
#
#
# Mechanical properties :
#
#
# Convention : Reuss Voigt Hill
#
# Bulk Modulus (GPa) = 28.01978 50.41083 39.21531
# Shear Modulus (GPa) = 19.41935 22.91713 21.16824
#
# Velocity S-wave (km/s) = 3.26389 3.54567 3.40770
# Velocity P-wave (km/s) = 5.43829 6.66458 6.08242
#
# Compressibility (1/GPa) = 0.03568907
#
# Stress axis : x y z
#
# Youngs Moduli (GPa) = 37.80393 45.14698 51.76479
#
# Poissons Ratio (x) = 0.18886 0.27704
# Poissons Ratio (y) = 0.15814 0.34064
# Poissons Ratio (z) = 0.20232 0.29709
#
# Static dielectric constant tensor:
#      x y z
#    x 1.644720 0.000000 0.007100 
#    y 0.000000 1.620290 0.000000 
#    z 0.007100 0.000000 1.639800 
# 
# From -- ./inp_files/374115.got.cif
#   From: 2010.05.17/outbox.cif.g08.bks.cpg/sg12_188_cif.got.tgz:374115.got - 2010.06.03 13:09:07.
