data_PCOD9180158
_publ_section_title
;
Structure prediction by ZEFSAII (Michael W. Deem and Ramdas Pophale) SiO2 
 PCOD9180158
Probable space group: C 2/M
;
_chemical_formula_sum "Si O2"
_cell_formula_units_Z 28
_cell_length_a 27.633099
_cell_length_b 5.396705
_cell_length_c 18.188781
_cell_angle_alpha 90.000000
_cell_angle_beta 148.248996
_cell_angle_gamma 90.000000
_cell_volume 1427.369784
_symmetry_space_group_name_H-M "C 2/M"
_symmetry_group_IT_number 12
_symmetry_cell_setting 'monoclinic'
loop_
_space_group_symop_operation_xyz
x,y,z
-x,y,-z
-x,-y,-z
x,-y,z
1/2+x,1/2+y,z
1/2-x,1/2+y,-z
1/2-x,1/2-y,-z
1/2+x,1/2-y,z
loop_
_atom_site_type_symbol
_atom_site_label
_atom_site_fract_x
_atom_site_fract_y
_atom_site_fract_z
Si Si1 0.444637 0.500000 0.005661
Si Si2 0.073452 0.500000 0.412680
Si Si3 0.308771 0.000000 0.580897
Si Si4 0.020980 0.500000 0.113802
Si Si5 0.996595 0.000000 0.372876
Si Si6 0.845960 0.000000 0.296715
Si Si7 0.730870 0.000000 0.741999
O O1 0.476541 0.250524 0.087044
O O2 0.500000 0.500000 0.000000
O O3 0.336154 0.500000 0.852256
O O4 0.118308 0.500000 0.390881
O O5 0.015608 0.251431 0.352985
O O6 0.159155 0.500000 0.581340
O O7 0.250000 0.750000 0.500000
O O8 0.370204 0.000000 0.733458
O O9 0.000000 0.500000 0.000000
O O10 0.073891 0.000000 0.537432
O O11 0.898981 0.000000 0.287882
O O12 0.789413 0.250772 0.238107
#
# Coordination Sequence:
#
# PCOD9180158 Si02
#       7
#     4   4   4   4   4   4   4
#     4  10  21  36  56  79 115 155 198 235 289 338
#     4  10  21  33  54  82 116 150 192 235 299 344
#     4  12  26  40  60  87 121 157 203 245 292 352
#     4  10  23  39  59  80 111 161 198 239 292 337
#     4   9  17  33  51  80 116 153 179 239 301 354
#     4   9  17  30  52  82 117 144 190 238 297 342
#     4  10  19  31  54  86 113 150 192 244 282 344
#
# _framework density 19.616502000000001
#
# number of rings (size 3 to 8) (size 9 to 14) (size 15 to 20)
#    0.000    2.000    0.000    3.429    8.000    3.429 
#    0.000    0.000    0.000    0.000    0.000   20.000 
#    0.000    0.000    0.000    0.000    0.000    0.000 
#
# Total GULP energy -78142.509286 kJ/mol
# GULP energy per Si atom -5581.607806 kJ/mol
# Density = 1.957185 g / cm^3
# Si number density = 19.616502 Si / 1000 Ang^3
#
#
#
# Elastic Constant Matrix: (Units=GPa)
#
#
# Indices 1 2 3 4 5 6 
#
# 1 96.5990 45.7075 26.2697 0.0000 28.8652 0.0000
# 2 45.7075 207.5762 47.6546 0.0004 17.7927 0.0003
# 3 26.2697 47.6546 97.7403 0.0000 13.0053 0.0001
# 4 0.0000 0.0004 0.0000 27.7328 0.0000 14.6154
# 5 28.8652 17.7927 13.0053 0.0000 36.4571 0.0000
# 6 0.0000 0.0003 0.0001 14.6154 0.0000 17.6504
#
#
#
# Elastic Compliance Matrix: (Units=1/GPa)
#
#
# Indices 1 2 3 4 5 6 
#
# 1 0.014777 -0.002008 -0.001644 0.000000 -0.010134 0.000000
# 2 -0.002008 0.005811 -0.002234 0.000000 -0.000449 0.000000
# 3 -0.001644 -0.002234 0.012014 0.000000 -0.001894 0.000000
# 4 0.000000 0.000000 0.000000 0.063977 0.000000 -0.052976
# 5 -0.010134 -0.000449 -0.001894 0.000000 0.036348 0.000000
# 6 0.000000 0.000000 0.000000 -0.052976 0.000000 0.100523
#
#
# Mechanical properties :
#
#
# Convention : Reuss Voigt Hill
#
# Bulk Modulus (GPa) = 48.00630 71.24213 59.62422
# Shear Modulus (GPa) = 19.82819 35.18696 27.50758
#
# Velocity S-wave (km/s) = 3.18274 4.23985 3.74875
# Velocity P-wave (km/s) = 6.16701 7.76948 7.01416
#
# Compressibility (1/GPa) = 0.02083060
#
# Stress axis : x y z
#
# Youngs Moduli (GPa) = 67.67115 172.08838 83.23448
#
# Poissons Ratio (x) = 0.34552 0.13687
# Poissons Ratio (y) = 0.13587 0.18593
# Poissons Ratio (z) = 0.11128 0.38441
#
# Static dielectric constant tensor:
#      x y z
#    x 1.672110 0.000000 -0.026040 
#    y 0.000000 1.685380 0.000000 
#    z -0.026040 0.000000 1.688770 
# 
# From -- ./inp_files/323267.got.cif
#   From: 2010.05.17/outbox.cif.g08.bks.cpg/sg12_162_cif.got.tgz:323267.got - 2010.06.03 13:09:07.
