data_PCOD9180838
_publ_section_title
;
Structure prediction by ZEFSAII (Michael W. Deem and Ramdas Pophale) SiO2 
 PCOD9180838
Probable space group: C 2/M
;
_chemical_formula_sum "Si O2"
_cell_formula_units_Z 56
_cell_length_a 23.948173
_cell_length_b 8.894463
_cell_length_c 17.823052
_cell_angle_alpha 90.000000
_cell_angle_beta 49.115153
_cell_angle_gamma 90.000000
_cell_volume 2870.194123
_symmetry_space_group_name_H-M "C 2/M"
_symmetry_group_IT_number 12
_symmetry_cell_setting 'monoclinic'
loop_
_space_group_symop_operation_xyz
x,y,z
-x,y,-z
-x,-y,-z
x,-y,z
1/2+x,1/2+y,z
1/2-x,1/2+y,-z
1/2-x,1/2-y,-z
1/2+x,1/2-y,z
loop_
_atom_site_type_symbol
_atom_site_label
_atom_site_fract_x
_atom_site_fract_y
_atom_site_fract_z
Si Si1 0.979588 0.673439 0.729607
Si Si2 0.495488 0.318961 0.128863
Si Si3 0.880584 0.819041 0.101214
Si Si4 0.730567 0.673985 0.268722
Si Si5 0.570999 0.182796 0.385121
Si Si6 0.776725 0.836000 0.366888
Si Si7 0.139847 0.662598 0.599006
O O1 0.957223 0.500000 0.762062
O O2 0.935624 0.734004 0.696637
O O3 0.988430 0.750668 0.803023
O O4 0.063287 0.674804 0.624438
O O5 0.493341 0.500000 0.137337
O O6 0.422839 0.276415 0.142476
O O7 0.564094 0.275893 0.014467
O O8 0.798920 0.750158 0.163997
O O9 0.876419 0.000000 0.103446
O O10 0.722386 0.500000 0.256721
O O11 0.651113 0.755585 0.338647
O O12 0.760821 0.700787 0.325815
O O13 0.500000 0.227483 0.500000
O O14 0.572110 0.000000 0.385093
O O15 0.846321 0.798685 0.357135
O O16 0.707059 0.841215 0.483105
O O17 0.783175 0.000000 0.324265
O O18 0.137756 0.500000 0.641017
#
# Coordination Sequence:
#
# PCOD9180838 Si02
#       7
#     8   8   8   8   8   8   8
#     4  10  20  34  55  81 108 141 183 230 281 335
#     4   9  19  36  60  88 116 146 183 228 278 337
#     4   9  19  38  61  85 114 150 188 224 274 341
#     4  12  24  36  54  82 112 144 187 237 284 329
#     4  10  22  42  63  80 106 151 199 236 277 333
#     4  10  19  32  51  75 107 146 182 220 273 336
#     4   9  18  32  50  77 109 139 177 224 273 331
#
# _framework density 19.510874999999999
#
# number of rings (size 3 to 8) (size 9 to 14) (size 15 to 20)
#    0.000    2.143    0.000    4.286    0.000    7.714 
#    0.000    3.571    0.000    0.000    0.000    0.000 
#    0.000    0.000    0.000    0.000    0.000    0.000 
#
# Total GULP energy -155896.397526 kJ/mol
# GULP energy per Si atom -5567.728483 kJ/mol
# Density = 1.946647 g / cm^3
# Si number density = 19.510875 Si / 1000 Ang^3
#
#
#
# Elastic Constant Matrix: (Units=GPa)
#
#
# Indices 1 2 3 4 5 6 
#
# 1 76.7788 16.1444 31.4721 -0.0001 -7.3120 0.0001
# 2 16.1444 37.0596 22.1702 -0.0004 -3.4603 0.0003
# 3 31.4721 22.1702 85.7264 0.0001 -9.2329 0.0001
# 4 -0.0001 -0.0004 0.0001 15.8766 0.0002 3.5766
# 5 -7.3120 -3.4603 -9.2329 0.0002 35.1455 -0.0001
# 6 0.0001 0.0003 0.0001 3.5766 -0.0001 24.4819
#
#
#
# Elastic Compliance Matrix: (Units=1/GPa)
#
#
# Indices 1 2 3 4 5 6 
#
# 1 0.015926 -0.004012 -0.004626 0.000000 0.001703 0.000000
# 2 -0.004012 0.032967 -0.006991 0.000001 0.000575 -0.000001
# 3 -0.004626 -0.006991 0.015430 0.000000 0.002403 0.000000
# 4 0.000000 0.000001 0.000000 0.065129 0.000000 -0.009515
# 5 0.001703 0.000575 0.002403 0.000000 0.029495 0.000000
# 6 0.000000 -0.000001 0.000000 -0.009515 0.000000 0.042236
#
#
# Mechanical properties :
#
#
# Convention : Reuss Voigt Hill
#
# Bulk Modulus (GPa) = 30.24253 37.68204 33.96228
# Shear Modulus (GPa) = 20.53689 23.75267 22.14478
#
# Velocity S-wave (km/s) = 3.24788 3.49292 3.37263
# Velocity P-wave (km/s) = 5.44049 5.96847 5.71058
#
# Compressibility (1/GPa) = 0.03306602
#
# Stress axis : x y z
#
# Youngs Moduli (GPa) = 62.78889 30.33324 64.80816
#
# Poissons Ratio (x) = 0.12169 0.29980
# Poissons Ratio (y) = 0.25188 0.45309
# Poissons Ratio (z) = 0.29046 0.21207
#
# Static dielectric constant tensor:
#      x y z
#    x 1.661040 0.000000 0.005370 
#    y 0.000000 1.694190 0.000000 
#    z 0.005370 0.000000 1.741780 
# 
# From -- ./inp_files/288193.got.cif
#   From: 2010.05.17/outbox.cif.g08.bks.cpg/sg12_145_cif.got.tgz:288193.got - 2010.06.03 13:09:07.
