data_PCOD9180537
_publ_section_title
;
Structure prediction by ZEFSAII (Michael W. Deem and Ramdas Pophale) SiO2 
 PCOD9180537
Probable space group: C 2/M
;
_chemical_formula_sum "Si O2"
_cell_formula_units_Z 56
_cell_length_a 19.956977
_cell_length_b 8.302729
_cell_length_c 28.683815
_cell_angle_alpha 90.000000
_cell_angle_beta 139.589430
_cell_angle_gamma 90.000000
_cell_volume 3081.073166
_symmetry_space_group_name_H-M "C 2/M"
_symmetry_group_IT_number 12
_symmetry_cell_setting 'monoclinic'
loop_
_space_group_symop_operation_xyz
x,y,z
-x,y,-z
-x,-y,-z
x,-y,z
1/2+x,1/2+y,z
1/2-x,1/2+y,-z
1/2-x,1/2-y,-z
1/2+x,1/2-y,z
loop_
_atom_site_type_symbol
_atom_site_label
_atom_site_fract_x
_atom_site_fract_y
_atom_site_fract_z
Si Si1 0.632151 0.192089 0.430085
Si Si2 0.822109 0.305526 0.080490
Si Si3 0.442697 0.808356 0.796614
Si Si4 0.416211 0.196783 0.494476
Si Si5 0.177821 0.809171 0.356788
Si Si6 0.848529 0.195719 0.943630
Si Si7 0.940877 0.194785 0.895970
O O1 0.750000 0.250000 0.500000
O O2 0.568863 0.245898 0.442902
O O3 0.612340 0.246457 0.366613
O O4 0.629758 0.000000 0.429355
O O5 0.825503 0.500000 0.080919
O O6 0.760483 0.253102 0.093866
O O7 0.938923 0.245632 0.141487
O O8 0.750000 0.250000 0.000000
O O9 0.376165 0.734999 0.720013
O O10 0.405051 0.765979 0.828400
O O11 0.443933 0.000000 0.791092
O O12 0.500000 0.251039 0.500000
O O13 0.297857 0.248896 0.420573
O O14 0.581353 0.000000 0.505284
O O15 0.183453 0.000000 0.365153
O O16 0.873184 0.246467 0.904401
O O17 0.851963 0.000000 0.945313
O O18 0.942328 0.245490 0.027608
O O19 0.939848 0.000000 0.892299
#
# Coordination Sequence:
#
# PCOD9180537 Si02
#       7
#     8   8   8   8   8   8   8
#     4   9  16  29  52  78 105 134 164 202 242 289
#     4  10  19  32  50  72  96 125 165 211 253 296
#     4  11  22  33  48  73 104 134 164 207 259 304
#     4   8  15  30  54  82 103 124 163 207 242 283
#     4  10  20  34  53  74 100 137 172 205 248 299
#     4   8  15  29  50  72  91 118 164 211 249 296
#     4   9  16  30  52  71  91 125 164 206 250 298
#
# _framework density 18.175485999999999
#
# number of rings (size 3 to 8) (size 9 to 14) (size 15 to 20)
#    0.000    2.714    1.429    3.000    0.000    0.571 
#    0.000    3.571    0.000   24.000    0.000    0.000 
#    0.000    0.000    0.000    0.000    0.000    0.000 
#
# Total GULP energy -155920.369048 kJ/mol
# GULP energy per Si atom -5568.584609 kJ/mol
# Density = 1.813412 g / cm^3
# Si number density = 18.175486 Si / 1000 Ang^3
#
#
#
# Elastic Constant Matrix: (Units=GPa)
#
#
# Indices 1 2 3 4 5 6 
#
# 1 126.7900 12.6106 56.2724 0.0000 -28.4377 0.0000
# 2 12.6106 17.8113 9.3710 0.0000 -2.7846 -0.0002
# 3 56.2724 9.3710 107.3122 0.0000 -27.1230 0.0000
# 4 0.0000 0.0000 0.0000 25.9165 0.0000 -6.8407
# 5 -28.4377 -2.7846 -27.1230 0.0000 28.8560 0.0000
# 6 0.0000 -0.0002 0.0000 -6.8407 0.0000 17.7847
#
#
#
# Elastic Compliance Matrix: (Units=1/GPa)
#
#
# Indices 1 2 3 4 5 6 
#
# 1 0.011786 -0.005154 -0.003830 0.000000 0.007517 0.000000
# 2 -0.005154 0.061129 -0.003185 0.000000 -0.002174 0.000001
# 3 -0.003830 -0.003185 0.013868 0.000000 0.008953 0.000000
# 4 0.000000 0.000000 0.000000 0.042946 0.000000 0.016519
# 5 0.007517 -0.002174 0.008953 0.000000 0.050269 0.000000
# 6 0.000000 0.000001 0.000000 0.016519 0.000000 0.062582
#
#
# Mechanical properties :
#
#
# Convention : Reuss Voigt Hill
#
# Bulk Modulus (GPa) = 16.01415 45.38019 30.69717
# Shear Modulus (GPa) = 17.37727 26.08875 21.73301
#
# Velocity S-wave (km/s) = 3.09541 3.79275 3.46169
# Velocity P-wave (km/s) = 4.64816 6.64846 5.73617
#
# Compressibility (1/GPa) = 0.06244478
#
# Stress axis : x y z
#
# Youngs Moduli (GPa) = 84.84918 16.35881 72.10804
#
# Poissons Ratio (x) = 0.08431 0.27618
# Poissons Ratio (y) = 0.43732 0.22966
# Poissons Ratio (z) = 0.32498 0.05210
#
# Static dielectric constant tensor:
#      x y z
#    x 1.666770 0.000000 -0.019410 
#    y 0.000000 1.638170 0.000000 
#    z -0.019410 0.000000 1.614490 
# 
# From -- ./inp_files/345639.got.cif
#   From: 2010.05.17/outbox.cif.g08.bks.cpg/sg12_173_cif.got.tgz:345639.got - 2010.06.03 13:09:07.
