data_PCOD9180814
_publ_section_title
;
Structure prediction by ZEFSAII (Michael W. Deem and Ramdas Pophale) SiO2 
 PCOD9180814
Probable space group: C 2/M
;
_chemical_formula_sum "Si O2"
_cell_formula_units_Z 56
_cell_length_a 22.699367
_cell_length_b 7.772227
_cell_length_c 13.931862
_cell_angle_alpha 90.000000
_cell_angle_beta 64.296846
_cell_angle_gamma 90.000000
_cell_volume 2214.719835
_symmetry_space_group_name_H-M "C 2/M"
_symmetry_group_IT_number 12
_symmetry_cell_setting 'monoclinic'
loop_
_space_group_symop_operation_xyz
x,y,z
-x,y,-z
-x,-y,-z
x,-y,z
1/2+x,1/2+y,z
1/2-x,1/2+y,-z
1/2-x,1/2-y,-z
1/2+x,1/2-y,z
loop_
_atom_site_type_symbol
_atom_site_label
_atom_site_fract_x
_atom_site_fract_y
_atom_site_fract_z
Si Si1 0.695032 0.710744 0.912253
Si Si2 0.337813 0.202435 0.845801
Si Si3 0.941828 0.290022 0.473279
Si Si4 0.330060 0.184487 0.346125
Si Si5 0.305829 0.801399 0.591856
Si Si6 0.921130 0.812639 0.139788
Si Si7 0.484520 0.206336 0.768917
O O1 0.694881 0.500000 0.908298
O O2 0.771325 0.763980 0.837859
O O3 0.631924 0.773438 0.894955
O O4 0.680852 0.773757 0.029518
O O5 0.412182 0.274117 0.791509
O O6 0.343090 0.000000 0.817561
O O7 0.935729 0.500000 0.476481
O O8 0.875483 0.230307 0.572413
O O9 0.000000 0.240390 0.500000
O O10 0.964055 0.238986 0.350617
O O11 0.318834 0.197819 0.466903
O O12 0.259193 0.196517 0.349099
O O13 0.374120 0.323071 0.265773
O O14 0.361985 0.000000 0.304364
O O15 0.294560 0.000000 0.628704
O O16 0.987699 0.745424 0.143321
O O17 0.934932 0.000000 0.090047
O O18 0.480381 0.000000 0.766271
#
# Coordination Sequence:
#
# PCOD9180814 Si02
#       7
#     8   8   8   8   8   8   8
#     4   9  20  38  58  83 112 142 182 227 271 327
#     4   9  19  37  61  83 107 143 183 226 275 326
#     4   9  17  31  53  78 104 139 182 226 268 315
#     4  10  19  32  51  75 103 137 176 222 268 313
#     4   9  17  31  50  74 101 135 177 219 268 318
#     4  11  22  35  55  83 113 147 183 224 275 327
#     4  10  20  36  56  82 112 142 182 229 275 326
#
# _framework density 25.285364999999999
#
# number of rings (size 3 to 8) (size 9 to 14) (size 15 to 20)
#    0.000    2.429    1.429    0.857    0.000    4.000 
#    0.000    7.143    0.000    3.429    0.000    0.000 
#    0.000    0.000    0.000    0.000    0.000    0.000 
#
# Total GULP energy -156035.319469 kJ/mol
# GULP energy per Si atom -5572.689981 kJ/mol
# Density = 2.522781 g / cm^3
# Si number density = 25.285365 Si / 1000 Ang^3
#
#
#
# Elastic Constant Matrix: (Units=GPa)
#
#
# Indices 1 2 3 4 5 6 
#
# 1 178.1575 0.8420 24.0641 0.0000 -4.1815 0.0000
# 2 0.8420 39.4592 0.6434 0.0000 -6.3413 0.0000
# 3 24.0641 0.6434 24.0379 0.0000 -12.6984 0.0000
# 4 0.0000 0.0000 0.0000 9.3099 0.0000 -4.6546
# 5 -4.1815 -6.3413 -12.6984 0.0000 63.0622 0.0000
# 6 0.0000 0.0000 0.0000 -4.6546 0.0000 8.8870
#
#
#
# Elastic Compliance Matrix: (Units=1/GPa)
#
#
# Indices 1 2 3 4 5 6 
#
# 1 0.006547 -0.000187 -0.007083 0.000000 -0.001011 0.000000
# 2 -0.000187 0.025777 0.000962 0.000000 0.002773 0.000000
# 3 -0.007083 0.000962 0.054239 0.000000 0.010549 0.000000
# 4 0.000000 0.000000 0.000000 0.145518 0.000000 0.076216
# 5 -0.001011 0.002773 0.010549 0.000000 0.018193 0.000000
# 6 0.000000 0.000000 0.000000 0.076216 0.000000 0.152442
#
#
# Mechanical properties :
#
#
# Convention : Reuss Voigt Hill
#
# Bulk Modulus (GPa) = 13.52326 32.52819 23.02573
# Shear Modulus (GPa) = 11.36416 30.65883 21.01150
#
# Velocity S-wave (km/s) = 2.12229 3.48589 2.88579
# Velocity P-wave (km/s) = 3.37126 5.39391 4.49776
#
# Compressibility (1/GPa) = 0.07394664
#
# Stress axis : x y z
#
# Youngs Moduli (GPa) = 152.74419 38.79486 18.43704
#
# Poissons Ratio (x) = 0.00724 0.13059
# Poissons Ratio (y) = 0.02851 -0.01774
# Poissons Ratio (z) = 1.08190 -0.03732
#
# Static dielectric constant tensor:
#      x y z
#    x 2.138640 0.000000 0.006560 
#    y 0.000000 2.369710 0.000000 
#    z 0.006560 0.000000 2.007850 
# 
# From -- ./inp_files/280866.got.cif
#   From: 2010.05.17/outbox.cif.g08.bks.cpg/sg12_141_cif.got.tgz:280866.got - 2010.06.03 13:09:07.
