data_PCOD9180270
_publ_section_title
;
Structure prediction by ZEFSAII (Michael W. Deem and Ramdas Pophale) SiO2 
 PCOD9180270
Probable space group: C 2/M
;
_chemical_formula_sum "Si O2"
_cell_formula_units_Z 48
_cell_length_a 29.676363
_cell_length_b 8.604712
_cell_length_c 12.394776
_cell_angle_alpha 90.000000
_cell_angle_beta 109.417936
_cell_angle_gamma 90.000000
_cell_volume 2985.052823
_symmetry_space_group_name_H-M "C 2/M"
_symmetry_group_IT_number 12
_symmetry_cell_setting 'monoclinic'
loop_
_space_group_symop_operation_xyz
x,y,z
-x,y,-z
-x,-y,-z
x,-y,z
1/2+x,1/2+y,z
1/2-x,1/2+y,-z
1/2-x,1/2-y,-z
1/2+x,1/2-y,z
loop_
_atom_site_type_symbol
_atom_site_label
_atom_site_fract_x
_atom_site_fract_y
_atom_site_fract_z
Si Si1 0.780126 0.815814 0.424769
Si Si2 0.984473 0.318815 0.614079
Si Si3 0.914760 0.310088 0.248878
Si Si4 0.753249 0.815224 0.827857
Si Si5 0.824661 0.312884 0.049737
Si Si6 0.615643 0.811400 0.532612
O O1 0.750000 0.750000 0.500000
O O2 0.756111 0.765724 0.292835
O O3 0.833944 0.749882 0.466792
O O4 0.781871 0.000000 0.432992
O O5 0.980574 0.500000 0.642729
O O6 0.930799 0.254251 0.571383
O O7 0.000000 0.317222 0.500000
O O8 0.030502 0.252377 0.712667
O O9 0.916336 0.500000 0.249785
O O10 0.877642 0.262810 0.127198
O O11 0.893285 0.267157 0.349094
O O12 0.710499 0.775392 0.877655
O O13 0.752288 0.000000 0.811417
O O14 0.801549 0.763879 0.926497
O O15 0.823910 0.500000 0.036409
O O16 0.615961 0.000000 0.530005
#
# Coordination Sequence:
#
# PCOD9180270 Si02
#       6
#     8   8   8   8   8   8
#     4  12  24  36  50  67  90 123 162 199 239 281
#     4   7  11  19  39  67  93 121 153 186 222 268
#     4   8  12  22  42  70  98 125 155 186 223 270
#     4  10  19  32  47  67  94 124 159 196 234 276
#     4   9  16  27  46  70  98 128 156 189 229 274
#     4   9  15  28  46  67  94 123 156 194 231 269
#
# _framework density 16.080117000000001
#
# number of rings (size 3 to 8) (size 9 to 14) (size 15 to 20)
#    0.000    2.833    1.667    4.000    0.000    0.667 
#    0.000    0.000    0.000    5.500    0.000    1.167 
#    0.000    9.333    0.000    0.000    0.000    0.000 
#
# Total GULP energy -133623.850202 kJ/mol
# GULP energy per Si atom -5567.660425 kJ/mol
# Density = 1.604352 g / cm^3
# Si number density = 16.080117 Si / 1000 Ang^3
#
#
#
# Elastic Constant Matrix: (Units=GPa)
#
#
# Indices 1 2 3 4 5 6 
#
# 1 117.0215 27.6758 70.3651 0.0000 32.5859 0.0000
# 2 27.6758 28.1741 25.2597 0.0000 3.2562 0.0000
# 3 70.3651 25.2597 75.7989 0.0000 27.9996 0.0000
# 4 0.0000 0.0000 0.0000 19.1741 0.0000 2.7558
# 5 32.5859 3.2562 27.9996 0.0000 35.6680 0.0000
# 6 0.0000 0.0000 0.0000 2.7558 0.0000 17.5128
#
#
#
# Elastic Compliance Matrix: (Units=1/GPa)
#
#
# Indices 1 2 3 4 5 6 
#
# 1 0.020773 -0.006593 -0.014504 0.000000 -0.006990 0.000000
# 2 -0.006593 0.056740 -0.018449 0.000000 0.015326 0.000000
# 3 -0.014504 -0.018449 0.038433 0.000000 -0.015235 0.000000
# 4 0.000000 0.000000 0.000000 0.053360 0.000000 -0.008397
# 5 -0.006990 0.015326 -0.015235 0.000000 0.044982 0.000000
# 6 0.000000 0.000000 0.000000 -0.008397 0.000000 0.058422
#
#
# Mechanical properties :
#
#
# Convention : Reuss Voigt Hill
#
# Bulk Modulus (GPa) = 27.13560 51.95508 39.54534
# Shear Modulus (GPa) = 13.73295 20.98391 17.35843
#
# Velocity S-wave (km/s) = 2.92555 3.61634 3.28913
# Velocity P-wave (km/s) = 5.32200 7.05815 6.25065
#
# Compressibility (1/GPa) = 0.03685196
#
# Stress axis : x y z
#
# Youngs Moduli (GPa) = 48.14039 17.62438 26.01929
#
# Poissons Ratio (x) = 0.11621 0.37739
# Poissons Ratio (y) = 0.31741 0.48003
# Poissons Ratio (z) = 0.69824 0.32515
#
# Static dielectric constant tensor:
#      x y z
#    x 1.554940 0.000000 0.049850 
#    y 0.000000 1.550700 0.000000 
#    z 0.049850 0.000000 1.537670 
# 
# From -- ./inp_files/185967.got.cif
#   From: 2010.05.17/outbox.cif.g08.bks.cpg/sg12_93_cif.got.tgz:185967.got - 2010.06.03 13:09:07.
