data_PCOD9180658
_publ_section_title
;
Structure prediction by ZEFSAII (Michael W. Deem and Ramdas Pophale) SiO2 
 PCOD9180658
Probable space group: C 2/M
;
_chemical_formula_sum "Si O2"
_cell_formula_units_Z 48
_cell_length_a 23.482372
_cell_length_b 7.983143
_cell_length_c 24.826654
_cell_angle_alpha 90.000000
_cell_angle_beta 145.238707
_cell_angle_gamma 90.000000
_cell_volume 2653.565538
_symmetry_space_group_name_H-M "C 2/M"
_symmetry_group_IT_number 12
_symmetry_cell_setting 'monoclinic'
loop_
_space_group_symop_operation_xyz
x,y,z
-x,y,-z
-x,-y,-z
x,-y,z
1/2+x,1/2+y,z
1/2-x,1/2+y,-z
1/2-x,1/2-y,-z
1/2+x,1/2-y,z
loop_
_atom_site_type_symbol
_atom_site_label
_atom_site_fract_x
_atom_site_fract_y
_atom_site_fract_z
Si Si1 0.882688 0.696464 0.464397
Si Si2 0.014854 0.205332 0.781438
Si Si3 0.171683 0.199794 0.812076
Si Si4 0.828639 0.199675 0.014658
Si Si5 0.893316 0.195845 0.353286
Si Si6 0.289028 0.297965 0.589060
O O1 0.897988 0.500000 0.487948
O O2 0.864133 0.716700 0.386327
O O3 0.790867 0.760280 0.428641
O O4 0.986691 0.787078 0.558475
O O5 0.086807 0.261957 0.788173
O O6 0.901811 0.263282 0.686286
O O7 0.015742 0.000000 0.781161
O O8 0.066415 0.256396 0.878035
O O9 0.279772 0.232129 0.922263
O O10 0.155161 0.265335 0.739063
O O11 0.157552 0.000000 0.798114
O O12 0.831108 0.000000 0.012064
O O13 0.750000 0.250000 0.000000
O O14 0.868391 0.000000 0.339636
O O15 0.292712 0.500000 0.595347
O O16 0.250000 0.250000 0.500000
#
# Coordination Sequence:
#
# PCOD9180658 Si02
#       6
#     8   8   8   8   8   8
#     4  10  20  32  47  70  97 122 154 197 235 268
#     4   8  15  29  46  65  92 122 149 181 225 275
#     4   9  17  29  47  70  92 117 153 193 230 272
#     4   9  16  27  45  67  92 121 151 187 230 273
#     4  10  19  32  51  69  91 126 159 190 232 282
#     4  10  20  33  49  69  95 125 155 188 227 275
#
# _framework density 18.088868000000002
#
# number of rings (size 3 to 8) (size 9 to 14) (size 15 to 20)
#    0.000    2.667    0.000    4.500    0.000    4.000 
#    0.000    5.833    0.000    1.000    0.000    7.000 
#    0.000    0.000    0.000    0.000    0.000    0.000 
#
# Total GULP energy -133749.500213 kJ/mol
# GULP energy per Si atom -5572.895842 kJ/mol
# Density = 1.804770 g / cm^3
# Si number density = 18.088868 Si / 1000 Ang^3
#
#
#
# Elastic Constant Matrix: (Units=GPa)
#
#
# Indices 1 2 3 4 5 6 
#
# 1 84.7563 -2.3745 68.4973 0.0000 -4.0822 0.0000
# 2 -2.3745 10.0518 -12.1038 0.0000 1.1124 0.0001
# 3 68.4973 -12.1038 158.2129 0.0000 -16.9479 0.0000
# 4 0.0000 0.0000 0.0000 23.7011 0.0000 -5.2008
# 5 -4.0822 1.1124 -16.9479 0.0000 30.4641 0.0000
# 6 0.0000 0.0001 0.0000 -5.2008 0.0000 15.6984
#
#
#
# Elastic Compliance Matrix: (Units=1/GPa)
#
#
# Indices 1 2 3 4 5 6 
#
# 1 0.018581 -0.005879 -0.008725 0.000000 -0.002149 0.000000
# 2 -0.005879 0.111453 0.011220 0.000000 0.001385 -0.000001
# 3 -0.008725 0.011220 0.011471 0.000000 0.004803 0.000000
# 4 0.000000 0.000000 0.000000 0.045500 0.000000 0.015074
# 5 -0.002149 0.001385 0.004803 0.000000 0.035159 0.000000
# 6 0.000000 -0.000001 0.000000 0.015074 0.000000 0.068695
#
#
# Mechanical properties :
#
#
# Convention : Reuss Voigt Hill
#
# Bulk Modulus (GPa) = 7.42179 40.11768 23.76974
# Shear Modulus (GPa) = 14.59694 27.23950 20.91822
#
# Velocity S-wave (km/s) = 2.84378 3.88476 3.40430
# Velocity P-wave (km/s) = 3.85936 6.50754 5.34990
#
# Compressibility (1/GPa) = 0.13473839
#
# Stress axis : x y z
#
# Youngs Moduli (GPa) = 53.81764 8.97240 87.17876
#
# Poissons Ratio (x) = 0.05274 0.76060
# Poissons Ratio (y) = 0.31637 -0.97814
# Poissons Ratio (z) = 0.46954 -0.10067
#
# Static dielectric constant tensor:
#      x y z
#    x 1.607090 0.000000 -0.012490 
#    y 0.000000 1.648190 0.000000 
#    z -0.012490 0.000000 1.645090 
# 
# From -- ./inp_files/345690.got.cif
#   From: 2010.05.17/outbox.cif.g08.bks.cpg/sg12_173_cif.got.tgz:345690.got - 2010.06.03 13:09:07.
