data_PCOD9180856
_publ_section_title
;
Structure prediction by ZEFSAII (Michael W. Deem and Ramdas Pophale) SiO2 
 PCOD9180856
Probable space group: C 2/M
;
_chemical_formula_sum "Si O2"
_cell_formula_units_Z 56
_cell_length_a 30.293766
_cell_length_b 7.764275
_cell_length_c 13.515916
_cell_angle_alpha 90.000000
_cell_angle_beta 125.032206
_cell_angle_gamma 90.000000
_cell_volume 2603.113737
_symmetry_space_group_name_H-M "C 2/M"
_symmetry_group_IT_number 12
_symmetry_cell_setting 'monoclinic'
loop_
_space_group_symop_operation_xyz
x,y,z
-x,y,-z
-x,-y,-z
x,-y,z
1/2+x,1/2+y,z
1/2-x,1/2+y,-z
1/2-x,1/2-y,-z
1/2+x,1/2-y,z
loop_
_atom_site_type_symbol
_atom_site_label
_atom_site_fract_x
_atom_site_fract_y
_atom_site_fract_z
Si Si1 0.805721 0.795093 0.291890
Si Si2 0.519361 0.696204 0.764380
Si Si3 0.812787 0.793585 0.929122
Si Si4 0.081007 0.302696 0.033140
Si Si5 0.377257 0.711454 0.207783
Si Si6 0.804811 0.207505 0.514484
Si Si7 0.081686 0.791088 0.257282
O O1 0.747369 0.767643 0.167873
O O2 0.851886 0.728257 0.277756
O O3 0.804961 0.725416 0.402169
O O4 0.814491 0.000000 0.310440
O O5 0.509433 0.500000 0.718621
O O6 0.562901 0.773029 0.744650
O O7 0.461836 0.774117 0.718744
O O8 0.550966 0.693997 0.910391
O O9 0.855237 0.727001 0.902297
O O10 0.813257 0.000000 0.926005
O O11 0.837127 0.738888 0.066438
O O12 0.067727 0.500000 0.994783
O O13 0.066572 0.260709 0.126711
O O14 0.378808 0.500000 0.209423
O O15 0.750000 0.250000 0.500000
O O16 0.858283 0.268648 0.639663
O O17 0.808030 0.000000 0.514931
O O18 0.080450 0.000000 0.258514
#
# Coordination Sequence:
#
# PCOD9180856 Si02
#       7
#     8   8   8   8   8   8   8
#     4  10  19  33  52  75 103 133 169 213 255 293
#     4   9  18  34  54  75 102 136 168 202 249 305
#     4  10  19  32  51  76 105 137 170 203 250 309
#     4  11  21  32  50  78 107 133 166 210 257 300
#     4   8  16  31  51  75 103 132 164 205 252 302
#     4  10  22  37  53  74 100 132 169 210 252 296
#     4  10  20  35  53  73 101 137 174 207 247 302
#
# _framework density 21.512698
#
# number of rings (size 3 to 8) (size 9 to 14) (size 15 to 20)
#    0.000    2.286    0.000    4.286    0.000    5.714 
#    0.000    3.571    0.000    4.286    0.000    0.000 
#    0.000    8.000    0.000    0.000    0.000    0.000 
#
# Total GULP energy -156349.402333 kJ/mol
# GULP energy per Si atom -5583.907226 kJ/mol
# Density = 2.146373 g / cm^3
# Si number density = 21.512698 Si / 1000 Ang^3
#
#
#
# Elastic Constant Matrix: (Units=GPa)
#
#
# Indices 1 2 3 4 5 6 
#
# 1 168.1018 -1.7837 44.4553 0.0000 -8.2502 0.0000
# 2 -1.7837 39.3786 1.7712 0.0000 -6.2578 0.0000
# 3 44.4553 1.7712 42.6232 0.0000 -9.7297 0.0000
# 4 0.0000 0.0000 0.0000 9.1154 0.0000 3.5859
# 5 -8.2502 -6.2578 -9.7297 0.0000 35.5756 0.0000
# 6 0.0000 0.0000 0.0000 3.5859 0.0000 12.2850
#
#
#
# Elastic Compliance Matrix: (Units=1/GPa)
#
#
# Indices 1 2 3 4 5 6 
#
# 1 0.008241 0.000710 -0.008703 0.000000 -0.000344 0.000000
# 2 0.000710 0.026186 -0.000789 0.000000 0.004555 0.000000
# 3 -0.008703 -0.000789 0.034215 0.000000 0.007201 0.000000
# 4 0.000000 0.000000 0.000000 0.123935 0.000000 -0.036176
# 5 -0.000344 0.004555 0.007201 0.000000 0.030800 0.000000
# 6 0.000000 0.000000 0.000000 -0.036176 0.000000 0.091960
#
#
# Mechanical properties :
#
#
# Convention : Reuss Voigt Hill
#
# Bulk Modulus (GPa) = 19.57795 37.66546 28.62171
# Shear Modulus (GPa) = 14.28869 25.10594 19.69731
#
# Velocity S-wave (km/s) = 2.58000 3.41989 3.02919
# Velocity P-wave (km/s) = 4.24212 5.75679 5.05649
#
# Compressibility (1/GPa) = 0.05107786
#
# Stress axis : x y z
#
# Youngs Moduli (GPa) = 121.34362 38.18837 29.22668
#
# Poissons Ratio (x) = -0.02712 0.25437
# Poissons Ratio (y) = -0.08616 0.02306
# Poissons Ratio (z) = 1.05610 0.03013
#
# Static dielectric constant tensor:
#      x y z
#    x 1.805770 0.000000 -0.002500 
#    y 0.000000 1.813640 0.000000 
#    z -0.002500 0.000000 1.745470 
# 
# From -- ./inp_files/180664.got.cif
#   From: 2010.05.17/outbox.cif.g08.bks.cpg/sg12_91_cif.got.tgz:180664.got - 2010.06.03 13:09:07.
