data_PCOD9180966
_publ_section_title
;
Structure prediction by ZEFSAII (Michael W. Deem and Ramdas Pophale) SiO2 
 PCOD9180966
Probable space group: C 2/M
;
_chemical_formula_sum "Si O2"
_cell_formula_units_Z 56
_cell_length_a 21.586847
_cell_length_b 8.065233
_cell_length_c 19.157687
_cell_angle_alpha 90.000000
_cell_angle_beta 47.696023
_cell_angle_gamma 90.000000
_cell_volume 2466.817010
_symmetry_space_group_name_H-M "C 2/M"
_symmetry_group_IT_number 12
_symmetry_cell_setting 'monoclinic'
loop_
_space_group_symop_operation_xyz
x,y,z
-x,y,-z
-x,-y,-z
x,-y,z
1/2+x,1/2+y,z
1/2-x,1/2+y,-z
1/2-x,1/2-y,-z
1/2+x,1/2-y,z
loop_
_atom_site_type_symbol
_atom_site_label
_atom_site_fract_x
_atom_site_fract_y
_atom_site_fract_z
Si Si1 0.952016 0.191862 0.103106
Si Si2 0.094785 0.695662 0.717886
Si Si3 0.953083 0.192531 0.398567
Si Si4 0.654370 0.800918 0.056899
Si Si5 0.873031 0.695648 0.770382
Si Si6 0.687571 0.196280 0.879563
Si Si7 0.275349 0.699206 0.559194
O O1 0.960714 0.275671 0.171595
O O2 0.856418 0.209619 0.149763
O O3 0.974916 0.000000 0.093096
O O4 0.000000 0.267483 0.000000
O O5 0.092571 0.500000 0.702388
O O6 0.069410 0.789641 0.666867
O O7 0.190834 0.745422 0.663858
O O8 0.869785 0.262847 0.500184
O O9 0.043795 0.273732 0.337365
O O10 0.962306 0.000000 0.409456
O O11 0.609959 0.745219 0.162154
O O12 0.646318 0.000000 0.059195
O O13 0.750000 0.750000 0.000000
O O14 0.644878 0.740574 0.984645
O O15 0.856997 0.500000 0.786293
O O16 0.787301 0.777498 0.809307
O O17 0.672335 0.000000 0.883296
O O18 0.281815 0.500000 0.558026
O O19 0.250000 0.750000 0.500000
#
# Coordination Sequence:
#
# PCOD9180966 Si02
#       7
#     8   8   8   8   8   8   8
#     4  11  25  41  55  77 107 144 184 223 265 316
#     4  10  20  36  57  80 107 143 183 224 269 317
#     4  10  19  32  53  84 116 143 174 218 269 324
#     4   8  16  29  46  69  96 129 169 210 254 302
#     4  10  19  32  51  79 110 142 176 219 269 319
#     4  10  20  36  55  75 101 141 184 223 267 316
#     4   8  16  31  52  78 108 139 174 217 268 319
#
# _framework density 22.701318000000001
#
# number of rings (size 3 to 8) (size 9 to 14) (size 15 to 20)
#    0.000    2.429    0.000    2.143    2.000    3.429 
#    0.000    0.000    0.000    0.857    0.000    6.000 
#    0.000    0.000    0.000    0.000    0.000    0.000 
#
# Total GULP energy -156138.078465 kJ/mol
# GULP energy per Si atom -5576.359945 kJ/mol
# Density = 2.264965 g / cm^3
# Si number density = 22.701318 Si / 1000 Ang^3
#
#
#
# Elastic Constant Matrix: (Units=GPa)
#
#
# Indices 1 2 3 4 5 6 
#
# 1 44.6342 -2.8715 -5.1488 -0.0005 -8.6832 0.0007
# 2 -2.8715 37.3856 -0.2475 -0.0009 -3.2816 0.0011
# 3 -5.1488 -0.2475 90.5037 -0.0002 -24.7965 0.0002
# 4 -0.0005 -0.0009 -0.0002 19.3861 0.0000 -10.6858
# 5 -8.6832 -3.2816 -24.7965 0.0000 32.5303 -0.0001
# 6 0.0007 0.0011 0.0002 -10.6858 -0.0001 20.0216
#
#
#
# Elastic Compliance Matrix: (Units=1/GPa)
#
#
# Indices 1 2 3 4 5 6 
#
# 1 0.025059 0.002848 0.004228 0.000000 0.010199 -0.000001
# 2 0.002848 0.027388 0.001520 0.000001 0.004681 -0.000001
# 3 0.004228 0.001520 0.014719 0.000000 0.012502 0.000000
# 4 0.000000 0.000001 0.000000 0.073083 0.000000 0.039006
# 5 0.010199 0.004681 0.012502 0.000000 0.043465 0.000000
# 6 -0.000001 -0.000001 0.000000 0.039006 0.000000 0.070764
#
#
# Mechanical properties :
#
#
# Convention : Reuss Voigt Hill
#
# Bulk Modulus (GPa) = 11.85434 17.33198 14.59316
# Shear Modulus (GPa) = 18.83901 26.44039 22.63970
#
# Velocity S-wave (km/s) = 2.88386 3.41648 3.16141
# Velocity P-wave (km/s) = 4.04006 4.81814 4.44616
#
# Compressibility (1/GPa) = 0.08435726
#
# Stress axis : x y z
#
# Youngs Moduli (GPa) = 39.90518 36.51239 67.93851
#
# Poissons Ratio (x) = -0.10399 -0.28723
# Poissons Ratio (y) = -0.11365 -0.10324
# Poissons Ratio (z) = -0.16871 -0.05548
#
# Static dielectric constant tensor:
#      x y z
#    x 1.862300 0.000000 -0.038060 
#    y 0.000000 1.779190 0.000000 
#    z -0.038060 0.000000 1.923190 
# 
# From -- ./inp_files/348481.got.cif
#   From: 2010.05.17/outbox.cif.g08.bks.cpg/sg12_175_cif.got.tgz:348481.got - 2010.06.03 13:09:07.
