data_PCOD9180467
_publ_section_title
;
Structure prediction by ZEFSAII (Michael W. Deem and Ramdas Pophale) SiO2 
 PCOD9180467
Probable space group: C 2/M
;
_chemical_formula_sum "Si O2"
_cell_formula_units_Z 36
_cell_length_a 11.516066
_cell_length_b 26.510721
_cell_length_c 4.587609
_cell_angle_alpha 90.000000
_cell_angle_beta 66.345016
_cell_angle_gamma 90.000000
_cell_volume 1282.912913
_symmetry_space_group_name_H-M "C 2/M"
_symmetry_group_IT_number 12
_symmetry_cell_setting 'monoclinic'
loop_
_space_group_symop_operation_xyz
x,y,z
-x,y,-z
-x,-y,-z
x,-y,z
1/2+x,1/2+y,z
1/2-x,1/2+y,-z
1/2-x,1/2-y,-z
1/2+x,1/2-y,z
loop_
_atom_site_type_symbol
_atom_site_label
_atom_site_fract_x
_atom_site_fract_y
_atom_site_fract_z
Si Si1 0.873091 0.053683 0.822449
Si Si2 0.627469 0.337928 0.182852
Si Si3 0.120993 0.660323 0.685477
Si Si4 0.376757 0.053853 0.331065
Si Si5 0.500000 0.747280 0.000000
O O1 0.872703 0.107867 0.978784
O O2 0.749200 0.054483 0.741940
O O3 0.000000 0.053602 0.500000
O O4 0.872705 0.000000 0.986622
O O5 0.500000 0.337056 0.500000
O O6 0.751902 0.334696 0.255109
O O7 0.610736 0.289607 0.998485
O O8 0.129165 0.608028 0.494166
O O9 0.071245 0.717439 0.685753
O O10 0.000000 0.646198 0.000000
O O11 0.374519 0.000000 0.499337
O O12 0.500000 0.050852 0.000000
#
# Coordination Sequence:
#
# PCOD9180467 Si02
#       5
#     8   8   8   8   4
#     4   8  14  25  42  64  88 112 143 185 225 263
#     4  10  19  32  50  69  91 123 157 186 226 276
#     4   8  17  30  46  67  95 122 149 192 232 263
#     4   8  12  21  39  63  87 111 145 184 222 267
#     4  10  20  32  48  66  98 124 152 190 228 262
#
# _framework density 28.061143999999999
#
# number of rings (size 3 to 8) (size 9 to 14) (size 15 to 20)
#    0.667    2.667    0.000    0.667    0.000    0.889 
#    0.000    0.556    0.000    0.000    0.000    0.000 
#    0.000    3.556    0.000   18.000    0.000    0.000 
#
# Total GULP energy -100310.387246 kJ/mol
# GULP energy per Si atom -5572.799291 kJ/mol
# Density = 2.799728 g / cm^3
# Si number density = 28.061144 Si / 1000 Ang^3
#
#
#
# Elastic Constant Matrix: (Units=GPa)
#
#
# Indices 1 2 3 4 5 6 
#
# 1 242.9333 48.4230 35.1016 0.0000 -37.2412 0.0000
# 2 48.4230 335.2522 8.3532 0.0000 23.2979 0.0000
# 3 35.1016 8.3532 132.0365 0.0000 -53.3911 0.0000
# 4 0.0000 0.0000 0.0000 -0.4115 0.0000 -56.4789
# 5 -37.2412 23.2979 -53.3911 0.0000 49.6779 0.0000
# 6 0.0000 0.0000 0.0000 -56.4789 0.0000 26.8586
#
#
#
# Elastic Compliance Matrix: (Units=1/GPa)
#
#
# Indices 1 2 3 4 5 6 
#
# 1 0.005007 -0.001102 0.000823 0.000000 0.005155 0.000000
# 2 -0.001102 0.003475 -0.001627 0.000000 -0.004204 0.000000
# 3 0.000823 -0.001627 0.014177 0.000000 0.016617 0.000000
# 4 0.000000 0.000000 0.000000 -0.008391 0.000000 -0.017645
# 5 0.005155 -0.004204 0.016617 0.000000 0.043825 0.000000
# 6 0.000000 0.000000 0.000000 -0.017645 0.000000 0.000129
#
#
# Mechanical properties :
#
#
# Convention : Reuss Voigt Hill
#
# Bulk Modulus (GPa) = 53.05734 99.33085 76.19409
# Shear Modulus (GPa) = 73.18988 56.44795 64.81892
#
# Velocity S-wave (km/s) = 5.11262 4.48996 4.81137
# Velocity P-wave (km/s) = 7.33490 7.89649 7.62087
#
# Compressibility (1/GPa) = 0.01884753
#
# Stress axis : x y z
#
# Youngs Moduli (GPa) = 199.70529 287.79444 70.53690
#
# Poissons Ratio (x) = 0.31716 -0.05806
# Poissons Ratio (y) = 0.22008 0.11476
# Poissons Ratio (z) = -0.16439 0.46821
#
# Static dielectric constant tensor:
#      x y z
#    x 2.108680 0.000000 0.044060 
#    y 0.000000 2.417730 0.000000 
#    z 0.044060 0.000000 2.151820 
# 
# From -- ./inp_files/51673.got.cif
#   From: 2010.05.17/outbox.cif.g08.bks.cpg/sg12_26_cif.got.tgz:51673.got - 2010.06.03 13:09:07.
