data_PCOD9180141
_publ_section_title
;
Structure prediction by ZEFSAII (Michael W. Deem and Ramdas Pophale) SiO2 
 PCOD9180141
Probable space group: C 2/M
;
_chemical_formula_sum "Si O2"
_cell_formula_units_Z 48
_cell_length_a 14.500922
_cell_length_b 10.943519
_cell_length_c 18.341948
_cell_angle_alpha 90.000000
_cell_angle_beta 132.372951
_cell_angle_gamma 90.000000
_cell_volume 2150.351389
_symmetry_space_group_name_H-M "C 2/M"
_symmetry_group_IT_number 12
_symmetry_cell_setting 'monoclinic'
loop_
_space_group_symop_operation_xyz
x,y,z
-x,y,-z
-x,-y,-z
x,-y,z
1/2+x,1/2+y,z
1/2-x,1/2+y,-z
1/2-x,1/2-y,-z
1/2+x,1/2-y,z
loop_
_atom_site_type_symbol
_atom_site_label
_atom_site_fract_x
_atom_site_fract_y
_atom_site_fract_z
Si Si1 0.244076 0.137118 0.281570
Si Si2 0.078932 0.363620 0.156719
Si Si3 0.690180 0.865455 0.051468
Si Si4 0.649745 0.137797 0.826117
Si Si5 0.121915 0.218489 0.526961
Si Si6 0.889835 0.364147 0.625494
O O1 0.140675 0.242724 0.222709
O O2 0.310547 0.140714 0.238344
O O3 0.338435 0.173353 0.396397
O O4 0.195101 0.000000 0.267032
O O5 0.109874 0.500000 0.203231
O O6 0.135534 0.366081 0.104518
O O7 0.930483 0.354976 0.064792
O O8 0.779201 0.748474 0.097631
O O9 0.749260 0.000000 0.071317
O O10 0.500728 0.153099 0.742560
O O11 0.681990 0.000000 0.868358
O O12 0.093978 0.268524 0.431392
O O13 0.250795 0.145184 0.584173
O O14 0.000000 0.159694 0.500000
O O15 0.906578 0.500000 0.603774
#
# Coordination Sequence:
#
# PCOD9180141 Si02
#       6
#     8   8   8   8   8   8
#     4  10  19  31  54  83 111 148 194 239 285 340
#     4   8  15  28  47  75 112 151 187 228 285 343
#     4   8  14  27  48  75 111 151 187 228 281 343
#     4   9  17  31  53  81 112 149 189 234 287 340
#     4  11  22  38  60  83 114 153 196 243 291 348
#     4  10  22  39  58  83 117 155 195 239 293 351
#
# _framework density 22.321933000000001
#
# number of rings (size 3 to 8) (size 9 to 14) (size 15 to 20)
#    0.000    2.667    1.667    1.500    0.000    2.333 
#    0.000    7.500    0.000    1.000    0.000    0.000 
#    0.000    0.000    0.000    0.000    0.000    2.333 
#
# Total GULP energy -134017.558770 kJ/mol
# GULP energy per Si atom -5584.064949 kJ/mol
# Density = 2.227113 g / cm^3
# Si number density = 22.321933 Si / 1000 Ang^3
#
#
#
# Elastic Constant Matrix: (Units=GPa)
#
#
# Indices 1 2 3 4 5 6 
#
# 1 107.9156 39.9533 7.1986 0.0000 17.3770 0.0000
# 2 39.9533 169.0418 77.7817 0.0000 25.6001 0.0000
# 3 7.1986 77.7817 103.0597 0.0000 10.2396 0.0000
# 4 0.0000 0.0000 0.0000 25.6511 0.0000 6.2185
# 5 17.3770 25.6001 10.2396 0.0000 40.1082 0.0000
# 6 0.0000 0.0000 0.0000 6.2185 0.0000 23.4940
#
#
#
# Elastic Compliance Matrix: (Units=1/GPa)
#
#
# Indices 1 2 3 4 5 6 
#
# 1 0.010727 -0.002825 0.001708 0.000000 -0.003281 0.000000
# 2 -0.002825 0.010532 -0.007392 0.000000 -0.003611 0.000000
# 3 0.001708 -0.007392 0.015152 0.000000 0.000110 0.000000
# 4 0.000000 0.000000 0.000000 0.041658 0.000000 -0.011026
# 5 -0.003281 -0.003611 0.000110 0.000000 0.028631 0.000000
# 6 0.000000 0.000000 0.000000 -0.011026 0.000000 0.045483
#
#
# Mechanical properties :
#
#
# Convention : Reuss Voigt Hill
#
# Bulk Modulus (GPa) = 51.56421 69.98715 60.77568
# Shear Modulus (GPa) = 28.46364 34.85622 31.65993
#
# Velocity S-wave (km/s) = 3.57479 3.95590 3.77016
# Velocity P-wave (km/s) = 6.33950 7.23098 6.79986
#
# Compressibility (1/GPa) = 0.01939329
#
# Stress axis : x y z
#
# Youngs Moduli (GPa) = 93.22689 94.95185 65.99740
#
# Poissons Ratio (x) = 0.26819 -0.11275
# Poissons Ratio (y) = 0.26332 0.48788
# Poissons Ratio (z) = -0.15927 0.70192
#
# Static dielectric constant tensor:
#      x y z
#    x 1.907990 0.000000 -0.032270 
#    y 0.000000 1.766550 0.000000 
#    z -0.032270 0.000000 1.812790 
# 
# From -- ./inp_files/310271.got.cif
#   From: 2010.05.17/outbox.cif.g08.bks.cpg/sg12_156_cif.got.tgz:310271.got - 2010.06.03 13:09:07.
