data_PCOD9180236
_publ_section_title
;
Structure prediction by ZEFSAII (Michael W. Deem and Ramdas Pophale) SiO2 
 PCOD9180236
Probable space group: C 2/M
;
_chemical_formula_sum "Si O2"
_cell_formula_units_Z 40
_cell_length_a 20.781634
_cell_length_b 10.740295
_cell_length_c 7.675513
_cell_angle_alpha 90.000000
_cell_angle_beta 112.458245
_cell_angle_gamma 90.000000
_cell_volume 1583.250457
_symmetry_space_group_name_H-M "C 2/M"
_symmetry_group_IT_number 12
_symmetry_cell_setting 'monoclinic'
loop_
_space_group_symop_operation_xyz
x,y,z
-x,y,-z
-x,-y,-z
x,-y,z
1/2+x,1/2+y,z
1/2-x,1/2+y,-z
1/2-x,1/2-y,-z
1/2+x,1/2-y,z
loop_
_atom_site_type_symbol
_atom_site_label
_atom_site_fract_x
_atom_site_fract_y
_atom_site_fract_z
Si Si1 0.027236 0.727600 0.717210
Si Si2 0.792531 0.500000 0.715017
Si Si3 0.855418 0.000000 0.609636
Si Si4 0.658816 0.860280 0.711185
Si Si5 0.225820 0.000000 0.024877
Si Si6 0.882142 0.268881 0.694092
Si Si7 0.078230 0.000000 0.712739
O O1 0.105445 0.675337 0.809923
O O2 0.000000 0.681559 0.500000
O O3 0.963872 0.697445 0.778082
O O4 0.035878 0.875840 0.710919
O O5 0.727233 0.500000 0.514787
O O6 0.760684 0.500000 0.872048
O O7 0.837392 0.375746 0.735108
O O8 0.873953 0.125009 0.733631
O O9 0.894778 0.000000 0.461053
O O10 0.645629 0.769978 0.536989
O O11 0.638425 0.000000 0.630607
O O12 0.738655 0.879699 0.847175
O O13 0.145562 0.000000 0.905377
#
# Coordination Sequence:
#
# PCOD9180236 Si02
#       7
#     8   4   4   8   4   8   4
#     4  10  19  31  60  88 118 145 200 262 307 337
#     4  11  23  39  58  88 122 176 195 240 304 375
#     4  11  21  37  57  94 125 152 198 255 309 360
#     4   9  19  37  56  92 114 156 203 256 295 348
#     4   9  23  38  56  89 129 162 202 236 307 374
#     4  11  21  37  65  90 122 154 207 259 304 353
#     4  11  18  35  56  92 122 152 192 262 313 354
#
# _framework density 25.264481
#
# number of rings (size 3 to 8) (size 9 to 14) (size 15 to 20)
#    0.600    1.200    5.000    1.500    1.400    2.000 
#    0.000    2.000    0.000    1.200    0.000    2.800 
#    0.000    0.000    0.000    0.000    0.000    0.000 
#
# Total GULP energy -111868.773738 kJ/mol
# GULP energy per Si atom -5593.438687 kJ/mol
# Density = 2.520698 g / cm^3
# Si number density = 25.264481 Si / 1000 Ang^3
#
#
#
# Elastic Constant Matrix: (Units=GPa)
#
#
# Indices 1 2 3 4 5 6 
#
# 1 113.0879 10.8147 33.4541 0.0000 11.6088 0.0000
# 2 10.8147 102.1635 -3.9007 0.0000 -6.7810 0.0000
# 3 33.4541 -3.9007 65.0185 0.0000 12.7221 0.0000
# 4 0.0000 0.0000 0.0000 -378.4559 0.0000 -788.8438
# 5 11.6088 -6.7810 12.7221 0.0000 36.5927 0.0000
# 6 0.0000 0.0000 0.0000 -788.8438 0.0000-1593.9894
#
#
#
# Elastic Compliance Matrix: (Units=1/GPa)
#
#
# Indices 1 2 3 4 5 6 
#
# 1 0.010723 -0.001458 -0.005243 0.000000 -0.001849 0.000000
# 2 -0.001458 0.010112 0.000965 0.000000 0.002001 0.000000
# 3 -0.005243 0.000965 0.019073 0.000000 -0.004789 0.000000
# 4 0.000000 0.000000 0.000000 0.083807 0.000000 -0.041475
# 5 -0.001849 0.002001 -0.004789 0.000000 0.029950 0.000000
# 6 0.000000 0.000000 0.000000 -0.041475 0.000000 0.019898
#
#
# Mechanical properties :
#
#
# Convention : Reuss Voigt Hill
#
# Bulk Modulus (GPa) = 35.16567 40.11178 37.63872
# Shear Modulus (GPa) = 25.70524 -371.17705 -172.73591
#
# Velocity S-wave (km/s) = 3.19320 -12.13406 -8.27765
# Velocity P-wave (km/s) = 5.24830 13.43141 8.74237
#
# Compressibility (1/GPa) = 0.02843683
#
# Stress axis : x y z
#
# Youngs Moduli (GPa) = 93.25823 98.89010 52.43064
#
# Poissons Ratio (x) = 0.14418 0.27489
# Poissons Ratio (y) = 0.13597 -0.05061
# Poissons Ratio (z) = 0.48895 -0.09546
#
# Static dielectric constant tensor:
#      x y z
#    x 2.002580 0.000000 -0.020500 
#    y 0.000000 1.969010 0.000000 
#    z -0.020500 0.000000 2.042470 
# 
# From -- ./inp_files/83697.got.cif
#   From: 2010.05.17/outbox.cif.g08.bks.cpg/sg12_42_cif.got.tgz:83697.got - 2010.06.03 13:09:07.
