data_PCOD9180240
_publ_section_title
;
Structure prediction by ZEFSAII (Michael W. Deem and Ramdas Pophale) SiO2 
 PCOD9180240
Probable space group: C 2/M
;
_chemical_formula_sum "Si O2"
_cell_formula_units_Z 52
_cell_length_a 5.191526
_cell_length_b 31.434636
_cell_length_c 23.286416
_cell_angle_alpha 90.000000
_cell_angle_beta 70.003618
_cell_angle_gamma 90.000000
_cell_volume 3571.099227
_symmetry_space_group_name_H-M "C 2/M"
_symmetry_group_IT_number 12
_symmetry_cell_setting 'monoclinic'
loop_
_space_group_symop_operation_xyz
x,y,z
-x,y,-z
-x,-y,-z
x,-y,z
1/2+x,1/2+y,z
1/2-x,1/2+y,-z
1/2-x,1/2-y,-z
1/2+x,1/2-y,z
loop_
_atom_site_type_symbol
_atom_site_label
_atom_site_fract_x
_atom_site_fract_y
_atom_site_fract_z
Si Si1 0.082947 0.948508 0.747365
Si Si2 0.940201 0.584884 0.615545
Si Si3 0.495681 0.369903 0.569420
Si Si4 0.309139 0.948130 0.962180
Si Si5 0.529013 0.948509 0.177178
Si Si6 0.317803 0.000000 0.457424
Si Si7 0.570321 0.728713 0.427143
O O1 0.243937 0.926774 0.683272
O O2 0.234927 0.938248 0.795438
O O3 0.766930 0.935243 0.776532
O O4 0.094383 0.000000 0.738306
O O5 0.744252 0.605090 0.581178
O O6 0.194594 0.615076 0.611998
O O7 0.092846 0.541888 0.583660
O O8 0.500000 0.376748 0.500000
O O9 0.514261 0.319540 0.579227
O O10 0.407894 0.933415 0.892039
O O11 0.315913 0.000000 0.960401
O O12 0.500000 0.934387 0.000000
O O13 0.000000 0.935556 0.000000
O O14 0.518449 0.000000 0.174866
O O15 0.500000 0.000000 0.500000
O O16 0.000000 0.000000 0.500000
O O17 0.500000 0.735536 0.500000
O O18 0.390777 0.760288 0.402063
#
# Coordination Sequence:
#
# PCOD9180240 Si02
#       7
#     8   8   8   8   8   4   8
#     4  10  19  32  43  56  75 107 148 181 211 247
#     4  12  22  35  47  63  84 112 146 185 221 258
#     4  11  22  34  50  68  88 106 134 175 225 274
#     4   9  15  23  36  56  78  96 119 159 216 266
#     4   9  17  27  42  56  74 101 135 173 213 255
#     4  12  24  36  48  60  80 110 144 184 230 270
#     4   9  17  31  50  70  88 106 124 152 205 275
#
# _framework density 14.561342
#
# number of rings (size 3 to 8) (size 9 to 14) (size 15 to 20)
#    0.000    1.846    0.769    5.538    0.000    6.154 
#    0.000    0.000    0.000    0.000    0.000    0.000 
#    0.000    0.000    0.000    0.000    0.000    0.000 
#
# Total GULP energy -144984.016221 kJ/mol
# GULP energy per Si atom -5576.308316 kJ/mol
# Density = 1.452820 g / cm^3
# Si number density = 14.561342 Si / 1000 Ang^3
#
#
#
# Elastic Constant Matrix: (Units=GPa)
#
#
# Indices 1 2 3 4 5 6 
#
# 1 83.1842 21.1424 0.8353 0.0000 -5.4279 0.0000
# 2 21.1424 34.0479 9.2072 0.0000 3.1202 0.0000
# 3 0.8353 9.2072 48.7557 0.0000 -4.4411 0.0000
# 4 0.0000 0.0000 0.0000 4.2144 0.0000 -3.7759
# 5 -5.4279 3.1202 -4.4411 0.0000 21.1785 0.0000
# 6 0.0000 0.0000 0.0000 -3.7759 0.0000 13.5265
#
#
#
# Elastic Compliance Matrix: (Units=1/GPa)
#
#
# Indices 1 2 3 4 5 6 
#
# 1 0.015050 -0.010495 0.002259 0.000000 0.005877 0.000000
# 2 -0.010495 0.039009 -0.008110 0.000000 -0.010138 0.000000
# 3 0.002259 -0.008110 0.022597 0.000000 0.006512 0.000000
# 4 0.000000 0.000000 0.000000 0.316424 0.000000 0.088330
# 5 0.005877 -0.010138 0.006512 0.000000 0.051583 0.000000
# 6 0.000000 0.000000 0.000000 0.088330 0.000000 0.098586
#
#
# Mechanical properties :
#
#
# Convention : Reuss Voigt Hill
#
# Bulk Modulus (GPa) = 22.74579 25.37305 24.05942
# Shear Modulus (GPa) = 8.46604 16.77074 12.61839
#
# Velocity S-wave (km/s) = 2.41385 3.39740 2.94695
# Velocity P-wave (km/s) = 4.83978 5.73171 5.30453
#
# Compressibility (1/GPa) = 0.04396418
#
# Stress axis : x y z
#
# Youngs Moduli (GPa) = 66.44641 25.63479 44.25464
#
# Poissons Ratio (x) = 0.26903 -0.09999
# Poissons Ratio (y) = 0.69734 0.35892
# Poissons Ratio (z) = -0.15013 0.20791
#
# Static dielectric constant tensor:
#      x y z
#    x 1.495950 0.000000 -0.003590 
#    y 0.000000 1.532770 0.000000 
#    z -0.003590 0.000000 1.471580 
# 
# From -- ./inp_files/253802.got.cif
#   From: 2010.05.17/outbox.cif.g08.bks.cpg/sg12_127_cif.got.tgz:253802.got - 2010.06.03 13:09:07.
