data_PCOD9180873
_publ_section_title
;
Structure prediction by ZEFSAII (Michael W. Deem and Ramdas Pophale) SiO2 
 PCOD9180873
Probable space group: C 2/M
;
_chemical_formula_sum "Si O2"
_cell_formula_units_Z 64
_cell_length_a 20.435704
_cell_length_b 27.140464
_cell_length_c 11.632064
_cell_angle_alpha 90.000000
_cell_angle_beta 150.636975
_cell_angle_gamma 90.000000
_cell_volume 3163.459222
_symmetry_space_group_name_H-M "C 2/M"
_symmetry_group_IT_number 12
_symmetry_cell_setting 'monoclinic'
loop_
_space_group_symop_operation_xyz
x,y,z
-x,y,-z
-x,-y,-z
x,-y,z
1/2+x,1/2+y,z
1/2-x,1/2+y,-z
1/2-x,1/2-y,-z
1/2+x,1/2-y,z
loop_
_atom_site_type_symbol
_atom_site_label
_atom_site_fract_x
_atom_site_fract_y
_atom_site_fract_z
Si Si1 0.964145 0.684569 0.810893
Si Si2 0.074576 0.204712 0.324755
Si Si3 0.694955 0.558195 0.153100
Si Si4 0.503848 0.052854 0.644458
Si Si5 0.768551 0.205185 0.874385
Si Si6 0.199791 0.148879 0.310712
Si Si7 0.732364 0.685419 0.794342
Si Si8 0.245406 0.616608 0.983332
O O1 0.910517 0.739419 0.698167
O O2 0.847499 0.646836 0.596025
O O3 0.000000 0.681876 0.000000
O O4 0.107051 0.679655 0.967533
O O5 0.102527 0.170041 0.258844
O O6 0.172478 0.187578 0.575441
O O7 0.924929 0.202149 0.144981
O O8 0.653982 0.500000 0.094068
O O9 0.642814 0.599987 0.160679
O O10 0.689124 0.580182 0.012755
O O11 0.849404 0.560184 0.430834
O O12 0.500000 0.051096 0.500000
O O13 0.620230 0.089978 0.849017
O O14 0.544788 0.000000 0.754252
O O15 0.774795 0.189151 0.751011
O O16 0.710522 0.258909 0.806099
O O17 0.693830 0.162537 0.828055
O O18 0.676877 0.643364 0.793929
#
# Coordination Sequence:
#
# PCOD9180873 Si02
#       8
#     8   8   8   8   8   8   8   8
#     4  11  20  33  55  81 112 147 188 228 269 335
#     4  11  21  35  52  76 115 154 190 223 268 327
#     4   9  19  35  58  85 111 139 182 239 290 335
#     4   8  14  29  52  78 104 130 170 227 282 328
#     4  10  22  35  50  77 113 151 190 226 266 322
#     4  11  19  35  59  82 106 144 190 230 279 331
#     4  11  21  34  50  78 113 151 187 225 269 328
#     4  10  19  32  51  76 107 142 184 223 273 324
#
# _framework density 20.231017000000001
#
# number of rings (size 3 to 8) (size 9 to 14) (size 15 to 20)
#    0.000    1.875    2.500    4.500    0.000    1.500 
#    0.000    0.000    0.000    8.625    0.000    7.875 
#    0.000    0.000    0.000    0.000    0.000    0.000 
#
# Total GULP energy -178287.982709 kJ/mol
# GULP energy per Si atom -5571.499460 kJ/mol
# Density = 2.018497 g / cm^3
# Si number density = 20.231017 Si / 1000 Ang^3
#
#
#
# Elastic Constant Matrix: (Units=GPa)
#
#
# Indices 1 2 3 4 5 6 
#
# 1 53.9441 40.2464 19.5850 0.0000 -14.3412 0.0000
# 2 40.2464 123.4720 28.1730 0.0000 -17.3109 0.0000
# 3 19.5850 28.1730 69.8800 0.0000 -12.5275 0.0000
# 4 0.0000 0.0000 0.0000 10.7584 0.0000 -2.1718
# 5 -14.3412 -17.3109 -12.5275 0.0000 26.9894 0.0000
# 6 0.0000 0.0000 0.0000 -2.1718 0.0000 11.4027
#
#
#
# Elastic Compliance Matrix: (Units=1/GPa)
#
#
# Indices 1 2 3 4 5 6 
#
# 1 0.027139 -0.006906 -0.003306 0.000000 0.008456 0.000000
# 2 -0.006906 0.011188 -0.002123 0.000000 0.002521 0.000000
# 3 -0.003306 -0.002123 0.016944 0.000000 0.004746 0.000000
# 4 0.000000 0.000000 0.000000 0.096667 0.000000 0.018411
# 5 0.008456 0.002521 0.004746 0.000000 0.045365 0.000000
# 6 0.000000 0.000000 0.000000 0.018411 0.000000 0.091205
#
#
# Mechanical properties :
#
#
# Convention : Reuss Voigt Hill
#
# Bulk Modulus (GPa) = 32.67957 47.03388 39.85672
# Shear Modulus (GPa) = 15.46182 20.44955 17.95568
#
# Velocity S-wave (km/s) = 2.76753 3.18276 2.98238
# Velocity P-wave (km/s) = 5.13815 6.06675 5.62166
#
# Compressibility (1/GPa) = 0.03060016
#
# Stress axis : x y z
#
# Youngs Moduli (GPa) = 36.84796 89.38202 59.01944
#
# Poissons Ratio (x) = 0.61728 0.19510
# Poissons Ratio (y) = 0.25447 0.12530
# Poissons Ratio (z) = 0.12181 0.18977
#
# Static dielectric constant tensor:
#      x y z
#    x 1.793830 0.000000 0.026100 
#    y 0.000000 1.781570 0.000000 
#    z 0.026100 0.000000 1.755890 
# 
# From -- ./inp_files/178568.got.cif
#   From: 2010.05.17/outbox.cif.g08.bks.cpg/sg12_90_cif.got.tgz:178568.got - 2010.06.03 13:09:07.
