data_PCOD9180586
_publ_section_title
;
Structure prediction by ZEFSAII (Michael W. Deem and Ramdas Pophale) SiO2 
 PCOD9180586
Probable space group: C 2/M
;
_chemical_formula_sum "Si O2"
_cell_formula_units_Z 64
_cell_length_a 25.909802
_cell_length_b 8.078718
_cell_length_c 24.747035
_cell_angle_alpha 90.000000
_cell_angle_beta 46.575028
_cell_angle_gamma 90.000000
_cell_volume 3762.104837
_symmetry_space_group_name_H-M "C 2/M"
_symmetry_group_IT_number 12
_symmetry_cell_setting 'monoclinic'
loop_
_space_group_symop_operation_xyz
x,y,z
-x,y,-z
-x,-y,-z
x,-y,z
1/2+x,1/2+y,z
1/2-x,1/2+y,-z
1/2-x,1/2-y,-z
1/2+x,1/2-y,z
loop_
_atom_site_type_symbol
_atom_site_label
_atom_site_fract_x
_atom_site_fract_y
_atom_site_fract_z
Si Si1 0.280336 0.302331 0.919966
Si Si2 0.940885 0.699448 0.814612
Si Si3 0.661405 0.800957 0.923135
Si Si4 0.081346 0.300063 0.658071
Si Si5 0.364437 0.697194 0.178204
Si Si6 0.975353 0.299587 0.911997
Si Si7 0.303265 0.299322 0.334701
Si Si8 0.807884 0.699602 0.503372
O O1 0.279139 0.500000 0.919053
O O2 0.361382 0.246352 0.856158
O O3 0.227366 0.238695 0.911472
O O4 0.250000 0.250000 0.000000
O O5 0.944450 0.500000 0.813322
O O6 0.958385 0.757000 0.863101
O O7 0.002966 0.760269 0.729997
O O8 0.664060 0.758002 0.858535
O O9 0.660661 0.000000 0.928175
O O10 0.587506 0.741573 0.003200
O O11 0.079060 0.500000 0.657309
O O12 0.134196 0.253962 0.669228
O O13 0.117986 0.240449 0.575904
O O14 0.359521 0.500000 0.182275
O O15 0.446960 0.744773 0.125668
O O16 0.322148 0.761370 0.261310
O O17 0.974989 0.500000 0.912240
O O18 0.188482 0.500000 0.496697
O O19 0.228211 0.242889 0.414818
O O20 0.697075 0.500000 0.665695
O O21 0.750000 0.750000 0.500000
#
# Coordination Sequence:
#
# PCOD9180586 Si02
#       8
#     8   8   8   8   8   8   8   8
#     4  11  22  37  55  73  93 122 160 201 245 287
#     4  10  19  32  50  74  99 126 160 197 236 283
#     4  10  22  38  51  65  89 126 164 196 237 283
#     4   9  16  27  46  69  94 125 161 190 225 280
#     4  11  22  32  46  72  99 126 161 199 236 276
#     4  10  19  34  51  67  95 130 159 192 234 283
#     4   9  17  28  42  65  99 128 154 190 236 278
#     4   8  14  25  41  63  92 126 155 186 226 276
#
# _framework density 17.011752999999999
#
# number of rings (size 3 to 8) (size 9 to 14) (size 15 to 20)
#    0.000    2.250    2.500    1.125    0.000    4.500 
#    0.000    0.000    0.000    0.000    0.000    0.875 
#    0.000    7.000    0.000    0.000    0.000    0.000 
#
# Total GULP energy -178375.697916 kJ/mol
# GULP energy per Si atom -5574.240560 kJ/mol
# Density = 1.697303 g / cm^3
# Si number density = 17.011753 Si / 1000 Ang^3
#
#
#
# Elastic Constant Matrix: (Units=GPa)
#
#
# Indices 1 2 3 4 5 6 
#
# 1 106.6869 3.9755 81.2380 -0.0011 5.3435 0.0023
# 2 3.9755 6.2508 7.4017 0.0020 -2.7525 0.0214
# 3 81.2380 7.4017 187.0455 0.0006 -10.8976 0.0031
# 4 -0.0011 0.0020 0.0006 12.3861 0.0008 -2.5677
# 5 5.3435 -2.7525 -10.8976 0.0008 14.8977 -0.0019
# 6 0.0023 0.0214 0.0031 -2.5677 -0.0019 21.5038
#
#
#
# Elastic Compliance Matrix: (Units=1/GPa)
#
#
# Indices 1 2 3 4 5 6 
#
# 1 0.015810 -0.006802 -0.007313 0.000005 -0.012277 0.000006
# 2 -0.006802 0.182134 -0.002246 -0.000071 0.034447 -0.000186
# 3 -0.007313 -0.002246 0.009129 -0.000001 0.008886 0.000002
# 4 0.000005 -0.000071 -0.000001 0.082785 -0.000019 0.009885
# 5 -0.012277 0.034447 0.008886 -0.000019 0.084392 -0.000029
# 6 0.000006 -0.000186 0.000002 0.009885 -0.000029 0.047684
#
#
# Mechanical properties :
#
#
# Convention : Reuss Voigt Hill
#
# Bulk Modulus (GPa) = 5.73555 53.91262 29.82408
# Shear Modulus (GPa) = 9.75092 23.58206 16.66649
#
# Velocity S-wave (km/s) = 2.39673 3.72724 3.13342
# Velocity P-wave (km/s) = 3.32234 7.09107 5.53720
#
# Compressibility (1/GPa) = 0.17435130
#
# Stress axis : x y z
#
# Youngs Moduli (GPa) = 63.25144 5.49046 109.54171
#
# Poissons Ratio (x) = 0.03735 0.80105
# Poissons Ratio (y) = 0.43023 0.24605
# Poissons Ratio (z) = 0.46254 0.01233
#
# Static dielectric constant tensor:
#      x y z
#    x 1.532120 0.000000 0.004050 
#    y 0.000000 1.589370 0.000000 
#    z 0.004050 0.000000 1.627580 
# 
# From -- ./inp_files/323787.got.cif
#   From: 2010.05.17/outbox.cif.g08.bks.cpg/sg12_162_cif.got.tgz:323787.got - 2010.06.03 13:09:07.
