data_PCOD9180449
_publ_section_title
;
Structure prediction by ZEFSAII (Michael W. Deem and Ramdas Pophale) SiO2 
 PCOD9180449
Probable space group: C 2/M
;
_chemical_formula_sum "Si O2"
_cell_formula_units_Z 50
_cell_length_a 14.315163
_cell_length_b 7.546350
_cell_length_c 19.989674
_cell_angle_alpha 90.000000
_cell_angle_beta 87.264514
_cell_angle_gamma 90.000000
_cell_volume 2156.968465
_symmetry_space_group_name_H-M "C 2/M"
_symmetry_group_IT_number 12
_symmetry_cell_setting 'monoclinic'
loop_
_space_group_symop_operation_xyz
x,y,z
-x,y,-z
-x,-y,-z
x,-y,z
1/2+x,1/2+y,z
1/2-x,1/2+y,-z
1/2-x,1/2-y,-z
1/2+x,1/2-y,z
loop_
_atom_site_type_symbol
_atom_site_label
_atom_site_fract_x
_atom_site_fract_y
_atom_site_fract_z
Si Si1 0.323635 0.784879 0.413316
Si Si2 0.453784 0.796853 0.291829
Si Si3 0.025589 0.286333 0.925357
Si Si4 0.500000 0.000000 0.500000
Si Si5 0.618890 0.695423 0.441296
Si Si6 0.680478 0.291260 0.822978
Si Si7 0.106881 0.282613 0.192135
O O1 0.393103 0.719668 0.353983
O O2 0.344358 0.694210 0.482919
O O3 0.214619 0.761066 0.398488
O O4 0.337854 0.000000 0.425527
O O5 0.384734 0.796647 0.230407
O O6 0.550207 0.719890 0.259817
O O7 0.472398 0.000000 0.309329
O O8 0.021902 0.500000 0.926562
O O9 0.127991 0.235106 0.895146
O O10 0.951638 0.226582 0.871333
O O11 0.000000 0.221643 0.000000
O O12 0.458169 0.154808 0.552002
O O13 0.585055 0.500000 0.424291
O O14 0.681303 0.500000 0.808055
O O15 0.786291 0.225520 0.816092
O O16 0.105326 0.500000 0.193219
#
# Coordination Sequence:
#
# PCOD9180449 Si02
#       7
#     8   8   8   2   8   8   8
#     4   9  18  37  59  82 107 151 191 231 287 349
#     4   9  18  36  58  76 105 146 185 220 268 330
#     4   9  18  34  55  74  97 138 184 220 266 330
#     4  12  22  40  56  90 116 154 186 244 296 342
#     4  10  21  37  60  85 118 149 192 239 291 348
#     4  10  19  32  49  77 110 138 173 221 271 322
#     4   8  16  32  51  74 105 140 174 216 269 325
#
# _framework density 23.180681
#
# number of rings (size 3 to 8) (size 9 to 14) (size 15 to 20)
#    0.000    2.720    0.800    1.680    1.120    1.600 
#    2.880    6.400    0.000    0.000    0.000    0.000 
#    0.000    0.000    0.000    0.000    0.000    0.000 
#
# Total GULP energy -139432.363101 kJ/mol
# GULP energy per Si atom -5577.294524 kJ/mol
# Density = 2.312792 g / cm^3
# Si number density = 23.180681 Si / 1000 Ang^3
#
#
#
# Elastic Constant Matrix: (Units=GPa)
#
#
# Indices 1 2 3 4 5 6 
#
# 1 156.3484 24.7714 62.1444 0.0000 -44.4300 0.0000
# 2 24.7714 90.3502 -0.7383 0.0000 -2.9088 0.0000
# 3 62.1444 -0.7383 112.7510 0.0000 -40.7981 0.0000
# 4 0.0000 0.0000 0.0000 13.2549 0.0000 -2.3218
# 5 -44.4300 -2.9088 -40.7981 0.0000 36.4423 0.0000
# 6 0.0000 0.0000 0.0000 -2.3218 0.0000 23.8056
#
#
#
# Elastic Compliance Matrix: (Units=1/GPa)
#
#
# Indices 1 2 3 4 5 6 
#
# 1 0.010580 -0.002585 -0.002110 0.000000 0.010330 0.000000
# 2 -0.002585 0.011758 0.001178 0.000000 -0.000894 0.000000
# 3 -0.002110 0.001178 0.015369 0.000000 0.014727 0.000000
# 4 0.000000 0.000000 0.000000 0.076755 0.000000 0.007486
# 5 0.010330 -0.000894 0.014727 0.000000 0.056450 0.000000
# 6 0.000000 0.000000 0.000000 0.007486 0.000000 0.042737
#
#
# Mechanical properties :
#
#
# Convention : Reuss Voigt Hill
#
# Bulk Modulus (GPa) = 32.60355 59.08939 45.84647
# Shear Modulus (GPa) = 21.65366 32.91870 27.28618
#
# Velocity S-wave (km/s) = 3.05966 3.77250 3.43462
# Velocity P-wave (km/s) = 5.15534 6.67247 5.96235
#
# Compressibility (1/GPa) = 0.03067150
#
# Stress axis : x y z
#
# Youngs Moduli (GPa) = 94.51897 85.05062 65.06685
#
# Poissons Ratio (x) = 0.21989 0.13732
# Poissons Ratio (y) = 0.24437 -0.07667
# Poissons Ratio (z) = 0.19947 -0.10022
#
# Static dielectric constant tensor:
#      x y z
#    x 2.066900 0.000000 0.065560 
#    y 0.000000 1.864900 0.000000 
#    z 0.065560 0.000000 1.902510 
# 
# From -- ./inp_files/308356.got.cif
#   From: 2010.05.17/outbox.cif.g08.bks.cpg/sg12_155_cif.got.tgz:308356.got - 2010.06.03 13:09:07.
