data_PCOD9180390
_publ_section_title
;
Structure prediction by ZEFSAII (Michael W. Deem and Ramdas Pophale) SiO2 
 PCOD9180390
Probable space group: C 2/M
;
_chemical_formula_sum "Si O2"
_cell_formula_units_Z 56
_cell_length_a 32.357479
_cell_length_b 7.382848
_cell_length_c 12.401639
_cell_angle_alpha 90.000000
_cell_angle_beta 56.067988
_cell_angle_gamma 90.000000
_cell_volume 2458.097248
_symmetry_space_group_name_H-M "C 2/M"
_symmetry_group_IT_number 12
_symmetry_cell_setting 'monoclinic'
loop_
_space_group_symop_operation_xyz
x,y,z
-x,y,-z
-x,-y,-z
x,-y,z
1/2+x,1/2+y,z
1/2-x,1/2+y,-z
1/2-x,1/2-y,-z
1/2+x,1/2-y,z
loop_
_atom_site_type_symbol
_atom_site_label
_atom_site_fract_x
_atom_site_fract_y
_atom_site_fract_z
Si Si1 0.326752 0.208434 0.138928
Si Si2 0.398219 0.779037 0.409737
Si Si3 0.586108 0.221351 0.142052
Si Si4 0.507610 0.779146 0.865800
Si Si5 0.616152 0.778644 0.331858
Si Si6 0.808244 0.716841 0.400881
Si Si7 0.769397 0.285441 0.851144
O O1 0.326180 0.289636 0.258863
O O2 0.271226 0.210508 0.172138
O O3 0.342653 0.000000 0.129146
O O4 0.364969 0.283400 0.995090
O O5 0.440895 0.721949 0.264502
O O6 0.406225 0.721079 0.521205
O O7 0.344402 0.720153 0.443395
O O8 0.398852 0.000000 0.410294
O O9 0.537876 0.276017 0.144865
O O10 0.589372 0.280834 0.261255
O O11 0.586422 0.000000 0.144982
O O12 0.507843 0.000000 0.867944
O O13 0.500000 0.719140 0.000000
O O14 0.674080 0.720948 0.243180
O O15 0.616051 0.000000 0.330718
O O16 0.813641 0.500000 0.389992
O O17 0.750000 0.750000 0.500000
O O18 0.770219 0.500000 0.831909
O O19 0.750000 0.250000 0.000000
#
# Coordination Sequence:
#
# PCOD9180390 Si02
#       7
#     8   8   8   8   8   8   8
#     4  10  19  32  49  71 100 133 168 207 253 299
#     4   9  17  29  44  67  97 129 164 202 250 298
#     4   9  16  27  43  65  93 125 162 204 250 298
#     4   9  16  26  42  64  92 127 165 204 249 298
#     4   9  17  28  43  64  95 129 159 199 249 297
#     4  10  20  33  50  71 100 134 169 210 251 299
#     4  11  20  32  50  73 103 136 168 205 249 298
#
# _framework density 22.781846999999999
#
# number of rings (size 3 to 8) (size 9 to 14) (size 15 to 20)
#    0.000    2.429    1.429    2.143    0.000    5.714 
#    0.000    2.857    0.000    0.000    0.000    1.000 
#    0.000    4.571    0.000    0.000    0.000    0.000 
#
# Total GULP energy -156462.719260 kJ/mol
# GULP energy per Si atom -5587.954259 kJ/mol
# Density = 2.272999 g / cm^3
# Si number density = 22.781847 Si / 1000 Ang^3
#
#
#
# Elastic Constant Matrix: (Units=GPa)
#
#
# Indices 1 2 3 4 5 6 
#
# 1 166.7343 -2.7072 93.6031 0.0000 19.6903 0.0000
# 2 -2.7072 78.1659 3.0916 0.0000 2.2207 0.0000
# 3 93.6031 3.0916 183.1741 0.0000 27.2277 0.0000
# 4 0.0000 0.0000 0.0000 -2.2141 0.0000 -6.4375
# 5 19.6903 2.2207 27.2277 0.0000 42.1143 0.0000
# 6 0.0000 0.0000 0.0000 -6.4375 0.0000 6.8481
#
#
#
# Elastic Compliance Matrix: (Units=1/GPa)
#
#
# Indices 1 2 3 4 5 6 
#
# 1 0.008492 0.000496 -0.004153 0.000000 -0.001312 0.000000
# 2 0.000496 0.012844 -0.000371 0.000000 -0.000669 0.000000
# 3 -0.004153 -0.000371 0.008072 0.000000 -0.003257 0.000000
# 4 0.000000 0.000000 0.000000 -0.120982 0.000000 -0.113729
# 5 -0.001312 -0.000669 -0.003257 0.000000 0.026499 0.000000
# 6 0.000000 0.000000 0.000000 -0.113729 0.000000 0.039116
#
#
# Mechanical properties :
#
#
# Convention : Reuss Voigt Hill
#
# Bulk Modulus (GPa) = 46.83313 68.44993 57.64153
# Shear Modulus (GPa) = -463.58416 31.62210 -215.98103
#
# Velocity S-wave (km/s) = -14.28041 3.72968 -9.74730
# Velocity P-wave (km/s) = 15.85260 6.97556 10.06595
#
# Compressibility (1/GPa) = 0.02135240
#
# Stress axis : x y z
#
# Youngs Moduli (GPa) = 117.76008 77.85653 123.88744
#
# Poissons Ratio (x) = -0.03859 0.51448
# Poissons Ratio (y) = -0.05836 0.04590
# Poissons Ratio (z) = 0.48903 0.02885
#
# Static dielectric constant tensor:
#      x y z
#    x 1.800590 0.000000 0.007050 
#    y 0.000000 1.727390 0.000000 
#    z 0.007050 0.000000 1.819850 
# 
# From -- ./inp_files/181938.got.cif
#   From: 2010.05.17/outbox.cif.g08.bks.cpg/sg12_91_cif.got.tgz:181938.got - 2010.06.03 13:09:07.
