data_PCOD9180691
_publ_section_title
;
Structure prediction by ZEFSAII (Michael W. Deem and Ramdas Pophale) SiO2 
 PCOD9180691
Probable space group: C 2/M
;
_chemical_formula_sum "Si O2"
_cell_formula_units_Z 56
_cell_length_a 29.938025
_cell_length_b 7.452175
_cell_length_c 15.024646
_cell_angle_alpha 90.000000
_cell_angle_beta 58.216197
_cell_angle_gamma 90.000000
_cell_volume 2849.381712
_symmetry_space_group_name_H-M "C 2/M"
_symmetry_group_IT_number 12
_symmetry_cell_setting 'monoclinic'
loop_
_space_group_symop_operation_xyz
x,y,z
-x,y,-z
-x,-y,-z
x,-y,z
1/2+x,1/2+y,z
1/2-x,1/2+y,-z
1/2-x,1/2-y,-z
1/2+x,1/2-y,z
loop_
_atom_site_type_symbol
_atom_site_label
_atom_site_fract_x
_atom_site_fract_y
_atom_site_fract_z
Si Si1 0.576327 0.784428 0.668923
Si Si2 0.056706 0.220481 0.400221
Si Si3 0.456084 0.709510 0.977808
Si Si4 0.128141 0.716799 0.795736
Si Si5 0.959101 0.203878 0.776923
Si Si6 0.850644 0.790412 0.569131
Si Si7 0.757608 0.284229 0.386594
O O1 0.590503 0.728222 0.753695
O O2 0.521748 0.702413 0.695591
O O3 0.622477 0.726252 0.555465
O O4 0.572032 0.000000 0.670498
O O5 0.062947 0.281916 0.291552
O O6 0.105753 0.282340 0.408545
O O7 0.000000 0.275701 0.500000
O O8 0.055973 0.000000 0.401189
O O9 0.470424 0.500000 0.950721
O O10 0.400099 0.722183 0.085084
O O11 0.500000 0.786529 0.000000
O O12 0.453509 0.788114 0.880934
O O13 0.129203 0.500000 0.795795
O O14 0.186594 0.780232 0.710023
O O15 0.938650 0.000000 0.804291
O O16 0.792345 0.714298 0.616785
O O17 0.844757 0.000000 0.598131
O O18 0.757952 0.500000 0.377967
O O19 0.750000 0.250000 0.500000
#
# Coordination Sequence:
#
# PCOD9180691 Si02
#       7
#     8   8   8   8   8   8   8
#     4  11  20  29  46  73 104 131 159 195 240 292
#     4   9  16  28  50  75  96 125 163 200 242 286
#     4  10  20  32  50  74  96 124 164 205 242 283
#     4  10  21  34  47  69 102 133 160 194 241 296
#     4  10  19  33  50  71 101 129 162 203 240 288
#     4  10  19  32  51  72  97 132 167 198 236 286
#     4  10  20  33  50  73  99 129 164 200 241 288
#
# _framework density 19.653386000000001
#
# number of rings (size 3 to 8) (size 9 to 14) (size 15 to 20)
#    0.000    2.000    4.286    0.429    0.000    2.000 
#    0.000    1.429    0.000    0.857    0.000    0.000 
#    0.000    0.000    0.000    0.000    0.000    0.000 
#
# Total GULP energy -156228.847289 kJ/mol
# GULP energy per Si atom -5579.601689 kJ/mol
# Density = 1.960865 g / cm^3
# Si number density = 19.653386 Si / 1000 Ang^3
#
#
#
# Elastic Constant Matrix: (Units=GPa)
#
#
# Indices 1 2 3 4 5 6 
#
# 1 119.9413 11.5585 46.3513 0.0000 8.9510 0.0000
# 2 11.5585 61.4844 -5.2963 0.0000 2.2431 0.0000
# 3 46.3513 -5.2963 102.1514 0.0000 9.3467 0.0000
# 4 0.0000 0.0000 0.0000 8.2930 0.0000 -3.2532
# 5 8.9510 2.2431 9.3467 0.0000 38.1606 0.0000
# 6 0.0000 0.0000 0.0000 -3.2532 0.0000 0.8079
#
#
#
# Elastic Compliance Matrix: (Units=1/GPa)
#
#
# Indices 1 2 3 4 5 6 
#
# 1 0.010496 -0.002343 -0.004778 0.000000 -0.001154 0.000000
# 2 -0.002343 0.016914 0.002026 0.000000 -0.000941 -0.000001
# 3 -0.004778 0.002026 0.012245 0.000000 -0.001998 0.000000
# 4 0.000000 0.000000 0.000000 -0.208020 0.000000 -0.837680
# 5 -0.001154 -0.000941 -0.001998 0.000000 0.027020 0.000000
# 6 0.000000 -0.000001 0.000000 -0.837680 0.000000 -2.135423
#
#
# Mechanical properties :
#
#
# Convention : Reuss Voigt Hill
#
# Bulk Modulus (GPa) = 33.93889 43.20045 38.56967
# Shear Modulus (GPa) = -2.21557 24.84988 11.31715
#
# Velocity S-wave (km/s) = -1.06291 3.55971 2.40226
# Velocity P-wave (km/s) = 3.97490 6.23893 5.23087
#
# Compressibility (1/GPa) = 0.02946472
#
# Stress axis : x y z
#
# Youngs Moduli (GPa) = 95.27539 59.12427 81.66322
#
# Poissons Ratio (x) = 0.13851 0.39022
# Poissons Ratio (y) = 0.22320 -0.16545
# Poissons Ratio (z) = 0.45526 -0.11979
#
# Static dielectric constant tensor:
#      x y z
#    x 1.701360 0.000000 0.015480 
#    y 0.000000 1.749850 0.000000 
#    z 0.015480 0.000000 1.673260 
# 
# From -- ./inp_files/237439.got.cif
#   From: 2010.05.17/outbox.cif.g08.bks.cpg/sg12_119_cif.got.tgz:237439.got - 2010.06.03 13:09:07.
