data_PCOD9180902
_publ_section_title
;
Structure prediction by ZEFSAII (Michael W. Deem and Ramdas Pophale) SiO2 
 PCOD9180902
Probable space group: C 2/M
;
_chemical_formula_sum "Si O2"
_cell_formula_units_Z 64
_cell_length_a 17.628656
_cell_length_b 14.240828
_cell_length_c 20.456144
_cell_angle_alpha 90.000000
_cell_angle_beta 131.961811
_cell_angle_gamma 90.000000
_cell_volume 3818.670074
_symmetry_space_group_name_H-M "C 2/M"
_symmetry_group_IT_number 12
_symmetry_cell_setting 'monoclinic'
loop_
_space_group_symop_operation_xyz
x,y,z
-x,y,-z
-x,-y,-z
x,-y,z
1/2+x,1/2+y,z
1/2-x,1/2+y,-z
1/2-x,1/2-y,-z
1/2+x,1/2-y,z
loop_
_atom_site_type_symbol
_atom_site_label
_atom_site_fract_x
_atom_site_fract_y
_atom_site_fract_z
Si Si1 0.943792 0.391622 0.398135
Si Si2 0.414385 0.768480 0.860987
Si Si3 0.650940 0.238229 0.031606
Si Si4 0.704223 0.393806 0.281423
Si Si5 0.800497 0.610068 0.060185
Si Si6 0.299146 0.392500 0.563934
Si Si7 0.038227 0.391055 0.230130
Si Si8 0.595028 0.204481 0.395214
O O1 0.961932 0.500000 0.387873
O O2 0.823753 0.377959 0.336565
O O3 0.000000 0.379451 0.500000
O O4 0.993563 0.322846 0.374968
O O5 0.356667 0.785462 0.896131
O O6 0.362420 0.682271 0.793872
O O7 0.417115 0.856441 0.813271
O O8 0.533173 0.745177 0.943307
O O9 0.721011 0.328292 0.056094
O O10 0.693139 0.155779 0.008722
O O11 0.678506 0.500000 0.245458
O O12 0.691934 0.389212 0.352476
O O13 0.774392 0.500000 0.043238
O O14 0.915220 0.618818 0.155070
O O15 0.315679 0.500000 0.552274
O O16 0.374990 0.313164 0.580673
O O17 0.186667 0.357443 0.478656
O O18 0.061684 0.500000 0.256320
O O19 0.081557 0.326272 0.312537
#
# Coordination Sequence:
#
# PCOD9180902 Si02
#       8
#     8   8   8   8   8   8   8   8
#     4  10  19  32  51  77 106 135 173 217 261 309
#     4  10  20  36  52  76 105 138 173 214 267 314
#     4   9  20  36  55  74 105 138 171 214 263 323
#     4  10  20  34  52  77 107 137 175 219 261 311
#     4   9  19  36  56  79 104 134 172 216 264 315
#     4  10  20  35  55  80 108 142 180 211 256 314
#     4  10  20  33  53  81 106 133 177 222 261 309
#     4  11  20  33  55  81 109 142 172 219 266 302
#
# _framework density 16.759761000000001
#
# number of rings (size 3 to 8) (size 9 to 14) (size 15 to 20)
#    0.000    2.125    2.500    1.125    1.750    1.500 
#    0.000    3.750    0.000    1.125    0.000    0.000 
#    0.000    0.000    0.000    0.000    0.000    0.000 
#
# Total GULP energy -178463.084940 kJ/mol
# GULP energy per Si atom -5576.971404 kJ/mol
# Density = 1.672161 g / cm^3
# Si number density = 16.759761 Si / 1000 Ang^3
#
#
#
# Elastic Constant Matrix: (Units=GPa)
#
#
# Indices 1 2 3 4 5 6 
#
# 1 61.4271 17.9569 -9.7540 0.0000 -7.0500 0.0000
# 2 17.9569 93.5355 13.0564 0.0000 2.9245 0.0000
# 3 -9.7540 13.0564 35.7245 0.0000 -9.5944 0.0000
# 4 0.0000 0.0000 0.0000 23.2130 0.0000 3.2392
# 5 -7.0500 2.9245 -9.5944 0.0000 14.1556 0.0000
# 6 0.0000 0.0000 0.0000 3.2392 0.0000 20.4976
#
#
#
# Elastic Compliance Matrix: (Units=1/GPa)
#
#
# Indices 1 2 3 4 5 6 
#
# 1 0.023697 -0.007480 0.015634 0.000000 0.023944 0.000000
# 2 -0.007480 0.014099 -0.010976 0.000000 -0.014078 0.000000
# 3 0.015634 -0.010976 0.047645 0.000000 0.042347 0.000000
# 4 0.000000 0.000000 0.000000 0.044051 0.000000 -0.006961
# 5 0.023944 -0.014078 0.042347 0.000000 0.114179 0.000000
# 6 0.000000 0.000000 0.000000 -0.006961 0.000000 0.049886
#
#
# Mechanical properties :
#
#
# Convention : Reuss Voigt Hill
#
# Bulk Modulus (GPa) = 12.53175 25.91174 19.22174
# Shear Modulus (GPa) = 15.34681 22.86843 19.10762
#
# Velocity S-wave (km/s) = 3.02933 3.69790 3.38018
# Velocity P-wave (km/s) = 4.44176 5.80748 5.16992
#
# Compressibility (1/GPa) = 0.07979732
#
# Stress axis : x y z
#
# Youngs Moduli (GPa) = 42.19976 70.92460 20.98850
#
# Poissons Ratio (x) = 0.53054 -0.32814
# Poissons Ratio (y) = 0.31567 0.23037
# Poissons Ratio (z) = -0.65977 0.77848
#
# Static dielectric constant tensor:
#      x y z
#    x 1.561570 0.000000 -0.010610 
#    y 0.000000 1.551030 0.000000 
#    z -0.010610 0.000000 1.564910 
# 
# From -- ./inp_files/224749.got.cif
#   From: 2010.05.17/outbox.cif.g08.bks.cpg/sg12_113_cif.got.tgz:224749.got - 2010.06.03 13:09:07.
