data_PCOD9180550
_publ_section_title
;
Structure prediction by ZEFSAII (Michael W. Deem and Ramdas Pophale) SiO2 
 PCOD9180550
Probable space group: C 2/M
;
_chemical_formula_sum "Si O2"
_cell_formula_units_Z 58
_cell_length_a 23.830190
_cell_length_b 7.900187
_cell_length_c 12.421730
_cell_angle_alpha 90.000000
_cell_angle_beta 109.133176
_cell_angle_gamma 90.000000
_cell_volume 2209.368359
_symmetry_space_group_name_H-M "C 2/M"
_symmetry_group_IT_number 12
_symmetry_cell_setting 'monoclinic'
loop_
_space_group_symop_operation_xyz
x,y,z
-x,y,-z
-x,-y,-z
x,-y,z
1/2+x,1/2+y,z
1/2-x,1/2+y,-z
1/2-x,1/2-y,-z
1/2+x,1/2-y,z
loop_
_atom_site_type_symbol
_atom_site_label
_atom_site_fract_x
_atom_site_fract_y
_atom_site_fract_z
Si Si1 0.825991 0.694696 0.104621
Si Si2 0.183007 0.195000 0.550627
Si Si3 0.495753 0.199287 0.747856
Si Si4 0.423114 0.684966 0.013426
Si Si5 0.500000 0.000000 0.000000
Si Si6 0.362055 0.701558 0.694639
Si Si7 0.415329 0.805087 0.366915
Si Si8 0.232083 0.702210 0.210009
O O1 0.823359 0.500000 0.069331
O O2 0.859037 0.793298 0.030403
O O3 0.872114 0.707062 0.234832
O O4 0.763660 0.745423 0.119335
O O5 0.178621 0.271138 0.429313
O O6 0.117007 0.201452 0.561159
O O7 0.225283 0.275041 0.667420
O O8 0.200844 0.000000 0.551657
O O9 0.531785 0.309847 0.855366
O O10 0.426649 0.224639 0.716548
O O11 0.520879 0.235324 0.644439
O O12 0.509831 0.000000 0.784931
O O13 0.427488 0.500000 0.962799
O O14 0.448015 0.848718 0.967178
O O15 0.365492 0.500000 0.684621
O O16 0.332195 0.741736 0.789706
O O17 0.416513 0.000000 0.403848
O O18 0.234010 0.500000 0.212233
#
# Coordination Sequence:
#
# PCOD9180550 Si02
#       8
#     8   8   8   8   2   8   8   8
#     4   9  16  32  53  78 111 143 177 228 273 320
#     4   9  19  32  46  67 100 137 186 246 293 329
#     4  10  20  37  53  74 109 145 183 230 274 334
#     4  11  21  37  62  91 123 151 175 215 272 330
#     4  12  22  40  60  98 128 142 174 212 276 334
#     4  11  22  33  46  70 102 144 193 239 288 336
#     4   8  16  29  49  69  94 137 180 224 282 330
#     4  10  19  32  50  73 100 141 194 243 290 324
#
# _framework density 26.251844999999999
#
# number of rings (size 3 to 8) (size 9 to 14) (size 15 to 20)
#    0.000    2.207    1.379    3.103    0.000    6.069 
#    0.000    2.759    0.000    0.000    0.000    0.966 
#    0.000    0.000    0.000    0.000    0.000    0.000 
#
# Total GULP energy -162107.324819 kJ/mol
# GULP energy per Si atom -5589.907752 kJ/mol
# Density = 2.619209 g / cm^3
# Si number density = 26.251845 Si / 1000 Ang^3
#
#
#
# Elastic Constant Matrix: (Units=GPa)
#
#
# Indices 1 2 3 4 5 6 
#
# 1 210.2532 38.3469 34.3459 0.0000 -25.5917 0.0000
# 2 38.3469 120.6095 13.4270 0.0000 -19.7948 0.0000
# 3 34.3459 13.4270 112.5470 0.0000 -20.0852 0.0000
# 4 0.0000 0.0000 0.0000 15.0818 0.0000 -9.3858
# 5 -25.5917 -19.7948 -20.0852 0.0000 34.2272 0.0000
# 6 0.0000 0.0000 0.0000 -9.3858 0.0000 41.0158
#
#
#
# Elastic Compliance Matrix: (Units=1/GPa)
#
#
# Indices 1 2 3 4 5 6 
#
# 1 0.005480 -0.001165 -0.001030 0.000000 0.002819 0.000000
# 2 -0.001165 0.009411 0.000054 0.000000 0.004604 0.000000
# 3 -0.001030 0.000054 0.010121 0.000000 0.005200 0.000000
# 4 0.000000 0.000000 0.000000 0.077316 0.000000 0.017693
# 5 0.002819 0.004604 0.005200 0.000000 0.037038 0.000000
# 6 0.000000 0.000000 0.000000 0.017693 0.000000 0.028430
#
#
# Mechanical properties :
#
#
# Convention : Reuss Voigt Hill
#
# Bulk Modulus (GPa) = 48.23807 68.40549 58.32178
# Shear Modulus (GPa) = 27.93480 41.88429 34.90954
#
# Velocity S-wave (km/s) = 3.26561 3.99868 3.65059
# Velocity P-wave (km/s) = 5.71261 6.88718 6.32721
#
# Compressibility (1/GPa) = 0.02073051
#
# Stress axis : x y z
#
# Youngs Moduli (GPa) = 182.47898 106.25724 98.80294
#
# Poissons Ratio (x) = 0.12379 0.10179
# Poissons Ratio (y) = 0.21258 -0.00537
# Poissons Ratio (z) = 0.18800 -0.00577
#
# Static dielectric constant tensor:
#      x y z
#    x 2.146930 0.000000 -0.078020 
#    y 0.000000 1.954820 0.000000 
#    z -0.078020 0.000000 2.572870 
# 
# From -- ./inp_files/237728.got.cif
#   From: 2010.05.17/outbox.cif.g08.bks.cpg/sg12_119_cif.got.tgz:237728.got - 2010.06.03 13:09:07.
