data_PCOD9180209
_publ_section_title
;
Structure prediction by ZEFSAII (Michael W. Deem and Ramdas Pophale) SiO2 
 PCOD9180209
Probable space group: C 2/M
;
_chemical_formula_sum "Si O2"
_cell_formula_units_Z 64
_cell_length_a 18.777745
_cell_length_b 19.665182
_cell_length_c 19.285611
_cell_angle_alpha 90.000000
_cell_angle_beta 151.120479
_cell_angle_gamma 90.000000
_cell_volume 3439.493239
_symmetry_space_group_name_H-M "C 2/M"
_symmetry_group_IT_number 12
_symmetry_cell_setting 'monoclinic'
loop_
_space_group_symop_operation_xyz
x,y,z
-x,y,-z
-x,-y,-z
x,-y,z
1/2+x,1/2+y,z
1/2-x,1/2+y,-z
1/2-x,1/2-y,-z
1/2+x,1/2-y,z
loop_
_atom_site_type_symbol
_atom_site_label
_atom_site_fract_x
_atom_site_fract_y
_atom_site_fract_z
Si Si1 0.253605 0.359460 0.961619
Si Si2 0.882754 0.287408 0.029474
Si Si3 0.893078 0.377921 0.305890
Si Si4 0.215915 0.379410 0.637476
Si Si5 0.288152 0.217798 0.708816
Si Si6 0.323026 0.685925 0.522672
Si Si7 0.949544 0.076250 0.734866
Si Si8 0.868805 0.214987 0.288808
O O1 0.339361 0.290063 0.012556
O O2 0.381485 0.403376 0.106565
O O3 0.133839 0.332587 0.915256
O O4 0.177681 0.393818 0.829384
O O5 0.040095 0.285266 0.126608
O O6 0.757398 0.310942 0.869869
O O7 0.814972 0.402685 0.309922
O O8 0.869702 0.296724 0.291393
O O9 0.066934 0.392357 0.465493
O O10 0.246344 0.297503 0.660351
O O11 0.357129 0.416143 0.726824
O O12 0.279948 0.174807 0.631224
O O13 0.176754 0.192773 0.673019
O O14 0.250000 0.750000 0.500000
O O15 0.363732 0.627661 0.611004
O O16 0.476448 0.699673 0.614062
O O17 0.941855 0.000000 0.701551
#
# Coordination Sequence:
#
# PCOD9180209 Si02
#       8
#     8   8   8   8   8   8   8   8
#     4  10  20  35  54  82 115 155 198 240 291 353
#     4  10  19  31  56  88 118 146 191 249 305 346
#     4   9  19  32  58  83 120 152 197 243 292 345
#     4  10  19  36  53  87 120 157 190 243 296 352
#     4  11  20  31  59  89 123 147 190 249 312 355
#     4  12  21  36  62  89 118 154 201 249 302 349
#     4  12  25  41  58  83 121 166 204 243 298 360
#     4  10  19  33  52  91 124 150 185 247 308 359
#
# _framework density 18.607392999999998
#
# number of rings (size 3 to 8) (size 9 to 14) (size 15 to 20)
#    0.000    1.500    5.000    0.750    5.250    0.500 
#    0.000    3.125    0.000    1.500    0.000    0.875 
#    0.000    0.000    0.000    0.000    0.000    0.000 
#
# Total GULP energy -178323.552128 kJ/mol
# GULP energy per Si atom -5572.611004 kJ/mol
# Density = 1.856504 g / cm^3
# Si number density = 18.607393 Si / 1000 Ang^3
#
#
#
# Elastic Constant Matrix: (Units=GPa)
#
#
# Indices 1 2 3 4 5 6 
#
# 1 102.6365 20.1906 31.5525 0.0020 12.5597 0.0021
# 2 20.1906 50.7678 22.4799 -0.0040 -4.9346 -0.0038
# 3 31.5525 22.4799 86.6487 0.0025 5.4097 0.0017
# 4 0.0020 -0.0040 0.0025 10.2274 -0.0037 -1.5446
# 5 12.5597 -4.9346 5.4097 -0.0037 38.5571 -0.0026
# 6 0.0021 -0.0038 0.0017 -1.5446 -0.0026 2.7564
#
#
#
# Elastic Compliance Matrix: (Units=1/GPa)
#
#
# Indices 1 2 3 4 5 6 
#
# 1 0.011919 -0.003738 -0.003126 -0.000007 -0.003922 -0.000020
# 2 -0.003738 0.023959 -0.005168 0.000022 0.005009 0.000056
# 3 -0.003126 -0.005168 0.014121 -0.000008 -0.001624 -0.000020
# 4 -0.000007 0.000022 -0.000008 0.106817 0.000021 0.059857
# 5 -0.003922 0.005009 -0.001624 0.000021 0.028082 0.000049
# 6 -0.000020 0.000056 -0.000020 0.059857 0.000049 0.396338
#
#
# Mechanical properties :
#
#
# Convention : Reuss Voigt Hill
#
# Bulk Modulus (GPa) = 38.55393 43.16655 40.86024
# Shear Modulus (GPa) = 8.14406 21.36351 14.75379
#
# Velocity S-wave (km/s) = 2.09435 3.39207 2.81890
# Velocity P-wave (km/s) = 5.15878 6.21212 5.70979
#
# Compressibility (1/GPa) = 0.02593769
#
# Stress axis : x y z
#
# Youngs Moduli (GPa) = 83.89770 41.73795 70.81575
#
# Poissons Ratio (x) = 0.15600 0.22135
# Poissons Ratio (y) = 0.31357 0.36595
# Poissons Ratio (z) = 0.26225 0.21568
#
# Static dielectric constant tensor:
#      x y z
#    x 1.711000 0.000000 -0.019050 
#    y 0.000000 1.633080 0.000000 
#    z -0.019050 0.000000 1.693530 
# 
# From -- ./inp_files/279123.got.cif
#   From: 2010.05.17/outbox.cif.g08.bks.cpg/sg12_140_cif.got.tgz:279123.got - 2010.06.03 13:09:07.
