data_PCOD9180572
_publ_section_title
;
Structure prediction by ZEFSAII (Michael W. Deem and Ramdas Pophale) SiO2 
 PCOD9180572
Probable space group: C 2/M
;
_chemical_formula_sum "Si O2"
_cell_formula_units_Z 40
_cell_length_a 25.066702
_cell_length_b 8.823393
_cell_length_c 32.436429
_cell_angle_alpha 90.000000
_cell_angle_beta 19.687787
_cell_angle_gamma 90.000000
_cell_volume 2416.906601
_symmetry_space_group_name_H-M "C 2/M"
_symmetry_group_IT_number 12
_symmetry_cell_setting 'monoclinic'
loop_
_space_group_symop_operation_xyz
x,y,z
-x,y,-z
-x,-y,-z
x,-y,z
1/2+x,1/2+y,z
1/2-x,1/2+y,-z
1/2-x,1/2-y,-z
1/2+x,1/2-y,z
loop_
_atom_site_type_symbol
_atom_site_label
_atom_site_fract_x
_atom_site_fract_y
_atom_site_fract_z
Si Si1 0.078843 0.321504 0.174311
Si Si2 0.227709 0.180103 0.561234
Si Si3 0.412718 0.819371 0.930615
Si Si4 0.933591 0.183405 0.482946
Si Si5 0.242466 0.816064 0.304005
O O1 0.059482 0.500000 0.196115
O O2 0.066130 0.297779 0.134119
O O3 0.940632 0.232188 0.297646
O O4 0.253758 0.265665 0.059239
O O5 0.250000 0.250000 0.500000
O O6 0.360725 0.242723 0.495692
O O7 0.235462 0.000000 0.553553
O O8 0.576609 0.765667 0.831896
O O9 0.392955 0.000000 0.951769
O O10 0.827367 0.225513 0.600247
O O11 0.112754 0.229139 0.364508
O O12 0.927334 0.000000 0.483792
O O13 0.245462 0.000000 0.301707
#
# Coordination Sequence:
#
# PCOD9180572 Si02
#       5
#     8   8   8   8   8
#     4  10  19  32  50  74 104 136 172 211 253 301
#     4  12  24  37  53  73 101 137 175 216 257 303
#     4   9  16  29  50  77 107 137 167 204 250 303
#     4   9  16  31  52  76 103 135 172 207 249 301
#     4   8  14  27  52  78 105 137 166 202 250 306
#
# _framework density 16.550080999999999
#
# number of rings (size 3 to 8) (size 9 to 14) (size 15 to 20)
#    0.000    2.400    2.000    3.600    0.000    0.800 
#    0.000    3.000    0.000    1.200    0.000    8.400 
#    0.000    0.000    0.000    0.000    0.000    0.000 
#
# Total GULP energy -111516.028041 kJ/mol
# GULP energy per Si atom -5575.801402 kJ/mol
# Density = 1.651241 g / cm^3
# Si number density = 16.550081 Si / 1000 Ang^3
#
#
#
# Elastic Constant Matrix: (Units=GPa)
#
#
# Indices 1 2 3 4 5 6 
#
# 1 124.3006 51.8235 63.9266 -0.0023 -24.8818 0.0019
# 2 51.8235 68.3760 41.4508 -0.0049 -4.3238 0.0142
# 3 63.9266 41.4508 76.9739 0.0076 -33.7049 0.0070
# 4 -0.0023 -0.0049 0.0076 25.4366 0.0012 -3.3803
# 5 -24.8818 -4.3238 -33.7049 0.0012 33.0139 -0.0029
# 6 0.0019 0.0142 0.0070 -3.3803 -0.0029 23.7854
#
#
#
# Elastic Compliance Matrix: (Units=1/GPa)
#
#
# Indices 1 2 3 4 5 6 
#
# 1 0.015547 -0.006573 -0.008352 0.000003 0.002330 0.000006
# 2 -0.006573 0.030882 -0.020923 0.000011 -0.022270 -0.000013
# 3 -0.008352 -0.020923 0.049260 -0.000021 0.041256 0.000001
# 4 0.000003 0.000011 -0.000021 0.040070 -0.000019 0.005695
# 5 0.002330 -0.022270 0.041256 -0.000019 0.071249 0.000007
# 6 0.000006 -0.000013 0.000001 0.005695 0.000007 0.042852
#
#
# Mechanical properties :
#
#
# Convention : Reuss Voigt Hill
#
# Bulk Modulus (GPa) = 41.67878 64.89472 53.28675
# Shear Modulus (GPa) = 15.17197 23.94381 19.55789
#
# Velocity S-wave (km/s) = 3.03104 3.80774 3.44137
# Velocity P-wave (km/s) = 6.12272 7.65690 6.93238
#
# Compressibility (1/GPa) = 0.02399303
#
# Stress axis : x y z
#
# Youngs Moduli (GPa) = 64.32011 32.38082 20.30042
#
# Poissons Ratio (x) = 0.21284 0.16956
# Poissons Ratio (y) = 0.42277 0.42475
# Poissons Ratio (z) = 0.53722 0.67751
#
# Static dielectric constant tensor:
#      x y z
#    x 1.548980 0.000000 -0.033080 
#    y 0.000000 1.554740 0.000010 
#    z -0.033080 0.000010 1.557930 
# 
# From -- ./inp_files/162395.got.cif
#   From: 2010.05.17/outbox.cif.g08.bks.cpg/sg12_82_cif.got.tgz:162395.got - 2010.06.03 13:09:07.
