data_PCOD9180471
_publ_section_title
;
Structure prediction by ZEFSAII (Michael W. Deem and Ramdas Pophale) SiO2 
 PCOD9180471
Probable space group: C 2/M
;
_chemical_formula_sum "Si O2"
_cell_formula_units_Z 44
_cell_length_a 18.158473
_cell_length_b 8.405703
_cell_length_c 11.571033
_cell_angle_alpha 90.000000
_cell_angle_beta 108.951954
_cell_angle_gamma 90.000000
_cell_volume 1670.401189
_symmetry_space_group_name_H-M "C 2/M"
_symmetry_group_IT_number 12
_symmetry_cell_setting 'monoclinic'
loop_
_space_group_symop_operation_xyz
x,y,z
-x,y,-z
-x,-y,-z
x,-y,z
1/2+x,1/2+y,z
1/2-x,1/2+y,-z
1/2-x,1/2-y,-z
1/2+x,1/2-y,z
loop_
_atom_site_type_symbol
_atom_site_label
_atom_site_fract_x
_atom_site_fract_y
_atom_site_fract_z
Si Si1 0.601173 0.329582 0.096592
Si Si2 0.104580 0.500000 0.845795
Si Si3 0.374695 0.323670 0.521977
Si Si4 0.246168 0.821381 0.325770
Si Si5 0.909920 0.500000 0.875732
Si Si6 0.565299 0.000000 0.353777
Si Si7 0.825538 0.819277 0.103028
O O1 0.575145 0.500000 0.129929
O O2 0.689026 0.298270 0.188451
O O3 0.555141 0.176279 0.112282
O O4 0.609803 0.339752 0.964750
O O5 0.143627 0.661613 0.817953
O O6 0.017351 0.500000 0.753218
O O7 0.114414 0.500000 0.995935
O O8 0.412090 0.500000 0.536892
O O9 0.315533 0.299157 0.385198
O O10 0.315610 0.320952 0.600509
O O11 0.424422 0.163181 0.568561
O O12 0.278331 0.000000 0.342604
O O13 0.872896 0.500000 0.725075
O O14 0.811548 0.000000 0.140977
O O15 0.750000 0.750000 0.000000
#
# Coordination Sequence:
#
# PCOD9180471 Si02
#       7
#     8   4   8   8   4   4   8
#     4   9  18  29  48  76 104 129 165 211 255 298
#     4  10  23  36  52  77 102 135 175 206 254 313
#     4  10  20  29  45  68 101 140 177 208 241 286
#     4   9  16  29  45  70 100 135 174 209 246 286
#     4  10  19  32  50  70 102 143 173 203 241 297
#     4  12  21  34  48  71 108 148 173 201 245 299
#     4  10  19  36  57  79 101 123 162 219 265 303
#
# _framework density 26.340975
#
# number of rings (size 3 to 8) (size 9 to 14) (size 15 to 20)
#    0.000    2.182    3.636    0.273    2.545    0.727 
#    0.000    0.000    0.000    5.455    0.000    2.545 
#    0.000    2.909    0.000    0.000    0.000    0.000 
#
# Total GULP energy -122524.590096 kJ/mol
# GULP energy per Si atom -5569.299550 kJ/mol
# Density = 2.628102 g / cm^3
# Si number density = 26.340975 Si / 1000 Ang^3
#
#
#
# Elastic Constant Matrix: (Units=GPa)
#
#
# Indices 1 2 3 4 5 6 
#
# 1 49.1052 47.5742 34.6543 0.0000 9.0212 0.0000
# 2 47.5742 322.0318 46.6016 0.0000 21.6227 0.0000
# 3 34.6543 46.6016 84.3287 0.0000 7.9899 0.0000
# 4 0.0000 0.0000 0.0000 27.6847 0.0000 -9.5410
# 5 9.0212 21.6227 7.9899 0.0000 36.4100 0.0000
# 6 0.0000 0.0000 0.0000 -9.5410 0.0000 12.9439
#
#
#
# Elastic Compliance Matrix: (Units=1/GPa)
#
#
# Indices 1 2 3 4 5 6 
#
# 1 0.031590 -0.002814 -0.011074 0.000000 -0.003726 0.000000
# 2 -0.002814 0.003723 -0.000774 0.000000 -0.001344 0.000000
# 3 -0.011074 -0.000774 0.016884 0.000000 -0.000502 0.000000
# 4 0.000000 0.000000 0.000000 0.048421 0.000000 0.035691
# 5 -0.003726 -0.001344 -0.000502 0.000000 0.029296 0.000000
# 6 0.000000 0.000000 0.000000 0.035691 0.000000 0.103564
#
#
# Mechanical properties :
#
#
# Convention : Reuss Voigt Hill
#
# Bulk Modulus (GPa) = 43.71678 79.23619 61.47649
# Shear Modulus (GPa) = 18.48925 37.18343 27.83634
#
# Velocity S-wave (km/s) = 2.65225 3.76123 3.25433
# Velocity P-wave (km/s) = 5.10017 7.00062 6.12456
#
# Compressibility (1/GPa) = 0.02287451
#
# Stress axis : x y z
#
# Youngs Moduli (GPa) = 31.65537 268.58308 59.22730
#
# Poissons Ratio (x) = 0.75586 0.65586
# Poissons Ratio (y) = 0.08909 0.04582
# Poissons Ratio (z) = 0.35054 0.20780
#
# Static dielectric constant tensor:
#      x y z
#    x 2.148020 0.000000 -0.065000 
#    y 0.000000 2.081480 0.000000 
#    z -0.065000 0.000000 2.143000 
# 
# From -- ./inp_files/237199.got.cif
#   From: 2010.05.17/outbox.cif.g08.bks.cpg/sg12_119_cif.got.tgz:237199.got - 2010.06.03 13:09:07.
