data_PCOD9180959
_publ_section_title
;
Structure prediction by ZEFSAII (Michael W. Deem and Ramdas Pophale) SiO2 
 PCOD9180959
Probable space group: C 2/M
;
_chemical_formula_sum "Si O2"
_cell_formula_units_Z 50
_cell_length_a 28.167807
_cell_length_b 11.611121
_cell_length_c 7.020569
_cell_angle_alpha 90.000000
_cell_angle_beta 56.142159
_cell_angle_gamma 90.000000
_cell_volume 1906.771203
_symmetry_space_group_name_H-M "C 2/M"
_symmetry_group_IT_number 12
_symmetry_cell_setting 'monoclinic'
loop_
_space_group_symop_operation_xyz
x,y,z
-x,y,-z
-x,-y,-z
x,-y,z
1/2+x,1/2+y,z
1/2-x,1/2+y,-z
1/2-x,1/2-y,-z
1/2+x,1/2-y,z
loop_
_atom_site_type_symbol
_atom_site_label
_atom_site_fract_x
_atom_site_fract_y
_atom_site_fract_z
Si Si1 0.954138 0.349759 0.444738
Si Si2 0.186538 0.125732 0.361696
Si Si3 0.134456 0.868215 0.875874
Si Si4 0.189111 0.374701 0.726724
Si Si5 0.996608 0.125327 0.780193
Si Si6 0.500000 0.000000 0.000000
Si Si7 0.323145 0.874346 0.705449
O O1 0.888879 0.379878 0.622345
O O2 0.000000 0.385584 0.500000
O O3 0.962592 0.215068 0.407544
O O4 0.973113 0.402207 0.201736
O O5 0.138250 0.134721 0.634773
O O6 0.245489 0.123335 0.352033
O O7 0.191739 0.239867 0.221372
O O8 0.179495 0.000000 0.284242
O O9 0.164366 0.746101 0.857370
O O10 0.155826 0.000000 0.874395
O O11 0.070986 0.857909 0.099887
O O12 0.162546 0.500000 0.844086
O O13 0.183640 0.374177 0.509832
O O14 0.014264 0.000000 0.679488
O O15 0.000000 0.132397 0.000000
O O16 0.297118 0.000000 0.825367
#
# Coordination Sequence:
#
# PCOD9180959 Si02
#       7
#     8   8   8   8   8   2   8
#     4  12  26  42  63  93 127 169 215 263 322 383
#     4   9  17  29  47  79 118 154 201 262 306 366
#     4   9  16  26  44  71 108 149 196 248 302 359
#     4   9  17  27  46  79 117 154 203 259 306 367
#     4  10  20  36  58  86 119 161 212 262 316 376
#     4  12  26  44  66  86 128 172 210 266 324 366
#     4  10  19  32  51  78 115 153 196 253 304 365
#
# _framework density 26.222339000000002
#
# number of rings (size 3 to 8) (size 9 to 14) (size 15 to 20)
#    0.000    2.080    1.600    4.080    0.000    4.160 
#    0.000    0.000    0.000    0.000    0.000    4.480 
#    0.000    6.400    0.000    0.000    0.000    0.000 
#
# Total GULP energy -139376.745354 kJ/mol
# GULP energy per Si atom -5575.069814 kJ/mol
# Density = 2.616266 g / cm^3
# Si number density = 26.222339 Si / 1000 Ang^3
#
#
#
# Elastic Constant Matrix: (Units=GPa)
#
#
# Indices 1 2 3 4 5 6 
#
# 1 76.4017 17.9235 13.4714 0.0000 -1.4275 0.0000
# 2 17.9235 300.2625 35.4505 0.0000 -18.4772 0.0000
# 3 13.4714 35.4505 78.5246 0.0000 9.5227 0.0000
# 4 0.0000 0.0000 0.0000 -12.4575 0.0000 -29.6356
# 5 -1.4275 -18.4772 9.5227 0.0000 27.9630 0.0000
# 6 0.0000 0.0000 0.0000 -29.6356 0.0000 12.6607
#
#
#
# Elastic Compliance Matrix: (Units=1/GPa)
#
#
# Indices 1 2 3 4 5 6 
#
# 1 0.013621 -0.000475 -0.002262 0.000000 0.001152 0.000000
# 2 -0.000475 0.003791 -0.002014 0.000000 0.003167 0.000000
# 3 -0.002262 -0.002014 0.014820 0.000000 -0.006493 0.000000
# 4 0.000000 0.000000 0.000000 -0.012221 0.000000 -0.028606
# 5 0.001152 0.003167 -0.006493 0.000000 0.040124 0.000000
# 6 0.000000 0.000000 0.000000 -0.028606 0.000000 0.012025
#
#
# Mechanical properties :
#
#
# Convention : Reuss Voigt Hill
#
# Bulk Modulus (GPa) = 43.99620 65.43105 54.71362
# Shear Modulus (GPa) = 56.02953 31.52280 43.77616
#
# Velocity S-wave (km/s) = 4.62747 3.47094 4.09029
# Velocity P-wave (km/s) = 6.73542 6.40858 6.57403
#
# Compressibility (1/GPa) = 0.02272923
#
# Stress axis : x y z
#
# Youngs Moduli (GPa) = 73.41870 263.74924 67.47782
#
# Poissons Ratio (x) = 0.12532 0.15262
# Poissons Ratio (y) = 0.03488 0.13592
# Poissons Ratio (z) = 0.16606 0.53126
#
# Static dielectric constant tensor:
#      x y z
#    x 2.053850 0.000000 0.005480 
#    y 0.000000 2.132180 0.000000 
#    z 0.005480 0.000000 1.981980 
# 
# From -- ./inp_files/109812.got.cif
#   From: 2010.05.17/outbox.cif.g08.bks.cpg/sg12_55_cif.got.tgz:109812.got - 2010.06.03 13:09:07.
