data_PCOD9180580
_publ_section_title
;
Structure prediction by ZEFSAII (Michael W. Deem and Ramdas Pophale) SiO2 
 PCOD9180580
Probable space group: C 2/M
;
_chemical_formula_sum "Si O2"
_cell_formula_units_Z 56
_cell_length_a 24.637366
_cell_length_b 28.768106
_cell_length_c 11.594757
_cell_angle_alpha 90.000000
_cell_angle_beta 159.479308
_cell_angle_gamma 90.000000
_cell_volume 2880.791030
_symmetry_space_group_name_H-M "C 2/M"
_symmetry_group_IT_number 12
_symmetry_cell_setting 'monoclinic'
loop_
_space_group_symop_operation_xyz
x,y,z
-x,y,-z
-x,-y,-z
x,-y,z
1/2+x,1/2+y,z
1/2-x,1/2+y,-z
1/2-x,1/2-y,-z
1/2+x,1/2-y,z
loop_
_atom_site_type_symbol
_atom_site_label
_atom_site_fract_x
_atom_site_fract_y
_atom_site_fract_z
Si Si1 0.077861 0.132906 0.353319
Si Si2 0.819476 0.947515 0.599010
Si Si3 0.715710 0.202485 0.367261
Si Si4 0.186946 0.679112 0.713170
Si Si5 0.655311 0.671246 0.746465
Si Si6 0.279724 0.875045 0.433996
Si Si7 0.391152 0.764899 0.079576
O O1 0.174411 0.089794 0.492486
O O2 0.141119 0.179449 0.417059
O O3 0.103584 0.136644 0.541510
O O4 0.901912 0.127684 0.962622
O O5 0.713092 0.924469 0.487303
O O6 0.773745 0.000000 0.479000
O O7 0.000000 0.949244 0.000000
O O8 0.750000 0.250000 0.500000
O O9 0.676966 0.163739 0.384950
O O10 0.601221 0.216549 0.036443
O O11 0.141532 0.640472 0.528222
O O12 0.047597 0.715784 0.446824
O O13 0.237709 0.655737 0.933740
O O14 0.332686 0.711558 0.960991
O O15 0.500000 0.688927 0.500000
O O16 0.757237 0.709224 0.884263
#
# Coordination Sequence:
#
# PCOD9180580 Si02
#       7
#     8   8   8   8   8   8   8
#     4   9  19  33  54  80 107 146 185 223 281 327
#     4   8  15  31  57  87 116 138 172 225 283 347
#     4  10  19  32  50  74 107 141 184 226 267 325
#     4  12  23  36  52  74 110 151 197 238 265 317
#     4  11  21  38  56  71 104 150 195 235 267 319
#     4  10  19  32  52  81 109 149 178 220 285 329
#     4  11  25  36  51  76 105 153 201 232 270 310
#
# _framework density 19.439105000000001
#
# number of rings (size 3 to 8) (size 9 to 14) (size 15 to 20)
#    0.000    1.857    2.857    3.000    2.000    1.714 
#    0.000    0.000    0.000    1.286    0.000   18.000 
#    0.000   11.429    0.000    0.000    0.000    0.000 
#
# Total GULP energy -156074.959114 kJ/mol
# GULP energy per Si atom -5574.105683 kJ/mol
# Density = 1.939486 g / cm^3
# Si number density = 19.439105 Si / 1000 Ang^3
#
#
#
# Elastic Constant Matrix: (Units=GPa)
#
#
# Indices 1 2 3 4 5 6 
#
# 1 104.9214 40.4837 31.8117 0.0000 -25.4760 0.0000
# 2 40.4837 107.2398 18.7903 0.0000 -2.7845 0.0000
# 3 31.8117 18.7903 65.0673 0.0000 -15.6690 0.0000
# 4 0.0000 0.0000 0.0000 12.8216 0.0000 0.8421
# 5 -25.4760 -2.7845 -15.6690 0.0000 35.5697 0.0000
# 6 0.0000 0.0000 0.0000 0.8421 0.0000 16.8585
#
#
#
# Elastic Compliance Matrix: (Units=1/GPa)
#
#
# Indices 1 2 3 4 5 6 
#
# 1 0.014462 -0.004588 -0.003734 0.000000 0.008354 0.000000
# 2 -0.004588 0.011287 -0.001784 0.000000 -0.003189 0.000000
# 3 -0.003734 -0.001784 0.019053 0.000000 0.005579 0.000000
# 4 0.000000 0.000000 0.000000 0.078250 0.000000 -0.003909
# 5 0.008354 -0.003189 0.005579 0.000000 0.036305 0.000000
# 6 0.000000 0.000000 0.000000 -0.003909 0.000000 0.059512
#
#
# Mechanical properties :
#
#
# Convention : Reuss Voigt Hill
#
# Bulk Modulus (GPa) = 40.66784 51.04443 45.85613
# Shear Modulus (GPa) = 20.22016 25.45948 22.83982
#
# Velocity S-wave (km/s) = 3.22868 3.62291 3.43146
# Velocity P-wave (km/s) = 5.90468 6.61939 6.27222
#
# Compressibility (1/GPa) = 0.02458946
#
# Stress axis : x y z
#
# Youngs Moduli (GPa) = 69.14764 88.59894 52.48548
#
# Poissons Ratio (x) = 0.40652 0.19596
# Poissons Ratio (y) = 0.31727 0.09364
# Poissons Ratio (z) = 0.25817 0.15807
#
# Static dielectric constant tensor:
#      x y z
#    x 1.741420 0.000000 0.006030 
#    y 0.000000 1.678490 0.000000 
#    z 0.006030 0.000000 1.773050 
# 
# From -- ./inp_files/185223.got.cif
#   From: 2010.05.17/outbox.cif.g08.bks.cpg/sg12_93_cif.got.tgz:185223.got - 2010.06.03 13:09:07.
