data_PCOD9180673
_publ_section_title
;
Structure prediction by ZEFSAII (Michael W. Deem and Ramdas Pophale) SiO2 
 PCOD9180673
Probable space group: C 2/M
;
_chemical_formula_sum "Si O2"
_cell_formula_units_Z 56
_cell_length_a 20.206379
_cell_length_b 26.941271
_cell_length_c 5.118987
_cell_angle_alpha 90.000000
_cell_angle_beta 85.069838
_cell_angle_gamma 90.000000
_cell_volume 2776.392201
_symmetry_space_group_name_H-M "C 2/M"
_symmetry_group_IT_number 12
_symmetry_cell_setting 'monoclinic'
loop_
_space_group_symop_operation_xyz
x,y,z
-x,y,-z
-x,-y,-z
x,-y,z
1/2+x,1/2+y,z
1/2-x,1/2+y,-z
1/2-x,1/2-y,-z
1/2+x,1/2-y,z
loop_
_atom_site_type_symbol
_atom_site_label
_atom_site_fract_x
_atom_site_fract_y
_atom_site_fract_z
Si Si1 0.847936 0.294454 0.978381
Si Si2 0.682854 0.000000 0.097177
Si Si3 0.452558 0.946739 0.266459
Si Si4 0.224309 0.105362 0.334021
Si Si5 0.182666 0.603948 0.203221
Si Si6 0.289225 0.714611 0.691958
Si Si7 0.952558 0.663600 0.268995
Si Si8 0.277605 0.500000 0.566960
O O1 0.770773 0.296131 0.085995
O O2 0.894669 0.297648 0.214637
O O3 0.858839 0.346014 0.821510
O O4 0.848719 0.245713 0.801286
O O5 0.720200 0.000000 0.808562
O O6 0.645485 0.051794 0.164890
O O7 0.741675 0.000000 0.297720
O O8 0.500000 0.947780 0.500000
O O9 0.420977 0.891979 0.293781
O O10 0.415213 0.000000 0.275689
O O11 0.500000 0.946320 0.000000
O O12 0.282706 0.104934 0.529528
O O13 0.190097 0.158816 0.393732
O O14 0.187022 0.053120 0.399638
O O15 0.258853 0.102747 0.037239
O O16 0.250000 0.750000 0.500000
O O17 0.000000 0.673025 0.500000
O O18 0.000000 0.664738 0.000000
#
# Coordination Sequence:
#
# PCOD9180673 Si02
#       8
#     8   4   8   8   8   8   8   4
#     4  10  21  33  49  73  96 128 167 205 249 301
#     4   8  14  24  38  58  84 115 150 191 241 271
#     4   8  14  28  48  66  87 118 161 210 256 289
#     4   9  16  27  43  64  89 120 154 187 235 275
#     4   9  16  27  42  62  88 117 154 198 234 284
#     4  10  19  32  51  71  99 129 161 206 245 295
#     4  10  22  36  52  71  95 130 167 211 257 295
#     4   8  14  24  40  58  86 119 148 186 223 280
#
# _framework density 20.170062000000001
#
# number of rings (size 3 to 8) (size 9 to 14) (size 15 to 20)
#    0.000    2.857    1.429    0.000    2.000    0.000 
#    1.286    0.000    0.000    0.000    0.000    0.000 
#    0.000    0.000    0.000    1.286    0.000    2.357 
#
# Total GULP energy -156148.605303 kJ/mol
# GULP energy per Si atom -5576.735904 kJ/mol
# Density = 2.012415 g / cm^3
# Si number density = 20.170062 Si / 1000 Ang^3
#
#
#
# Elastic Constant Matrix: (Units=GPa)
#
#
# Indices 1 2 3 4 5 6 
#
# 1 30.5355 30.0203 19.1006 0.0000 15.2881 0.0000
# 2 30.0203 190.1771 24.7454 0.0000 25.9311 0.0000
# 3 19.1006 24.7454 114.9309 0.0000 11.0850 0.0000
# 4 0.0000 0.0000 0.0000 32.9985 0.0000 11.9614
# 5 15.2881 25.9311 11.0850 0.0000 24.2730 0.0000
# 6 0.0000 0.0000 0.0000 11.9614 0.0000 19.2171
#
#
#
# Elastic Compliance Matrix: (Units=1/GPa)
#
#
# Indices 1 2 3 4 5 6 
#
# 1 0.053662 -0.004089 -0.005439 0.000000 -0.026946 0.000000
# 2 -0.004089 0.006524 -0.000315 0.000000 -0.004251 0.000000
# 3 -0.005439 -0.000315 0.009739 0.000000 -0.000685 0.000000
# 4 0.000000 0.000000 0.000000 0.039134 0.000000 -0.024358
# 5 -0.026946 -0.004251 -0.000685 0.000000 0.063024 0.000000
# 6 0.000000 0.000000 0.000000 -0.024358 0.000000 0.067199
#
#
# Mechanical properties :
#
#
# Convention : Reuss Voigt Hill
#
# Bulk Modulus (GPa) = 19.90484 53.70845 36.80664
# Shear Modulus (GPa) = 18.13476 32.74954 25.44215
#
# Velocity S-wave (km/s) = 3.00174 4.03385 3.55545
# Velocity P-wave (km/s) = 4.68016 6.95568 5.92813
#
# Compressibility (1/GPa) = 0.05023904
#
# Stress axis : x y z
#
# Youngs Moduli (GPa) = 18.63520 153.27295 102.68291
#
# Poissons Ratio (x) = 0.62671 0.55848
# Poissons Ratio (y) = 0.07620 0.03237
# Poissons Ratio (z) = 0.10135 0.04831
#
# Static dielectric constant tensor:
#      x y z
#    x 1.679270 0.000000 -0.015880 
#    y 0.000000 1.900030 0.000000 
#    z -0.015880 0.000000 1.835040 
# 
# From -- ./inp_files/26358.got.cif
#   From: 2010.05.17/outbox.cif.g08.bks.cpg/sg12_14_cif.got.tgz:26358.got - 2010.06.03 13:09:07.
