data_PCOD9180166
_publ_section_title
;
Structure prediction by ZEFSAII (Michael W. Deem and Ramdas Pophale) SiO2 
 PCOD9180166
Probable space group: C 2/M
;
_chemical_formula_sum "Si O2"
_cell_formula_units_Z 64
_cell_length_a 20.748179
_cell_length_b 7.569876
_cell_length_c 18.851362
_cell_angle_alpha 90.000000
_cell_angle_beta 93.935362
_cell_angle_gamma 90.000000
_cell_volume 2953.835172
_symmetry_space_group_name_H-M "C 2/M"
_symmetry_group_IT_number 12
_symmetry_cell_setting 'monoclinic'
loop_
_space_group_symop_operation_xyz
x,y,z
-x,y,-z
-x,-y,-z
x,-y,z
1/2+x,1/2+y,z
1/2-x,1/2+y,-z
1/2-x,1/2-y,-z
1/2+x,1/2-y,z
loop_
_atom_site_type_symbol
_atom_site_label
_atom_site_fract_x
_atom_site_fract_y
_atom_site_fract_z
Si Si1 0.794185 0.213115 0.409108
Si Si2 0.177704 0.211570 0.020352
Si Si3 0.547790 0.713912 0.940578
Si Si4 0.313585 0.717102 0.818958
Si Si5 0.906272 0.205507 0.700397
Si Si6 0.349757 0.297092 0.555567
Si Si7 0.962798 0.705437 0.219852
Si Si8 0.323332 0.209653 0.249109
O O1 0.723262 0.290182 0.419065
O O2 0.841423 0.277767 0.475717
O O3 0.815974 0.261367 0.332353
O O4 0.788831 0.000000 0.413966
O O5 0.168398 0.274963 0.100490
O O6 0.171221 0.000000 0.021770
O O7 0.250000 0.250000 0.000000
O O8 0.120398 0.276037 0.964905
O O9 0.547203 0.500000 0.937753
O O10 0.524537 0.777780 0.862687
O O11 0.500000 0.767747 0.000000
O O12 0.315028 0.500000 0.819259
O O13 0.361609 0.778824 0.760431
O O14 0.241044 0.776576 0.794445
O O15 0.892603 0.284244 0.621627
O O16 0.979672 0.212717 0.730813
O O17 0.886696 0.000000 0.692691
O O18 0.370868 0.500000 0.546860
O O19 0.961663 0.500000 0.239540
O O20 0.891702 0.783060 0.228466
O O21 0.324090 0.000000 0.234921
#
# Coordination Sequence:
#
# PCOD9180166 Si02
#       8
#     8   8   8   8   8   8   8   8
#     4  10  19  31  54  87 115 140 181 234 274 316
#     4  10  20  34  54  80 107 136 176 224 272 324
#     4  10  21  39  61  81 105 145 193 229 270 334
#     4   9  17  33  58  79  98 137 186 220 258 324
#     4  10  19  36  60  80 105 144 186 226 270 329
#     4   9  18  34  56  82 112 148 183 220 277 334
#     4  11  24  38  56  82 114 147 183 232 285 328
#     4  10  20  37  56  77 111 154 188 218 274 341
#
# _framework density 21.666747000000001
#
# number of rings (size 3 to 8) (size 9 to 14) (size 15 to 20)
#    0.000    2.125    1.250    2.250    0.000    5.750 
#    0.000    3.125    0.000    3.750    0.000    0.000 
#    0.000    0.000    0.000    0.000    0.000    0.000 
#
# Total GULP energy -178712.195752 kJ/mol
# GULP energy per Si atom -5584.756117 kJ/mol
# Density = 2.161743 g / cm^3
# Si number density = 21.666747 Si / 1000 Ang^3
#
#
#
# Elastic Constant Matrix: (Units=GPa)
#
#
# Indices 1 2 3 4 5 6 
#
# 1 60.5101 -2.8376 -3.3793 0.0000 24.2155 0.0000
# 2 -2.8376 49.1192 -15.4231 0.0000 5.3297 0.0000
# 3 -3.3793 -15.4231 68.1214 0.0000 35.2869 0.0000
# 4 0.0000 0.0000 0.0000 15.9889 0.0000 -0.8278
# 5 24.2155 5.3297 35.2869 0.0000 38.9538 0.0000
# 6 0.0000 0.0000 0.0000 -0.8278 0.0000 19.6828
#
#
#
# Elastic Compliance Matrix: (Units=1/GPa)
#
#
# Indices 1 2 3 4 5 6 
#
# 1 0.060330 0.033107 0.060784 0.000000 -0.097097 0.000000
# 2 0.033107 0.045160 0.048475 0.000000 -0.070671 0.000000
# 3 0.060784 0.048475 0.097368 0.000000 -0.132621 0.000000
# 4 0.000000 0.000000 0.000000 0.062680 0.000000 0.002636
# 5 -0.097097 -0.070671 -0.132621 0.000000 0.215838 0.000000
# 6 0.000000 0.000000 0.000000 0.002636 0.000000 0.050917
#
#
# Mechanical properties :
#
#
# Convention : Reuss Voigt Hill
#
# Bulk Modulus (GPa) = 2.05090 14.94118 8.49604
# Shear Modulus (GPa) = 12.19243 28.21782 20.20512
#
# Velocity S-wave (km/s) = 2.37476 3.61273 3.05707
# Velocity P-wave (km/s) = 2.90997 4.93085 4.04853
#
# Compressibility (1/GPa) = 0.48758980
#
# Stress axis : x y z
#
# Youngs Moduli (GPa) = 16.57540 22.14342 10.27034
#
# Poissons Ratio (x) = -0.73310 -0.62428
# Poissons Ratio (y) = -0.54876 -0.49785
# Poissons Ratio (z) = -1.00753 -1.07339
#
# Static dielectric constant tensor:
#      x y z
#    x 1.769190 0.000000 0.016500 
#    y 0.000000 1.845530 0.000000 
#    z 0.016500 0.000000 1.777420 
# 
# From -- ./inp_files/281392.got.cif
#   From: 2010.05.17/outbox.cif.g08.bks.cpg/sg12_141_cif.got.tgz:281392.got - 2010.06.03 13:09:07.
