data_PCOD9180366
_publ_section_title
;
Structure prediction by ZEFSAII (Michael W. Deem and Ramdas Pophale) SiO2 
 PCOD9180366
Probable space group: C 2/M
;
_chemical_formula_sum "Si O2"
_cell_formula_units_Z 64
_cell_length_a 8.099108
_cell_length_b 18.457015
_cell_length_c 24.638939
_cell_angle_alpha 90.000000
_cell_angle_beta 109.190596
_cell_angle_gamma 90.000000
_cell_volume 3478.488611
_symmetry_space_group_name_H-M "C 2/M"
_symmetry_group_IT_number 12
_symmetry_cell_setting 'monoclinic'
loop_
_space_group_symop_operation_xyz
x,y,z
-x,y,-z
-x,-y,-z
x,-y,z
1/2+x,1/2+y,z
1/2-x,1/2+y,-z
1/2-x,1/2-y,-z
1/2+x,1/2-y,z
loop_
_atom_site_type_symbol
_atom_site_label
_atom_site_fract_x
_atom_site_fract_y
_atom_site_fract_z
Si Si1 0.801008 0.665534 0.500000
Si Si2 0.543243 0.416177 0.737966
Si Si3 0.676915 0.666031 0.375203
Si Si4 0.073491 0.666031 0.375203
Si Si5 0.932690 0.583823 0.737966
Si Si6 0.543566 0.588401 0.860504
Si Si7 0.177443 0.588401 0.860504
Si Si8 0.933652 0.588487 0.933652
O O1 0.750000 0.750000 0.500000
O O2 0.683021 0.636174 0.437934
O O3 0.807152 0.636174 0.562066
O O4 0.000000 0.661871 0.500000
O O5 0.486055 0.500000 0.729421
O O6 0.449980 0.374025 0.679707
O O7 0.751178 0.414246 0.751178
O O8 0.507309 0.388084 0.794636
O O9 0.622844 0.750000 0.372844
O O10 0.872824 0.661219 0.372824
O O11 0.090564 0.625975 0.320292
O O12 0.972787 0.500000 0.729421
O O13 0.081963 0.611916 0.794636
O O14 0.547999 0.500000 0.859706
O O15 0.380129 0.609961 0.880129
O O16 0.735019 0.612146 0.900295
O O17 0.171414 0.500000 0.859706
O O18 0.065572 0.612146 0.900295
O O19 0.932727 0.500000 0.932727
O O20 0.000000 0.610914 0.000000
#
# Coordination Sequence:
#
# PCOD9180366 Si02
#       8
#     8   8   8   8   8   8   8   8
#     4   8  16  30  47  66  91 123 159 197 249 302
#     4  10  19  32  49  69  96 131 167 205 251 300
#     4  10  19  32  50  72  96 125 161 206 252 301
#     4  10  19  32  50  72  96 125 161 206 252 301
#     4  10  19  32  49  69  96 131 167 205 251 300
#     4   9  16  27  43  63  90 127 164 198 244 296
#     4   9  16  27  43  63  90 127 164 198 244 296
#     4   9  16  26  40  62  94 127 161 201 240 289
#
# _framework density 18.398795
#
# number of rings (size 3 to 8) (size 9 to 14) (size 15 to 20)
#    0.000    2.625    1.250    1.500    0.000    3.000 
#    0.000    3.125    0.000    3.750    0.000    0.000 
#    0.000    1.000    0.500    0.000    0.000    0.000 
#
# Total GULP energy -178293.511317 kJ/mol
# GULP energy per Si atom -5571.672229 kJ/mol
# Density = 1.835692 g / cm^3
# Si number density = 18.398795 Si / 1000 Ang^3
#
#
#
# Elastic Constant Matrix: (Units=GPa)
#
#
# Indices 1 2 3 4 5 6 
#
# 1 96.7528 8.9585 64.2624 0.0000 -1.0084 0.0000
# 2 8.9585 9.9185 22.1046 0.0000 -0.8491 0.0000
# 3 64.2624 22.1046 159.3027 0.0000 -3.0315 0.0000
# 4 0.0000 0.0000 0.0000 63.9387 0.0000 -3.2422
# 5 -1.0084 -0.8491 -3.0315 0.0000 24.1820 0.0000
# 6 0.0000 0.0000 0.0000 -3.2422 0.0000 13.7378
#
#
#
# Elastic Compliance Matrix: (Units=1/GPa)
#
#
# Indices 1 2 3 4 5 6 
#
# 1 0.014119 -0.000094 -0.005685 0.000000 -0.000127 0.000000
# 2 -0.000094 0.146120 -0.020188 0.000000 0.002596 0.000000
# 3 -0.005685 -0.020188 0.011381 0.000000 0.000481 0.000000
# 4 0.000000 0.000000 0.000000 0.015829 0.000000 0.003736
# 5 -0.000127 0.002596 0.000481 0.000000 0.041499 0.000000
# 6 0.000000 0.000000 0.000000 0.003736 0.000000 0.073674
#
#
# Mechanical properties :
#
#
# Convention : Reuss Voigt Hill
#
# Bulk Modulus (GPa) = 8.35517 50.73614 29.54565
# Shear Modulus (GPa) = 12.67583 31.74826 22.21205
#
# Velocity S-wave (km/s) = 2.62763 4.15850 3.47833
# Velocity P-wave (km/s) = 3.70903 7.11991 5.67671
#
# Compressibility (1/GPa) = 0.11968638
#
# Stress axis : x y z
#
# Youngs Moduli (GPa) = 70.82728 6.84369 87.86496
#
# Poissons Ratio (x) = 0.00064 0.49951
# Poissons Ratio (y) = 0.00663 1.77384
# Poissons Ratio (z) = 0.40265 0.13816
#
# Static dielectric constant tensor:
#      x y z
#    x 1.656500 0.000000 0.000230 
#    y 0.000000 1.600760 0.000000 
#    z 0.000230 0.000000 1.653000 
# 
# From -- ./inp_files/333610.got.cif
#   From: 2010.05.17/outbox.cif.g08.bks.cpg/sg12_167_cif.got.tgz:333610.got - 2010.06.03 13:09:07.
