data_PCOD9180242
_publ_section_title
;
Structure prediction by ZEFSAII (Michael W. Deem and Ramdas Pophale) SiO2 
 PCOD9180242
Probable space group: C 2/M
;
_chemical_formula_sum "Si O2"
_cell_formula_units_Z 64
_cell_length_a 16.474971
_cell_length_b 27.025408
_cell_length_c 9.200459
_cell_angle_alpha 90.000000
_cell_angle_beta 105.722225
_cell_angle_gamma 90.000000
_cell_volume 3943.177007
_symmetry_space_group_name_H-M "C 2/M"
_symmetry_group_IT_number 12
_symmetry_cell_setting 'monoclinic'
loop_
_space_group_symop_operation_xyz
x,y,z
-x,y,-z
-x,-y,-z
x,-y,z
1/2+x,1/2+y,z
1/2-x,1/2+y,-z
1/2-x,1/2-y,-z
1/2+x,1/2-y,z
loop_
_atom_site_type_symbol
_atom_site_label
_atom_site_fract_x
_atom_site_fract_y
_atom_site_fract_z
Si Si1 0.292943 0.849902 0.428853
Si Si2 0.944015 0.674072 0.333955
Si Si3 0.635484 0.305194 0.211280
Si Si4 0.522013 0.715682 0.680617
Si Si5 0.332226 0.813414 0.771004
Si Si6 0.026165 0.607670 0.162246
Si Si7 0.303801 0.701302 0.075915
Si Si8 0.406932 0.056044 0.529639
O O1 0.351011 0.817125 0.348652
O O2 0.198740 0.839616 0.333410
O O3 0.303750 0.831024 0.597871
O O4 0.338606 0.903595 0.440379
O O5 0.986006 0.724959 0.305881
O O6 0.000000 0.658298 0.500000
O O7 0.949832 0.632189 0.216045
O O8 0.543249 0.309029 0.238797
O O9 0.657043 0.246085 0.231520
O O10 0.653247 0.318036 0.051462
O O11 0.500000 0.704653 0.500000
O O12 0.618193 0.707344 0.775147
O O13 0.415908 0.844644 0.844508
O O14 0.266005 0.827381 0.864746
O O15 0.074780 0.572001 0.295510
O O16 0.000000 0.583431 0.000000
O O17 0.250000 0.750000 0.000000
O O18 0.500000 0.056841 0.500000
O O19 0.375459 0.000000 0.501494
#
# Coordination Sequence:
#
# PCOD9180242 Si02
#       8
#     8   8   8   8   8   8   8   8
#     4  11  19  33  52  72  96 132 182 215 261 313
#     4  11  17  31  46  70  96 135 178 214 247 302
#     4  11  21  30  48  69 101 135 172 218 251 310
#     4  11  21  33  48  68 104 146 183 216 251 303
#     4  10  19  32  43  69  98 136 174 210 253 299
#     4  11  21  29  51  73 104 136 177 215 261 314
#     4  10  22  32  45  69 102 141 177 219 257 300
#     4  10  20  37  55  73 100 134 177 226 274 322
#
# _framework density 16.230566
#
# number of rings (size 3 to 8) (size 9 to 14) (size 15 to 20)
#    0.000    1.375    5.000    3.750    5.250    0.250 
#    0.000    0.000    0.000    0.000    0.000    0.000 
#    0.000   14.500    0.000    0.000    0.000    1.500 
#
# Total GULP energy -178165.709269 kJ/mol
# GULP energy per Si atom -5567.678415 kJ/mol
# Density = 1.619362 g / cm^3
# Si number density = 16.230566 Si / 1000 Ang^3
#
#
#
# Elastic Constant Matrix: (Units=GPa)
#
#
# Indices 1 2 3 4 5 6 
#
# 1 84.0373 14.0073 21.6830 0.0000 -11.6211 0.0000
# 2 14.0073 55.6478 7.6164 0.0000 -0.0378 0.0000
# 3 21.6830 7.6164 59.9682 0.0000 -4.3321 0.0000
# 4 0.0000 0.0000 0.0000 6.7133 0.0000 1.0449
# 5 -11.6211 -0.0378 -4.3321 0.0000 33.6641 0.0000
# 6 0.0000 0.0000 0.0000 1.0449 0.0000 15.6208
#
#
#
# Elastic Compliance Matrix: (Units=1/GPa)
#
#
# Indices 1 2 3 4 5 6 
#
# 1 0.014127 -0.002948 -0.004423 0.000000 0.004304 0.000000
# 2 -0.002948 0.018906 -0.001421 0.000000 -0.001179 0.000000
# 3 -0.004423 -0.001421 0.018517 0.000000 0.000855 0.000000
# 4 0.000000 0.000000 0.000000 0.150526 0.000000 -0.010069
# 5 0.004304 -0.001179 0.000855 0.000000 0.031300 0.000000
# 6 0.000000 0.000000 0.000000 -0.010069 0.000000 0.064691
#
#
# Mechanical properties :
#
#
# Convention : Reuss Voigt Hill
#
# Bulk Modulus (GPa) = 29.43965 31.80741 30.62353
# Shear Modulus (GPa) = 15.29188 21.62275 18.45731
#
# Velocity S-wave (km/s) = 3.07280 3.65392 3.37589
# Velocity P-wave (km/s) = 5.54682 6.11893 5.83989
#
# Compressibility (1/GPa) = 0.03396779
#
# Stress axis : x y z
#
# Youngs Moduli (GPa) = 70.78563 52.89394 54.00504
#
# Poissons Ratio (x) = 0.15592 0.23885
# Poissons Ratio (y) = 0.20866 0.07671
# Poissons Ratio (z) = 0.31306 0.07514
#
# Static dielectric constant tensor:
#      x y z
#    x 1.620750 0.000000 -0.007970 
#    y 0.000000 1.547460 0.000000 
#    z -0.007970 0.000000 1.592400 
# 
# From -- ./inp_files/67879.got.cif
#   From: 2010.05.17/outbox.cif.g08.bks.cpg/sg12_34_cif.got.tgz:67879.got - 2010.06.03 13:09:07.
