data_PCOD9180529
_publ_section_title
;
Structure prediction by ZEFSAII (Michael W. Deem and Ramdas Pophale) SiO2 
 PCOD9180529
Probable space group: C 2/M
;
_chemical_formula_sum "Si O2"
_cell_formula_units_Z 64
_cell_length_a 28.992764
_cell_length_b 17.659442
_cell_length_c 24.555819
_cell_angle_alpha 90.000000
_cell_angle_beta 16.572312
_cell_angle_gamma 90.000000
_cell_volume 3585.989027
_symmetry_space_group_name_H-M "C 2/M"
_symmetry_group_IT_number 12
_symmetry_cell_setting 'monoclinic'
loop_
_space_group_symop_operation_xyz
x,y,z
-x,y,-z
-x,-y,-z
x,-y,z
1/2+x,1/2+y,z
1/2-x,1/2+y,-z
1/2-x,1/2-y,-z
1/2+x,1/2-y,z
loop_
_atom_site_type_symbol
_atom_site_label
_atom_site_fract_x
_atom_site_fract_y
_atom_site_fract_z
Si Si1 0.463681 0.794437 0.480531
Si Si2 0.386626 0.195334 0.871850
Si Si3 0.868883 0.087657 0.865874
Si Si4 0.394158 0.284023 0.449977
Si Si5 0.116486 0.246059 0.697442
Si Si6 0.311048 0.414532 0.224171
Si Si7 0.234381 0.584780 0.141154
Si Si8 0.923814 0.918545 0.215014
O O1 0.500000 0.764998 0.500000
O O2 0.430708 0.731285 0.471767
O O3 0.309557 0.850355 0.658799
O O4 0.609790 0.849166 0.295171
O O5 0.530957 0.209651 0.665661
O O6 0.454672 0.220131 0.853585
O O7 0.250000 0.250000 0.000000
O O8 0.297367 0.115400 0.974675
O O9 0.010397 0.144320 0.684560
O O10 0.907291 0.000000 0.812339
O O11 0.820670 0.095448 0.984466
O O12 0.204146 0.285132 0.649740
O O13 0.250000 0.250000 0.500000
O O14 0.099496 0.157831 0.726982
O O15 0.270738 0.500000 0.251115
O O16 0.311239 0.415953 0.289833
O O17 0.500000 0.399069 0.000000
O O18 0.159714 0.500000 0.225445
O O19 0.383192 0.583359 0.015372
O O20 0.896311 0.000000 0.274253
#
# Coordination Sequence:
#
# PCOD9180529 Si02
#       8
#     8   8   8   8   8   8   8   8
#     4  12  23  35  53  78 110 151 194 230 268 319
#     4   9  17  32  54  78 107 140 174 220 276 332
#     4  10  20  36  58  83 112 146 180 226 291 344
#     4  10  20  36  53  81 115 142 184 232 275 332
#     4  10  19  32  51  76 107 145 176 223 278 321
#     4  10  21  37  51  70 106 147 187 231 268 311
#     4  10  20  33  53  81 110 147 187 228 273 325
#     4  10  19  32  50  72 104 146 184 215 263 320
#
# _framework density 17.847238999999998
#
# number of rings (size 3 to 8) (size 9 to 14) (size 15 to 20)
#    0.000    1.875    2.500    3.375    1.750    2.000 
#    0.000    3.125    0.000    0.375    0.000    0.000 
#    0.000    1.500    0.000    0.000    0.000    0.000 
#
# Total GULP energy -178202.161583 kJ/mol
# GULP energy per Si atom -5568.817549 kJ/mol
# Density = 1.780662 g / cm^3
# Si number density = 17.847239 Si / 1000 Ang^3
#
#
#
# Elastic Constant Matrix: (Units=GPa)
#
#
# Indices 1 2 3 4 5 6 
#
# 1 119.7341 37.0518 22.7194 -0.0020 -16.6164 0.0036
# 2 37.0518 82.2812 27.8999 0.0148 1.3598 -0.0003
# 3 22.7194 27.8999 47.6998 0.0061 -9.5542 -0.0026
# 4 -0.0020 0.0148 0.0061 22.0154 -0.0004 1.1809
# 5 -16.6164 1.3598 -9.5542 -0.0004 28.2367 -0.0007
# 6 0.0036 -0.0003 -0.0026 1.1809 -0.0007 19.1589
#
#
#
# Elastic Compliance Matrix: (Units=1/GPa)
#
#
# Indices 1 2 3 4 5 6 
#
# 1 0.010863 -0.004565 -0.001265 0.000005 0.006184 -0.000002
# 2 -0.004565 0.017512 -0.009414 -0.000010 -0.006715 0.000000
# 3 -0.001265 -0.009414 0.028979 -0.000002 0.009514 0.000005
# 4 0.000005 -0.000010 -0.000002 0.045573 0.000003 -0.002809
# 5 0.006184 -0.006715 0.009514 0.000003 0.042597 0.000001
# 6 -0.000002 0.000000 0.000005 -0.002809 0.000001 0.052368
#
#
# Mechanical properties :
#
#
# Convention : Reuss Voigt Hill
#
# Bulk Modulus (GPa) = 37.22149 47.22859 42.22504
# Shear Modulus (GPa) = 21.06732 24.68513 22.87622
#
# Velocity S-wave (km/s) = 3.43946 3.72309 3.58408
# Velocity P-wave (km/s) = 6.05591 6.70835 6.39046
#
# Compressibility (1/GPa) = 0.02686620
#
# Stress axis : x y z
#
# Youngs Moduli (GPa) = 92.05817 57.10395 34.50789
#
# Poissons Ratio (x) = 0.26066 0.04366
# Poissons Ratio (y) = 0.42022 0.32484
# Poissons Ratio (z) = 0.11648 0.53756
#
# Static dielectric constant tensor:
#      x y z
#    x 1.702390 0.000020 -0.007030 
#    y 0.000020 1.561920 -0.000050 
#    z -0.007030 -0.000050 1.645810 
# 
# From -- ./inp_files/352278.got.cif
#   From: 2010.05.17/outbox.cif.g08.bks.cpg/sg12_177_cif.got.tgz:352278.got - 2010.06.03 13:09:07.
