data_PCOD9180216
_publ_section_title
;
Structure prediction by ZEFSAII (Michael W. Deem and Ramdas Pophale) SiO2 
 PCOD9180216
Probable space group: C 2/M
;
_chemical_formula_sum "Si O2"
_cell_formula_units_Z 64
_cell_length_a 14.019452
_cell_length_b 14.691754
_cell_length_c 24.093635
_cell_angle_alpha 90.000000
_cell_angle_beta 34.282285
_cell_angle_gamma 90.000000
_cell_volume 2795.272167
_symmetry_space_group_name_H-M "C 2/M"
_symmetry_group_IT_number 12
_symmetry_cell_setting 'monoclinic'
loop_
_space_group_symop_operation_xyz
x,y,z
-x,y,-z
-x,-y,-z
x,-y,z
1/2+x,1/2+y,z
1/2-x,1/2+y,-z
1/2-x,1/2-y,-z
1/2+x,1/2-y,z
loop_
_atom_site_type_symbol
_atom_site_label
_atom_site_fract_x
_atom_site_fract_y
_atom_site_fract_z
Si Si1 0.532406 0.603904 0.196646
Si Si2 0.746511 0.888821 0.249658
Si Si3 0.655839 0.184186 0.002456
Si Si4 0.182913 0.844319 0.908010
Si Si5 0.957403 0.111471 0.353879
Si Si6 0.571650 0.889491 0.525065
Si Si7 0.518775 0.893452 0.815398
Si Si8 0.620146 0.388719 0.391865
O O1 0.476922 0.500000 0.230662
O O2 0.391400 0.643466 0.223051
O O3 0.711455 0.607631 0.079763
O O4 0.536237 0.642541 0.257077
O O5 0.772410 0.845029 0.177714
O O6 0.564910 0.867065 0.362690
O O7 0.758834 0.000000 0.237454
O O8 0.646297 0.247410 0.953700
O O9 0.750000 0.250000 0.000000
O O10 0.501093 0.148374 0.113292
O O11 0.343923 0.881578 0.865160
O O12 0.000000 0.894203 0.000000
O O13 0.761436 0.140812 0.446087
O O14 0.046498 0.140736 0.367662
O O15 0.964169 0.000000 0.352429
O O16 0.500000 0.859268 0.500000
O O17 0.578953 0.000000 0.519032
O O18 0.682843 0.859736 0.702677
O O19 0.543787 0.000000 0.812074
O O20 0.500000 0.357798 0.500000
O O21 0.617382 0.500000 0.395510
#
# Coordination Sequence:
#
# PCOD9180216 Si02
#       8
#     8   8   8   8   8   8   8   8
#     4  10  19  35  61  92 119 150 196 255 307 357
#     4  10  19  31  56  92 126 154 191 248 309 363
#     4  10  22  39  57  81 115 163 200 241 299 364
#     4  11  24  39  57  88 122 165 202 245 311 375
#     4   9  17  30  51  83 121 153 190 241 298 354
#     4   9  15  27  49  86 125 154 188 238 303 362
#     4  10  21  39  63  92 122 156 206 260 305 358
#     4   9  19  34  54  85 124 161 196 243 301 359
#
# _framework density 22.895802
#
# number of rings (size 3 to 8) (size 9 to 14) (size 15 to 20)
#    0.000    2.250    1.250    2.250    1.750    3.000 
#    0.000    0.000    0.000    4.500   19.500    0.000 
#    0.000    0.000    0.000    0.000    0.000    0.125 
#
# Total GULP energy -178645.855930 kJ/mol
# GULP energy per Si atom -5582.682998 kJ/mol
# Density = 2.284369 g / cm^3
# Si number density = 22.895802 Si / 1000 Ang^3
#
#
#
# Elastic Constant Matrix: (Units=GPa)
#
#
# Indices 1 2 3 4 5 6 
#
# 1 108.8691 23.7542 74.3168 -0.0003 20.2724 0.0000
# 2 23.7542 53.5179 19.9039 0.0052 4.3159 0.0000
# 3 74.3168 19.9039 202.3025 0.0258 18.5370 -0.0001
# 4 -0.0003 0.0052 0.0258 1382.6702 -0.0043 -4.0692
# 5 20.2724 4.3159 18.5370 -0.0043 45.8937 0.0001
# 6 0.0000 0.0000 -0.0001 -4.0692 0.0001 16.2185
#
#
#
# Elastic Compliance Matrix: (Units=1/GPa)
#
#
# Indices 1 2 3 4 5 6 
#
# 1 0.013758 -0.004196 -0.004279 0.000000 -0.003954 0.000000
# 2 -0.004196 0.020728 -0.000508 0.000000 0.000109 0.000000
# 3 -0.004279 -0.000508 0.006633 0.000000 -0.000741 0.000000
# 4 0.000000 0.000000 0.000000 0.000724 0.000000 0.000182
# 5 -0.003954 0.000109 -0.000741 0.000000 0.023825 0.000000
# 6 0.000000 0.000000 0.000000 0.000182 0.000000 0.061703
#
#
# Mechanical properties :
#
#
# Convention : Reuss Voigt Hill
#
# Bulk Modulus (GPa) = 43.19138 66.73770 54.96454
# Shear Modulus (GPa) = 32.66790 305.40411 169.03601
#
# Velocity S-wave (km/s) = 3.78141 11.56193 8.60167
# Velocity P-wave (km/s) = 6.16203 14.40310 11.07746
#
# Compressibility (1/GPa) = 0.02315277
#
# Stress axis : x y z
#
# Youngs Moduli (GPa) = 72.68389 48.24397 150.76445
#
# Poissons Ratio (x) = 0.20245 0.64511
# Poissons Ratio (y) = 0.30501 0.07656
# Poissons Ratio (z) = 0.31101 0.02450
#
# Static dielectric constant tensor:
#      x y z
#    x 1.869010 0.000000 -0.031490 
#    y 0.000000 1.882930 0.000000 
#    z -0.031490 0.000000 1.857620 
# 
# From -- ./inp_files/340801.got.cif
#   From: 2010.05.17/outbox.cif.g08.bks.cpg/sg12_171_cif.got.tgz:340801.got - 2010.06.03 13:09:07.
