data_PCOD9180178
_publ_section_title
;
Structure prediction by ZEFSAII (Michael W. Deem and Ramdas Pophale) SiO2 
 PCOD9180178
Probable space group: C 2/M
;
_chemical_formula_sum "Si O2"
_cell_formula_units_Z 58
_cell_length_a 34.600650
_cell_length_b 7.820240
_cell_length_c 11.748979
_cell_angle_alpha 90.000000
_cell_angle_beta 101.881358
_cell_angle_gamma 90.000000
_cell_volume 3110.993028
_symmetry_space_group_name_H-M "C 2/M"
_symmetry_group_IT_number 12
_symmetry_cell_setting 'monoclinic'
loop_
_space_group_symop_operation_xyz
x,y,z
-x,y,-z
-x,-y,-z
x,-y,z
1/2+x,1/2+y,z
1/2-x,1/2+y,-z
1/2-x,1/2-y,-z
1/2+x,1/2-y,z
loop_
_atom_site_type_symbol
_atom_site_label
_atom_site_fract_x
_atom_site_fract_y
_atom_site_fract_z
Si Si1 0.621573 0.301608 0.639657
Si Si2 0.467333 0.292113 0.389370
Si Si3 0.500000 0.500000 0.000000
Si Si4 0.729207 0.297795 0.326774
Si Si5 0.865570 0.300862 0.105360
Si Si6 0.286692 0.795328 0.941795
Si Si7 0.456474 0.204119 0.125988
Si Si8 0.311557 0.800405 0.477985
O O1 0.619414 0.500000 0.669163
O O2 0.576691 0.241393 0.596620
O O3 0.639907 0.213801 0.762079
O O4 0.649155 0.281561 0.547565
O O5 0.500000 0.236884 0.500000
O O6 0.469170 0.500000 0.383193
O O7 0.472005 0.219548 0.265415
O O8 0.478529 0.345575 0.063961
O O9 0.729622 0.500000 0.348525
O O10 0.720659 0.265584 0.190619
O O11 0.697189 0.221841 0.394111
O O12 0.772407 0.229926 0.390451
O O13 0.866191 0.500000 0.076259
O O14 0.909897 0.241805 0.103303
O O15 0.827883 0.224490 0.017887
O O16 0.288949 0.000000 0.940550
O O17 0.250000 0.750000 0.000000
O O18 0.459349 0.000000 0.094347
O O19 0.314641 0.000000 0.453045
#
# Coordination Sequence:
#
# PCOD9180178 Si02
#       8
#     8   8   2   8   8   8   8   8
#     4  10  19  31  55  85 109 140 183 226 276 340
#     4   9  18  36  60  87 119 150 188 241 298 352
#     4  12  22  40  62  90 116 156 206 246 296 370
#     4  10  21  36  53  76 105 142 187 230 277 326
#     4   9  20  37  56  80 114 148 186 237 288 334
#     4  11  22  36  54  81 113 149 191 234 281 333
#     4  10  21  39  63  90 119 156 201 249 298 360
#     4  10  20  35  54  75 106 144 181 226 276 335
#
# _framework density 18.643564000000001
#
# number of rings (size 3 to 8) (size 9 to 14) (size 15 to 20)
#    0.000    2.069    0.690    2.690    0.966    6.897 
#    0.000    1.379    0.000    0.000    0.000    0.000 
#    0.000    0.000    0.000    0.000    0.000    0.000 
#
# Total GULP energy -161458.659575 kJ/mol
# GULP energy per Si atom -5567.539985 kJ/mol
# Density = 1.860113 g / cm^3
# Si number density = 18.643564 Si / 1000 Ang^3
#
#
#
# Elastic Constant Matrix: (Units=GPa)
#
#
# Indices 1 2 3 4 5 6 
#
# 1 103.4941 23.5677 74.8117 0.0000 -14.2233 0.0000
# 2 23.5677 63.7565 7.3819 0.0000 -3.8314 0.0000
# 3 74.8117 7.3819 109.1913 0.0000 1.6483 0.0000
# 4 0.0000 0.0000 0.0000 29.2372 0.0000 -7.5776
# 5 -14.2233 -3.8314 1.6483 0.0000 31.0765 0.0000
# 6 0.0000 0.0000 0.0000 -7.5776 0.0000 22.5117
#
#
#
# Elastic Compliance Matrix: (Units=1/GPa)
#
#
# Indices 1 2 3 4 5 6 
#
# 1 0.024828 -0.006552 -0.016741 0.000000 0.011444 0.000000
# 2 -0.006552 0.017663 0.003310 0.000000 -0.000997 0.000000
# 3 -0.016741 0.003310 0.020530 0.000000 -0.008343 0.000000
# 4 0.000000 0.000000 0.000000 0.037472 0.000000 0.012613
# 5 0.011444 -0.000997 -0.008343 0.000000 0.037736 0.000000
# 6 0.000000 0.000000 0.000000 0.012613 0.000000 0.048667
#
#
# Mechanical properties :
#
#
# Convention : Reuss Voigt Hill
#
# Bulk Modulus (GPa) = 43.37172 54.21829 48.79500
# Shear Modulus (GPa) = 21.31761 27.94381 24.63071
#
# Velocity S-wave (km/s) = 3.38513 3.87569 3.63869
# Velocity P-wave (km/s) = 6.21232 7.01232 6.62441
#
# Compressibility (1/GPa) = 0.02305650
#
# Stress axis : x y z
#
# Youngs Moduli (GPa) = 40.27667 56.61407 48.70874
#
# Poissons Ratio (x) = 0.37093 0.81542
# Poissons Ratio (y) = 0.26389 -0.16122
# Poissons Ratio (z) = 0.67426 -0.18738
#
# Static dielectric constant tensor:
#      x y z
#    x 1.656620 0.000000 0.023850 
#    y 0.000000 1.684690 0.000000 
#    z 0.023850 0.000000 1.608280 
# 
# From -- ./inp_files/186752.got.cif
#   From: 2010.05.17/outbox.cif.g08.bks.cpg/sg12_94_cif.got.tgz:186752.got - 2010.06.03 13:09:07.
