data_PCOD9180569
_publ_section_title
;
Structure prediction by ZEFSAII (Michael W. Deem and Ramdas Pophale) SiO2 
 PCOD9180569
Probable space group: C 2/M
;
_chemical_formula_sum "Si O2"
_cell_formula_units_Z 56
_cell_length_a 9.202016
_cell_length_b 19.166096
_cell_length_c 19.515868
_cell_angle_alpha 90.000000
_cell_angle_beta 128.545258
_cell_angle_gamma 90.000000
_cell_volume 2692.004552
_symmetry_space_group_name_H-M "C 2/M"
_symmetry_group_IT_number 12
_symmetry_cell_setting 'monoclinic'
loop_
_space_group_symop_operation_xyz
x,y,z
-x,y,-z
-x,-y,-z
x,-y,z
1/2+x,1/2+y,z
1/2-x,1/2+y,-z
1/2-x,1/2-y,-z
1/2+x,1/2-y,z
loop_
_atom_site_type_symbol
_atom_site_label
_atom_site_fract_x
_atom_site_fract_y
_atom_site_fract_z
Si Si1 0.576901 0.207116 0.196444
Si Si2 0.709151 0.773791 0.084366
Si Si3 0.444094 0.920056 0.565086
Si Si4 0.222369 0.425509 0.078729
Si Si5 0.216309 0.077039 0.739652
Si Si6 0.105361 0.841080 0.425508
Si Si7 0.329729 0.785709 0.369036
O O1 0.694718 0.217310 0.161957
O O2 0.363282 0.216705 0.115695
O O3 0.626850 0.130903 0.238481
O O4 0.652614 0.263810 0.271689
O O5 0.780065 0.847751 0.073762
O O6 0.500000 0.758881 0.000000
O O7 0.500000 0.923967 0.500000
O O8 0.233409 0.890288 0.510513
O O9 0.573830 0.856700 0.630020
O O10 0.463758 0.000000 0.596584
O O11 0.292644 0.500000 0.070383
O O12 0.264538 0.427395 0.172342
O O13 0.000000 0.424881 0.000000
O O14 0.020418 0.108813 0.658875
O O15 0.239158 0.000000 0.717890
O O16 0.254452 0.801524 0.422095
O O17 0.966507 0.780803 0.409795
#
# Coordination Sequence:
#
# PCOD9180569 Si02
#       7
#     8   8   8   8   8   8   8
#     4  10  19  32  50  74 100 130 168 208 249 301
#     4  10  19  32  51  74 101 132 166 207 253 299
#     4   9  18  32  51  76 103 132 170 213 253 295
#     4   8  14  25  42  66  93 119 153 199 245 284
#     4   9  17  29  48  71  94 126 168 209 245 289
#     4  10  19  32  52  75 100 133 171 209 252 301
#     4  10  19  32  51  75 103 134 167 207 252 298
#
# _framework density 20.802343
#
# number of rings (size 3 to 8) (size 9 to 14) (size 15 to 20)
#    0.000    2.571    0.000    3.857    0.000    0.571 
#    0.000    0.714    0.000   10.714    0.000    0.000 
#    0.000    0.000    0.000    0.000    0.000    0.000 
#
# Total GULP energy -156024.845057 kJ/mol
# GULP energy per Si atom -5572.315895 kJ/mol
# Density = 2.075500 g / cm^3
# Si number density = 20.802343 Si / 1000 Ang^3
#
#
#
# Elastic Constant Matrix: (Units=GPa)
#
#
# Indices 1 2 3 4 5 6 
#
# 1 37.0138 28.5537 0.1741 0.0000 19.2268 0.0000
# 2 28.5537 128.7147 40.3260 0.0000 27.3901 0.0000
# 3 0.1741 40.3260 78.1851 0.0000 20.5586 0.0000
# 4 0.0000 0.0000 0.0000 35.2322 0.0000 7.0073
# 5 19.2268 27.3901 20.5586 0.0000 29.2522 0.0000
# 6 0.0000 0.0000 0.0000 7.0073 0.0000 13.7111
#
#
#
# Elastic Compliance Matrix: (Units=1/GPa)
#
#
# Indices 1 2 3 4 5 6 
#
# 1 0.051933 -0.008085 0.013542 0.000000 -0.036081 0.000000
# 2 -0.008085 0.011665 -0.005549 0.000000 -0.001708 0.000000
# 3 0.013542 -0.005549 0.020359 0.000000 -0.018013 0.000000
# 4 0.000000 0.000000 0.000000 0.031595 0.000000 -0.016147
# 5 -0.036081 -0.001708 -0.018013 0.000000 0.072159 0.000000
# 6 0.000000 0.000000 0.000000 -0.016147 0.000000 0.081186
#
#
# Mechanical properties :
#
#
# Convention : Reuss Voigt Hill
#
# Bulk Modulus (GPa) = 11.93741 42.44681 27.19211
# Shear Modulus (GPa) = 16.83476 27.29643 22.06560
#
# Velocity S-wave (km/s) = 2.84786 3.62633 3.26041
# Velocity P-wave (km/s) = 4.06997 6.16302 5.22243
#
# Compressibility (1/GPa) = 0.08377026
#
# Stress axis : x y z
#
# Youngs Moduli (GPa) = 19.25574 85.72824 49.11925
#
# Poissons Ratio (x) = 0.69315 -0.66517
# Poissons Ratio (y) = 0.15569 0.27258
# Poissons Ratio (z) = -0.26076 0.47574
#
# Static dielectric constant tensor:
#      x y z
#    x 1.764490 0.000000 -0.055330 
#    y 0.000000 1.822260 0.000000 
#    z -0.055330 0.000000 1.807480 
# 
# From -- ./inp_files/257030.got.cif
#   From: 2010.05.17/outbox.cif.g08.bks.cpg/sg12_129_cif.got.tgz:257030.got - 2010.06.03 13:09:07.
