data_PCOD9180177
_publ_section_title
;
Structure prediction by ZEFSAII (Michael W. Deem and Ramdas Pophale) SiO2 
 PCOD9180177
Probable space group: C 2/M
;
_chemical_formula_sum "Si O2"
_cell_formula_units_Z 64
_cell_length_a 20.416969
_cell_length_b 8.955708
_cell_length_c 25.656742
_cell_angle_alpha 90.000000
_cell_angle_beta 51.753829
_cell_angle_gamma 90.000000
_cell_volume 3684.347122
_symmetry_space_group_name_H-M "C 2/M"
_symmetry_group_IT_number 12
_symmetry_cell_setting 'monoclinic'
loop_
_space_group_symop_operation_xyz
x,y,z
-x,y,-z
-x,-y,-z
x,-y,z
1/2+x,1/2+y,z
1/2-x,1/2+y,-z
1/2-x,1/2-y,-z
1/2+x,1/2-y,z
loop_
_atom_site_type_symbol
_atom_site_label
_atom_site_fract_x
_atom_site_fract_y
_atom_site_fract_z
Si Si1 0.998660 0.821794 0.173784
Si Si2 0.187880 0.179550 0.071977
Si Si3 0.419161 0.821895 0.574614
Si Si4 0.073942 0.677902 0.686277
Si Si5 0.448427 0.321633 0.672833
Si Si6 0.326094 0.677317 0.208623
Si Si7 0.252419 0.821603 0.349681
Si Si8 0.215563 0.179177 0.178112
O O1 0.973405 0.735655 0.238634
O O2 0.924536 0.795673 0.169154
O O3 0.091009 0.779598 0.110274
O O4 0.999525 0.000000 0.185532
O O5 0.209600 0.223602 0.120716
O O6 0.193691 0.000000 0.066141
O O7 0.250000 0.250000 0.000000
O O8 0.500000 0.788988 0.500000
O O9 0.431661 0.752790 0.625621
O O10 0.335155 0.751216 0.592613
O O11 0.409560 0.000000 0.583309
O O12 0.064603 0.500000 0.686121
O O13 0.171289 0.711987 0.648807
O O14 0.031690 0.758758 0.658487
O O15 0.452483 0.500000 0.665464
O O16 0.371136 0.285991 0.749526
O O17 0.311468 0.500000 0.218831
O O18 0.279730 0.756108 0.280024
O O19 0.288719 0.742154 0.174145
O O20 0.244274 0.000000 0.349185
O O21 0.226244 0.000000 0.175306
#
# Coordination Sequence:
#
# PCOD9180177 Si02
#       8
#     8   8   8   8   8   8   8   8
#     4   9  18  35  54  77 111 147 182 225 278 329
#     4  10  21  38  56  77 109 146 184 225 274 330
#     4  11  24  40  58  83 115 148 185 231 277 327
#     4  10  20  33  55  86 115 142 184 235 274 322
#     4  11  21  36  59  84 113 148 186 228 278 331
#     4  10  19  31  55  84 109 141 183 230 275 323
#     4  10  20  35  55  82 115 149 183 225 278 330
#     4  10  20  35  55  80 112 144 179 229 278 325
#
# _framework density 17.370782999999999
#
# number of rings (size 3 to 8) (size 9 to 14) (size 15 to 20)
#    0.000    1.875    2.500    1.875    0.000    4.500 
#    0.000    1.250    0.000    3.750    0.000    0.000 
#    0.000    0.000    0.000    0.000    0.000    0.000 
#
# Total GULP energy -178652.749937 kJ/mol
# GULP energy per Si atom -5582.898436 kJ/mol
# Density = 1.733125 g / cm^3
# Si number density = 17.370783 Si / 1000 Ang^3
#
#
#
# Elastic Constant Matrix: (Units=GPa)
#
#
# Indices 1 2 3 4 5 6 
#
# 1 109.4914 43.1671 28.1700 0.0000 -14.6271 0.0003
# 2 43.1671 41.1369 29.2602 0.0000 -7.1185 0.0005
# 3 28.1700 29.2602 53.1505 0.0000 -11.7819 0.0000
# 4 0.0000 0.0000 0.0000 27.0531 0.0000 -0.5200
# 5 -14.6271 -7.1185 -11.7819 0.0000 26.7007 0.0000
# 6 0.0003 0.0005 0.0000 -0.5200 0.0000 33.6595
#
#
#
# Elastic Compliance Matrix: (Units=1/GPa)
#
#
# Indices 1 2 3 4 5 6 
#
# 1 0.016249 -0.017825 0.002351 0.000000 0.005186 0.000000
# 2 -0.017825 0.059535 -0.024356 0.000000 -0.004640 -0.000001
# 3 0.002351 -0.024356 0.033056 0.000000 0.009381 0.000000
# 4 0.000000 0.000000 0.000000 0.036975 0.000000 0.000571
# 5 0.005186 -0.004640 0.009381 0.000000 0.043196 0.000000
# 6 0.000000 -0.000001 0.000000 0.000571 0.000000 0.029718
#
#
# Mechanical properties :
#
#
# Convention : Reuss Voigt Hill
#
# Bulk Modulus (GPa) = 34.27093 44.99705 39.63399
# Shear Modulus (GPa) = 16.22758 24.36145 20.29451
#
# Velocity S-wave (km/s) = 3.05976 3.74898 3.42177
# Velocity P-wave (km/s) = 5.67933 6.68580 6.20301
#
# Compressibility (1/GPa) = 0.02917925
#
# Stress axis : x y z
#
# Youngs Moduli (GPa) = 61.54289 16.79673 30.25134
#
# Poissons Ratio (x) = 0.29941 -0.07112
# Poissons Ratio (y) = 1.09702 0.73681
# Poissons Ratio (z) = -0.14468 0.40910
#
# Static dielectric constant tensor:
#      x y z
#    x 1.605590 0.000000 -0.014490 
#    y 0.000000 1.579890 0.000000 
#    z -0.014490 0.000000 1.556250 
# 
# From -- ./inp_files/346006.got.cif
#   From: 2010.05.17/outbox.cif.g08.bks.cpg/sg12_174_cif.got.tgz:346006.got - 2010.06.03 13:09:07.
