data_PCOD9180010
_publ_section_title
;
Structure prediction by ZEFSAII (Michael W. Deem and Ramdas Pophale) SiO2 
 PCOD9180010
Probable space group: C 2/M
;
_chemical_formula_sum "Si O2"
_cell_formula_units_Z 56
_cell_length_a 18.639582
_cell_length_b 20.482582
_cell_length_c 15.350701
_cell_angle_alpha 90.000000
_cell_angle_beta 30.896367
_cell_angle_gamma 90.000000
_cell_volume 3009.389518
_symmetry_space_group_name_H-M "C 2/M"
_symmetry_group_IT_number 12
_symmetry_cell_setting 'monoclinic'
loop_
_space_group_symop_operation_xyz
x,y,z
-x,y,-z
-x,-y,-z
x,-y,z
1/2+x,1/2+y,z
1/2-x,1/2+y,-z
1/2-x,1/2-y,-z
1/2+x,1/2-y,z
loop_
_atom_site_type_symbol
_atom_site_label
_atom_site_fract_x
_atom_site_fract_y
_atom_site_fract_z
Si Si1 0.318340 0.574903 0.337487
Si Si2 0.057307 0.286021 0.038318
Si Si3 0.826918 0.201004 0.855095
Si Si4 0.108704 0.862154 0.042975
Si Si5 0.591889 0.278013 0.478715
Si Si6 0.161714 0.634396 0.338011
Si Si7 0.790682 0.319172 0.412574
O O1 0.292947 0.500000 0.385901
O O2 0.483455 0.588569 0.154975
O O3 0.241947 0.594591 0.328004
O O4 0.258293 0.623832 0.473120
O O5 0.055771 0.208617 0.062524
O O6 0.951562 0.319046 0.216946
O O7 0.214760 0.310358 0.895101
O O8 0.000000 0.294854 0.000000
O O9 0.867564 0.142565 0.877660
O O10 0.967466 0.236136 0.676714
O O11 0.750000 0.250000 0.000000
O O12 0.251488 0.873129 0.841353
O O13 0.500000 0.312303 0.500000
O O14 0.656343 0.210906 0.374273
O O15 0.704709 0.319263 0.411966
O O16 0.000000 0.614835 0.500000
O O17 0.750000 0.250000 0.500000
#
# Coordination Sequence:
#
# PCOD9180010 Si02
#       7
#     8   8   8   8   8   8   8
#     4  12  26  42  61  86 121 168 207 242 295 361
#     4  11  20  32  58  95 123 149 191 252 310 361
#     4  10  19  31  52  87 123 151 187 242 303 350
#     4  11  21  38  58  87 123 163 200 239 295 363
#     4  11  19  33  56  92 121 148 191 249 299 348
#     4  11  23  36  62  91 127 158 199 245 295 356
#     4  12  20  37  62  88 120 156 198 251 300 349
#
# _framework density 18.608425
#
# number of rings (size 3 to 8) (size 9 to 14) (size 15 to 20)
#    0.000    0.857    4.286    7.286    2.000    1.429 
#    0.000    0.000    0.000    0.857    0.000    0.000 
#    0.000    0.000    0.000    0.000    0.000    0.000 
#
# Total GULP energy -156307.684240 kJ/mol
# GULP energy per Si atom -5582.417294 kJ/mol
# Density = 1.856607 g / cm^3
# Si number density = 18.608425 Si / 1000 Ang^3
#
#
#
# Elastic Constant Matrix: (Units=GPa)
#
#
# Indices 1 2 3 4 5 6 
#
# 1 116.9379 27.2109 4.2028 -0.0002 -8.4507 0.0001
# 2 27.2109 71.2087 23.3699 -0.0010 1.1030 0.0007
# 3 4.2028 23.3699 102.8983 -0.0004 -4.6547 0.0003
# 4 -0.0002 -0.0010 -0.0004 14.4338 0.0003 2.1828
# 5 -8.4507 1.1030 -4.6547 0.0003 31.6434 -0.0003
# 6 0.0001 0.0007 0.0003 2.1828 -0.0003 8.8782
#
#
#
# Elastic Compliance Matrix: (Units=1/GPa)
#
#
# Indices 1 2 3 4 5 6 
#
# 1 0.009648 -0.003936 0.000627 0.000000 0.002806 0.000000
# 2 -0.003936 0.016814 -0.003757 0.000001 -0.002190 -0.000002
# 3 0.000627 -0.003757 0.010630 0.000000 0.001862 0.000000
# 4 0.000000 0.000001 0.000000 0.071957 -0.000001 -0.017691
# 5 0.002806 -0.002190 0.001862 -0.000001 0.032702 0.000002
# 6 0.000000 -0.000002 0.000000 -0.017691 0.000002 0.116985
#
#
# Mechanical properties :
#
#
# Convention : Reuss Voigt Hill
#
# Bulk Modulus (GPa) = 43.55435 44.51246 44.03341
# Shear Modulus (GPa) = 17.82396 26.74184 22.28290
#
# Velocity S-wave (km/s) = 3.09826 3.79500 3.46419
# Velocity P-wave (km/s) = 6.02125 6.57079 6.30201
#
# Compressibility (1/GPa) = 0.02295982
#
# Stress axis : x y z
#
# Youngs Moduli (GPa) = 103.65238 59.47370 94.07105
#
# Poissons Ratio (x) = 0.23408 -0.05896
# Poissons Ratio (y) = 0.40796 0.35343
# Poissons Ratio (z) = -0.06497 0.22345
#
# Static dielectric constant tensor:
#      x y z
#    x 1.744800 0.000000 0.014720 
#    y 0.000000 1.613460 0.000000 
#    z 0.014720 0.000000 1.697550 
# 
# From -- ./inp_files/227570.got.cif
#   From: 2010.05.17/outbox.cif.g08.bks.cpg/sg12_114_cif.got.tgz:227570.got - 2010.06.03 13:09:07.
