data_PCOD9180609
_publ_section_title
;
Structure prediction by ZEFSAII (Michael W. Deem and Ramdas Pophale) SiO2 
 PCOD9180609
Probable space group: C 2/M
;
_chemical_formula_sum "Si O2"
_cell_formula_units_Z 64
_cell_length_a 22.812399
_cell_length_b 8.616238
_cell_length_c 22.723983
_cell_angle_alpha 90.000000
_cell_angle_beta 128.513543
_cell_angle_gamma 90.000000
_cell_volume 3494.908394
_symmetry_space_group_name_H-M "C 2/M"
_symmetry_group_IT_number 12
_symmetry_cell_setting 'monoclinic'
loop_
_space_group_symop_operation_xyz
x,y,z
-x,y,-z
-x,-y,-z
x,-y,z
1/2+x,1/2+y,z
1/2-x,1/2+y,-z
1/2-x,1/2-y,-z
1/2+x,1/2-y,z
loop_
_atom_site_type_symbol
_atom_site_label
_atom_site_fract_x
_atom_site_fract_y
_atom_site_fract_z
Si Si1 0.312765 0.181484 0.898004
Si Si2 0.486040 0.814424 0.163104
Si Si3 0.505922 0.813873 0.304949
Si Si4 0.160651 0.684541 0.757119
Si Si5 0.330819 0.317224 0.033967
Si Si6 0.111534 0.184864 0.608641
Si Si7 0.060355 0.183193 0.454648
Si Si8 0.557151 0.684738 0.088953
O O1 0.227756 0.226158 0.830363
O O2 0.366128 0.226554 0.877338
O O3 0.319340 0.000000 0.916403
O O4 0.339930 0.282190 0.970439
O O5 0.520829 0.764258 0.247401
O O6 0.398368 0.768958 0.108805
O O7 0.522700 0.734645 0.129538
O O8 0.492461 0.000000 0.161367
O O9 0.420620 0.766512 0.268515
O O10 0.560919 0.756446 0.390562
O O11 0.506297 0.000000 0.306388
O O12 0.169482 0.500000 0.771293
O O13 0.159583 0.725614 0.687042
O O14 0.334031 0.500000 0.047527
O O15 0.250000 0.250000 0.000000
O O16 0.112113 0.239622 0.541085
O O17 0.025237 0.203580 0.576021
O O18 0.127981 0.000000 0.621027
O O19 0.073210 0.000000 0.457362
O O20 0.569220 0.500000 0.095419
O O21 0.500000 0.724356 0.000000
#
# Coordination Sequence:
#
# PCOD9180609 Si02
#       8
#     8   8   8   8   8   8   8   8
#     4  12  24  38  57  78 102 136 174 217 265 313
#     4  11  22  37  56  78 104 137 175 217 264 312
#     4   9  19  32  48  74 108 140 171 211 256 306
#     4  10  19  32  50  75 109 143 174 213 259 309
#     4  12  24  38  55  78 106 138 173 211 257 313
#     4   8  14  26  43  68 101 137 176 212 250 300
#     4   8  14  25  44  68  99 138 175 211 250 299
#     4  11  23  40  60  79 100 130 172 224 268 310
#
# _framework density 18.312355
#
# number of rings (size 3 to 8) (size 9 to 14) (size 15 to 20)
#    0.000    1.875    1.250    4.875    0.000    3.500 
#    0.000    2.500    0.000    0.000    0.000    0.875 
#    0.000    0.000    0.000    0.000    0.000    0.000 
#
# Total GULP energy -178576.763500 kJ/mol
# GULP energy per Si atom -5580.523859 kJ/mol
# Density = 1.827068 g / cm^3
# Si number density = 18.312355 Si / 1000 Ang^3
#
#
#
# Elastic Constant Matrix: (Units=GPa)
#
#
# Indices 1 2 3 4 5 6 
#
# 1 54.2805 1.5478 7.2111 0.0000 -20.5634 0.0000
# 2 1.5478 31.2580 3.2207 0.0000 -3.9293 0.0000
# 3 7.2111 3.2207 61.0212 0.0000 -36.5980 0.0000
# 4 0.0000 0.0000 0.0000 29.0020 0.0000 -5.2790
# 5 -20.5634 -3.9293 -36.5980 0.0000 30.6201 0.0000
# 6 0.0000 0.0000 0.0000 -5.2790 0.0000 22.6172
#
#
#
# Elastic Compliance Matrix: (Units=1/GPa)
#
#
# Indices 1 2 3 4 5 6 
#
# 1 0.043862 0.003687 0.044402 0.000000 0.082999 0.000000
# 2 0.003687 0.032960 0.006521 0.000000 0.014499 0.000000
# 3 0.044402 0.006521 0.103063 0.000000 0.153838 0.000000
# 4 0.000000 0.000000 0.000000 0.036010 0.000000 0.008405
# 5 0.082999 0.014499 0.153838 0.000000 0.274130 0.000000
# 6 0.000000 0.000000 0.000000 0.008405 0.000000 0.046176
#
#
# Mechanical properties :
#
#
# Convention : Reuss Voigt Hill
#
# Bulk Modulus (GPa) = 3.45898 18.94653 11.20275
# Shear Modulus (GPa) = 9.55383 25.41989 17.48686
#
# Velocity S-wave (km/s) = 2.28659 3.72980 3.09353
# Velocity P-wave (km/s) = 2.97729 5.37748 4.34635
#
# Compressibility (1/GPa) = 0.28910251
#
# Stress axis : x y z
#
# Youngs Moduli (GPa) = 22.79871 30.33983 9.70285
#
# Poissons Ratio (x) = -0.11185 -0.43082
# Poissons Ratio (y) = -0.08405 -0.06327
# Poissons Ratio (z) = -1.01230 -0.19783
#
# Static dielectric constant tensor:
#      x y z
#    x 1.654670 0.000000 -0.031750 
#    y 0.000000 1.612420 0.000000 
#    z -0.031750 0.000000 1.658380 
# 
# From -- ./inp_files/346192.got.cif
#   From: 2010.05.17/outbox.cif.g08.bks.cpg/sg12_174_cif.got.tgz:346192.got - 2010.06.03 13:09:07.
