data_PCOD9180296
_publ_section_title
;
Structure prediction by ZEFSAII (Michael W. Deem and Ramdas Pophale) SiO2 
 PCOD9180296
Probable space group: C 2/M
;
_chemical_formula_sum "Si O2"
_cell_formula_units_Z 56
_cell_length_a 18.105532
_cell_length_b 12.846525
_cell_length_c 20.281757
_cell_angle_alpha 90.000000
_cell_angle_beta 47.490546
_cell_angle_gamma 90.000000
_cell_volume 3477.504822
_symmetry_space_group_name_H-M "C 2/M"
_symmetry_group_IT_number 12
_symmetry_cell_setting 'monoclinic'
loop_
_space_group_symop_operation_xyz
x,y,z
-x,y,-z
-x,-y,-z
x,-y,z
1/2+x,1/2+y,z
1/2-x,1/2+y,-z
1/2-x,1/2-y,-z
1/2+x,1/2-y,z
loop_
_atom_site_type_symbol
_atom_site_label
_atom_site_fract_x
_atom_site_fract_y
_atom_site_fract_z
Si Si1 0.567388 0.754268 0.898097
Si Si2 0.937313 0.240048 0.773555
Si Si3 0.840268 0.625700 0.586391
Si Si4 0.099181 0.621448 0.079328
Si Si5 0.263090 0.877720 0.128027
Si Si6 0.487435 0.125806 0.616521
Si Si7 0.386330 0.624853 0.256522
O O1 0.498092 0.838630 0.902169
O O2 0.665188 0.810221 0.868160
O O3 0.593841 0.666179 0.829387
O O4 0.500000 0.715244 0.000000
O O5 0.894061 0.310386 0.859234
O O6 0.849236 0.164178 0.802891
O O7 0.971945 0.314437 0.693585
O O8 0.029998 0.175601 0.747384
O O9 0.839293 0.500000 0.586008
O O10 0.909711 0.656559 0.482912
O O11 0.725571 0.660162 0.655548
O O12 0.898752 0.653393 0.618350
O O13 0.089667 0.500000 0.101111
O O14 0.191524 0.634520 0.973223
O O15 0.269569 0.000000 0.140568
O O16 0.486750 0.000000 0.625785
O O17 0.391845 0.500000 0.255578
#
# Coordination Sequence:
#
# PCOD9180296 Si02
#       7
#     8   8   8   8   8   8   8
#     4   9  18  32  51  71  89 120 166 201 227 265
#     4  11  20  29  46  72  99 126 154 184 233 288
#     4   8  16  32  51  69  91 120 155 194 233 272
#     4   9  18  32  48  67  94 125 158 198 232 264
#     4  10  19  32  48  67  94 126 159 193 231 275
#     4   9  17  31  52  74  92 115 156 203 233 263
#     4  10  20  33  47  68 100 129 152 185 233 285
#
# _framework density 16.1035
#
# number of rings (size 3 to 8) (size 9 to 14) (size 15 to 20)
#    0.000    2.571    0.000    3.429    0.000    2.571 
#    0.000    0.714    0.000    0.857    0.000   20.000 
#    0.000    0.000    0.000    0.000    0.000    0.000 
#
# Total GULP energy -156078.800104 kJ/mol
# GULP energy per Si atom -5574.242861 kJ/mol
# Density = 1.606685 g / cm^3
# Si number density = 16.103500 Si / 1000 Ang^3
#
#
#
# Elastic Constant Matrix: (Units=GPa)
#
#
# Indices 1 2 3 4 5 6 
#
# 1 84.6637 34.8030 61.0097 0.0000 -6.5975 0.0000
# 2 34.8030 66.5964 43.6876 0.0000 -0.1510 0.0000
# 3 61.0097 43.6876 83.7099 0.0000 -4.7907 0.0000
# 4 0.0000 0.0000 0.0000 23.2874 0.0000 1.3089
# 5 -6.5975 -0.1510 -4.7907 0.0000 29.4753 0.0000
# 6 0.0000 0.0000 0.0000 1.3089 0.0000 16.0852
#
#
#
# Elastic Compliance Matrix: (Units=1/GPa)
#
#
# Indices 1 2 3 4 5 6 
#
# 1 0.025232 -0.001859 -0.017258 0.000000 0.002833 0.000000
# 2 -0.001859 0.023069 -0.010802 0.000000 -0.002054 0.000000
# 3 -0.017258 -0.010802 0.030218 0.000000 0.000993 0.000000
# 4 0.000000 0.000000 0.000000 0.043139 0.000000 -0.003510
# 5 0.002833 -0.002054 0.000993 0.000000 0.034712 0.000000
# 6 0.000000 0.000000 0.000000 -0.003510 0.000000 0.062455
#
#
# Mechanical properties :
#
#
# Convention : Reuss Voigt Hill
#
# Bulk Modulus (GPa) = 53.52734 57.10787 55.31761
# Shear Modulus (GPa) = 17.55062 20.13424 18.84243
#
# Velocity S-wave (km/s) = 3.30489 3.53980 3.42436
# Velocity P-wave (km/s) = 6.91916 7.22820 7.07537
#
# Compressibility (1/GPa) = 0.01868204
#
# Stress axis : x y z
#
# Youngs Moduli (GPa) = 39.63148 43.34832 33.09242
#
# Poissons Ratio (x) = 0.08057 0.57110
# Poissons Ratio (y) = 0.07367 0.35748
# Poissons Ratio (z) = 0.68395 0.46826
#
# Static dielectric constant tensor:
#      x y z
#    x 1.527060 0.000000 -0.009110 
#    y 0.000000 1.508490 0.000000 
#    z -0.009110 0.000000 1.540780 
# 
# From -- ./inp_files/214170.got.cif
#   From: 2010.05.17/outbox.cif.g08.bks.cpg/sg12_108_cif.got.tgz:214170.got - 2010.06.03 13:09:07.
