data_PCOD9180417
_publ_section_title
;
Structure prediction by ZEFSAII (Michael W. Deem and Ramdas Pophale) SiO2 
 PCOD9180417
Probable space group: C 2/M
;
_chemical_formula_sum "Si O2"
_cell_formula_units_Z 48
_cell_length_a 28.746091
_cell_length_b 8.032974
_cell_length_c 12.276194
_cell_angle_alpha 90.000000
_cell_angle_beta 109.697488
_cell_angle_gamma 90.000000
_cell_volume 2668.900939
_symmetry_space_group_name_H-M "C 2/M"
_symmetry_group_IT_number 12
_symmetry_cell_setting 'monoclinic'
loop_
_space_group_symop_operation_xyz
x,y,z
-x,y,-z
-x,-y,-z
x,-y,z
1/2+x,1/2+y,z
1/2-x,1/2+y,-z
1/2-x,1/2-y,-z
1/2+x,1/2-y,z
loop_
_atom_site_type_symbol
_atom_site_label
_atom_site_fract_x
_atom_site_fract_y
_atom_site_fract_z
Si Si1 0.790669 0.200010 0.887090
Si Si2 0.623806 0.805535 0.890646
Si Si3 0.697367 0.195521 0.508211
Si Si4 0.818150 0.704583 0.259865
Si Si5 0.360226 0.697526 0.741123
Si Si6 0.444243 0.200787 0.970944
O O1 0.734011 0.251857 0.836469
O O2 0.815573 0.235612 0.789694
O O3 0.793547 0.000000 0.907112
O O4 0.825164 0.289420 0.001460
O O5 0.637088 0.736381 0.781931
O O6 0.611636 0.000000 0.867060
O O7 0.582751 0.733037 0.940551
O O8 0.750000 0.250000 0.500000
O O9 0.684266 0.264910 0.617504
O O10 0.654777 0.230176 0.386743
O O11 0.702345 0.000000 0.527843
O O12 0.819587 0.500000 0.260857
O O13 0.363089 0.500000 0.732738
O O14 0.409393 0.758328 0.840772
O O15 0.445654 0.000000 0.980630
O O16 0.500000 0.261977 0.000000
#
# Coordination Sequence:
#
# PCOD9180417 Si02
#       6
#     8   8   8   8   8   8
#     4   9  16  28  43  63  95 126 152 191 234 275
#     4   9  17  29  46  68  92 122 157 192 237 287
#     4  11  20  32  48  68  98 134 167 197 231 275
#     4   9  17  29  44  64  95 129 158 191 230 275
#     4  10  19  32  49  72  99 127 163 200 237 282
#     4   9  18  33  53  76  98 120 154 203 250 289
#
# _framework density 17.984932000000001
#
# number of rings (size 3 to 8) (size 9 to 14) (size 15 to 20)
#    0.000    2.500    1.667    1.500    0.000    1.000 
#    0.000    1.667    0.000    1.000    0.000    7.000 
#    0.000    0.000    0.000    0.000    0.000    0.000 
#
# Total GULP energy -133753.561253 kJ/mol
# GULP energy per Si atom -5573.065052 kJ/mol
# Density = 1.794400 g / cm^3
# Si number density = 17.984932 Si / 1000 Ang^3
#
#
#
# Elastic Constant Matrix: (Units=GPa)
#
#
# Indices 1 2 3 4 5 6 
#
# 1 129.6484 5.1810 71.7797 0.0000 -12.7997 0.0000
# 2 5.1810 6.0358 4.1185 0.0000 -5.8424 0.0000
# 3 71.7797 4.1185 83.5919 0.0000 -27.0052 0.0000
# 4 0.0000 0.0000 0.0000 15.1982 0.0000 5.1372
# 5 -12.7997 -5.8424 -27.0052 0.0000 24.5402 0.0000
# 6 0.0000 0.0000 0.0000 5.1372 0.0000 13.0400
#
#
#
# Elastic Compliance Matrix: (Units=1/GPa)
#
#
# Indices 1 2 3 4 5 6 
#
# 1 0.017694 -0.017938 -0.019718 0.000000 -0.016741 0.000000
# 2 -0.017938 0.238172 0.029426 0.000000 0.079728 0.000000
# 3 -0.019718 0.029426 0.040941 0.000000 0.041774 0.000000
# 4 0.000000 0.000000 0.000000 0.075905 0.000000 -0.029903
# 5 -0.016741 0.079728 0.041774 0.000000 0.096969 0.000000
# 6 0.000000 0.000000 0.000000 -0.029903 0.000000 0.088467
#
#
# Mechanical properties :
#
#
# Convention : Reuss Voigt Hill
#
# Bulk Modulus (GPa) = 3.56703 42.38159 22.97431
# Shear Modulus (GPa) = 7.48438 19.76882 13.62660
#
# Velocity S-wave (km/s) = 2.04218 3.31900 2.75556
# Velocity P-wave (km/s) = 2.74742 6.18901 4.78812
#
# Compressibility (1/GPa) = 0.28034488
#
# Stress axis : x y z
#
# Youngs Moduli (GPa) = 56.51511 4.19865 24.42560
#
# Poissons Ratio (x) = 0.07532 0.48164
# Poissons Ratio (y) = 1.01377 -0.71874
# Poissons Ratio (z) = 1.11439 -0.12355
#
# Static dielectric constant tensor:
#      x y z
#    x 1.588280 0.000000 -0.074770 
#    y 0.000000 1.647240 0.000000 
#    z -0.074770 0.000000 1.625850 
# 
# From -- ./inp_files/179165.got.cif
#   From: 2010.05.17/outbox.cif.g08.bks.cpg/sg12_90_cif.got.tgz:179165.got - 2010.06.03 13:09:07.
