data_PCOD9180135
_publ_section_title
;
Structure prediction by ZEFSAII (Michael W. Deem and Ramdas Pophale) SiO2 
 PCOD9180135
Probable space group: C 2/M
;
_chemical_formula_sum "Si O2"
_cell_formula_units_Z 56
_cell_length_a 32.455285
_cell_length_b 15.526764
_cell_length_c 8.031758
_cell_angle_alpha 90.000000
_cell_angle_beta 49.604941
_cell_angle_gamma 90.000000
_cell_volume 3082.482499
_symmetry_space_group_name_H-M "C 2/M"
_symmetry_group_IT_number 12
_symmetry_cell_setting 'monoclinic'
loop_
_space_group_symop_operation_xyz
x,y,z
-x,y,-z
-x,-y,-z
x,-y,z
1/2+x,1/2+y,z
1/2-x,1/2+y,-z
1/2-x,1/2-y,-z
1/2+x,1/2-y,z
loop_
_atom_site_type_symbol
_atom_site_label
_atom_site_fract_x
_atom_site_fract_y
_atom_site_fract_z
Si Si1 0.775409 0.800665 0.587801
Si Si2 0.620987 0.756075 0.494818
Si Si3 0.041662 0.598363 0.638357
Si Si4 0.923460 0.400878 0.845208
Si Si5 0.437233 0.598598 0.197789
Si Si6 0.835493 0.268322 0.992415
Si Si7 0.655612 0.403750 0.819184
O O1 0.750000 0.750000 0.500000
O O2 0.826077 0.748674 0.528796
O O3 0.801065 0.886851 0.442900
O O4 0.725306 0.806335 0.844572
O O5 0.580575 0.835624 0.629734
O O6 0.587823 0.668657 0.613708
O O7 0.642297 0.761397 0.251395
O O8 0.047135 0.500000 0.682919
O O9 0.059588 0.599518 0.395752
O O10 0.978111 0.621871 0.802549
O O11 0.908490 0.500000 0.924039
O O12 0.875296 0.332822 0.988375
O O13 0.431353 0.500000 0.273828
O O14 0.402510 0.604570 0.118545
O O15 0.500000 0.615242 0.000000
O O16 0.836938 0.173683 0.071030
O O17 0.661559 0.500000 0.871850
#
# Coordination Sequence:
#
# PCOD9180135 Si02
#       7
#     8   8   8   8   8   8   8
#     4   9  19  36  52  71 102 142 178 215 264 328
#     4  10  19  32  55  80 103 136 176 229 272 308
#     4   8  15  29  48  74 108 135 163 206 262 319
#     4   8  15  28  47  74 107 139 165 202 259 321
#     4   9  19  35  52  71 100 142 181 210 255 324
#     4  10  19  31  54  82 106 131 178 227 271 310
#     4   9  19  35  52  72 103 141 176 214 264 317
#
# _framework density 18.167176999999999
#
# number of rings (size 3 to 8) (size 9 to 14) (size 15 to 20)
#    0.000    3.000    0.000    1.286    2.000    1.143 
#    0.000    2.857    0.000   13.286    0.000    0.000 
#    0.000    0.000    0.000    0.000    0.000    0.000 
#
# Total GULP energy -155985.630262 kJ/mol
# GULP energy per Si atom -5570.915367 kJ/mol
# Density = 1.812583 g / cm^3
# Si number density = 18.167177 Si / 1000 Ang^3
#
#
#
# Elastic Constant Matrix: (Units=GPa)
#
#
# Indices 1 2 3 4 5 6 
#
# 1 88.7357 63.5308 43.9013 0.0000 -32.4505 0.0000
# 2 63.5308 97.2543 36.6672 0.0000 -23.1828 0.0000
# 3 43.9013 36.6672 53.9726 0.0000 -19.3550 0.0000
# 4 0.0000 0.0000 0.0000 17.0115 0.0000 3.8113
# 5 -32.4505 -23.1828 -19.3550 0.0000 29.6581 0.0000
# 6 0.0000 0.0000 0.0000 3.8113 0.0000 20.4009
#
#
#
# Elastic Compliance Matrix: (Units=1/GPa)
#
#
# Indices 1 2 3 4 5 6 
#
# 1 0.032751 -0.012696 -0.011388 0.000000 0.018479 0.000000
# 2 -0.012696 0.019647 -0.003257 0.000000 -0.000660 0.000000
# 3 -0.011388 -0.003257 0.032145 0.000000 0.005972 0.000000
# 4 0.000000 0.000000 0.000000 0.061351 0.000000 -0.011462
# 5 0.018479 -0.000660 0.005972 0.000000 0.057318 0.000000
# 6 0.000000 0.000000 0.000000 -0.011462 0.000000 0.051159
#
#
# Mechanical properties :
#
#
# Convention : Reuss Voigt Hill
#
# Bulk Modulus (GPa) = 33.48816 58.68456 46.08636
# Shear Modulus (GPa) = 15.67372 19.80498 17.73935
#
# Velocity S-wave (km/s) = 2.94045 3.30533 3.12821
# Velocity P-wave (km/s) = 5.47738 6.85125 6.20247
#
# Compressibility (1/GPa) = 0.02986130
#
# Stress axis : x y z
#
# Youngs Moduli (GPa) = 30.53366 50.89943 31.10906
#
# Poissons Ratio (x) = 0.64622 0.35426
# Poissons Ratio (y) = 0.38766 0.10132
# Poissons Ratio (z) = 0.34770 0.16577
#
# Static dielectric constant tensor:
#      x y z
#    x 1.625080 0.000000 0.003930 
#    y 0.000000 1.611420 0.000000 
#    z 0.003930 0.000000 1.666170 
# 
# From -- ./inp_files/111569.got.cif
#   From: 2010.05.17/outbox.cif.g08.bks.cpg/sg12_56_cif.got.tgz:111569.got - 2010.06.03 13:09:07.
