data_PCOD9180638
_publ_section_title
;
Structure prediction by ZEFSAII (Michael W. Deem and Ramdas Pophale) SiO2 
 PCOD9180638
Probable space group: C 2/M
;
_chemical_formula_sum "Si O2"
_cell_formula_units_Z 58
_cell_length_a 15.736172
_cell_length_b 7.360213
_cell_length_c 22.545906
_cell_angle_alpha 90.000000
_cell_angle_beta 62.187608
_cell_angle_gamma 90.000000
_cell_volume 2309.644969
_symmetry_space_group_name_H-M "C 2/M"
_symmetry_group_IT_number 12
_symmetry_cell_setting 'monoclinic'
loop_
_space_group_symop_operation_xyz
x,y,z
-x,y,-z
-x,-y,-z
x,-y,z
1/2+x,1/2+y,z
1/2-x,1/2+y,-z
1/2-x,1/2-y,-z
1/2+x,1/2-y,z
loop_
_atom_site_type_symbol
_atom_site_label
_atom_site_fract_x
_atom_site_fract_y
_atom_site_fract_z
Si Si1 0.929244 0.219906 0.436041
Si Si2 0.802503 0.218372 0.367064
Si Si3 0.976755 0.792667 0.232848
Si Si4 0.843486 0.282460 0.049700
Si Si5 0.312079 0.722334 0.808708
Si Si6 0.485939 0.216686 0.911754
Si Si7 0.000000 0.500000 0.500000
Si Si8 0.142115 0.209384 0.330719
O O1 0.843422 0.266076 0.418470
O O2 0.966328 0.280600 0.625923
O O3 0.930036 0.340534 0.494047
O O4 0.930117 0.000000 0.445069
O O5 0.703565 0.280141 0.370263
O O6 0.884508 0.287063 0.294434
O O7 0.797861 0.000000 0.367069
O O8 0.079312 0.715455 0.216956
O O9 0.978446 0.792694 0.161643
O O10 0.979652 0.000000 0.253630
O O11 0.832111 0.500000 0.045746
O O12 0.752433 0.211316 0.115552
O O13 0.930478 0.253335 0.067664
O O14 0.885574 0.214516 0.973090
O O15 0.303473 0.500000 0.814849
O O16 0.295198 0.779752 0.745806
O O17 0.477423 0.000000 0.906608
O O18 0.125854 0.000000 0.321829
#
# Coordination Sequence:
#
# PCOD9180638 Si02
#       8
#     8   8   8   8   8   8   2   8
#     4  10  23  46  70 100 139 175 211 260 316 371
#     4  10  21  38  62  90 129 165 204 261 320 370
#     4  10  19  32  50  77 110 153 195 245 316 379
#     4   8  15  28  47  67  99 142 194 250 307 371
#     4   9  16  30  51  77 107 153 200 246 311 380
#     4   9  17  30  46  70 100 139 193 257 309 358
#     4  12  26  44  80 102 136 178 222 248 312 370
#     4  10  20  37  66  94 123 161 212 263 313 372
#
# _framework density 25.112086000000001
#
# number of rings (size 3 to 8) (size 9 to 14) (size 15 to 20)
#    0.000    2.483    1.379    1.862    1.931    2.207 
#    0.000    2.759    0.000    1.655    0.000    0.000 
#    0.000    0.000    0.000    0.000    0.000    0.000 
#
# Total GULP energy -161655.869549 kJ/mol
# GULP energy per Si atom -5574.340329 kJ/mol
# Density = 2.505493 g / cm^3
# Si number density = 25.112086 Si / 1000 Ang^3
#
#
#
# Elastic Constant Matrix: (Units=GPa)
#
#
# Indices 1 2 3 4 5 6 
#
# 1 38.8175 -3.0048 6.9525 -0.0001 15.9517 0.0004
# 2 -3.0048 92.4025 8.3265 0.0001 7.8035 0.0006
# 3 6.9525 8.3265 108.4470 0.0000 -9.7794 0.0001
# 4 -0.0001 0.0001 0.0000 3.1428 0.0000 15.7645
# 5 15.9517 7.8035 -9.7794 0.0000 43.9284 0.0001
# 6 0.0004 0.0006 0.0001 15.7645 0.0001 -4.0521
#
#
#
# Elastic Compliance Matrix: (Units=1/GPa)
#
#
# Indices 1 2 3 4 5 6 
#
# 1 0.031778 0.002411 -0.003369 -0.000001 -0.012718 0.000000
# 2 0.002411 0.011286 -0.001307 0.000000 -0.003171 0.000000
# 3 -0.003369 -0.001307 0.009867 0.000000 0.003652 0.000000
# 4 -0.000001 0.000000 0.000000 0.015510 0.000000 0.060342
# 5 -0.012718 -0.003171 0.003652 0.000000 0.028759 0.000000
# 6 0.000000 0.000000 0.000000 0.060342 0.000000 -0.012030
#
#
# Mechanical properties :
#
#
# Convention : Reuss Voigt Hill
#
# Bulk Modulus (GPa) = 20.66101 29.35725 25.00913
# Shear Modulus (GPa) = 47.24348 23.76334 35.50341
#
# Velocity S-wave (km/s) = 4.34211 3.07952 3.76413
# Velocity P-wave (km/s) = 5.77788 4.93563 5.37328
#
# Compressibility (1/GPa) = 0.04840034
#
# Stress axis : x y z
#
# Youngs Moduli (GPa) = 31.46834 88.60348 101.34997
#
# Poissons Ratio (x) = -0.21363 0.34147
# Poissons Ratio (y) = -0.07587 0.13247
# Poissons Ratio (z) = 0.10602 0.11581
#
# Static dielectric constant tensor:
#      x y z
#    x 1.972000 0.000000 -0.026690 
#    y 0.000000 2.003210 0.000000 
#    z -0.026690 0.000000 2.137860 
# 
# From -- ./inp_files/314723.got.cif
#   From: 2010.05.17/outbox.cif.g08.bks.cpg/sg12_158_cif.got.tgz:314723.got - 2010.06.03 13:09:07.
