data_PCOD9180639
_publ_section_title
;
Structure prediction by ZEFSAII (Michael W. Deem and Ramdas Pophale) SiO2 
 PCOD9180639
Probable space group: C 2/M
;
_chemical_formula_sum "Si O2"
_cell_formula_units_Z 64
_cell_length_a 28.143437
_cell_length_b 19.011458
_cell_length_c 21.791517
_cell_angle_alpha 90.000000
_cell_angle_beta 18.971294
_cell_angle_gamma 90.000000
_cell_volume 3790.438944
_symmetry_space_group_name_H-M "C 2/M"
_symmetry_group_IT_number 12
_symmetry_cell_setting 'monoclinic'
loop_
_space_group_symop_operation_xyz
x,y,z
-x,y,-z
-x,-y,-z
x,-y,z
1/2+x,1/2+y,z
1/2-x,1/2+y,-z
1/2-x,1/2-y,-z
1/2+x,1/2-y,z
loop_
_atom_site_type_symbol
_atom_site_label
_atom_site_fract_x
_atom_site_fract_y
_atom_site_fract_z
Si Si1 0.986650 0.419451 0.295158
Si Si2 0.844337 0.825699 0.080419
Si Si3 0.847759 0.331898 0.570766
Si Si4 0.908516 0.766710 0.669612
Si Si5 0.152729 0.758328 0.712386
Si Si6 0.220236 0.830040 0.058043
Si Si7 0.445548 0.418064 0.843824
Si Si8 0.234970 0.365629 0.530330
O O1 0.030834 0.500000 0.248815
O O2 0.895474 0.392658 0.465702
O O3 0.885380 0.410138 0.358975
O O4 0.126229 0.368902 0.119700
O O5 0.754472 0.854873 0.248095
O O6 0.737625 0.770918 0.176354
O O7 0.891596 0.885269 0.974366
O O8 0.988436 0.783670 0.925516
O O9 0.757094 0.274820 0.642005
O O10 0.990534 0.293945 0.423526
O O11 0.867690 0.822550 0.771214
O O12 0.000000 0.794809 0.500000
O O13 0.168503 0.679840 0.667110
O O14 0.209158 0.809167 0.588688
O O15 0.130018 0.871880 0.116882
O O16 0.250000 0.750000 0.000000
O O17 0.407752 0.500000 0.884974
O O18 0.620545 0.407631 0.627039
#
# Coordination Sequence:
#
# PCOD9180639 Si02
#       8
#     8   8   8   8   8   8   8   8
#     4  11  22  35  53  80 112 148 182 220 272 332
#     4  10  19  32  50  77 111 143 177 216 265 326
#     4  10  19  32  50  77 111 143 177 216 265 326
#     4  10  20  34  54  80 105 133 176 228 275 313
#     4   9  17  30  51  77  99 137 182 228 260 302
#     4  12  21  36  59  80 107 143 184 233 273 312
#     4  11  22  35  53  80 112 148 182 220 272 332
#     4   9  19  32  53  73 106 136 184 228 270 305
#
# _framework density 16.884587
#
# number of rings (size 3 to 8) (size 9 to 14) (size 15 to 20)
#    0.000    1.750    2.500    2.625    3.500    0.500 
#    0.000    0.000    0.000    9.750    0.000    0.000 
#    0.000   10.000    0.000    0.000    0.000    0.000 
#
# Total GULP energy -178557.467427 kJ/mol
# GULP energy per Si atom -5579.920857 kJ/mol
# Density = 1.684616 g / cm^3
# Si number density = 16.884587 Si / 1000 Ang^3
#
#
#
# Elastic Constant Matrix: (Units=GPa)
#
#
# Indices 1 2 3 4 5 6 
#
# 1 59.5756 28.6342 20.7036 0.0143 0.0621 -0.0064
# 2 28.6342 89.4926 41.5000 0.0177 14.4897 -0.0097
# 3 20.7036 41.5000 77.2855 0.0119 -2.4886 -0.0084
# 4 0.0143 0.0177 0.0119 10.1480 -0.0115 3.8207
# 5 0.0621 14.4897 -2.4886 -0.0115 35.1702 0.0066
# 6 -0.0064 -0.0097 -0.0084 3.8207 0.0066 13.6023
#
#
#
# Elastic Compliance Matrix: (Units=1/GPa)
#
#
# Indices 1 2 3 4 5 6 
#
# 1 0.020368 -0.005828 -0.002256 -0.000016 0.002206 0.000007
# 2 -0.005828 0.018315 -0.008535 -0.000029 -0.008139 0.000017
# 3 -0.002256 -0.008535 0.018282 0.000001 0.004814 0.000001
# 4 -0.000016 -0.000029 0.000001 0.110196 0.000054 -0.030953
# 5 0.002206 -0.008139 0.004814 0.000054 0.032123 -0.000032
# 6 0.000007 0.000017 0.000001 -0.030953 -0.000032 0.082211
#
#
# Mechanical properties :
#
#
# Convention : Reuss Voigt Hill
#
# Bulk Modulus (GPa) = 42.14756 45.33657 43.74206
# Shear Modulus (GPa) = 15.49707 20.81849 18.15778
#
# Velocity S-wave (km/s) = 3.03285 3.51520 3.28290
# Velocity P-wave (km/s) = 6.10578 6.58670 6.35080
#
# Compressibility (1/GPa) = 0.02372617
#
# Stress axis : x y z
#
# Youngs Moduli (GPa) = 49.09604 54.60093 54.70001
#
# Poissons Ratio (x) = 0.31822 0.12339
# Poissons Ratio (y) = 0.28614 0.46688
# Poissons Ratio (z) = 0.11075 0.46603
#
# Static dielectric constant tensor:
#      x y z
#    x 1.582180 0.000000 0.003140 
#    y 0.000000 1.536580 0.000000 
#    z 0.003140 0.000000 1.580740 
# 
# From -- ./inp_files/87981.got.cif
#   From: 2010.05.17/outbox.cif.g08.bks.cpg/sg12_44_cif.got.tgz:87981.got - 2010.06.03 13:09:07.
