data_PCOD9180103
_publ_section_title
;
Structure prediction by ZEFSAII (Michael W. Deem and Ramdas Pophale) SiO2 
 PCOD9180103
Probable space group: C 2/M
;
_chemical_formula_sum "Si O2"
_cell_formula_units_Z 56
_cell_length_a 17.650955
_cell_length_b 13.591942
_cell_length_c 13.172766
_cell_angle_alpha 90.000000
_cell_angle_beta 136.854226
_cell_angle_gamma 90.000000
_cell_volume 2161.184891
_symmetry_space_group_name_H-M "C 2/M"
_symmetry_group_IT_number 12
_symmetry_cell_setting 'monoclinic'
loop_
_space_group_symop_operation_xyz
x,y,z
-x,y,-z
-x,-y,-z
x,-y,z
1/2+x,1/2+y,z
1/2-x,1/2+y,-z
1/2-x,1/2-y,-z
1/2+x,1/2-y,z
loop_
_atom_site_type_symbol
_atom_site_label
_atom_site_fract_x
_atom_site_fract_y
_atom_site_fract_z
Si Si1 0.838581 0.248647 0.437876
Si Si2 0.905008 0.613121 0.987041
Si Si3 0.894915 0.778790 0.125212
Si Si4 0.807115 0.613506 0.567372
Si Si5 0.913040 0.106143 0.787456
Si Si6 0.141602 0.886167 0.701380
Si Si7 0.265101 0.615414 0.829706
O O1 0.885726 0.322483 0.569369
O O2 0.733800 0.190395 0.387009
O O3 0.899540 0.156357 0.446897
O O4 0.816587 0.319769 0.319689
O O5 0.932287 0.500000 0.029932
O O6 0.899986 0.668153 0.089504
O O7 0.777524 0.618706 0.824682
O O8 0.000000 0.650197 0.000000
O O9 0.888504 0.818904 0.232121
O O10 0.006046 0.819744 0.183896
O O11 0.795794 0.832612 0.964610
O O12 0.837168 0.500000 0.625809
O O13 0.699415 0.602800 0.388890
O O14 0.874105 0.121657 0.864153
O O15 0.968346 0.000000 0.833343
O O16 0.112660 0.000000 0.689765
O O17 0.235560 0.500000 0.809996
#
# Coordination Sequence:
#
# PCOD9180103 Si02
#       7
#     8   8   8   8   8   8   8
#     4  10  19  34  55  77 113 148 188 236 296 335
#     4  10  22  38  55  78 115 158 200 236 270 331
#     4  12  21  35  56  84 121 157 188 228 290 351
#     4   9  19  36  57  82 108 142 199 251 291 339
#     4   9  18  32  53  82 111 146 191 240 286 336
#     4  11  23  37  55  86 120 153 193 233 288 354
#     4  10  19  31  53  85 117 150 194 239 284 344
#
# _framework density 25.911712000000001
#
# number of rings (size 3 to 8) (size 9 to 14) (size 15 to 20)
#    0.000    1.857    1.429    4.714    2.000    1.143 
#    0.000    1.429    0.000    3.429    0.000    0.000 
#    0.000   11.429    0.000    0.000    0.000    0.000 
#
# Total GULP energy -156430.401106 kJ/mol
# GULP energy per Si atom -5586.800040 kJ/mol
# Density = 2.585274 g / cm^3
# Si number density = 25.911712 Si / 1000 Ang^3
#
#
#
# Elastic Constant Matrix: (Units=GPa)
#
#
# Indices 1 2 3 4 5 6 
#
# 1 84.6252 47.4972 25.1138 0.0000 -19.4616 0.0000
# 2 47.4972 189.3013 35.4576 0.0000 -37.2631 0.0000
# 3 25.1138 35.4576 110.2192 0.0000 -23.6274 0.0000
# 4 0.0000 0.0000 0.0000 23.0774 0.0000 -6.2001
# 5 -19.4616 -37.2631 -23.6274 0.0000 41.4085 0.0000
# 6 0.0000 0.0000 0.0000 -6.2001 0.0000 25.7439
#
#
#
# Elastic Compliance Matrix: (Units=1/GPa)
#
#
# Indices 1 2 3 4 5 6 
#
# 1 0.014625 -0.002658 -0.001728 0.000000 0.003496 0.000000
# 2 -0.002658 0.006990 -0.000641 0.000000 0.004675 0.000000
# 3 -0.001728 -0.000641 0.010682 0.000000 0.004706 0.000000
# 4 0.000000 0.000000 0.000000 0.046330 0.000000 0.011158
# 5 0.003496 0.004675 0.004706 0.000000 0.032685 0.000000
# 6 0.000000 0.000000 0.000000 0.011158 0.000000 0.041531
#
#
# Mechanical properties :
#
#
# Convention : Reuss Voigt Hill
#
# Bulk Modulus (GPa) = 44.95687 66.69809 55.82748
# Shear Modulus (GPa) = 29.35805 36.45110 32.90457
#
# Velocity S-wave (km/s) = 3.36966 3.75473 3.56739
# Velocity P-wave (km/s) = 5.70326 6.67785 6.20970
#
# Compressibility (1/GPa) = 0.02224354
#
# Stress axis : x y z
#
# Youngs Moduli (GPa) = 68.37447 143.06627 93.61960
#
# Poissons Ratio (x) = 0.38024 0.16177
# Poissons Ratio (y) = 0.18172 0.05999
# Poissons Ratio (z) = 0.11815 0.09168
#
# Static dielectric constant tensor:
#      x y z
#    x 2.077240 0.000000 0.084550 
#    y 0.000000 2.042720 0.000000 
#    z 0.084550 0.000000 2.148640 
# 
# From -- ./inp_files/156760.got.cif
#   From: 2010.05.17/outbox.cif.g08.bks.cpg/sg12_79_cif.got.tgz:156760.got - 2010.06.03 13:09:07.
