data_PCOD9180137
_publ_section_title
;
Structure prediction by ZEFSAII (Michael W. Deem and Ramdas Pophale) SiO2 
 PCOD9180137
Probable space group: C 2/M
;
_chemical_formula_sum "Si O2"
_cell_formula_units_Z 56
_cell_length_a 19.631644
_cell_length_b 8.955534
_cell_length_c 28.988164
_cell_angle_alpha 90.000000
_cell_angle_beta 140.698154
_cell_angle_gamma 90.000000
_cell_volume 3228.129180
_symmetry_space_group_name_H-M "C 2/M"
_symmetry_group_IT_number 12
_symmetry_cell_setting 'monoclinic'
loop_
_space_group_symop_operation_xyz
x,y,z
-x,y,-z
-x,-y,-z
x,-y,z
1/2+x,1/2+y,z
1/2-x,1/2+y,-z
1/2-x,1/2-y,-z
1/2+x,1/2-y,z
loop_
_atom_site_type_symbol
_atom_site_label
_atom_site_fract_x
_atom_site_fract_y
_atom_site_fract_z
Si Si1 0.369514 0.179598 0.310268
Si Si2 0.626293 0.321809 0.199291
Si Si3 0.903727 0.321380 0.915472
Si Si4 0.307393 0.821145 0.597777
Si Si5 0.399345 0.178752 0.544680
Si Si6 0.025800 0.320775 0.235569
Si Si7 0.340726 0.322338 0.195258
O O1 0.253815 0.214568 0.271501
O O2 0.475763 0.221855 0.394535
O O3 0.372714 0.257735 0.262138
O O4 0.374237 0.000000 0.305301
O O5 0.614408 0.500000 0.195693
O O6 0.593394 0.263611 0.131565
O O7 0.558784 0.242716 0.203540
O O8 0.910290 0.500000 0.910173
O O9 0.786581 0.292409 0.876234
O O10 0.000000 0.279324 0.000000
O O11 0.364297 0.781153 0.578885
O O12 0.188552 0.752603 0.534279
O O13 0.382599 0.773552 0.679345
O O14 0.299291 0.000000 0.594604
O O15 0.391105 0.000000 0.535844
O O16 0.021645 0.500000 0.232769
O O17 0.914069 0.255962 0.195735
O O18 0.357674 0.500000 0.203294
#
# Coordination Sequence:
#
# PCOD9180137 Si02
#       7
#     8   8   8   8   8   8   8
#     4   9  17  33  52  73 103 138 174 217 265 311
#     4  10  21  35  55  81 108 137 175 217 258 308
#     4   9  19  38  61  84 110 138 167 204 255 312
#     4   9  18  30  46  70  99 134 174 217 262 307
#     4   9  16  29  48  71  98 131 174 218 263 309
#     4  11  21  36  53  73 108 145 176 214 265 313
#     4  10  19  31  54  83 105 132 175 216 250 303
#
# _framework density 17.347508999999999
#
# number of rings (size 3 to 8) (size 9 to 14) (size 15 to 20)
#    0.000    2.429    1.429    1.286    0.000    3.143 
#    0.000    1.429    0.000    4.286    0.000    0.000 
#    0.000    0.000    0.000    0.000    0.000    0.000 
#
# Total GULP energy -156172.563849 kJ/mol
# GULP energy per Si atom -5577.591566 kJ/mol
# Density = 1.730803 g / cm^3
# Si number density = 17.347509 Si / 1000 Ang^3
#
#
#
# Elastic Constant Matrix: (Units=GPa)
#
#
# Indices 1 2 3 4 5 6 
#
# 1 117.7908 50.0374 47.2271 0.0000 10.0797 0.0000
# 2 50.0374 37.2075 36.3822 0.0000 6.9251 -0.0001
# 3 47.2271 36.3822 112.6641 0.0000 14.9912 0.0000
# 4 0.0000 0.0000 0.0000 25.0617 0.0000 0.3534
# 5 10.0797 6.9251 14.9912 0.0000 16.1588 0.0000
# 6 0.0000 -0.0001 0.0000 0.3534 0.0000 24.0743
#
#
#
# Elastic Compliance Matrix: (Units=1/GPa)
#
#
# Indices 1 2 3 4 5 6 
#
# 1 0.019842 -0.027002 0.000581 0.000000 -0.001344 0.000000
# 2 -0.027002 0.076503 -0.012851 0.000000 -0.004021 0.000000
# 3 0.000581 -0.012851 0.013802 0.000000 -0.007659 0.000000
# 4 0.000000 0.000000 0.000000 0.039910 0.000000 -0.000586
# 5 -0.001344 -0.004021 -0.007659 0.000000 0.071553 0.000000
# 6 0.000000 0.000000 0.000000 -0.000586 0.000000 0.041547
#
#
# Mechanical properties :
#
#
# Convention : Reuss Voigt Hill
#
# Bulk Modulus (GPa) = 31.64279 59.43955 45.54117
# Shear Modulus (GPa) = 14.19507 21.99335 18.09421
#
# Velocity S-wave (km/s) = 2.86366 3.56450 3.23312
# Velocity P-wave (km/s) = 5.40501 7.16095 6.34403
#
# Compressibility (1/GPa) = 0.03160278
#
# Stress axis : x y z
#
# Youngs Moduli (GPa) = 50.39791 13.07130 72.45573
#
# Poissons Ratio (x) = 0.35295 -0.04210
# Poissons Ratio (y) = 1.36084 0.93114
# Poissons Ratio (z) = -0.02928 0.16798
#
# Static dielectric constant tensor:
#      x y z
#    x 1.573750 0.000000 0.025130 
#    y 0.000000 1.577260 0.000000 
#    z 0.025130 0.000000 1.587430 
# 
# From -- ./inp_files/280156.got.cif
#   From: 2010.05.17/outbox.cif.g08.bks.cpg/sg12_141_cif.got.tgz:280156.got - 2010.06.03 13:09:07.
