data_PCOD9180233
_publ_section_title
;
Structure prediction by ZEFSAII (Michael W. Deem and Ramdas Pophale) SiO2 
 PCOD9180233
Probable space group: C 2/M
;
_chemical_formula_sum "Si O2"
_cell_formula_units_Z 58
_cell_length_a 18.202589
_cell_length_b 14.778340
_cell_length_c 14.119945
_cell_angle_alpha 90.000000
_cell_angle_beta 139.824949
_cell_angle_gamma 90.000000
_cell_volume 2450.392867
_symmetry_space_group_name_H-M "C 2/M"
_symmetry_group_IT_number 12
_symmetry_cell_setting 'monoclinic'
loop_
_space_group_symop_operation_xyz
x,y,z
-x,y,-z
-x,-y,-z
x,-y,z
1/2+x,1/2+y,z
1/2-x,1/2+y,-z
1/2-x,1/2-y,-z
1/2+x,1/2-y,z
loop_
_atom_site_type_symbol
_atom_site_label
_atom_site_fract_x
_atom_site_fract_y
_atom_site_fract_z
Si Si1 0.434990 0.159647 0.588804
Si Si2 0.999357 0.237689 0.833590
Si Si3 0.330796 0.395365 0.112609
Si Si4 0.314939 0.599689 0.644428
Si Si5 0.710140 0.785774 0.161829
Si Si6 0.345603 0.647051 0.454422
Si Si7 0.500000 0.500000 0.500000
Si Si8 0.320376 0.099327 0.221365
O O1 0.459830 0.183893 0.723304
O O2 0.317678 0.106752 0.462287
O O3 0.411360 0.257714 0.521425
O O4 0.545031 0.113324 0.653397
O O5 0.071842 0.165052 0.840940
O O6 0.893904 0.177885 0.766112
O O7 0.084280 0.275713 0.995818
O O8 0.365215 0.500000 0.168983
O O9 0.283742 0.343169 0.157201
O O10 0.231038 0.398339 0.935986
O O11 0.360466 0.500000 0.710484
O O12 0.321089 0.618569 0.537574
O O13 0.731751 0.836672 0.281141
O O14 0.763113 0.685018 0.214200
O O15 0.425256 0.577244 0.481119
O O16 0.291460 0.000000 0.231788
#
# Coordination Sequence:
#
# PCOD9180233 Si02
#       8
#     8   8   8   8   8   8   2   8
#     4  11  21  42  61  85 122 174 216 262 308 392
#     4  10  19  37  60  86 122 167 215 259 319 378
#     4  10  19  31  58  91 125 159 205 262 320 388
#     4  11  24  43  66  93 121 168 231 271 310 386
#     4  11  21  38  59  92 135 162 200 272 339 395
#     4  11  25  38  61  96 132 165 209 263 344 386
#     4  12  24  40  64 100 148 172 202 284 336 414
#     4  10  19  36  60  89 118 163 213 257 318 381
#
# _framework density 23.669675999999999
#
# number of rings (size 3 to 8) (size 9 to 14) (size 15 to 20)
#    0.000    1.379    3.448    4.138    2.897    0.552 
#    0.000    4.828    0.000    1.655    0.000    0.000 
#    0.000    0.000    0.000    0.000    0.000    0.000 
#
# Total GULP energy -162255.539772 kJ/mol
# GULP energy per Si atom -5595.018613 kJ/mol
# Density = 2.361580 g / cm^3
# Si number density = 23.669676 Si / 1000 Ang^3
#
#
#
# Elastic Constant Matrix: (Units=GPa)
#
#
# Indices 1 2 3 4 5 6 
#
# 1 66.8658 19.0631 25.5240 0.0000 1.1105 0.0000
# 2 19.0631 86.0796 -0.2566 0.0000 -13.0800 0.0000
# 3 25.5240 -0.2566 122.1437 0.0000 0.4747 0.0000
# 4 0.0000 0.0000 0.0000 22.0181 0.0000 6.5290
# 5 1.1105 -13.0800 0.4747 0.0000 28.1191 0.0000
# 6 0.0000 0.0000 0.0000 6.5290 0.0000 29.9633
#
#
#
# Elastic Compliance Matrix: (Units=1/GPa)
#
#
# Indices 1 2 3 4 5 6 
#
# 1 0.017637 -0.004318 -0.003684 0.000000 -0.002643 0.000000
# 2 -0.004318 0.013558 0.000906 0.000000 0.006462 0.000000
# 3 -0.003684 0.000906 0.008957 0.000000 0.000416 0.000000
# 4 0.000000 0.000000 0.000000 0.048554 0.000000 -0.010580
# 5 -0.002643 0.006462 0.000416 0.000000 0.038666 0.000000
# 6 0.000000 0.000000 0.000000 -0.010580 0.000000 0.035680
#
#
# Mechanical properties :
#
#
# Convention : Reuss Voigt Hill
#
# Bulk Modulus (GPa) = 38.52339 40.41668 39.47003
# Shear Modulus (GPa) = 26.89632 31.40402 29.15017
#
# Velocity S-wave (km/s) = 3.37459 3.64643 3.51314
# Velocity P-wave (km/s) = 5.61200 5.90262 5.75914
#
# Compressibility (1/GPa) = 0.02595825
#
# Stress axis : x y z
#
# Youngs Moduli (GPa) = 56.69973 73.75648 111.64121
#
# Poissons Ratio (x) = 0.31851 0.41132
# Poissons Ratio (y) = 0.24485 -0.10112
# Poissons Ratio (z) = 0.20890 -0.06681
#
# Static dielectric constant tensor:
#      x y z
#    x 1.905260 0.000000 -0.027960 
#    y 0.000000 1.843760 0.000000 
#    z -0.027960 0.000000 1.940170 
# 
# From -- ./inp_files/289942.got.cif
#   From: 2010.05.17/outbox.cif.g08.bks.cpg/sg12_145_cif.got.tgz:289942.got - 2010.06.03 13:09:07.
