data_PCOD9180858
_publ_section_title
;
Structure prediction by ZEFSAII (Michael W. Deem and Ramdas Pophale) SiO2 
 PCOD9180858
Probable space group: C 2/M
;
_chemical_formula_sum "Si O2"
_cell_formula_units_Z 56
_cell_length_a 14.228547
_cell_length_b 14.748699
_cell_length_c 18.987471
_cell_angle_alpha 90.000000
_cell_angle_beta 40.828776
_cell_angle_gamma 90.000000
_cell_volume 2605.114269
_symmetry_space_group_name_H-M "C 2/M"
_symmetry_group_IT_number 12
_symmetry_cell_setting 'monoclinic'
loop_
_space_group_symop_operation_xyz
x,y,z
-x,y,-z
-x,-y,-z
x,-y,z
1/2+x,1/2+y,z
1/2-x,1/2+y,-z
1/2-x,1/2-y,-z
1/2+x,1/2-y,z
loop_
_atom_site_type_symbol
_atom_site_label
_atom_site_fract_x
_atom_site_fract_y
_atom_site_fract_z
Si Si1 0.450856 0.899001 0.253060
Si Si2 0.203736 0.207273 0.828696
Si Si3 0.273621 0.607752 0.042807
Si Si4 0.214099 0.595869 0.797618
Si Si5 0.467053 0.610463 0.201121
Si Si6 0.037248 0.900413 0.560816
Si Si7 0.464071 0.740711 0.338527
O O1 0.605495 0.867924 0.134109
O O2 0.344177 0.903193 0.248699
O O3 0.398506 0.829631 0.340479
O O4 0.470821 0.000000 0.270822
O O5 0.168110 0.154030 0.919810
O O6 0.155990 0.311818 0.862724
O O7 0.139796 0.155413 0.796893
O O8 0.377455 0.220357 0.728820
O O9 0.282438 0.500000 0.047037
O O10 0.372886 0.628772 0.920270
O O11 0.172873 0.500000 0.855506
O O12 0.385912 0.595925 0.689778
O O13 0.447030 0.500000 0.218651
O O14 0.458813 0.665777 0.278425
O O15 0.103129 0.810403 0.556950
O O16 0.000000 0.890090 0.500000
O O17 0.107922 0.000000 0.529268
#
# Coordination Sequence:
#
# PCOD9180858 Si02
#       7
#     8   8   8   8   8   8   8
#     4   9  17  32  52  73 102 142 181 213 256 316
#     4  10  19  32  51  76 105 140 179 220 269 315
#     4   9  19  33  50  74 104 142 186 224 263 309
#     4   9  17  32  53  74 103 138 173 213 264 320
#     4  11  21  35  54  78 109 145 187 234 269 310
#     4   9  18  34  57  82 106 132 167 216 272 330
#     4  10  20  34  55  80 107 138 178 221 274 319
#
# _framework density 21.496178
#
# number of rings (size 3 to 8) (size 9 to 14) (size 15 to 20)
#    0.000    2.429    1.429    1.286    0.000    4.571 
#    2.571    0.714    0.000    3.000    0.000    0.000 
#    0.000    0.000    0.000    0.000    0.000    0.000 
#
# Total GULP energy -156084.294827 kJ/mol
# GULP energy per Si atom -5574.439101 kJ/mol
# Density = 2.144725 g / cm^3
# Si number density = 21.496178 Si / 1000 Ang^3
#
#
#
# Elastic Constant Matrix: (Units=GPa)
#
#
# Indices 1 2 3 4 5 6 
#
# 1 62.7498 -1.8422 3.9696 -0.0001 -8.7264 0.0000
# 2 -1.8422 29.1713 10.9170 0.0000 -6.3545 0.0000
# 3 3.9696 10.9170 40.9745 -0.0001 -7.8848 0.0001
# 4 -0.0001 0.0000 -0.0001 11.4885 0.0001 9.8629
# 5 -8.7264 -6.3545 -7.8848 0.0001 25.0228 -0.0001
# 6 0.0000 0.0000 0.0001 9.8629 -0.0001 27.4389
#
#
#
# Elastic Compliance Matrix: (Units=1/GPa)
#
#
# Indices 1 2 3 4 5 6 
#
# 1 0.016970 0.002890 -0.001207 0.000000 0.006271 0.000000
# 2 0.002890 0.039719 -0.009291 0.000000 0.008167 0.000000
# 3 -0.001207 -0.009291 0.028171 0.000000 0.006096 0.000000
# 4 0.000000 0.000000 0.000000 0.125893 0.000000 -0.045252
# 5 0.006271 0.008167 0.006096 0.000000 0.046145 0.000000
# 6 0.000000 0.000000 0.000000 -0.045252 0.000000 0.052711
#
#
# Mechanical properties :
#
#
# Convention : Reuss Voigt Hill
#
# Bulk Modulus (GPa) = 14.35907 17.66494 16.01201
# Shear Modulus (GPa) = 14.36621 20.78013 17.57317
#
# Velocity S-wave (km/s) = 2.58798 3.11254 2.86230
# Velocity P-wave (km/s) = 3.95279 4.59921 4.28820
#
# Compressibility (1/GPa) = 0.06964239
#
# Stress axis : x y z
#
# Youngs Moduli (GPa) = 58.92884 25.17710 35.49761
#
# Poissons Ratio (x) = -0.07275 0.04285
# Poissons Ratio (y) = -0.17028 0.32980
# Poissons Ratio (z) = 0.07113 0.23392
#
# Static dielectric constant tensor:
#      x y z
#    x 1.804100 0.000000 -0.054390 
#    y 0.000000 1.870330 0.000000 
#    z -0.054390 0.000000 1.792310 
# 
# From -- ./inp_files/251133.got.cif
#   From: 2010.05.17/outbox.cif.g08.bks.cpg/sg12_126_cif.got.tgz:251133.got - 2010.06.03 13:09:07.
