data_PCOD9180426
_publ_section_title
;
Structure prediction by ZEFSAII (Michael W. Deem and Ramdas Pophale) SiO2 
 PCOD9180426
Probable space group: C 2/M
;
_chemical_formula_sum "Si O2"
_cell_formula_units_Z 64
_cell_length_a 27.264889
_cell_length_b 17.697123
_cell_length_c 22.578299
_cell_angle_alpha 90.000000
_cell_angle_beta 159.423917
_cell_angle_gamma 90.000000
_cell_volume 3828.796251
_symmetry_space_group_name_H-M "C 2/M"
_symmetry_group_IT_number 12
_symmetry_cell_setting 'monoclinic'
loop_
_space_group_symop_operation_xyz
x,y,z
-x,y,-z
-x,-y,-z
x,-y,z
1/2+x,1/2+y,z
1/2-x,1/2+y,-z
1/2-x,1/2-y,-z
1/2+x,1/2-y,z
loop_
_atom_site_type_symbol
_atom_site_label
_atom_site_fract_x
_atom_site_fract_y
_atom_site_fract_z
Si Si1 0.531873 0.590041 0.361850
Si Si2 0.066172 0.199999 0.511164
Si Si3 0.728590 0.585439 0.016952
Si Si4 0.385142 0.714492 0.623723
Si Si5 0.646527 0.720451 0.140687
Si Si6 0.546472 0.350916 0.909404
Si Si7 0.508424 0.173397 0.356578
Si Si8 0.290543 0.588463 0.697145
O O1 0.554914 0.500000 0.391546
O O2 0.546084 0.632894 0.440621
O O3 0.379775 0.602596 0.158988
O O4 0.632795 0.633355 0.429089
O O5 0.227819 0.222718 0.704069
O O6 0.000000 0.183212 0.500000
O O7 0.000918 0.276103 0.407801
O O8 0.777377 0.500000 0.063904
O O9 0.642939 0.592038 0.981767
O O10 0.860821 0.639140 0.172158
O O11 0.250000 0.750000 0.500000
O O12 0.494523 0.705496 0.799983
O O13 0.441161 0.768606 0.636262
O O14 0.674423 0.642914 0.208255
O O15 0.500000 0.751220 0.000000
O O16 0.626322 0.694742 0.050471
O O17 0.408358 0.389315 0.781713
O O18 0.632798 0.111923 0.501587
O O19 0.300398 0.500000 0.721438
#
# Coordination Sequence:
#
# PCOD9180426 Si02
#       8
#     8   8   8   8   8   8   8   8
#     4   9  21  37  56  79 110 140 177 222 272 322
#     4  10  20  35  57  77 102 138 184 222 263 318
#     4  10  20  34  51  78 110 140 171 216 267 319
#     4  10  19  35  56  81 104 135 177 218 265 318
#     4   9  20  33  49  77 105 137 178 224 261 303
#     4  10  19  32  53  73 103 138 181 211 261 317
#     4  10  20  34  53  78 109 135 177 223 264 309
#     4  10  19  32  49  73 106 144 176 210 256 314
#
# _framework density 16.715436
#
# number of rings (size 3 to 8) (size 9 to 14) (size 15 to 20)
#    0.000    2.250    1.250    1.500    1.750    9.000 
#    0.000    0.000    0.000    4.500    0.000    0.000 
#    0.000    0.000    0.000    0.000    0.000    0.000 
#
# Total GULP energy -178307.030761 kJ/mol
# GULP energy per Si atom -5572.094711 kJ/mol
# Density = 1.667739 g / cm^3
# Si number density = 16.715436 Si / 1000 Ang^3
#
#
#
# Elastic Constant Matrix: (Units=GPa)
#
#
# Indices 1 2 3 4 5 6 
#
# 1 101.2596 42.9222 49.0286 -0.0001 -14.7750 -0.0001
# 2 42.9222 80.0071 57.8628 -0.0011 3.7258 -0.0007
# 3 49.0286 57.8628 89.2120 0.0007 -5.6447 -0.0003
# 4 -0.0001 -0.0011 0.0007 13.2529 0.0002 -4.0558
# 5 -14.7750 3.7258 -5.6447 0.0002 24.4234 0.0000
# 6 -0.0001 -0.0007 -0.0003 -4.0558 0.0000 12.7131
#
#
#
# Elastic Compliance Matrix: (Units=1/GPa)
#
#
# Indices 1 2 3 4 5 6 
#
# 1 0.015804 -0.005780 -0.004340 0.000000 0.009439 -0.000001
# 2 -0.005780 0.026983 -0.015026 0.000004 -0.011086 0.000002
# 3 -0.004340 -0.015026 0.023665 -0.000003 0.005137 -0.000001
# 4 0.000000 0.000004 -0.000003 0.083619 -0.000002 0.026676
# 5 0.009439 -0.011086 0.005137 -0.000002 0.049533 -0.000001
# 6 -0.000001 0.000002 -0.000001 0.026676 -0.000001 0.087169
#
#
# Mechanical properties :
#
#
# Convention : Reuss Voigt Hill
#
# Bulk Modulus (GPa) = 61.87605 63.34510 62.61058
# Shear Modulus (GPa) = 14.60061 18.12223 16.36142
#
# Velocity S-wave (km/s) = 2.95868 3.29623 3.13201
# Velocity P-wave (km/s) = 6.98351 7.24329 7.11459
#
# Compressibility (1/GPa) = 0.01616134
#
# Stress axis : x y z
#
# Youngs Moduli (GPa) = 63.27534 37.06023 42.25619
#
# Poissons Ratio (x) = 0.21419 0.18337
# Poissons Ratio (y) = 0.36571 0.63495
# Poissons Ratio (z) = 0.27458 0.55688
#
# Static dielectric constant tensor:
#      x y z
#    x 1.579530 0.000000 0.019460 
#    y 0.000000 1.557280 0.000000 
#    z 0.019460 0.000000 1.594700 
# 
# From -- ./inp_files/328681.got.cif
#   From: 2010.05.17/outbox.cif.g08.bks.cpg/sg12_165_cif.got.tgz:328681.got - 2010.06.03 13:09:07.
