data_PCOD9180001
_publ_section_title
;
Structure prediction by ZEFSAII (Michael W. Deem and Ramdas Pophale) SiO2 
 PCOD9180001
Probable space group: C 2/M
;
_chemical_formula_sum "Si O2"
_cell_formula_units_Z 64
_cell_length_a 15.002835
_cell_length_b 22.702140
_cell_length_c 13.907277
_cell_angle_alpha 90.000000
_cell_angle_beta 138.267161
_cell_angle_gamma 90.000000
_cell_volume 3153.069246
_symmetry_space_group_name_H-M "C 2/M"
_symmetry_group_IT_number 12
_symmetry_cell_setting 'monoclinic'
loop_
_space_group_symop_operation_xyz
x,y,z
-x,y,-z
-x,-y,-z
x,-y,z
1/2+x,1/2+y,z
1/2-x,1/2+y,-z
1/2-x,1/2-y,-z
1/2+x,1/2-y,z
loop_
_atom_site_type_symbol
_atom_site_label
_atom_site_fract_x
_atom_site_fract_y
_atom_site_fract_z
Si Si1 0.599785 0.152297 0.153575
Si Si2 0.929650 0.432417 0.156520
Si Si3 0.215340 0.314237 0.436891
Si Si4 0.151825 0.930029 0.223330
Si Si5 0.855006 0.928321 0.003661
Si Si6 0.889794 0.932451 0.550892
Si Si7 0.312131 0.564910 0.262615
Si Si8 0.925822 0.607443 0.540538
O O1 0.519551 0.105734 0.156723
O O2 0.673223 0.191017 0.291759
O O3 0.703583 0.115677 0.172307
O O4 0.500000 0.183454 0.000000
O O5 0.933900 0.500000 0.128894
O O6 0.776015 0.410413 0.041835
O O7 0.993413 0.430893 0.316006
O O8 0.250000 0.250000 0.500000
O O9 0.317080 0.370995 0.521474
O O10 0.099308 0.334640 0.416619
O O11 0.166567 0.908977 0.124999
O O12 0.007987 0.909679 0.149645
O O13 0.281814 0.916958 0.390530
O O14 0.140364 0.000000 0.205103
O O15 0.851861 0.000000 0.004907
O O16 0.949745 0.926219 0.316022
O O17 0.851817 0.936671 0.407458
O O18 0.856968 0.000000 0.562921
O O19 0.259282 0.500000 0.195120
O O20 0.000000 0.615897 0.500000
#
# Coordination Sequence:
#
# PCOD9180001 Si02
#       8
#     8   8   8   8   8   8   8   8
#     4  10  21  37  59  85 122 161 204 256 314 379
#     4  10  19  31  52  84 126 169 204 246 308 376
#     4  10  23  43  64  89 124 160 209 262 312 377
#     4   9  16  28  49  77 115 158 200 245 295 355
#     4   8  15  28  46  73 116 166 200 235 294 365
#     4   8  15  32  58  88 121 156 201 257 307 360
#     4   8  14  28  53  86 120 157 203 250 304 364
#     4  11  21  34  55  84 114 155 206 263 304 366
#
# _framework density 20.297684
#
# number of rings (size 3 to 8) (size 9 to 14) (size 15 to 20)
#    0.000    2.750    1.250    2.250    0.000    5.000 
#    6.750    0.000    2.750    0.750    0.000    0.000 
#    0.000    0.000    0.000    0.000    0.000    0.000 
#
# Total GULP energy -178260.190290 kJ/mol
# GULP energy per Si atom -5570.630947 kJ/mol
# Density = 2.025149 g / cm^3
# Si number density = 20.297684 Si / 1000 Ang^3
#
#
#
# Elastic Constant Matrix: (Units=GPa)
#
#
# Indices 1 2 3 4 5 6 
#
# 1 80.3605 26.2374 40.6147 0.0000 1.1067 0.0000
# 2 26.2374 84.1999 33.0351 0.0000 -3.5842 0.0000
# 3 40.6147 33.0351 102.8532 0.0000 7.4105 0.0000
# 4 0.0000 0.0000 0.0000 13.9135 0.0000 7.9596
# 5 1.1067 -3.5842 7.4105 0.0000 38.9164 0.0000
# 6 0.0000 0.0000 0.0000 7.9596 0.0000 20.5514
#
#
#
# Elastic Compliance Matrix: (Units=1/GPa)
#
#
# Indices 1 2 3 4 5 6 
#
# 1 0.016144 -0.002868 -0.005477 0.000000 0.000320 0.000000
# 2 -0.002868 0.014272 -0.003601 0.000000 0.002082 0.000000
# 3 -0.005477 -0.003601 0.013236 0.000000 -0.002696 0.000000
# 4 0.000000 0.000000 0.000000 0.092330 0.000000 -0.035760
# 5 0.000320 0.002082 -0.002696 0.000000 0.026392 0.000000
# 6 0.000000 0.000000 0.000000 -0.035760 0.000000 0.062508
#
#
# Mechanical properties :
#
#
# Convention : Reuss Voigt Hill
#
# Bulk Modulus (GPa) = 50.60864 51.90976 51.25920
# Shear Modulus (GPa) = 19.58006 25.84468 22.71237
#
# Velocity S-wave (km/s) = 3.10924 3.57218 3.34872
# Velocity P-wave (km/s) = 6.15445 6.53021 6.34511
#
# Compressibility (1/GPa) = 0.01975947
#
# Stress axis : x y z
#
# Youngs Moduli (GPa) = 61.94267 70.06810 75.55039
#
# Poissons Ratio (x) = 0.20097 0.41377
# Poissons Ratio (y) = 0.17767 0.27208
# Poissons Ratio (z) = 0.33924 0.25234
#
# Static dielectric constant tensor:
#      x y z
#    x 1.794880 0.000000 0.008850 
#    y 0.000000 1.663660 0.000000 
#    z 0.008850 0.000000 1.826800 
# 
# From -- ./inp_files/147653.got.cif
#   From: 2010.05.17/outbox.cif.g08.bks.cpg/sg12_74_cif.got.tgz:147653.got - 2010.06.03 13:09:07.
