data_PCOD9180328
_publ_section_title
;
Structure prediction by ZEFSAII (Michael W. Deem and Ramdas Pophale) SiO2 
 PCOD9180328
Probable space group: C 2/M
;
_chemical_formula_sum "Si O2"
_cell_formula_units_Z 44
_cell_length_a 15.394790
_cell_length_b 25.255621
_cell_length_c 7.982987
_cell_angle_alpha 90.000000
_cell_angle_beta 120.596535
_cell_angle_gamma 90.000000
_cell_volume 2671.688265
_symmetry_space_group_name_H-M "C 2/M"
_symmetry_group_IT_number 12
_symmetry_cell_setting 'monoclinic'
loop_
_space_group_symop_operation_xyz
x,y,z
-x,y,-z
-x,-y,-z
x,-y,z
1/2+x,1/2+y,z
1/2-x,1/2+y,-z
1/2-x,1/2-y,-z
1/2+x,1/2-y,z
loop_
_atom_site_type_symbol
_atom_site_label
_atom_site_fract_x
_atom_site_fract_y
_atom_site_fract_z
Si Si1 0.193899 0.844140 0.749400
Si Si2 0.500000 0.623021 0.000000
Si Si3 0.318784 0.701592 0.894484
Si Si4 0.108426 0.740204 0.527687
Si Si5 0.895837 0.306523 0.845620
Si Si6 0.434548 0.560070 0.266622
O O1 0.125462 0.803410 0.573317
O O2 0.301435 0.844923 0.766415
O O3 0.153496 0.901280 0.757174
O O4 0.200870 0.815932 0.936306
O O5 0.398810 0.659775 0.893966
O O6 0.512857 0.588098 0.843077
O O7 0.210432 0.712282 0.700284
O O8 0.376003 0.757658 0.951804
O O9 0.103559 0.722388 0.331682
O O10 0.000000 0.726011 0.500000
O O11 0.000000 0.332404 0.000000
O O12 0.500000 0.557467 0.500000
O O13 0.405738 0.500000 0.192255
#
# Coordination Sequence:
#
# PCOD9180328 Si02
#       6
#     8   4   8   8   8   8
#     4  10  20  33  51  70 103 136 173 212 258 306
#     4  10  21  34  58  76 112 138 173 214 264 314
#     4  10  19  32  48  75 103 141 167 208 250 312
#     4  11  21  30  48  75 106 141 171 206 248 318
#     4  11  20  31  48  74 107 136 173 206 250 314
#     4  10  22  36  55  77 103 135 178 224 263 307
#
# _framework density 16.468986999999998
#
# number of rings (size 3 to 8) (size 9 to 14) (size 15 to 20)
#    0.000    1.636    0.909    7.364    7.636    0.000 
#    0.000    0.000    0.000    0.545    0.000    0.000 
#    0.000    8.364    0.000    0.000    0.000    0.000 
#
# Total GULP energy -122590.576255 kJ/mol
# GULP energy per Si atom -5572.298921 kJ/mol
# Density = 1.643150 g / cm^3
# Si number density = 16.468987 Si / 1000 Ang^3
#
#
#
# Elastic Constant Matrix: (Units=GPa)
#
#
# Indices 1 2 3 4 5 6 
#
# 1 131.2103 57.2089 35.3715 0.0000 10.7231 0.0000
# 2 57.2089 90.8906 16.2112 0.0000 -4.5467 0.0000
# 3 35.3715 16.2112 48.5647 0.0000 4.7810 0.0000
# 4 0.0000 0.0000 0.0000 13.3859 0.0000 -5.5936
# 5 10.7231 -4.5467 4.7810 0.0000 19.9504 0.0000
# 6 0.0000 0.0000 0.0000 -5.5936 0.0000 41.5611
#
#
#
# Elastic Compliance Matrix: (Units=1/GPa)
#
#
# Indices 1 2 3 4 5 6 
#
# 1 0.013238 -0.007556 -0.006401 0.000000 -0.007304 0.000000
# 2 -0.007556 0.016283 -0.000714 0.000000 0.007943 0.000000
# 3 -0.006401 -0.000714 0.025777 0.000000 -0.002900 0.000000
# 4 0.000000 0.000000 0.000000 0.079157 0.000000 0.010654
# 5 -0.007304 0.007943 -0.002900 0.000000 0.056555 0.000000
# 6 0.000000 0.000000 0.000000 0.010654 0.000000 0.025495
#
#
# Mechanical properties :
#
#
# Convention : Reuss Voigt Hill
#
# Bulk Modulus (GPa) = 38.52598 54.24987 46.38792
# Shear Modulus (GPa) = 19.64643 25.77107 22.70875
#
# Velocity S-wave (km/s) = 3.45764 3.96008 3.71736
# Velocity P-wave (km/s) = 6.27568 7.34314 6.83030
#
# Compressibility (1/GPa) = 0.02595651
#
# Stress axis : x y z
#
# Youngs Moduli (GPa) = 75.53817 61.41353 38.79481
#
# Poissons Ratio (x) = 0.46406 0.24831
# Poissons Ratio (y) = 0.57079 0.02769
# Poissons Ratio (z) = 0.48349 0.04384
#
# Static dielectric constant tensor:
#      x y z
#    x 1.605760 0.000000 0.005510 
#    y 0.000000 1.557540 0.000000 
#    z 0.005510 0.000000 1.591310 
# 
# From -- ./inp_files/63691.got.cif
#   From: 2010.05.17/outbox.cif.g08.bks.cpg/sg12_32_cif.got.tgz:63691.got - 2010.06.03 13:09:07.
