data_PCOD9180172
_publ_section_title
;
Structure prediction by ZEFSAII (Michael W. Deem and Ramdas Pophale) SiO2 
 PCOD9180172
Probable space group: C 2/M
;
_chemical_formula_sum "Si O2"
_cell_formula_units_Z 40
_cell_length_a 9.206410
_cell_length_b 19.840602
_cell_length_c 13.506849
_cell_angle_alpha 90.000000
_cell_angle_beta 132.712921
_cell_angle_gamma 90.000000
_cell_volume 1812.782408
_symmetry_space_group_name_H-M "C 2/M"
_symmetry_group_IT_number 12
_symmetry_cell_setting 'monoclinic'
loop_
_space_group_symop_operation_xyz
x,y,z
-x,y,-z
-x,-y,-z
x,-y,z
1/2+x,1/2+y,z
1/2-x,1/2+y,-z
1/2-x,1/2-y,-z
1/2+x,1/2-y,z
loop_
_atom_site_type_symbol
_atom_site_label
_atom_site_fract_x
_atom_site_fract_y
_atom_site_fract_z
Si Si1 0.793864 0.852892 0.964970
Si Si2 0.886187 0.781687 0.204706
Si Si3 0.307761 0.500000 0.979930
Si Si4 0.270025 0.281468 0.370567
Si Si5 0.284179 0.000000 0.849771
Si Si6 0.765965 0.928484 0.369478
O O1 0.666714 0.790816 0.867460
O O2 0.837030 0.837005 0.099809
O O3 0.000000 0.851284 0.000000
O O4 0.704885 0.927976 0.912661
O O5 0.764836 0.786158 0.248909
O O6 0.119966 0.776251 0.334759
O O7 0.356864 0.500000 0.120011
O O8 0.500000 0.500000 0.000000
O O9 0.500000 0.268935 0.500000
O O10 0.201930 0.355376 0.376439
O O11 0.256189 0.938689 0.759642
O O12 0.500000 0.000000 0.000000
O O13 0.000000 0.928348 0.500000
O O14 0.685170 0.000000 0.373888
#
# Coordination Sequence:
#
# PCOD9180172 Si02
#       6
#     8   8   4   8   4   8
#     4  10  21  39  59  85 116 153 186 238 288 344
#     4  11  22  38  59  84 121 145 192 236 289 340
#     4  10  22  37  56  83 116 155 188 222 292 351
#     4  11  22  38  60  83 112 154 194 235 281 347
#     4  10  19  31  54  91 112 133 187 236 282 335
#     4   8  18  36  55  82 115 146 182 234 293 340
#
# _framework density 22.065526999999999
#
# number of rings (size 3 to 8) (size 9 to 14) (size 15 to 20)
#    0.600    1.400    2.000    1.800    2.800    0.000 
#    0.000    0.000    0.000    0.000    0.000    4.200 
#    0.000    0.000    0.000    0.000    0.000    0.000 
#
# Total GULP energy -111511.458644 kJ/mol
# GULP energy per Si atom -5575.572932 kJ/mol
# Density = 2.201530 g / cm^3
# Si number density = 22.065527 Si / 1000 Ang^3
#
#
#
# Elastic Constant Matrix: (Units=GPa)
#
#
# Indices 1 2 3 4 5 6 
#
# 1 88.5033 -1.8151 9.9220 0.0000 -8.4422 0.0000
# 2 -1.8151 110.7443 18.1473 0.0000 7.2718 0.0000
# 3 9.9220 18.1473 83.3187 0.0000 -0.0273 0.0000
# 4 0.0000 0.0000 0.0000 23.2520 0.0000 -2.8914
# 5 -8.4422 7.2718 -0.0273 0.0000 26.5830 0.0000
# 6 0.0000 0.0000 0.0000 -2.8914 0.0000 18.2003
#
#
#
# Elastic Compliance Matrix: (Units=1/GPa)
#
#
# Indices 1 2 3 4 5 6 
#
# 1 0.011818 0.000188 -0.001447 0.000000 0.003700 0.000000
# 2 0.000188 0.009545 -0.002102 0.000000 -0.002554 0.000000
# 3 -0.001447 -0.002102 0.012632 0.000000 0.000128 0.000000
# 4 0.000000 0.000000 0.000000 0.043874 0.000000 0.006970
# 5 0.003700 -0.002554 0.000128 0.000000 0.039492 0.000000
# 6 0.000000 0.000000 0.000000 0.006970 0.000000 0.056052
#
#
# Mechanical properties :
#
#
# Convention : Reuss Voigt Hill
#
# Bulk Modulus (GPa) = 36.66672 37.23051 36.94862
# Shear Modulus (GPa) = 26.42339 30.69453 28.55896
#
# Velocity S-wave (km/s) = 3.46424 3.73374 3.60151
# Velocity P-wave (km/s) = 5.71442 5.95794 5.83745
#
# Compressibility (1/GPa) = 0.02727269
#
# Stress axis : x y z
#
# Youngs Moduli (GPa) = 84.61626 104.76645 79.16195
#
# Poissons Ratio (x) = -0.01968 0.11455
# Poissons Ratio (y) = -0.01590 0.16641
# Poissons Ratio (z) = 0.12244 0.22024
#
# Static dielectric constant tensor:
#      x y z
#    x 1.772300 0.000000 0.013220 
#    y 0.000000 1.871680 0.000000 
#    z 0.013220 0.000000 1.869750 
# 
# From -- ./inp_files/197343.got.cif
#   From: 2010.05.17/outbox.cif.g08.bks.cpg/sg12_99_cif.got.tgz:197343.got - 2010.06.03 13:09:07.
