data_PCOD9180532
_publ_section_title
;
Structure prediction by ZEFSAII (Michael W. Deem and Ramdas Pophale) SiO2 
 PCOD9180532
Probable space group: C 2/M
;
_chemical_formula_sum "Si O2"
_cell_formula_units_Z 48
_cell_length_a 25.503533
_cell_length_b 7.479697
_cell_length_c 11.758887
_cell_angle_alpha 90.000000
_cell_angle_beta 69.165295
_cell_angle_gamma 90.000000
_cell_volume 2096.433948
_symmetry_space_group_name_H-M "C 2/M"
_symmetry_group_IT_number 12
_symmetry_cell_setting 'monoclinic'
loop_
_space_group_symop_operation_xyz
x,y,z
-x,y,-z
-x,-y,-z
x,-y,z
1/2+x,1/2+y,z
1/2-x,1/2+y,-z
1/2-x,1/2-y,-z
1/2+x,1/2-y,z
loop_
_atom_site_type_symbol
_atom_site_label
_atom_site_fract_x
_atom_site_fract_y
_atom_site_fract_z
Si Si1 0.120805 0.781362 0.349760
Si Si2 0.162217 0.710733 0.812206
Si Si3 0.513950 0.293837 0.310041
Si Si4 0.054110 0.716925 0.032219
Si Si5 0.730131 0.714084 0.143125
Si Si6 0.112699 0.215336 0.608479
O O1 0.058451 0.717045 0.365119
O O2 0.168710 0.718626 0.226051
O O3 0.135747 0.732295 0.467292
O O4 0.118274 0.000000 0.346960
O O5 0.163722 0.500000 0.835872
O O6 0.221613 0.783045 0.808962
O O7 0.147564 0.728725 0.691310
O O8 0.110164 0.782010 0.926564
O O9 0.504326 0.500000 0.351096
O O10 0.545934 0.286523 0.165200
O O11 0.451907 0.217199 0.338138
O O12 0.054757 0.500000 0.036843
O O13 0.000000 0.769518 0.000000
O O14 0.726630 0.500000 0.158155
O O15 0.750000 0.750000 0.000000
O O16 0.111525 0.000000 0.614457
#
# Coordination Sequence:
#
# PCOD9180532 Si02
#       6
#     8   8   8   8   8   8
#     4   9  19  36  55  77 106 139 172 213 265 308
#     4  10  21  36  53  77 108 140 173 213 261 308
#     4  10  19  32  54  80 105 134 175 221 257 302
#     4  10  19  32  50  72 105 141 168 206 262 312
#     4  10  21  38  59  79 104 137 173 215 261 310
#     4  10  20  34  54  79 106 138 175 213 257 310
#
# _framework density 22.896025000000002
#
# number of rings (size 3 to 8) (size 9 to 14) (size 15 to 20)
#    0.000    2.167    1.667    1.500    0.000    4.333 
#    0.000    1.667    0.000    2.000    0.000    0.000 
#    0.000    0.000    0.000    0.000    0.000    0.000 
#
# Total GULP energy -134110.566368 kJ/mol
# GULP energy per Si atom -5587.940265 kJ/mol
# Density = 2.284391 g / cm^3
# Si number density = 22.896025 Si / 1000 Ang^3
#
#
#
# Elastic Constant Matrix: (Units=GPa)
#
#
# Indices 1 2 3 4 5 6 
#
# 1 138.1885 1.7877 31.9472 0.0000 8.3266 0.0000
# 2 1.7877 63.0302 -15.8650 0.0000 -6.7063 0.0000
# 3 31.9472 -15.8650 94.2555 0.0000 9.7020 0.0000
# 4 0.0000 0.0000 0.0000 -122.2210 0.0000 1.8162
# 5 8.3266 -6.7063 9.7020 0.0000 33.9814 0.0000
# 6 0.0000 0.0000 0.0000 1.8162 0.0000 2.9644
#
#
#
# Elastic Compliance Matrix: (Units=1/GPa)
#
#
# Indices 1 2 3 4 5 6 
#
# 1 0.007966 -0.001062 -0.002737 0.000000 -0.001380 0.000000
# 2 -0.001062 0.016926 0.002924 0.000000 0.002766 0.000000
# 3 -0.002737 0.002924 0.012261 0.000000 -0.002253 0.000000
# 4 0.000000 0.000000 0.000000 -0.008108 0.000000 0.004968
# 5 -0.001380 0.002766 -0.002253 0.000000 0.030955 0.000000
# 6 0.000000 0.000000 0.000000 0.004968 0.000000 0.334288
#
#
# Mechanical properties :
#
#
# Convention : Reuss Voigt Hill
#
# Bulk Modulus (GPa) = 28.24493 36.80155 32.52324
# Shear Modulus (GPa) = 12.25978 1.45191 6.85584
#
# Velocity S-wave (km/s) = 2.31650 0.79719 1.73229
# Velocity P-wave (km/s) = 4.41790 4.11771 4.27045
#
# Compressibility (1/GPa) = 0.03540458
#
# Stress axis : x y z
#
# Youngs Moduli (GPa) = 125.53248 59.08146 81.55862
#
# Poissons Ratio (x) = 0.06272 0.22320
# Poissons Ratio (y) = 0.13327 -0.23848
# Poissons Ratio (z) = 0.34354 -0.17276
#
# Static dielectric constant tensor:
#      x y z
#    x 1.856640 0.000000 -0.015820 
#    y 0.000000 1.913840 0.000000 
#    z -0.015820 0.000000 1.823280 
# 
# From -- ./inp_files/94892.got.cif
#   From: 2010.05.17/outbox.cif.g08.bks.cpg/sg12_48_cif.got.tgz:94892.got - 2010.06.03 13:09:07.
