data_PCOD9180604
_publ_section_title
;
Structure prediction by ZEFSAII (Michael W. Deem and Ramdas Pophale) SiO2 
 PCOD9180604
Probable space group: C 2/M
;
_chemical_formula_sum "Si O2"
_cell_formula_units_Z 64
_cell_length_a 33.365246
_cell_length_b 7.615302
_cell_length_c 13.918926
_cell_angle_alpha 90.000000
_cell_angle_beta 46.745553
_cell_angle_gamma 90.000000
_cell_volume 2575.776073
_symmetry_space_group_name_H-M "C 2/M"
_symmetry_group_IT_number 12
_symmetry_cell_setting 'monoclinic'
loop_
_space_group_symop_operation_xyz
x,y,z
-x,y,-z
-x,-y,-z
x,-y,z
1/2+x,1/2+y,z
1/2-x,1/2+y,-z
1/2-x,1/2-y,-z
1/2+x,1/2-y,z
loop_
_atom_site_type_symbol
_atom_site_label
_atom_site_fract_x
_atom_site_fract_y
_atom_site_fract_z
Si Si1 0.990924 0.800532 0.752224
Si Si2 0.787410 0.205504 0.049695
Si Si3 0.102334 0.791090 0.227609
Si Si4 0.805436 0.284596 0.536269
Si Si5 0.188245 0.795306 0.763351
Si Si6 0.914864 0.705524 0.271179
Si Si7 0.935134 0.300075 0.037503
Si Si8 0.830180 0.288276 0.713568
O O1 0.953364 0.720650 0.729352
O O2 0.047872 0.720014 0.695365
O O3 0.004090 0.000000 0.704926
O O4 0.953171 0.795472 0.910859
O O5 0.796010 0.209989 0.150093
O O6 0.725350 0.277601 0.139950
O O7 0.785599 0.000000 0.025743
O O8 0.842647 0.284897 0.913576
O O9 0.115599 0.766781 0.317802
O O10 0.101015 0.000000 0.209207
O O11 0.803842 0.500000 0.537535
O O12 0.743047 0.224504 0.621729
O O13 0.853943 0.221553 0.387555
O O14 0.824693 0.232812 0.612263
O O15 0.131098 0.697716 0.849167
O O16 0.179417 0.000000 0.753304
O O17 0.908576 0.500000 0.261925
O O18 0.946469 0.776583 0.125571
O O19 0.956431 0.500000 0.992167
O O20 0.828127 0.500000 0.717303
#
# Coordination Sequence:
#
# PCOD9180604 Si02
#       8
#     8   8   8   8   8   8   8   8
#     4  11  23  39  58  79 106 143 185 224 268 326
#     4   8  14  28  48  73 107 140 169 208 258 313
#     4  10  19  32  50  75 108 139 170 217 273 316
#     4   8  17  36  59  79 108 148 184 217 262 319
#     4   9  16  32  57  81 109 147 181 213 259 323
#     4  10  22  40  58  78 107 144 182 226 276 318
#     4  11  22  35  55  84 114 139 172 225 282 323
#     4   9  17  30  53  80 103 136 181 215 251 315
#
# _framework density 24.846879999999999
#
# number of rings (size 3 to 8) (size 9 to 14) (size 15 to 20)
#    0.000    2.500    1.250    3.000    0.000    4.000 
#    0.000    4.375    0.000    3.750    0.000    0.000 
#    0.000    0.000    0.000    0.000    0.000    0.000 
#
# Total GULP energy -178715.459287 kJ/mol
# GULP energy per Si atom -5584.858103 kJ/mol
# Density = 2.479033 g / cm^3
# Si number density = 24.846880 Si / 1000 Ang^3
#
#
#
# Elastic Constant Matrix: (Units=GPa)
#
#
# Indices 1 2 3 4 5 6 
#
# 1 106.5631 5.9812 -19.3064 0.0000 -16.3642 0.0000
# 2 5.9812 57.5337 -4.3505 -0.0003 -0.7240 -0.0001
# 3 -19.3064 -4.3505 55.7027 -0.0001 -18.8004 0.0000
# 4 0.0000 -0.0003 -0.0001 8.3218 0.0000 -3.1796
# 5 -16.3642 -0.7240 -18.8004 0.0000 35.0210 0.0000
# 6 0.0000 -0.0001 0.0000 -3.1796 0.0000 15.3351
#
#
#
# Elastic Compliance Matrix: (Units=1/GPa)
#
#
# Indices 1 2 3 4 5 6 
#
# 1 0.012272 -0.000586 0.007498 0.000000 0.009747 0.000000
# 2 -0.000586 0.017564 0.001464 0.000001 0.000875 0.000000
# 3 0.007498 0.001464 0.026695 0.000000 0.017864 0.000000
# 4 0.000000 0.000001 0.000000 0.130506 0.000000 0.027059
# 5 0.009747 0.000875 0.017864 0.000000 0.042717 0.000000
# 6 0.000000 0.000000 0.000000 0.027059 0.000000 0.070820
#
#
# Mechanical properties :
#
#
# Convention : Reuss Voigt Hill
#
# Bulk Modulus (GPa) = 13.64607 20.49423 17.07015
# Shear Modulus (GPa) = 16.22058 27.56725 21.89392
#
# Velocity S-wave (km/s) = 2.55781 3.33451 2.97164
# Velocity P-wave (km/s) = 3.77189 4.80535 4.31964
#
# Compressibility (1/GPa) = 0.07328120
#
# Stress axis : x y z
#
# Youngs Moduli (GPa) = 81.48510 56.93541 37.46052
#
# Poissons Ratio (x) = 0.03338 -0.28086
# Poissons Ratio (y) = 0.04777 -0.05484
# Poissons Ratio (z) = -0.61094 -0.08335
#
# Static dielectric constant tensor:
#      x y z
#    x 2.035630 0.000000 0.000160 
#    y 0.000000 1.903350 0.000000 
#    z 0.000160 0.000000 1.998270 
# 
# From -- ./inp_files/249682.got.cif
#   From: 2010.05.17/outbox.cif.g08.bks.cpg/sg12_125_cif.got.tgz:249682.got - 2010.06.03 13:09:07.
