data_PCOD9180570
_publ_section_title
;
Structure prediction by ZEFSAII (Michael W. Deem and Ramdas Pophale) SiO2 
 PCOD9180570
Probable space group: C 2/M
;
_chemical_formula_sum "Si O2"
_cell_formula_units_Z 48
_cell_length_a 9.589165
_cell_length_b 31.966349
_cell_length_c 17.024101
_cell_angle_alpha 90.000000
_cell_angle_beta 27.113857
_cell_angle_gamma 90.000000
_cell_volume 2378.342546
_symmetry_space_group_name_H-M "C 2/M"
_symmetry_group_IT_number 12
_symmetry_cell_setting 'monoclinic'
loop_
_space_group_symop_operation_xyz
x,y,z
-x,y,-z
-x,-y,-z
x,-y,z
1/2+x,1/2+y,z
1/2-x,1/2+y,-z
1/2-x,1/2-y,-z
1/2+x,1/2-y,z
loop_
_atom_site_type_symbol
_atom_site_label
_atom_site_fract_x
_atom_site_fract_y
_atom_site_fract_z
Si Si1 0.055614 0.895384 0.813624
Si Si2 0.652577 0.547319 0.209382
Si Si3 0.434061 0.851200 0.346967
Si Si4 0.883702 0.616744 0.202777
Si Si5 0.467476 0.672114 0.723136
Si Si6 0.663601 0.762002 0.631203
O O1 0.064444 0.935502 0.751502
O O2 0.322112 0.883018 0.738947
O O3 0.039585 0.857515 0.759559
O O4 0.734699 0.897222 0.020077
O O5 0.580336 0.500000 0.268482
O O6 0.672647 0.580380 0.270657
O O7 0.000000 0.548229 0.000000
O O8 0.315654 0.871383 0.325811
O O9 0.206497 0.839318 0.532712
O O10 0.532606 0.804369 0.269262
O O11 0.839917 0.656667 0.166314
O O12 0.495784 0.719345 0.740199
O O13 0.750000 0.750000 0.500000
O O14 0.000000 0.769443 0.500000
#
# Coordination Sequence:
#
# PCOD9180570 Si02
#       6
#     8   8   8   8   8   8
#     4  10  20  34  53  78 106 132 169 216 261 308
#     4   8  16  34  58  77  98 136 176 205 247 320
#     4  11  20  33  52  77 106 137 171 215 262 300
#     4  10  20  34  53  79 107 131 167 219 268 304
#     4  10  19  35  55  73  98 144 188 209 239 304
#     4  10  19  32  50  74 101 137 184 217 239 293
#
# _framework density 20.182123000000001
#
# number of rings (size 3 to 8) (size 9 to 14) (size 15 to 20)
#    0.000    2.167    0.000    7.000    0.000    0.000 
#    0.000    5.833    0.000   20.000    0.000    0.000 
#    0.000    0.000    0.000    0.000    0.000    0.000 
#
# Total GULP energy -133659.388649 kJ/mol
# GULP energy per Si atom -5569.141194 kJ/mol
# Density = 2.013619 g / cm^3
# Si number density = 20.182123 Si / 1000 Ang^3
#
#
#
# Elastic Constant Matrix: (Units=GPa)
#
#
# Indices 1 2 3 4 5 6 
#
# 1 125.6886 41.8603 14.7678 0.0000 12.1170 0.0000
# 2 41.8603 137.0695 16.9357 0.0000 0.1747 0.0000
# 3 14.7678 16.9357 34.2565 0.0000 12.9041 0.0000
# 4 0.0000 0.0000 0.0000 -28.9577 0.0000 -20.1022
# 5 12.1170 0.1747 12.9041 0.0000 23.2127 0.0000
# 6 0.0000 0.0000 0.0000 -20.1022 0.0000 9.6520
#
#
#
# Elastic Compliance Matrix: (Units=1/GPa)
#
#
# Indices 1 2 3 4 5 6 
#
# 1 0.009407 -0.002733 -0.001091 0.000000 -0.004284 0.000000
# 2 -0.002733 0.008693 -0.004594 0.000000 0.003915 0.000000
# 3 -0.001091 -0.004594 0.040103 0.000000 -0.021690 0.000000
# 4 0.000000 0.000000 0.000000 -0.014119 0.000000 -0.029406
# 5 -0.004284 0.003915 -0.021690 0.000000 0.057344 0.000000
# 6 0.000000 0.000000 0.000000 -0.029406 0.000000 0.042361
#
#
# Mechanical properties :
#
#
# Convention : Reuss Voigt Hill
#
# Bulk Modulus (GPa) = 24.17329 49.34913 36.76121
# Shear Modulus (GPa) = 28.66747 15.67812 22.17279
#
# Velocity S-wave (km/s) = 3.77296 2.79019 3.31816
# Velocity P-wave (km/s) = 5.56632 5.90637 5.73886
#
# Compressibility (1/GPa) = 0.04136798
#
# Stress axis : x y z
#
# Youngs Moduli (GPa) = 106.29879 115.03799 24.93556
#
# Poissons Ratio (x) = 0.31437 0.02720
# Poissons Ratio (y) = 0.29049 0.11456
# Poissons Ratio (z) = 0.11596 0.52851
#
# Static dielectric constant tensor:
#      x y z
#    x 1.724450 0.000000 -0.040650 
#    y 0.000000 1.779300 0.000000 
#    z -0.040650 0.000000 1.794560 
# 
# From -- ./inp_files/200758.got.cif
#   From: 2010.05.17/outbox.cif.g08.bks.cpg/sg12_101_cif.got.tgz:200758.got - 2010.06.03 13:09:07.
