data_PCOD9180954
_publ_section_title
;
Structure prediction by ZEFSAII (Michael W. Deem and Ramdas Pophale) SiO2 
 PCOD9180954
Probable space group: C 2/M
;
_chemical_formula_sum "Si O2"
_cell_formula_units_Z 56
_cell_length_a 17.152420
_cell_length_b 24.570533
_cell_length_c 14.094475
_cell_angle_alpha 90.000000
_cell_angle_beta 24.630198
_cell_angle_gamma 90.000000
_cell_volume 2475.568012
_symmetry_space_group_name_H-M "C 2/M"
_symmetry_group_IT_number 12
_symmetry_cell_setting 'monoclinic'
loop_
_space_group_symop_operation_xyz
x,y,z
-x,y,-z
-x,-y,-z
x,-y,z
1/2+x,1/2+y,z
1/2-x,1/2+y,-z
1/2-x,1/2-y,-z
1/2+x,1/2-y,z
loop_
_atom_site_type_symbol
_atom_site_label
_atom_site_fract_x
_atom_site_fract_y
_atom_site_fract_z
Si Si1 0.410123 0.411330 0.690163
Si Si2 0.249995 0.229690 0.791327
Si Si3 0.679649 0.688237 0.450790
Si Si4 0.906292 0.839454 0.239086
Si Si5 0.486903 0.144682 0.650941
Si Si6 0.091827 0.336675 0.042469
Si Si7 0.332267 0.438457 0.991372
O O1 0.500000 0.439971 0.500000
O O2 0.542959 0.358376 0.562227
O O3 0.380607 0.438561 0.824981
O O4 0.205915 0.389700 0.887788
O O5 0.684190 0.256594 0.382701
O O6 0.382379 0.187337 0.699249
O O7 0.223211 0.285308 0.878972
O O8 0.049869 0.200828 0.029586
O O9 0.633903 0.689423 0.614132
O O10 0.894494 0.669153 0.209988
O O11 0.713344 0.853915 0.397094
O O12 0.017789 0.895765 0.132470
O O13 0.443093 0.160713 0.807194
O O14 0.373650 0.087959 0.763298
O O15 0.344825 0.500000 0.013415
#
# Coordination Sequence:
#
# PCOD9180954 Si02
#       7
#     8   8   8   8   8   8   8
#     4  10  19  32  51  78 113 152 198 241 280 338
#     4  11  20  32  54  80 111 159 207 237 283 345
#     4  10  21  35  52  78 115 162 203 239 280 341
#     4   9  21  38  54  81 119 156 201 244 289 349
#     4   9  20  35  52  79 114 146 195 251 287 341
#     4  10  20  34  51  77 115 159 201 236 279 341
#     4   9  19  36  56  78 108 151 201 249 297 346
#
# _framework density 22.621071000000001
#
# number of rings (size 3 to 8) (size 9 to 14) (size 15 to 20)
#    0.000    2.286    1.429    1.714    0.000    5.429 
#    0.000    0.000    0.000    0.000    0.000    8.000 
#    0.000   36.571    0.000  275.429    0.000   22.286 
#
# Total GULP energy -156333.998115 kJ/mol
# GULP energy per Si atom -5583.357076 kJ/mol
# Density = 2.256958 g / cm^3
# Si number density = 22.621071 Si / 1000 Ang^3
#
#
#
# Elastic Constant Matrix: (Units=GPa)
#
#
# Indices 1 2 3 4 5 6 
#
# 1 80.0758 32.1211 48.1694 -0.0169 -13.9534 -0.0232
# 2 32.1211 141.8001 50.6137 0.0871 -16.0007 0.0216
# 3 48.1694 50.6137 139.5475 0.1257 -8.3449 -0.0164
# 4 -0.0169 0.0871 0.1257 0.1321 -0.0726 -11.5360
# 5 -13.9534 -16.0007 -8.3449 -0.0726 27.9463 0.0054
# 6 -0.0232 0.0216 -0.0164 -11.5360 0.0054 -2.0624
#
#
#
# Elastic Compliance Matrix: (Units=1/GPa)
#
#
# Indices 1 2 3 4 5 6 
#
# 1 0.017175 -0.001379 -0.005053 -0.000004 0.006277 -0.000130
# 2 -0.001379 0.008635 -0.002445 0.000021 0.003526 0.000019
# 3 -0.005053 -0.002445 0.009736 -0.000027 -0.001016 0.000101
# 4 -0.000004 0.000021 -0.000027 0.015466 0.000059 -0.086509
# 5 0.006277 0.003526 -0.001016 0.000059 0.040632 -0.000249
# 6 -0.000130 0.000019 0.000101 -0.086509 -0.000249 -0.000987
#
#
# Mechanical properties :
#
#
# Convention : Reuss Voigt Hill
#
# Bulk Modulus (GPa) = 56.20373 69.24797 62.72585
# Shear Modulus (GPa) = 43.72853 20.57113 32.14983
#
# Velocity S-wave (km/s) = 4.40146 3.01886 3.77402
# Velocity P-wave (km/s) = 7.12251 6.54446 6.83960
#
# Compressibility (1/GPa) = 0.01779241
#
# Stress axis : x y z
#
# Youngs Moduli (GPa) = 58.22578 115.80683 102.70707
#
# Poissons Ratio (x) = 0.15964 0.51898
# Poissons Ratio (y) = 0.08026 0.25115
# Poissons Ratio (z) = 0.29422 0.28318
#
# Static dielectric constant tensor:
#      x y z
#    x 1.916280 -0.000030 0.010490 
#    y -0.000030 1.793350 0.000170 
#    z 0.010490 0.000170 1.939460 
# 
# From -- ./inp_files/286327.got.cif
#   From: 2010.05.17/outbox.cif.g08.bks.cpg/sg12_144_cif.got.tgz:286327.got - 2010.06.03 13:09:07.
