data_PCOD9180376
_publ_section_title
;
Structure prediction by ZEFSAII (Michael W. Deem and Ramdas Pophale) SiO2 
 PCOD9180376
Probable space group: C 2/M
;
_chemical_formula_sum "Si O2"
_cell_formula_units_Z 64
_cell_length_a 29.163358
_cell_length_b 9.006548
_cell_length_c 21.302805
_cell_angle_alpha 90.000000
_cell_angle_beta 131.564280
_cell_angle_gamma 90.000000
_cell_volume 4186.559576
_symmetry_space_group_name_H-M "C 2/M"
_symmetry_group_IT_number 12
_symmetry_cell_setting 'monoclinic'
loop_
_space_group_symop_operation_xyz
x,y,z
-x,y,-z
-x,-y,-z
x,-y,z
1/2+x,1/2+y,z
1/2-x,1/2+y,-z
1/2-x,1/2-y,-z
1/2+x,1/2-y,z
loop_
_atom_site_type_symbol
_atom_site_label
_atom_site_fract_x
_atom_site_fract_y
_atom_site_fract_z
Si Si1 0.344278 0.322305 0.598513
Si Si2 0.685117 0.822304 0.657808
Si Si3 0.200926 0.322622 0.002642
Si Si4 0.547886 0.178651 0.489496
Si Si5 0.108796 0.821594 0.833965
Si Si6 0.248541 0.176803 0.599741
Si Si7 0.974835 0.178955 0.665884
Si Si8 0.704930 0.677537 0.810242
O O1 0.340826 0.500000 0.605364
O O2 0.309816 0.239673 0.623326
O O3 0.305762 0.289485 0.499934
O O4 0.414514 0.278888 0.650620
O O5 0.616418 0.780641 0.573127
O O6 0.731431 0.752758 0.649473
O O7 0.696136 0.761254 0.737383
O O8 0.689681 0.000000 0.661351
O O9 0.200842 0.500000 0.994904
O O10 0.137162 0.255188 0.921239
O O11 0.250000 0.250000 0.000000
O O12 0.229739 0.290068 0.096982
O O13 0.500000 0.222632 0.500000
O O14 0.531205 0.251902 0.408446
O O15 0.545295 0.000000 0.480531
O O16 0.151826 0.783535 0.812844
O O17 0.039175 0.778825 0.755799
O O18 0.112610 0.000000 0.844835
O O19 0.251863 0.000000 0.609889
O O20 0.974241 0.000000 0.659261
O O21 0.701042 0.500000 0.796570
#
# Coordination Sequence:
#
# PCOD9180376 Si02
#       8
#     8   8   8   8   8   8   8   8
#     4   9  18  32  49  69  92 119 156 199 240 279
#     4  11  21  31  46  68  94 125 160 197 236 279
#     4   9  17  30  48  69  94 124 159 199 239 278
#     4  10  21  33  43  62  95 130 162 194 228 270
#     4   9  18  31  48  71  98 127 160 196 234 279
#     4  10  19  32  50  68  90 121 157 198 242 283
#     4  10  19  32  49  70  94 125 161 195 232 278
#     4   9  18  31  46  67  95 126 160 195 230 275
#
# _framework density 15.287015
#
# number of rings (size 3 to 8) (size 9 to 14) (size 15 to 20)
#    0.000    2.375    1.250    2.625    0.000    4.750 
#    0.000    0.000    0.000    0.000    0.000    0.875 
#    0.000    7.000    0.000    0.000    0.000    0.000 
#
# Total GULP energy -178418.298596 kJ/mol
# GULP energy per Si atom -5575.571831 kJ/mol
# Density = 1.525222 g / cm^3
# Si number density = 15.287015 Si / 1000 Ang^3
#
#
#
# Elastic Constant Matrix: (Units=GPa)
#
#
# Indices 1 2 3 4 5 6 
#
# 1 99.1237 31.2539 55.2991 0.0000 16.6529 0.0000
# 2 31.2539 26.7682 40.2273 0.0000 6.0191 0.0000
# 3 55.2991 40.2273 117.6458 0.0000 22.6595 0.0000
# 4 0.0000 0.0000 0.0000 27.1986 0.0000 -5.4255
# 5 16.6529 6.0191 22.6595 0.0000 11.1810 0.0000
# 6 0.0000 0.0000 0.0000 -5.4255 0.0000 18.4936
#
#
#
# Elastic Compliance Matrix: (Units=1/GPa)
#
#
# Indices 1 2 3 4 5 6 
#
# 1 0.019029 -0.020985 0.002484 0.000000 -0.022077 0.000000
# 2 -0.020985 0.102670 -0.033817 0.000000 0.044520 0.000000
# 3 0.002484 -0.033817 0.026412 0.000000 -0.039020 0.000000
# 4 0.000000 0.000000 0.000000 0.039052 0.000000 0.011457
# 5 -0.022077 0.044520 -0.039020 0.000000 0.177432 0.000000
# 6 0.000000 0.000000 0.000000 0.011457 0.000000 0.057434
#
#
# Mechanical properties :
#
#
# Convention : Reuss Voigt Hill
#
# Bulk Modulus (GPa) = 23.00331 55.23316 39.11823
# Shear Modulus (GPa) = 9.23946 19.15844 14.19895
#
# Velocity S-wave (km/s) = 2.46112 3.54397 3.05097
# Velocity P-wave (km/s) = 4.81211 7.27705 6.16895
#
# Compressibility (1/GPa) = 0.04347201
#
# Stress axis : x y z
#
# Youngs Moduli (GPa) = 52.55231 9.73995 37.86210
#
# Poissons Ratio (x) = 0.20440 -0.09403
# Poissons Ratio (y) = 1.10284 1.28039
# Poissons Ratio (z) = -0.13052 0.32938
#
# Static dielectric constant tensor:
#      x y z
#    x 1.491800 0.000000 0.021010 
#    y 0.000000 1.506530 0.000000 
#    z 0.021010 0.000000 1.510490 
# 
# From -- ./inp_files/326932.got.cif
#   From: 2010.05.17/outbox.cif.g08.bks.cpg/sg12_164_cif.got.tgz:326932.got - 2010.06.03 13:09:07.
