data_PCOD9180867
_publ_section_title
;
Structure prediction by ZEFSAII (Michael W. Deem and Ramdas Pophale) SiO2 
 PCOD9180867
Probable space group: C 2/M
;
_chemical_formula_sum "Si O2"
_cell_formula_units_Z 64
_cell_length_a 20.254715
_cell_length_b 8.887927
_cell_length_c 24.213458
_cell_angle_alpha 90.000000
_cell_angle_beta 58.285901
_cell_angle_gamma 90.000000
_cell_volume 3708.092531
_symmetry_space_group_name_H-M "C 2/M"
_symmetry_group_IT_number 12
_symmetry_cell_setting 'monoclinic'
loop_
_space_group_symop_operation_xyz
x,y,z
-x,y,-z
-x,-y,-z
x,-y,z
1/2+x,1/2+y,z
1/2-x,1/2+y,-z
1/2-x,1/2-y,-z
1/2+x,1/2-y,z
loop_
_atom_site_type_symbol
_atom_site_label
_atom_site_fract_x
_atom_site_fract_y
_atom_site_fract_z
Si Si1 0.669176 0.681205 0.055796
Si Si2 0.084539 0.673774 0.192953
Si Si3 0.991546 0.820447 0.328719
Si Si4 0.281759 0.822941 0.541875
Si Si5 0.984036 0.819570 0.945248
Si Si6 0.533550 0.821876 0.544014
Si Si7 0.156708 0.318714 0.668925
Si Si8 0.572841 0.827760 0.811601
O O1 0.672883 0.500000 0.055098
O O2 0.645731 0.742691 0.126677
O O3 0.598466 0.727185 0.045485
O O4 0.750000 0.750000 0.000000
O O5 0.106352 0.500000 0.192889
O O6 0.060605 0.755985 0.259944
O O7 0.004767 0.673534 0.192221
O O8 0.997039 0.766638 0.389372
O O9 0.911450 0.751291 0.339146
O O10 0.988696 0.000000 0.325876
O O11 0.250000 0.750000 0.500000
O O12 0.373851 0.805474 0.500730
O O13 0.237904 0.740949 0.610954
O O14 0.263184 0.000000 0.551352
O O15 0.051680 0.767880 0.874092
O O16 0.982822 0.000000 0.947299
O O17 0.000000 0.762772 0.000000
O O18 0.500000 0.772466 0.500000
O O19 0.516086 0.000000 0.559178
O O20 0.151465 0.500000 0.667191
O O21 0.138806 0.275238 0.740151
O O22 0.588075 0.000000 0.821098
#
# Coordination Sequence:
#
# PCOD9180867 Si02
#       8
#     8   8   8   8   8   8   8   8
#     4  10  19  32  52  78 107 136 173 215 259 306
#     4   9  17  31  51  75 104 135 171 214 261 308
#     4  11  20  31  52  80 106 134 173 217 263 310
#     4  11  21  33  54  81 106 133 171 217 264 308
#     4   9  18  32  51  75 103 135 171 210 250 301
#     4  10  22  39  56  74 103 142 180 213 255 316
#     4  10  19  32  51  76 107 136 170 216 263 310
#     4   8  16  29  47  73 101 132 168 207 253 300
#
# _framework density 17.259547000000001
#
# number of rings (size 3 to 8) (size 9 to 14) (size 15 to 20)
#    0.000    2.250    1.250    3.375    0.000    5.000 
#    0.000    0.000    2.750    0.000    0.000    0.000 
#    0.000    0.000    0.000    0.000    0.000    0.000 
#
# Total GULP energy -178444.689898 kJ/mol
# GULP energy per Si atom -5576.396559 kJ/mol
# Density = 1.722026 g / cm^3
# Si number density = 17.259547 Si / 1000 Ang^3
#
#
#
# Elastic Constant Matrix: (Units=GPa)
#
#
# Indices 1 2 3 4 5 6 
#
# 1 35.8870 32.0121 42.9674 0.0000 9.8950 0.0000
# 2 32.0121 84.6527 68.2493 0.0001 0.6854 0.0004
# 3 42.9674 68.2493 174.7550 0.0000 0.1558 -0.0001
# 4 0.0000 0.0001 0.0000 36.6754 0.0000 -4.0806
# 5 9.8950 0.6854 0.1558 0.0000 26.3673 -0.0001
# 6 0.0000 0.0004 -0.0001 -4.0806 -0.0001 15.8837
#
#
#
# Elastic Compliance Matrix: (Units=1/GPa)
#
#
# Indices 1 2 3 4 5 6 
#
# 1 0.056311 -0.014565 -0.008139 0.000000 -0.020706 0.000000
# 2 -0.014565 0.021014 -0.004630 0.000000 0.004947 -0.000001
# 3 -0.008139 -0.004630 0.009529 0.000000 0.003118 0.000000
# 4 0.000000 0.000000 0.000000 0.028069 0.000000 0.007211
# 5 -0.020706 0.004947 0.003118 0.000000 0.045549 0.000000
# 6 0.000000 -0.000001 0.000000 0.007211 0.000000 0.064810
#
#
# Mechanical properties :
#
#
# Convention : Reuss Voigt Hill
#
# Bulk Modulus (GPa) = 31.06939 64.63913 47.85426
# Shear Modulus (GPa) = 17.20118 25.92301 21.56210
#
# Velocity S-wave (km/s) = 3.16035 3.87971 3.53836
# Velocity P-wave (km/s) = 5.59977 7.58960 6.66931
#
# Compressibility (1/GPa) = 0.03218602
#
# Stress axis : x y z
#
# Youngs Moduli (GPa) = 17.75843 47.58797 104.94571
#
# Poissons Ratio (x) = 0.69314 0.85410
# Poissons Ratio (y) = 0.25866 0.48589
# Poissons Ratio (z) = 0.14453 0.22033
#
# Static dielectric constant tensor:
#      x y z
#    x 1.571580 0.000000 -0.005120 
#    y 0.000000 1.584990 0.000000 
#    z -0.005120 0.000000 1.609340 
# 
# From -- ./inp_files/319785.got.cif
#   From: 2010.05.17/outbox.cif.g08.bks.cpg/sg12_160_cif.got.tgz:319785.got - 2010.06.03 13:09:07.
