data_PCOD9180388
_publ_section_title
;
Structure prediction by ZEFSAII (Michael W. Deem and Ramdas Pophale) SiO2 
 PCOD9180388
Probable space group: C 2/M
;
_chemical_formula_sum "Si O2"
_cell_formula_units_Z 64
_cell_length_a 31.126587
_cell_length_b 8.750465
_cell_length_c 15.395871
_cell_angle_alpha 90.000000
_cell_angle_beta 100.915417
_cell_angle_gamma 90.000000
_cell_volume 4117.537916
_symmetry_space_group_name_H-M "C 2/M"
_symmetry_group_IT_number 12
_symmetry_cell_setting 'monoclinic'
loop_
_space_group_symop_operation_xyz
x,y,z
-x,y,-z
-x,-y,-z
x,-y,z
1/2+x,1/2+y,z
1/2-x,1/2+y,-z
1/2-x,1/2-y,-z
1/2+x,1/2-y,z
loop_
_atom_site_type_symbol
_atom_site_label
_atom_site_fract_x
_atom_site_fract_y
_atom_site_fract_z
Si Si1 0.128794 0.816624 0.751790
Si Si2 0.055327 0.184678 0.430886
Si Si3 0.314808 0.182414 0.078738
Si Si4 0.288477 0.684338 0.696551
Si Si5 0.042262 0.814557 0.626692
Si Si6 0.282313 0.316008 0.892714
Si Si7 0.188452 0.315425 0.620852
Si Si8 0.853493 0.317338 0.580162
O O1 0.146883 0.752811 0.848960
O O2 0.079877 0.764451 0.706954
O O3 0.160737 0.758322 0.687634
O O4 0.129638 0.000000 0.753770
O O5 0.055295 0.229296 0.533119
O O6 0.097250 0.254698 0.401018
O O7 0.007777 0.233512 0.376734
O O8 0.057884 0.000000 0.428112
O O9 0.268277 0.225491 0.105989
O O10 0.317865 0.000000 0.080803
O O11 0.311348 0.242802 0.979388
O O12 0.291105 0.500000 0.693600
O O13 0.293761 0.730301 0.799273
O O14 0.239384 0.727794 0.648118
O O15 0.324321 0.754142 0.647028
O O16 0.041783 0.000000 0.626924
O O17 0.285218 0.500000 0.899788
O O18 0.185769 0.500000 0.628677
O O19 0.168578 0.270678 0.520228
O O20 0.853976 0.500000 0.583090
#
# Coordination Sequence:
#
# PCOD9180388 Si02
#       8
#     8   8   8   8   8   8   8   8
#     4  11  19  29  49  75  98 126 163 198 237 286
#     4   9  16  32  51  67  92 127 164 199 239 282
#     4  10  19  32  49  70  99 127 154 196 246 290
#     4  10  20  35  51  65  92 133 171 201 234 277
#     4   8  16  29  49  72  93 122 163 203 234 281
#     4   9  18  33  50  69  92 124 165 202 234 280
#     4  10  20  34  46  65  99 133 165 201 235 277
#     4  11  22  32  46  71 100 128 165 205 241 282
#
# _framework density 15.54327
#
# number of rings (size 3 to 8) (size 9 to 14) (size 15 to 20)
#    0.000    2.250    2.500    2.250    0.000    2.000 
#    0.000    2.500    0.000    0.000    0.000    0.875 
#    0.000    7.000    0.000    0.000    0.000    0.000 
#
# Total GULP energy -178488.716381 kJ/mol
# GULP energy per Si atom -5577.772387 kJ/mol
# Density = 1.550789 g / cm^3
# Si number density = 15.543270 Si / 1000 Ang^3
#
#
#
# Elastic Constant Matrix: (Units=GPa)
#
#
# Indices 1 2 3 4 5 6 
#
# 1 129.9552 30.0669 74.4647 0.0000 15.3894 0.0000
# 2 30.0669 18.4488 28.5201 0.0000 3.7591 0.0000
# 3 74.4647 28.5201 103.1551 0.0000 15.9532 0.0000
# 4 0.0000 0.0000 0.0000 23.1010 0.0000 -1.3030
# 5 15.3894 3.7591 15.9532 0.0000 25.4935 0.0000
# 6 0.0000 0.0000 0.0000 -1.3030 0.0000 20.3537
#
#
#
# Elastic Compliance Matrix: (Units=1/GPa)
#
#
# Indices 1 2 3 4 5 6 
#
# 1 0.014963 -0.013606 -0.006591 0.000000 -0.002902 0.000000
# 2 -0.013606 0.107202 -0.020640 0.000000 0.005322 0.000000
# 3 -0.006591 -0.020640 0.021116 0.000000 -0.006192 0.000000
# 4 0.000000 0.000000 0.000000 0.043445 0.000000 0.002781
# 5 -0.002902 0.005322 -0.006192 0.000000 0.044067 0.000000
# 6 0.000000 0.000000 0.000000 0.002781 0.000000 0.049309
#
#
# Mechanical properties :
#
#
# Convention : Reuss Voigt Hill
#
# Bulk Modulus (GPa) = 16.23196 57.51804 36.87500
# Shear Modulus (GPa) = 13.07830 21.69014 17.38422
#
# Velocity S-wave (km/s) = 2.90386 3.73965 3.34794
# Velocity P-wave (km/s) = 4.65928 7.46539 6.22258
#
# Compressibility (1/GPa) = 0.06160686
#
# Stress axis : x y z
#
# Youngs Moduli (GPa) = 66.83080 9.32819 47.35720
#
# Poissons Ratio (x) = 0.12692 0.31213
# Poissons Ratio (y) = 0.90929 0.97747
# Poissons Ratio (z) = 0.44048 0.19254
#
# Static dielectric constant tensor:
#      x y z
#    x 1.506600 0.000000 0.020990 
#    y 0.000000 1.521100 0.000000 
#    z 0.020990 0.000000 1.508200 
# 
# From -- ./inp_files/248529.got.cif
#   From: 2010.05.17/outbox.cif.g08.bks.cpg/sg12_125_cif.got.tgz:248529.got - 2010.06.03 13:09:07.
