data_PCOD9180294
_publ_section_title
;
Structure prediction by ZEFSAII (Michael W. Deem and Ramdas Pophale) SiO2 
 PCOD9180294
Probable space group: C 2/M
;
_chemical_formula_sum "Si O2"
_cell_formula_units_Z 56
_cell_length_a 28.116398
_cell_length_b 9.180883
_cell_length_c 18.727960
_cell_angle_alpha 90.000000
_cell_angle_beta 48.026764
_cell_angle_gamma 90.000000
_cell_volume 3594.104030
_symmetry_space_group_name_H-M "C 2/M"
_symmetry_group_IT_number 12
_symmetry_cell_setting 'monoclinic'
loop_
_space_group_symop_operation_xyz
x,y,z
-x,y,-z
-x,-y,-z
x,-y,z
1/2+x,1/2+y,z
1/2-x,1/2+y,-z
1/2-x,1/2-y,-z
1/2+x,1/2-y,z
loop_
_atom_site_type_symbol
_atom_site_label
_atom_site_fract_x
_atom_site_fract_y
_atom_site_fract_z
Si Si1 0.430010 0.167272 0.532602
Si Si2 0.568909 0.167651 0.890583
Si Si3 0.488782 0.673166 0.344529
Si Si4 0.624945 0.673442 0.964404
Si Si5 0.126923 0.172986 0.279242
Si Si6 0.992674 0.174915 0.175479
Si Si7 0.744437 0.825219 0.082430
O O1 0.500000 0.167124 0.500000
O O2 0.442043 0.239298 0.443766
O O3 0.386097 0.262005 0.629162
O O4 0.408336 0.000000 0.549656
O O5 0.616531 0.244995 0.897879
O O6 0.556910 0.250258 0.828546
O O7 0.586072 0.000000 0.861814
O O8 0.500000 0.172478 0.000000
O O9 0.475975 0.500000 0.363412
O O10 0.561375 0.695034 0.299932
O O11 0.484553 0.716683 0.266092
O O12 0.621170 0.500000 0.955511
O O13 0.690831 0.705156 0.938241
O O14 0.564226 0.712183 0.075676
O O15 0.184194 0.257637 0.183931
O O16 0.139135 0.000000 0.269621
O O17 0.986561 0.000000 0.176558
O O18 0.738191 0.000000 0.081376
O O19 0.750000 0.750000 0.000000
#
# Coordination Sequence:
#
# PCOD9180294 Si02
#       7
#     8   8   8   8   8   8   8
#     4   9  17  29  45  66  91 119 152 190 232 273
#     4   9  17  28  43  65  90 115 147 188 231 270
#     4   9  17  29  46  68  93 122 154 188 228 274
#     4   9  18  32  47  63  88 124 159 187 219 266
#     4  10  19  32  48  66  92 125 159 191 225 268
#     4   9  16  28  46  66  90 120 152 185 225 272
#     4  11  22  34  48  68  94 124 159 193 225 264
#
# _framework density 15.581073
#
# number of rings (size 3 to 8) (size 9 to 14) (size 15 to 20)
#    0.000    2.571    0.000    2.571    0.000    8.000 
#    0.000    2.857    0.000    0.000    0.000    1.000 
#    0.000    0.000    0.000    0.000    0.000    0.000 
#
# Total GULP energy -156098.401614 kJ/mol
# GULP energy per Si atom -5574.942915 kJ/mol
# Density = 1.554561 g / cm^3
# Si number density = 15.581073 Si / 1000 Ang^3
#
#
#
# Elastic Constant Matrix: (Units=GPa)
#
#
# Indices 1 2 3 4 5 6 
#
# 1 103.9338 68.9646 61.8761 0.0003 26.3337 -0.0002
# 2 68.9646 80.1230 61.2550 0.0014 14.3211 0.0007
# 3 61.8761 61.2550 107.2541 -0.0005 24.9528 -0.0001
# 4 0.0003 0.0014 -0.0005 27.5349 0.0000 3.4571
# 5 26.3337 14.3211 24.9528 0.0000 28.0959 0.0000
# 6 -0.0002 0.0007 -0.0001 3.4571 0.0000 21.2309
#
#
#
# Elastic Compliance Matrix: (Units=1/GPa)
#
#
# Indices 1 2 3 4 5 6 
#
# 1 0.027137 -0.020193 -0.000757 0.000001 -0.014470 0.000001
# 2 -0.020193 0.037180 -0.012073 -0.000002 0.010698 -0.000001
# 3 -0.000757 -0.012073 0.018981 0.000001 -0.009994 0.000000
# 4 0.000001 -0.000002 0.000001 0.037075 -0.000001 -0.006037
# 5 -0.014470 0.010698 -0.009994 -0.000001 0.052578 -0.000001
# 6 0.000001 -0.000001 0.000000 -0.006037 -0.000001 0.048084
#
#
# Mechanical properties :
#
#
# Convention : Reuss Voigt Hill
#
# Bulk Modulus (GPa) = 57.96577 75.05580 66.51078
# Shear Modulus (GPa) = 17.07462 21.98671 19.53066
#
# Velocity S-wave (km/s) = 3.31396 3.76056 3.54430
# Velocity P-wave (km/s) = 7.20601 8.19338 7.71550
#
# Compressibility (1/GPa) = 0.01725156
#
# Stress axis : x y z
#
# Youngs Moduli (GPa) = 36.84956 26.89629 52.68547
#
# Poissons Ratio (x) = 0.54312 0.03986
# Poissons Ratio (y) = 0.74411 0.63609
# Poissons Ratio (z) = 0.02788 0.32473
#
# Static dielectric constant tensor:
#      x y z
#    x 1.501630 0.000000 0.004970 
#    y 0.000000 1.521250 0.000000 
#    z 0.004970 0.000000 1.501980 
# 
# From -- ./inp_files/291809.got.cif
#   From: 2010.05.17/outbox.cif.g08.bks.cpg/sg12_146_cif.got.tgz:291809.got - 2010.06.03 13:09:07.
