data_PCOD9180302
_publ_section_title
;
Structure prediction by ZEFSAII (Michael W. Deem and Ramdas Pophale) SiO2 
 PCOD9180302
Probable space group: C 2/M
;
_chemical_formula_sum "Si O2"
_cell_formula_units_Z 64
_cell_length_a 29.462678
_cell_length_b 9.207567
_cell_length_c 14.524713
_cell_angle_alpha 90.000000
_cell_angle_beta 72.546933
_cell_angle_gamma 90.000000
_cell_volume 3758.860207
_symmetry_space_group_name_H-M "C 2/M"
_symmetry_group_IT_number 12
_symmetry_cell_setting 'monoclinic'
loop_
_space_group_symop_operation_xyz
x,y,z
-x,y,-z
-x,-y,-z
x,-y,z
1/2+x,1/2+y,z
1/2-x,1/2+y,-z
1/2-x,1/2-y,-z
1/2+x,1/2-y,z
loop_
_atom_site_type_symbol
_atom_site_label
_atom_site_fract_x
_atom_site_fract_y
_atom_site_fract_z
Si Si1 0.555659 0.666514 0.486255
Si Si2 0.423930 0.671697 0.808182
Si Si3 0.468155 0.667383 0.292994
Si Si4 0.871085 0.672883 0.684564
Si Si5 0.690031 0.825309 0.622428
Si Si6 0.401156 0.172820 0.200593
Si Si7 0.789624 0.674703 0.597245
Si Si8 0.445490 0.325048 0.005976
O O1 0.500000 0.687208 0.500000
O O2 0.567882 0.500000 0.451957
O O3 0.558948 0.679994 0.594116
O O4 0.588195 0.776044 0.411281
O O5 0.413610 0.500000 0.812326
O O6 0.475658 0.692885 0.729283
O O7 0.384547 0.755236 0.773480
O O8 0.432343 0.714926 0.909169
O O9 0.463603 0.500000 0.261748
O O10 0.445761 0.776968 0.234902
O O11 0.871145 0.500000 0.693518
O O12 0.822160 0.717869 0.663908
O O13 0.645556 0.782193 0.712959
O O14 0.738572 0.750839 0.626206
O O15 0.685241 0.789188 0.516364
O O16 0.694537 0.000000 0.625320
O O17 0.409237 0.251739 0.098961
O O18 0.400279 0.000000 0.189518
O O19 0.783816 0.500000 0.602789
O O20 0.443049 0.500000 0.014698
O O21 0.500000 0.284078 0.000000
#
# Coordination Sequence:
#
# PCOD9180302 Si02
#       8
#     8   8   8   8   8   8   8   8
#     4  10  19  32  48  68 100 141 182 215 244 299
#     4  10  20  36  54  72 101 141 184 222 254 305
#     4  10  19  33  51  71 101 142 183 217 252 305
#     4  11  22  34  51  77 110 142 173 217 273 322
#     4   9  19  36  56  80 109 139 173 216 265 316
#     4  11  22  34  53  81 112 137 168 222 279 325
#     4   9  19  36  56  79 109 141 175 214 260 318
#     4  10  20  37  57  75 102 142 186 227 264 310
#
# _framework density 17.026437000000001
#
# number of rings (size 3 to 8) (size 9 to 14) (size 15 to 20)
#    0.000    2.000    2.500    1.500    0.000    5.000 
#    0.000    2.500    0.000    0.750    0.000    0.000 
#    0.000    0.000    0.000    0.000    0.000    0.000 
#
# Total GULP energy -178511.611739 kJ/mol
# GULP energy per Si atom -5578.487867 kJ/mol
# Density = 1.698768 g / cm^3
# Si number density = 17.026437 Si / 1000 Ang^3
#
#
#
# Elastic Constant Matrix: (Units=GPa)
#
#
# Indices 1 2 3 4 5 6 
#
# 1 96.8657 36.6809 51.1193 0.0000 21.0941 0.0000
# 2 36.6809 24.8211 31.8111 0.0000 7.8498 0.0000
# 3 51.1193 31.8111 88.1787 0.0000 11.2322 0.0000
# 4 0.0000 0.0000 0.0000 29.2118 0.0000 1.4450
# 5 21.0941 7.8498 11.2322 0.0000 28.9368 0.0000
# 6 0.0000 0.0000 0.0000 1.4450 0.0000 28.5486
#
#
#
# Elastic Compliance Matrix: (Units=1/GPa)
#
#
# Indices 1 2 3 4 5 6 
#
# 1 0.025665 -0.032481 -0.001999 0.000000 -0.009122 0.000000
# 2 -0.032481 0.119107 -0.024237 0.000000 0.000775 0.000000
# 3 -0.001999 -0.024237 0.021272 0.000000 -0.000225 0.000000
# 4 0.000000 0.000000 0.000000 0.034319 0.000000 -0.001737
# 5 -0.009122 0.000775 -0.000225 0.000000 0.041085 0.000000
# 6 0.000000 0.000000 0.000000 -0.001737 0.000000 0.035116
#
#
# Mechanical properties :
#
#
# Convention : Reuss Voigt Hill
#
# Bulk Modulus (GPa) = 20.57227 49.89867 35.23547
# Shear Modulus (GPa) = 12.18917 23.35638 17.77278
#
# Velocity S-wave (km/s) = 2.67853 3.70776 3.23435
# Velocity P-wave (km/s) = 4.65562 6.90653 5.88961
#
# Compressibility (1/GPa) = 0.04860913
#
# Stress axis : x y z
#
# Youngs Moduli (GPa) = 38.96418 8.39580 47.01072
#
# Poissons Ratio (x) = 0.27271 0.09396
# Poissons Ratio (y) = 1.26560 1.13942
# Poissons Ratio (z) = 0.07788 0.20349
#
# Static dielectric constant tensor:
#      x y z
#    x 1.567030 0.000000 0.021300 
#    y 0.000000 1.568710 0.000000 
#    z 0.021300 0.000000 1.596430 
# 
# From -- ./inp_files/243779.got.cif
#   From: 2010.05.17/outbox.cif.g08.bks.cpg/sg12_122_cif.got.tgz:243779.got - 2010.06.03 13:09:07.
