data_PCOD9180214
_publ_section_title
;
Structure prediction by ZEFSAII (Michael W. Deem and Ramdas Pophale) SiO2 
 PCOD9180214
Probable space group: C 2/M
;
_chemical_formula_sum "Si O2"
_cell_formula_units_Z 44
_cell_length_a 9.087431
_cell_length_b 19.018592
_cell_length_c 12.327093
_cell_angle_alpha 90.000000
_cell_angle_beta 111.981658
_cell_angle_gamma 90.000000
_cell_volume 1975.614327
_symmetry_space_group_name_H-M "C 2/M"
_symmetry_group_IT_number 12
_symmetry_cell_setting 'monoclinic'
loop_
_space_group_symop_operation_xyz
x,y,z
-x,y,-z
-x,-y,-z
x,-y,z
1/2+x,1/2+y,z
1/2-x,1/2+y,-z
1/2-x,1/2-y,-z
1/2+x,1/2-y,z
loop_
_atom_site_type_symbol
_atom_site_label
_atom_site_fract_x
_atom_site_fract_y
_atom_site_fract_z
Si Si1 0.387171 0.766272 0.169147
Si Si2 0.181763 0.891237 0.172259
Si Si3 0.103537 0.796708 0.422173
Si Si4 0.171854 0.421180 0.582180
Si Si5 0.000000 0.363944 0.000000
Si Si6 0.169190 0.109190 0.919639
O O1 0.236478 0.808999 0.177733
O O2 0.501822 0.742100 0.299748
O O3 0.337335 0.694027 0.097374
O O4 0.462056 0.816702 0.096926
O O5 0.315240 0.923667 0.284223
O O6 0.006424 0.910282 0.168687
O O7 0.176571 0.913233 0.046512
O O8 0.250000 0.750000 0.500000
O O9 0.186872 0.868960 0.408877
O O10 0.000000 0.809211 0.500000
O O11 0.189047 0.500000 0.542388
O O12 0.000000 0.393187 0.500000
O O13 0.843333 0.408257 0.924826
#
# Coordination Sequence:
#
# PCOD9180214 Si02
#       6
#     8   8   8   8   4   8
#     4  11  20  33  57  90 135 162 206 258 331 389
#     4  10  19  36  58  91 128 162 209 261 326 388
#     4  12  26  40  64  99 135 172 215 279 333 389
#     4  11  25  47  69  90 126 179 230 273 327 400
#     4  10  20  30  54  90 126 176 196 256 324 394
#     4  10  19  31  56  90 130 163 201 257 327 388
#
# _framework density 22.271554999999999
#
# number of rings (size 3 to 8) (size 9 to 14) (size 15 to 20)
#    0.000    1.273    1.818    7.091    2.545    0.364 
#    0.000    1.818    0.000    0.000    0.000   10.818 
#    0.000    0.000    0.000    0.000    0.000    0.000 
#
# Total GULP energy -122672.348481 kJ/mol
# GULP energy per Si atom -5576.015840 kJ/mol
# Density = 2.222086 g / cm^3
# Si number density = 22.271555 Si / 1000 Ang^3
#
#
#
# Elastic Constant Matrix: (Units=GPa)
#
#
# Indices 1 2 3 4 5 6 
#
# 1 133.0377 17.8490 61.3881 0.0000 22.7814 0.0000
# 2 17.8490 64.8962 17.2052 0.0000 -0.8474 0.0000
# 3 61.3881 17.2052 160.0410 0.0000 30.2250 0.0000
# 4 0.0000 0.0000 0.0000 -35.3633 0.0000 -19.0245
# 5 22.7814 -0.8474 30.2250 0.0000 40.7701 0.0000
# 6 0.0000 0.0000 0.0000 -19.0245 0.0000 -11.9532
#
#
#
# Elastic Compliance Matrix: (Units=1/GPa)
#
#
# Indices 1 2 3 4 5 6 
#
# 1 0.009671 -0.001941 -0.002875 0.000000 -0.003313 0.000000
# 2 -0.001941 0.016372 -0.001494 0.000000 0.002532 0.000000
# 3 -0.002875 -0.001494 0.008389 0.000000 -0.004643 0.000000
# 4 0.000000 0.000000 0.000000 -0.196685 0.000000 0.313041
# 5 -0.003313 0.002532 -0.004643 0.000000 0.029874 0.000000
# 6 0.000000 0.000000 0.000000 0.313041 0.000000 -0.581889
#
#
# Mechanical properties :
#
#
# Convention : Reuss Voigt Hill
#
# Bulk Modulus (GPa) = 45.84634 61.20660 53.52647
# Shear Modulus (GPa) = -7.20069 16.12623 4.46277
#
# Velocity S-wave (km/s) = -1.80004 2.69378 1.41709
# Velocity P-wave (km/s) = 4.03852 6.10056 5.17332
#
# Compressibility (1/GPa) = 0.02181199
#
# Stress axis : x y z
#
# Youngs Moduli (GPa) = 103.40076 61.07931 119.20563
#
# Poissons Ratio (x) = 0.11855 0.34276
# Poissons Ratio (y) = 0.20069 0.17807
# Poissons Ratio (z) = 0.29731 0.09124
#
# Static dielectric constant tensor:
#      x y z
#    x 1.927690 0.000000 -0.056790 
#    y 0.000000 1.888360 0.000000 
#    z -0.056790 0.000000 1.954500 
# 
# From -- ./inp_files/122117.got.cif
#   From: 2010.05.17/outbox.cif.g08.bks.cpg/sg12_62_cif.got.tgz:122117.got - 2010.06.03 13:09:07.
