data_PCOD9180713
_publ_section_title
;
Structure prediction by ZEFSAII (Michael W. Deem and Ramdas Pophale) SiO2 
 PCOD9180713
Probable space group: C 2/M
;
_chemical_formula_sum "Si O2"
_cell_formula_units_Z 56
_cell_length_a 16.338812
_cell_length_b 7.417433
_cell_length_c 17.174143
_cell_angle_alpha 90.000000
_cell_angle_beta 79.993910
_cell_angle_gamma 90.000000
_cell_volume 2049.710375
_symmetry_space_group_name_H-M "C 2/M"
_symmetry_group_IT_number 12
_symmetry_cell_setting 'monoclinic'
loop_
_space_group_symop_operation_xyz
x,y,z
-x,y,-z
-x,-y,-z
x,-y,z
1/2+x,1/2+y,z
1/2-x,1/2+y,-z
1/2-x,1/2-y,-z
1/2+x,1/2-y,z
loop_
_atom_site_type_symbol
_atom_site_label
_atom_site_fract_x
_atom_site_fract_y
_atom_site_fract_z
Si Si1 0.767552 0.794018 0.342048
Si Si2 0.557918 0.278277 0.096490
Si Si3 0.075189 0.207221 0.768874
Si Si4 0.489421 0.217310 0.377746
Si Si5 0.195672 0.792312 0.198369
Si Si6 0.365749 0.780546 0.526565
Si Si7 0.322968 0.713558 0.050979
O O1 0.846732 0.704382 0.287674
O O2 0.702895 0.799950 0.280280
O O3 0.720920 0.711917 0.423892
O O4 0.788638 0.000000 0.357759
O O5 0.555735 0.500000 0.095392
O O6 0.470563 0.218880 0.147568
O O7 0.627514 0.222478 0.148676
O O8 0.594050 0.221018 0.007027
O O9 0.008834 0.207159 0.709066
O O10 0.098247 0.000000 0.782905
O O11 0.564282 0.271714 0.421551
O O12 0.404721 0.272441 0.437520
O O13 0.490640 0.000000 0.372927
O O14 0.284083 0.782284 0.137633
O O15 0.177247 0.000000 0.215828
O O16 0.362486 0.000000 0.527217
O O17 0.332080 0.500000 0.058429
O O18 0.250000 0.750000 0.000000
#
# Coordination Sequence:
#
# PCOD9180713 Si02
#       7
#     8   8   8   8   8   8   8
#     4  10  20  33  49  69  96 130 163 195 235 285
#     4   8  16  31  50  71  95 124 156 193 238 283
#     4  10  20  33  48  70 100 128 157 195 238 285
#     4   9  17  32  53  72  94 125 160 198 237 281
#     4  10  19  32  51  73  97 124 159 203 242 281
#     4   8  16  32  52  73  95 123 161 199 236 280
#     4   9  16  29  50  74  98 124 158 199 241 284
#
# _framework density 27.320934000000001
#
# number of rings (size 3 to 8) (size 9 to 14) (size 15 to 20)
#    0.000    2.857    0.000    3.429    0.000    1.143 
#    0.000    6.429    0.000    4.286    0.000    0.000 
#    0.000    0.000    0.000    0.000    0.000    0.000 
#
# Total GULP energy -156627.375776 kJ/mol
# GULP energy per Si atom -5593.834849 kJ/mol
# Density = 2.725875 g / cm^3
# Si number density = 27.320934 Si / 1000 Ang^3
#
#
#
# Elastic Constant Matrix: (Units=GPa)
#
#
# Indices 1 2 3 4 5 6 
#
# 1 80.4286 5.5170 59.3049 0.0000 -22.1636 0.0000
# 2 5.5170 107.3847 2.4969 0.0000 2.0089 0.0000
# 3 59.3049 2.4969 242.3763 0.0000 -32.3906 0.0000
# 4 0.0000 0.0000 0.0000 16.1759 0.0000 6.6307
# 5 -22.1636 2.0089 -32.3906 0.0000 74.1631 0.0000
# 6 0.0000 0.0000 0.0000 6.6307 0.0000 3.9558
#
#
#
# Elastic Compliance Matrix: (Units=1/GPa)
#
#
# Indices 1 2 3 4 5 6 
#
# 1 0.015938 -0.000800 -0.003454 0.000000 0.003276 0.000000
# 2 -0.000800 0.009362 0.000035 0.000000 -0.000477 0.000000
# 3 -0.003454 0.000035 0.005132 0.000000 0.001208 0.000000
# 4 0.000000 0.000000 0.000000 0.197568 0.000000 -0.331163
# 5 0.003276 -0.000477 0.001208 0.000000 0.015004 0.000000
# 6 0.000000 0.000000 0.000000 -0.331163 0.000000 0.807893
#
#
# Mechanical properties :
#
#
# Convention : Reuss Voigt Hill
#
# Bulk Modulus (GPa) = 45.46416 62.75857 54.11136
# Shear Modulus (GPa) = 4.68752 43.05035 23.86893
#
# Velocity S-wave (km/s) = 1.31128 3.97385 2.95896
# Velocity P-wave (km/s) = 4.35540 6.63898 5.61451
#
# Compressibility (1/GPa) = 0.02199535
#
# Stress axis : x y z
#
# Youngs Moduli (GPa) = 62.74470 106.82048 194.85785
#
# Poissons Ratio (x) = 0.08543 0.67295
# Poissons Ratio (y) = 0.05018 -0.00692
# Poissons Ratio (z) = 0.21669 -0.00379
#
# Static dielectric constant tensor:
#      x y z
#    x 2.246980 0.000000 -0.042590 
#    y 0.000000 2.008630 0.000000 
#    z -0.042590 0.000000 2.076830 
# 
# From -- ./inp_files/313749.got.cif
#   From: 2010.05.17/outbox.cif.g08.bks.cpg/sg12_157_cif.got.tgz:313749.got - 2010.06.03 13:09:07.
