data_PCOD9180892
_publ_section_title
;
Structure prediction by ZEFSAII (Michael W. Deem and Ramdas Pophale) SiO2 
 PCOD9180892
Probable space group: C 2/M
;
_chemical_formula_sum "Si O2"
_cell_formula_units_Z 64
_cell_length_a 10.609405
_cell_length_b 14.546115
_cell_length_c 27.063760
_cell_angle_alpha 90.000000
_cell_angle_beta 44.127358
_cell_angle_gamma 90.000000
_cell_volume 2908.003254
_symmetry_space_group_name_H-M "C 2/M"
_symmetry_group_IT_number 12
_symmetry_cell_setting 'monoclinic'
loop_
_space_group_symop_operation_xyz
x,y,z
-x,y,-z
-x,-y,-z
x,-y,z
1/2+x,1/2+y,z
1/2-x,1/2+y,-z
1/2-x,1/2-y,-z
1/2+x,1/2-y,z
loop_
_atom_site_type_symbol
_atom_site_label
_atom_site_fract_x
_atom_site_fract_y
_atom_site_fract_z
Si Si1 0.191295 0.850826 0.667919
Si Si2 0.455153 0.388649 0.186658
Si Si3 0.278050 0.133536 0.352372
Si Si4 0.653523 0.106931 0.195706
Si Si5 0.184464 0.612247 0.974183
Si Si6 0.406573 0.862236 0.422962
Si Si7 0.600054 0.361367 0.585145
Si Si8 0.212403 0.888249 0.945909
O O1 0.064596 0.857305 0.751381
O O2 0.225800 0.744038 0.646919
O O3 0.386834 0.891543 0.627080
O O4 0.113894 0.888455 0.638473
O O5 0.449565 0.500000 0.190074
O O6 0.284369 0.354035 0.201799
O O7 0.639300 0.362098 0.107219
O O8 0.446551 0.109392 0.270243
O O9 0.325015 0.103336 0.394444
O O10 0.083796 0.103278 0.387669
O O11 0.688199 0.145941 0.131476
O O12 0.709163 0.000000 0.176577
O O13 0.180814 0.500000 0.976003
O O14 0.208541 0.643765 0.024000
O O15 0.000000 0.643349 0.000000
O O16 0.406705 0.750497 0.417860
O O17 0.277602 0.888310 0.504490
O O18 0.226026 0.000000 0.943697
O O19 0.000000 0.867060 0.000000
#
# Coordination Sequence:
#
# PCOD9180892 Si02
#       8
#     8   8   8   8   8   8   8   8
#     4  10  19  32  52  76 103 134 167 208 254 306
#     4  10  19  33  54  77 103 137 170 205 253 308
#     4  10  19  32  51  77 103 132 169 209 255 298
#     4  10  19  32  54  78 102 135 173 210 249 302
#     4   9  17  29  48  75 102 128 164 212 257 291
#     4   9  16  31  51  73  99 132 173 212 248 291
#     4   9  18  29  49  76 101 129 170 218 250 284
#     4   9  15  27  48  73  96 125 171 214 243 283
#
# _framework density 22.008229
#
# number of rings (size 3 to 8) (size 9 to 14) (size 15 to 20)
#    0.000    2.500    2.500    0.750    0.000    4.000 
#    0.000    1.875    0.000    6.000    0.000    0.000 
#    0.000    0.000    0.000    0.000    0.000    0.000 
#
# Total GULP energy -178773.623222 kJ/mol
# GULP energy per Si atom -5586.675726 kJ/mol
# Density = 2.195814 g / cm^3
# Si number density = 22.008229 Si / 1000 Ang^3
#
#
#
# Elastic Constant Matrix: (Units=GPa)
#
#
# Indices 1 2 3 4 5 6 
#
# 1 135.0008 1.9957 38.7992 -0.0001 21.2811 0.0000
# 2 1.9957 69.3305 -15.3807 0.0001 6.0479 -0.0001
# 3 38.7992 -15.3807 107.5836 0.0001 23.6453 0.0000
# 4 -0.0001 0.0001 0.0001 16.8800 0.0000 2.6808
# 5 21.2811 6.0479 23.6453 0.0000 39.1082 0.0000
# 6 0.0000 -0.0001 0.0000 2.6808 0.0000 -12.3438
#
#
#
# Elastic Compliance Matrix: (Units=1/GPa)
#
#
# Indices 1 2 3 4 5 6 
#
# 1 0.008623 -0.000534 -0.002506 0.000000 -0.003095 0.000000
# 2 -0.000534 0.015535 0.003319 0.000000 -0.004118 0.000000
# 3 -0.002506 0.003319 0.012093 0.000000 -0.006461 0.000000
# 4 0.000000 0.000000 0.000000 0.057266 0.000000 0.012437
# 5 -0.003095 -0.004118 -0.006461 0.000000 0.031798 0.000000
# 6 0.000000 0.000000 0.000000 0.012437 0.000000 -0.078311
#
#
# Mechanical properties :
#
#
# Convention : Reuss Voigt Hill
#
# Bulk Modulus (GPa) = 27.16814 40.30483 33.73648
# Shear Modulus (GPa) = 85.15403 27.82892 56.49148
#
# Velocity S-wave (km/s) = 6.22703 3.55981 5.07189
# Velocity P-wave (km/s) = 8.00453 5.93714 7.04706
#
# Compressibility (1/GPa) = 0.03680782
#
# Stress axis : x y z
#
# Youngs Moduli (GPa) = 115.96416 64.37276 82.68912
#
# Poissons Ratio (x) = 0.03439 0.20723
# Poissons Ratio (y) = 0.06196 -0.27442
# Poissons Ratio (z) = 0.29063 -0.21363
#
# Static dielectric constant tensor:
#      x y z
#    x 1.779640 0.000000 0.017370 
#    y 0.000000 1.883200 0.000000 
#    z 0.017370 0.000000 1.749100 
# 
# From -- ./inp_files/258130.got.cif
#   From: 2010.05.17/outbox.cif.g08.bks.cpg/sg12_130_cif.got.tgz:258130.got - 2010.06.03 13:09:07.
