data_PCOD9180345
_publ_section_title
;
Structure prediction by ZEFSAII (Michael W. Deem and Ramdas Pophale) SiO2 
 PCOD9180345
Probable space group: C 2/M
;
_chemical_formula_sum "Si O2"
_cell_formula_units_Z 64
_cell_length_a 17.047893
_cell_length_b 15.362674
_cell_length_c 25.113626
_cell_angle_alpha 90.000000
_cell_angle_beta 144.957941
_cell_angle_gamma 90.000000
_cell_volume 3776.532182
_symmetry_space_group_name_H-M "C 2/M"
_symmetry_group_IT_number 12
_symmetry_cell_setting 'monoclinic'
loop_
_space_group_symop_operation_xyz
x,y,z
-x,y,-z
-x,-y,-z
x,-y,z
1/2+x,1/2+y,z
1/2-x,1/2+y,-z
1/2-x,1/2-y,-z
1/2+x,1/2-y,z
loop_
_atom_site_type_symbol
_atom_site_label
_atom_site_fract_x
_atom_site_fract_y
_atom_site_fract_z
Si Si1 0.200547 0.672163 0.510909
Si Si2 0.655673 0.594296 0.604358
Si Si3 0.387049 0.233070 0.231617
Si Si4 0.534761 0.396953 0.277293
Si Si5 0.384758 0.096471 0.643935
Si Si6 0.685217 0.599687 0.254412
Si Si7 0.647440 0.398616 0.108715
Si Si8 0.085838 0.265333 0.625849
O O1 0.250000 0.750000 0.500000
O O2 0.328261 0.634099 0.614517
O O3 0.145970 0.604523 0.436156
O O4 0.072609 0.710138 0.473620
O O5 0.500000 0.587682 0.500000
O O6 0.695401 0.500000 0.650556
O O7 0.750057 0.606844 0.605021
O O8 0.649593 0.676709 0.639035
O O9 0.413700 0.329971 0.224738
O O10 0.511631 0.171801 0.282168
O O11 0.251443 0.175856 0.146144
O O12 0.404727 0.238931 0.305084
O O13 0.510137 0.500000 0.274388
O O14 0.570475 0.385833 0.234928
O O15 0.441048 0.000000 0.685330
O O16 0.728809 0.500000 0.283464
O O17 0.638028 0.613450 0.167454
O O18 0.815179 0.658745 0.337932
O O19 0.694036 0.500000 0.126020
O O20 0.500000 0.389925 0.000000
#
# Coordination Sequence:
#
# PCOD9180345 Si02
#       8
#     8   8   8   8   8   8   8   8
#     4  11  20  33  44  69  96 141 188 216 250 281
#     4  10  21  31  44  67  94 136 182 221 254 281
#     4  10  20  34  52  79 102 131 169 208 258 305
#     4  11  22  35  50  70 106 145 177 211 248 299
#     4  10  19  32  49  67  99 134 174 222 255 289
#     4   9  20  35  52  78 104 132 166 208 262 308
#     4   9  18  37  64  87 104 122 154 205 265 326
#     4  10  20  31  51  66 101 135 175 222 252 292
#
# _framework density 16.946764999999999
#
# number of rings (size 3 to 8) (size 9 to 14) (size 15 to 20)
#    0.000    2.000    2.500    2.250    1.750    4.000 
#    0.000    1.875    0.000    0.375    0.000    0.000 
#    0.000    0.000    0.000    0.000    0.000    0.000 
#
# Total GULP energy -178293.713935 kJ/mol
# GULP energy per Si atom -5571.678560 kJ/mol
# Density = 1.690819 g / cm^3
# Si number density = 16.946765 Si / 1000 Ang^3
#
#
#
# Elastic Constant Matrix: (Units=GPa)
#
#
# Indices 1 2 3 4 5 6 
#
# 1 69.7126 57.0150 19.9987 0.0000 9.1786 0.0000
# 2 57.0150 124.7597 36.4616 0.0001 6.9589 0.0000
# 3 19.9987 36.4616 56.0981 0.0004 7.6899 0.0001
# 4 0.0000 0.0001 0.0004 24.9265 0.0001 5.6028
# 5 9.1786 6.9589 7.6899 0.0001 9.0888 0.0000
# 6 0.0000 0.0000 0.0001 5.6028 0.0000 33.5694
#
#
#
# Elastic Compliance Matrix: (Units=1/GPa)
#
#
# Indices 1 2 3 4 5 6 
#
# 1 0.025308 -0.010680 0.000342 0.000000 -0.017670 0.000000
# 2 -0.010680 0.014449 -0.006274 0.000000 0.005030 0.000000
# 3 0.000342 -0.006274 0.023948 0.000000 -0.015804 0.000000
# 4 0.000000 0.000000 0.000000 0.041682 0.000000 -0.006957
# 5 -0.017670 0.005030 -0.015804 0.000000 0.137390 0.000000
# 6 0.000000 0.000000 0.000000 -0.006957 0.000000 0.030950
#
#
# Mechanical properties :
#
#
# Convention : Reuss Voigt Hill
#
# Bulk Modulus (GPa) = 32.80721 53.05791 42.93256
# Shear Modulus (GPa) = 15.76740 22.65661 19.21200
#
# Velocity S-wave (km/s) = 3.05357 3.66037 3.37065
# Velocity P-wave (km/s) = 5.64211 7.01719 6.36688
#
# Compressibility (1/GPa) = 0.03048110
#
# Stress axis : x y z
#
# Youngs Moduli (GPa) = 39.51378 69.20927 41.75703
#
# Poissons Ratio (x) = 0.73914 -0.01426
# Poissons Ratio (y) = 0.42200 0.26196
# Poissons Ratio (z) = -0.01349 0.43418
#
# Static dielectric constant tensor:
#      x y z
#    x 1.599080 0.000000 0.000120 
#    y 0.000000 1.650340 0.000000 
#    z 0.000120 0.000000 1.558980 
# 
# From -- ./inp_files/340207.got.cif
#   From: 2010.05.17/outbox.cif.g08.bks.cpg/sg12_171_cif.got.tgz:340207.got - 2010.06.03 13:09:07.
