data_PCOD9180015
_publ_section_title
;
Structure prediction by ZEFSAII (Michael W. Deem and Ramdas Pophale) SiO2 
 PCOD9180015
Probable space group: C 2/M
;
_chemical_formula_sum "Si O2"
_cell_formula_units_Z 58
_cell_length_a 26.846509
_cell_length_b 20.325326
_cell_length_c 5.092022
_cell_angle_alpha 90.000000
_cell_angle_beta 113.714819
_cell_angle_gamma 90.000000
_cell_volume 2543.910097
_symmetry_space_group_name_H-M "C 2/M"
_symmetry_group_IT_number 12
_symmetry_cell_setting 'monoclinic'
loop_
_space_group_symop_operation_xyz
x,y,z
-x,y,-z
-x,-y,-z
x,-y,z
1/2+x,1/2+y,z
1/2-x,1/2+y,-z
1/2-x,1/2-y,-z
1/2+x,1/2-y,z
loop_
_atom_site_type_symbol
_atom_site_label
_atom_site_fract_x
_atom_site_fract_y
_atom_site_fract_z
Si Si1 0.562724 0.678354 0.058594
Si Si2 0.444285 0.864531 0.286846
Si Si3 0.614260 0.741667 0.666174
Si Si4 0.648761 0.422689 0.335479
Si Si5 0.000000 0.500000 0.500000
Si Si6 0.809283 0.426110 0.105905
Si Si7 0.387188 0.072300 0.766692
Si Si8 0.200331 0.858193 0.945918
O O1 0.596464 0.723850 0.334478
O O2 0.588873 0.606465 0.155444
O O3 0.500000 0.681766 0.000000
O O4 0.576561 0.701914 0.794609
O O5 0.500000 0.831003 0.500000
O O6 0.397706 0.816978 0.294494
O O7 0.453873 0.939614 0.410396
O O8 0.433344 0.875984 0.953007
O O9 0.674649 0.714019 0.850100
O O10 0.652718 0.500000 0.304703
O O11 0.686991 0.384278 0.208755
O O12 0.666957 0.402488 0.665773
O O13 0.783617 0.500000 0.062058
O O14 0.848736 0.421352 0.438272
O O15 0.762910 0.371549 0.018057
O O16 0.845327 0.424412 0.921511
O O17 0.414085 0.000000 0.822093
#
# Coordination Sequence:
#
# PCOD9180015 Si02
#       8
#     8   8   8   8   2   8   8   8
#     4  10  20  35  52  81 109 150 193 234 286 347
#     4  10  19  39  65  88 118 150 190 237 299 346
#     4  10  22  37  60  80 115 150 191 236 283 347
#     4  10  19  31  53  77 113 147 193 244 283 331
#     4   8  20  36  72  90 120 146 194 242 292 354
#     4  10  20  33  58  79 116 151 189 235 284 333
#     4  10  20  37  54  87 114 147 186 238 290 342
#     4  10  20  36  53  85 112 152 197 233 282 338
#
# _framework density 22.799545999999999
#
# number of rings (size 3 to 8) (size 9 to 14) (size 15 to 20)
#    0.414    1.655    0.690    3.310    0.000    2.483 
#    0.000    3.448    0.000   10.759    0.000    0.000 
#    0.000    0.000    0.000    0.000    0.000    0.000 
#
# Total GULP energy -161770.127563 kJ/mol
# GULP energy per Si atom -5578.280261 kJ/mol
# Density = 2.274765 g / cm^3
# Si number density = 22.799546 Si / 1000 Ang^3
#
#
#
# Elastic Constant Matrix: (Units=GPa)
#
#
# Indices 1 2 3 4 5 6 
#
# 1 69.7691 13.9834 27.1168 0.0000 10.0300 0.0000
# 2 13.9834 118.3760 19.9477 0.0000 17.6792 0.0000
# 3 27.1168 19.9477 70.7013 0.0000 -8.4597 0.0000
# 4 0.0000 0.0000 0.0000 21.4162 0.0000 4.8539
# 5 10.0300 17.6792 -8.4597 0.0000 36.9199 0.0000
# 6 0.0000 0.0000 0.0000 4.8539 0.0000 37.8905
#
#
#
# Elastic Compliance Matrix: (Units=1/GPa)
#
#
# Indices 1 2 3 4 5 6 
#
# 1 0.018366 0.000196 -0.007925 0.000000 -0.006899 0.000000
# 2 0.000196 0.009851 -0.003522 0.000000 -0.005578 0.000000
# 3 -0.007925 -0.003522 0.019162 0.000000 0.008230 0.000000
# 4 0.000000 0.000000 0.000000 0.048090 0.000000 -0.006161
# 5 -0.006899 -0.005578 0.008230 0.000000 0.033517 0.000000
# 6 0.000000 0.000000 0.000000 -0.006161 0.000000 0.027181
#
#
# Mechanical properties :
#
#
# Convention : Reuss Voigt Hill
#
# Bulk Modulus (GPa) = 40.19707 42.32692 41.26200
# Shear Modulus (GPa) = 26.74372 32.43189 29.58781
#
# Velocity S-wave (km/s) = 3.42862 3.77567 3.60632
# Velocity P-wave (km/s) = 5.77432 6.13292 5.95632
#
# Compressibility (1/GPa) = 0.02487743
#
# Stress axis : x y z
#
# Youngs Moduli (GPa) = 54.44957 101.51298 52.18651
#
# Poissons Ratio (x) = -0.01993 0.41357
# Poissons Ratio (y) = -0.01069 0.18380
# Poissons Ratio (z) = 0.43151 0.35753
#
# Static dielectric constant tensor:
#      x y z
#    x 1.884890 0.000000 -0.024800 
#    y 0.000000 1.877790 0.000000 
#    z -0.024800 0.000000 1.888860 
# 
# From -- ./inp_files/32365.got.cif
#   From: 2010.05.17/outbox.cif.g08.bks.cpg/sg12_17_cif.got.tgz:32365.got - 2010.06.03 13:09:07.
