data_PCOD9180716
_publ_section_title
;
Structure prediction by ZEFSAII (Michael W. Deem and Ramdas Pophale) SiO2 
 PCOD9180716
Probable space group: C 2/M
;
_chemical_formula_sum "Si O2"
_cell_formula_units_Z 64
_cell_length_a 30.601157
_cell_length_b 9.022631
_cell_length_c 31.426742
_cell_angle_alpha 90.000000
_cell_angle_beta 151.368950
_cell_angle_gamma 90.000000
_cell_volume 4157.744881
_symmetry_space_group_name_H-M "C 2/M"
_symmetry_group_IT_number 12
_symmetry_cell_setting 'monoclinic'
loop_
_space_group_symop_operation_xyz
x,y,z
-x,y,-z
-x,-y,-z
x,-y,z
1/2+x,1/2+y,z
1/2-x,1/2+y,-z
1/2-x,1/2-y,-z
1/2+x,1/2-y,z
loop_
_atom_site_type_symbol
_atom_site_label
_atom_site_fract_x
_atom_site_fract_y
_atom_site_fract_z
Si Si1 0.327918 0.677588 0.887382
Si Si2 0.630242 0.823010 0.932034
Si Si3 0.341881 0.323478 0.131839
Si Si4 0.021981 0.677672 0.923949
Si Si5 0.127999 0.677094 0.753699
Si Si6 0.352724 0.677702 0.387273
Si Si7 0.476823 0.322418 0.411093
Si Si8 0.164729 0.177115 0.206842
O O1 0.340408 0.500000 0.902758
O O2 0.228436 0.716416 0.820936
O O3 0.332470 0.713032 0.841266
O O4 0.406066 0.760487 0.980226
O O5 0.615618 0.738701 0.875369
O O6 0.561384 0.784180 0.910974
O O7 0.626290 0.000000 0.921248
O O8 0.733321 0.788688 0.035821
O O9 0.351751 0.500000 0.142764
O O10 0.379943 0.247381 0.206550
O O11 0.017497 0.500000 0.923372
O O12 0.924235 0.748698 0.849181
O O13 0.122469 0.500000 0.751259
O O14 0.054548 0.740075 0.657893
O O15 0.338732 0.500000 0.376285
O O16 0.423564 0.716247 0.485355
O O17 0.405455 0.712139 0.388155
O O18 0.257394 0.760986 0.306383
O O19 0.474087 0.500000 0.402419
O O20 0.160235 0.000000 0.207068
#
# Coordination Sequence:
#
# PCOD9180716 Si02
#       8
#     8   8   8   8   8   8   8   8
#     4  10  21  34  46  67 101 137 171 206 241 285
#     4   9  19  34  49  70  97 126 163 206 250 295
#     4  10  19  32  51  73  97 127 164 204 249 296
#     4  11  22  35  51  71  96 132 174 210 246 290
#     4  11  20  31  49  74 103 135 166 199 247 297
#     4   9  18  33  51  72  97 129 166 208 251 290
#     4   9  18  32  51  73  99 128 164 207 250 295
#     4  11  22  35  49  70 100 135 173 209 246 290
#
# _framework density 15.39296
#
# number of rings (size 3 to 8) (size 9 to 14) (size 15 to 20)
#    0.000    2.000    2.500    2.625    0.000    5.000 
#    0.000    1.250    0.000    0.000    0.000    0.875 
#    0.000    0.000    0.000    0.000    0.000    0.000 
#
# Total GULP energy -178612.185150 kJ/mol
# GULP energy per Si atom -5581.630786 kJ/mol
# Density = 1.535793 g / cm^3
# Si number density = 15.392960 Si / 1000 Ang^3
#
#
#
# Elastic Constant Matrix: (Units=GPa)
#
#
# Indices 1 2 3 4 5 6 
#
# 1 91.2880 47.0721 73.8352 0.0000 -7.3512 0.0000
# 2 47.0721 42.9433 59.2612 0.0000 -7.2284 0.0000
# 3 73.8352 59.2612 131.4422 0.0000 -11.4218 0.0000
# 4 0.0000 0.0000 0.0000 27.5950 0.0000 -3.4984
# 5 -7.3512 -7.2284 -11.4218 0.0000 24.6524 0.0000
# 6 0.0000 0.0000 0.0000 -3.4984 0.0000 23.9112
#
#
#
# Elastic Compliance Matrix: (Units=1/GPa)
#
#
# Indices 1 2 3 4 5 6 
#
# 1 0.026264 -0.022431 -0.004722 0.000000 -0.000933 0.000000
# 2 -0.022431 0.081491 -0.023595 0.000000 0.006273 0.000000
# 3 -0.004722 -0.023595 0.021021 0.000000 0.001413 0.000000
# 4 0.000000 0.000000 0.000000 0.036923 0.000000 0.005402
# 5 -0.000933 0.006273 0.001413 0.000000 0.042780 0.000000
# 6 0.000000 0.000000 0.000000 0.005402 0.000000 0.042612
#
#
# Mechanical properties :
#
#
# Convention : Reuss Voigt Hill
#
# Bulk Modulus (GPa) = 36.65553 69.55675 53.10614
# Shear Modulus (GPa) = 13.82433 20.93205 17.37819
#
# Velocity S-wave (km/s) = 3.00007 3.69161 3.36366
# Velocity P-wave (km/s) = 5.98878 7.96593 7.04704
#
# Compressibility (1/GPa) = 0.02728101
#
# Stress axis : x y z
#
# Youngs Moduli (GPa) = 38.07426 12.27126 47.57155
#
# Poissons Ratio (x) = 0.27526 0.22461
# Poissons Ratio (y) = 0.85404 1.12247
# Poissons Ratio (z) = 0.17977 0.28954
#
# Static dielectric constant tensor:
#      x y z
#    x 1.495400 0.000000 -0.001900 
#    y 0.000000 1.509320 0.000000 
#    z -0.001900 0.000000 1.491470 
# 
# From -- ./inp_files/248248.got.cif
#   From: 2010.05.17/outbox.cif.g08.bks.cpg/sg12_125_cif.got.tgz:248248.got - 2010.06.03 13:09:07.
