data_PCOD9180992
_publ_section_title
;
Structure prediction by ZEFSAII (Michael W. Deem and Ramdas Pophale) SiO2 
 PCOD9180992
Probable space group: C 2/M
;
_chemical_formula_sum "Si O2"
_cell_formula_units_Z 64
_cell_length_a 22.631328
_cell_length_b 14.689541
_cell_length_c 17.397534
_cell_angle_alpha 90.000000
_cell_angle_beta 145.455450
_cell_angle_gamma 90.000000
_cell_volume 3279.630440
_symmetry_space_group_name_H-M "C 2/M"
_symmetry_group_IT_number 12
_symmetry_cell_setting 'monoclinic'
loop_
_space_group_symop_operation_xyz
x,y,z
-x,y,-z
-x,-y,-z
x,-y,z
1/2+x,1/2+y,z
1/2-x,1/2+y,-z
1/2-x,1/2-y,-z
1/2+x,1/2-y,z
loop_
_atom_site_type_symbol
_atom_site_label
_atom_site_fract_x
_atom_site_fract_y
_atom_site_fract_z
Si Si1 0.251924 0.206266 0.119352
Si Si2 0.670646 0.786792 0.529511
Si Si3 0.263670 0.597129 0.406913
Si Si4 0.877228 0.601754 0.373193
Si Si5 0.547064 0.840727 0.248637
Si Si6 0.689191 0.893304 0.976894
Si Si7 0.475058 0.320816 0.063505
Si Si8 0.651227 0.404345 0.339493
O O1 0.340825 0.176611 0.273126
O O2 0.275163 0.148265 0.067089
O O3 0.236251 0.313991 0.083662
O O4 0.145850 0.173104 0.046519
O O5 0.698813 0.688226 0.594559
O O6 0.647526 0.859513 0.569728
O O7 0.586340 0.793380 0.370256
O O8 0.778496 0.819566 0.607621
O O9 0.265719 0.500000 0.367733
O O10 0.149171 0.607566 0.324372
O O11 0.345392 0.594276 0.565309
O O12 0.831900 0.500000 0.311120
O O13 0.000000 0.593865 0.500000
O O14 0.437680 0.890099 0.151229
O O15 0.514591 0.771635 0.146416
O O16 0.720491 0.000000 0.020240
O O17 0.541576 0.395173 0.180934
O O18 0.500000 0.323281 0.000000
O O19 0.701564 0.500000 0.368711
#
# Coordination Sequence:
#
# PCOD9180992 Si02
#       8
#     8   8   8   8   8   8   8   8
#     4  10  23  39  62  91 123 160 198 250 302 355
#     4  11  19  35  58  84 120 154 194 253 303 352
#     4  10  19  33  57  84 112 153 199 246 295 352
#     4  11  24  41  64  91 117 148 193 249 307 361
#     4  10  19  36  60  87 117 155 203 256 298 347
#     4  10  21  40  65  90 119 161 209 250 291 350
#     4  11  21  35  56  82 123 165 196 237 304 364
#     4  10  19  32  51  82 115 149 191 236 293 354
#
# _framework density 19.514392999999998
#
# number of rings (size 3 to 8) (size 9 to 14) (size 15 to 20)
#    0.000    1.625    2.500    3.375    0.000    3.750 
#    0.000    0.625    0.000    2.625    0.000    0.000 
#    0.000    0.000    0.000    0.000    0.000    0.000 
#
# Total GULP energy -178163.002317 kJ/mol
# GULP energy per Si atom -5567.593822 kJ/mol
# Density = 1.946998 g / cm^3
# Si number density = 19.514393 Si / 1000 Ang^3
#
#
#
# Elastic Constant Matrix: (Units=GPa)
#
#
# Indices 1 2 3 4 5 6 
#
# 1 56.7142 10.8743 15.0964 0.0000 1.5442 0.0000
# 2 10.8743 131.0784 29.8544 0.0000 9.6713 0.0000
# 3 15.0964 29.8544 76.9938 0.0000 1.7624 0.0000
# 4 0.0000 0.0000 0.0000 17.2519 0.0000 3.3116
# 5 1.5442 9.6713 1.7624 0.0000 13.3925 0.0000
# 6 0.0000 0.0000 0.0000 3.3116 0.0000 22.2694
#
#
#
# Elastic Compliance Matrix: (Units=1/GPa)
#
#
# Indices 1 2 3 4 5 6 
#
# 1 0.018695 -0.000694 -0.003369 0.000000 -0.001211 0.000000
# 2 -0.000694 0.008840 -0.003157 0.000000 -0.005888 0.000000
# 3 -0.003369 -0.003157 0.014856 0.000000 0.000713 0.000000
# 4 0.000000 0.000000 0.000000 0.059668 0.000000 -0.008873
# 5 -0.001211 -0.005888 0.000713 0.000000 0.078967 0.000000
# 6 0.000000 0.000000 0.000000 -0.008873 0.000000 0.046224
#
#
# Mechanical properties :
#
#
# Convention : Reuss Voigt Hill
#
# Bulk Modulus (GPa) = 35.77590 41.82630 38.80110
# Shear Modulus (GPa) = 19.91976 24.51351 22.21664
#
# Velocity S-wave (km/s) = 3.19842 3.54810 3.37779
# Velocity P-wave (km/s) = 5.65798 6.18591 5.92782
#
# Compressibility (1/GPa) = 0.02795178
#
# Stress axis : x y z
#
# Youngs Moduli (GPa) = 53.49006 113.12114 67.31155
#
# Poissons Ratio (x) = 0.07855 0.22675
# Poissons Ratio (y) = 0.03714 0.21249
# Poissons Ratio (z) = 0.18019 0.35710
#
# Static dielectric constant tensor:
#      x y z
#    x 1.697070 0.000000 0.014990 
#    y 0.000000 1.762340 0.000000 
#    z 0.014990 0.000000 1.708970 
# 
# From -- ./inp_files/290163.got.cif
#   From: 2010.05.17/outbox.cif.g08.bks.cpg/sg12_146_cif.got.tgz:290163.got - 2010.06.03 13:09:07.
