data_PCOD9180522
_publ_section_title
;
Structure prediction by ZEFSAII (Michael W. Deem and Ramdas Pophale) SiO2 
 PCOD9180522
Probable space group: C 2/M
;
_chemical_formula_sum "Si O2"
_cell_formula_units_Z 64
_cell_length_a 31.647931
_cell_length_b 9.192632
_cell_length_c 24.886886
_cell_angle_alpha 90.000000
_cell_angle_beta 150.033316
_cell_angle_gamma 90.000000
_cell_volume 3616.496677
_symmetry_space_group_name_H-M "C 2/M"
_symmetry_group_IT_number 12
_symmetry_cell_setting 'monoclinic'
loop_
_space_group_symop_operation_xyz
x,y,z
-x,y,-z
-x,-y,-z
x,-y,z
1/2+x,1/2+y,z
1/2-x,1/2+y,-z
1/2-x,1/2-y,-z
1/2+x,1/2-y,z
loop_
_atom_site_type_symbol
_atom_site_label
_atom_site_fract_x
_atom_site_fract_y
_atom_site_fract_z
Si Si1 0.218198 0.170216 0.517436
Si Si2 0.777118 0.826656 0.945402
Si Si3 0.055945 0.825319 0.408252
Si Si4 0.756214 0.328832 0.808728
Si Si5 0.194615 0.840200 0.300513
Si Si6 0.872996 0.826314 0.155615
Si Si7 0.356664 0.166261 0.399937
Si Si8 0.901526 0.661058 0.880392
O O1 0.250000 0.250000 0.500000
O O2 0.128996 0.217800 0.445840
O O3 0.286461 0.214474 0.636938
O O4 0.213039 0.000000 0.502185
O O5 0.776525 0.747209 0.887549
O O6 0.695432 0.766654 0.887189
O O7 0.771940 0.000000 0.931861
O O8 0.855415 0.797447 0.072849
O O9 0.075328 0.746564 0.486520
O O10 0.965522 0.794815 0.281527
O O11 0.063263 0.000000 0.424753
O O12 0.737636 0.500000 0.795790
O O13 0.678216 0.253164 0.690455
O O14 0.839849 0.317482 0.863385
O O15 0.273820 0.841690 0.346969
O O16 0.115598 0.791709 0.178904
O O17 0.187226 0.000000 0.317095
O O18 0.857250 0.000000 0.145958
O O19 0.381822 0.000000 0.414626
O O20 0.876867 0.500000 0.831537
O O21 0.000000 0.657188 0.000000
#
# Coordination Sequence:
#
# PCOD9180522 Si02
#       8
#     8   8   8   8   8   8   8   8
#     4  10  19  32  50  72 102 136 173 213 258 307
#     4  10  20  35  56  80 107 138 174 218 265 312
#     4   9  18  34  55  77 103 137 175 213 261 318
#     4  10  19  33  54  77 104 140 178 214 260 317
#     4   9  17  30  48  69  95 130 171 207 252 307
#     4   9  19  37  58  78 104 139 176 214 263 320
#     4   9  17  30  51  77 104 132 167 211 257 305
#     4   9  18  33  51  72 102 136 173 214 259 307
#
# _framework density 17.696684000000001
#
# number of rings (size 3 to 8) (size 9 to 14) (size 15 to 20)
#    0.000    2.625    0.000    1.875    0.000    5.250 
#    2.250    0.625    0.000    3.750    0.000    0.000 
#    0.000    0.000    0.000    0.000    0.000    0.000 
#
# Total GULP energy -178162.147635 kJ/mol
# GULP energy per Si atom -5567.567114 kJ/mol
# Density = 1.765641 g / cm^3
# Si number density = 17.696684 Si / 1000 Ang^3
#
#
#
# Elastic Constant Matrix: (Units=GPa)
#
#
# Indices 1 2 3 4 5 6 
#
# 1 40.7598 32.5676 39.8267 0.0000 -17.1651 0.0000
# 2 32.5676 70.2903 57.7304 0.0000 -11.5799 0.0000
# 3 39.8267 57.7304 132.7029 0.0000 -19.3694 0.0000
# 4 0.0000 0.0000 0.0000 28.1688 0.0000 -8.4802
# 5 -17.1651 -11.5799 -19.3694 0.0000 19.8274 0.0000
# 6 0.0000 0.0000 0.0000 -8.4802 0.0000 29.8315
#
#
#
# Elastic Compliance Matrix: (Units=1/GPa)
#
#
# Indices 1 2 3 4 5 6 
#
# 1 0.057613 -0.016972 -0.004752 0.000000 0.035323 0.000000
# 2 -0.016972 0.027426 -0.007749 0.000000 -0.006246 0.000000
# 3 -0.004752 -0.007749 0.012913 0.000000 0.003975 0.000000
# 4 0.000000 0.000000 0.000000 0.038823 0.000000 0.011036
# 5 0.035323 -0.006246 0.003975 0.000000 0.081252 0.000000
# 6 0.000000 0.000000 0.000000 0.011036 0.000000 0.036659
#
#
# Mechanical properties :
#
#
# Convention : Reuss Voigt Hill
#
# Bulk Modulus (GPa) = 25.63669 56.00027 40.81848
# Shear Modulus (GPa) = 15.30766 23.14076 19.22421
#
# Velocity S-wave (km/s) = 2.94428 3.62004 3.29951
# Velocity P-wave (km/s) = 5.10652 7.01328 6.13444
#
# Compressibility (1/GPa) = 0.03900659
#
# Stress axis : x y z
#
# Youngs Moduli (GPa) = 17.35708 36.46173 77.44054
#
# Poissons Ratio (x) = 0.61883 0.36797
# Poissons Ratio (y) = 0.29459 0.60011
# Poissons Ratio (z) = 0.08247 0.28255
#
# Static dielectric constant tensor:
#      x y z
#    x 1.602220 0.000000 -0.024660 
#    y 0.000000 1.617690 0.000000 
#    z -0.024660 0.000000 1.613640 
# 
# From -- ./inp_files/353530.got.cif
#   From: 2010.05.17/outbox.cif.g08.bks.cpg/sg12_177_cif.got.tgz:353530.got - 2010.06.03 13:09:07.
