data_PCOD9180225
_publ_section_title
;
Structure prediction by ZEFSAII (Michael W. Deem and Ramdas Pophale) SiO2 
 PCOD9180225
Probable space group: C 2/M
;
_chemical_formula_sum "Si O2"
_cell_formula_units_Z 50
_cell_length_a 20.985829
_cell_length_b 7.647200
_cell_length_c 14.926357
_cell_angle_alpha 90.000000
_cell_angle_beta 82.899211
_cell_angle_gamma 90.000000
_cell_volume 2377.051698
_symmetry_space_group_name_H-M "C 2/M"
_symmetry_group_IT_number 12
_symmetry_cell_setting 'monoclinic'
loop_
_space_group_symop_operation_xyz
x,y,z
-x,y,-z
-x,-y,-z
x,-y,z
1/2+x,1/2+y,z
1/2-x,1/2+y,-z
1/2-x,1/2-y,-z
1/2+x,1/2-y,z
loop_
_atom_site_type_symbol
_atom_site_label
_atom_site_fract_x
_atom_site_fract_y
_atom_site_fract_z
Si Si1 0.328979 0.794824 0.585693
Si Si2 0.525482 0.201582 0.116787
Si Si3 0.239005 0.289960 0.897896
Si Si4 0.321615 0.787751 0.389786
Si Si5 0.382355 0.786941 0.193613
Si Si6 0.500000 0.500000 0.000000
Si Si7 0.865444 0.203173 0.773462
O O1 0.345294 0.726347 0.483317
O O2 0.252296 0.768021 0.608289
O O3 0.361838 0.716706 0.667210
O O4 0.342973 0.000000 0.584555
O O5 0.454464 0.266134 0.157959
O O6 0.573803 0.208566 0.191434
O O7 0.523822 0.000000 0.086737
O O8 0.544081 0.343145 0.039342
O O9 0.237237 0.500000 0.888757
O O10 0.171987 0.226465 0.866891
O O11 0.299353 0.225684 0.828423
O O12 0.250000 0.250000 0.000000
O O13 0.361477 0.730514 0.296664
O O14 0.321582 0.000000 0.390982
O O15 0.382880 0.000000 0.192868
O O16 0.869246 0.000000 0.796680
#
# Coordination Sequence:
#
# PCOD9180225 Si02
#       7
#     8   8   8   8   8   2   8
#     4  10  19  31  57  93 122 158 205 253 312 376
#     4  11  25  43  68  91 124 165 214 258 312 375
#     4  10  22  37  58  83 115 154 198 249 310 364
#     4   9  17  35  59  86 122 160 204 255 312 373
#     4   9  19  40  62  85 115 161 205 256 310 368
#     4  12  26  48  64  94 122 172 214 262 308 378
#     4  11  22  41  61  86 125 165 201 256 312 369
#
# _framework density 21.034459999999999
#
# number of rings (size 3 to 8) (size 9 to 14) (size 15 to 20)
#    0.000    1.920    2.400    1.200    2.240    1.920 
#    1.440    0.800    0.000    4.800    0.000    0.000 
#    0.000    0.000    0.000    0.000    0.000    0.000 
#
# Total GULP energy -139374.815001 kJ/mol
# GULP energy per Si atom -5574.992600 kJ/mol
# Density = 2.098658 g / cm^3
# Si number density = 21.034460 Si / 1000 Ang^3
#
#
#
# Elastic Constant Matrix: (Units=GPa)
#
#
# Indices 1 2 3 4 5 6 
#
# 1 115.9476 9.5079 60.7758 0.0000 19.2096 0.0000
# 2 9.5079 73.2360 9.3843 0.0000 3.6770 0.0000
# 3 60.7758 9.3843 148.1900 0.0000 25.7723 0.0000
# 4 0.0000 0.0000 0.0000 24.9622 0.0000 11.7523
# 5 19.2096 3.6770 25.7723 0.0000 35.9994 0.0000
# 6 0.0000 0.0000 0.0000 11.7523 0.0000 14.7276
#
#
#
# Elastic Compliance Matrix: (Units=1/GPa)
#
#
# Indices 1 2 3 4 5 6 
#
# 1 0.011326 -0.000796 -0.004063 0.000000 -0.003053 0.000000
# 2 -0.000796 0.013847 -0.000432 0.000000 -0.000680 0.000000
# 3 -0.004063 -0.000432 0.009203 0.000000 -0.004376 0.000000
# 4 0.000000 0.000000 0.000000 0.064168 0.000000 -0.051204
# 5 -0.003053 -0.000680 -0.004376 0.000000 0.032610 0.000000
# 6 0.000000 0.000000 0.000000 -0.051204 0.000000 0.108760
#
#
# Mechanical properties :
#
#
# Convention : Reuss Voigt Hill
#
# Bulk Modulus (GPa) = 42.03036 55.18995 48.61016
# Shear Modulus (GPa) = 19.34776 32.31822 25.83299
#
# Velocity S-wave (km/s) = 3.03613 3.92400 3.50827
# Velocity P-wave (km/s) = 5.68470 6.84289 6.29051
#
# Compressibility (1/GPa) = 0.02379232
#
# Stress axis : x y z
#
# Youngs Moduli (GPa) = 88.29523 72.21581 108.65973
#
# Poissons Ratio (x) = 0.05751 0.44154
# Poissons Ratio (y) = 0.07032 0.04694
# Poissons Ratio (z) = 0.35879 0.03120
#
# Static dielectric constant tensor:
#      x y z
#    x 1.747280 0.000000 -0.020130 
#    y 0.000000 1.819180 0.000000 
#    z -0.020130 0.000000 1.794300 
# 
# From -- ./inp_files/230244.got.cif
#   From: 2010.05.17/outbox.cif.g08.bks.cpg/sg12_116_cif.got.tgz:230244.got - 2010.06.03 13:09:07.
