data_PCOD9180955
_publ_section_title
;
Structure prediction by ZEFSAII (Michael W. Deem and Ramdas Pophale) SiO2 
 PCOD9180955
Probable space group: C 2/M
;
_chemical_formula_sum "Si O2"
_cell_formula_units_Z 64
_cell_length_a 19.636413
_cell_length_b 14.195530
_cell_length_c 9.781597
_cell_angle_alpha 90.000000
_cell_angle_beta 91.103325
_cell_angle_gamma 90.000000
_cell_volume 2726.107693
_symmetry_space_group_name_H-M "C 2/M"
_symmetry_group_IT_number 12
_symmetry_cell_setting 'monoclinic'
loop_
_space_group_symop_operation_xyz
x,y,z
-x,y,-z
-x,-y,-z
x,-y,z
1/2+x,1/2+y,z
1/2-x,1/2+y,-z
1/2-x,1/2-y,-z
1/2+x,1/2-y,z
loop_
_atom_site_type_symbol
_atom_site_label
_atom_site_fract_x
_atom_site_fract_y
_atom_site_fract_z
Si Si1 0.495400 0.231484 0.766027
Si Si2 0.208417 0.602697 0.181917
Si Si3 0.443444 0.396101 0.117285
Si Si4 0.635060 0.730921 0.075537
Si Si5 0.909705 0.396628 0.592870
Si Si6 0.777839 0.888747 0.715927
Si Si7 0.632884 0.810901 0.684207
Si Si8 0.327400 0.391786 0.407520
O O1 0.515754 0.340959 0.764657
O O2 0.438217 0.225610 0.881552
O O3 0.461172 0.185696 0.633914
O O4 0.568385 0.180320 0.782852
O O5 0.207438 0.500000 0.114651
O O6 0.189981 0.685466 0.076735
O O7 0.149455 0.607299 0.295755
O O8 0.274787 0.609238 0.278727
O O9 0.420668 0.500000 0.151265
O O10 0.500000 0.402385 0.000000
O O11 0.381737 0.333699 0.055223
O O12 0.662664 0.661549 0.195622
O O13 0.941717 0.500000 0.605725
O O14 0.879257 0.380448 0.443394
O O15 0.706464 0.837473 0.744466
O O16 0.792169 0.877239 0.554180
O O17 0.774968 0.000000 0.745756
O O18 0.632240 0.705015 0.620349
O O19 0.355717 0.500000 0.416445
#
# Coordination Sequence:
#
# PCOD9180955 Si02
#       8
#     8   8   8   8   8   8   8   8
#     4  10  23  36  55  84 113 148 190 238 292 339
#     4   9  16  30  53  80 109 145 187 227 268 324
#     4   9  19  39  63  81 105 146 195 245 291 337
#     4  10  19  37  60  83 107 144 196 246 282 339
#     4  10  20  35  55  80 114 155 190 223 271 335
#     4  11  21  33  56  86 115 153 197 237 273 336
#     4  12  21  34  53  85 121 153 181 232 289 350
#     4  10  19  32  51  78 113 154 189 219 271 338
#
# _framework density 23.476697000000001
#
# number of rings (size 3 to 8) (size 9 to 14) (size 15 to 20)
#    0.000    1.875    2.500    3.000    0.000    2.500 
#    0.000    1.875    0.000    6.750    0.000    0.000 
#    0.000    0.000    0.000    0.000    0.000    0.000 
#
# Total GULP energy -178644.688944 kJ/mol
# GULP energy per Si atom -5582.646529 kJ/mol
# Density = 2.342326 g / cm^3
# Si number density = 23.476697 Si / 1000 Ang^3
#
#
#
# Elastic Constant Matrix: (Units=GPa)
#
#
# Indices 1 2 3 4 5 6 
#
# 1 77.7779 8.1766 37.2151 0.0000 -6.0940 0.0000
# 2 8.1766 147.7669 48.7040 0.0000 16.6497 0.0000
# 3 37.2151 48.7040 77.5739 0.0000 10.6921 0.0000
# 4 0.0000 0.0000 0.0000 26.5201 0.0000 20.2509
# 5 -6.0940 16.6497 10.6921 0.0000 30.2824 0.0000
# 6 0.0000 0.0000 0.0000 20.2509 0.0000 7.9352
#
#
#
# Elastic Compliance Matrix: (Units=1/GPa)
#
#
# Indices 1 2 3 4 5 6 
#
# 1 0.018374 0.001828 -0.010862 0.000000 0.006528 0.000000
# 2 0.001828 0.008972 -0.006182 0.000000 -0.002383 0.000000
# 3 -0.010862 -0.006182 0.022932 0.000000 -0.006884 0.000000
# 4 0.000000 0.000000 0.000000 -0.039745 0.000000 0.101429
# 5 0.006528 -0.002383 -0.006884 0.000000 0.038077 0.000000
# 6 0.000000 0.000000 0.000000 0.101429 0.000000 -0.132829
#
#
# Mechanical properties :
#
#
# Convention : Reuss Voigt Hill
#
# Bulk Modulus (GPa) = 50.38727 54.59001 52.48864
# Shear Modulus (GPa) = -105.99270 26.88241 -39.55515
#
# Velocity S-wave (km/s) = -6.72652 3.38756 -4.10917
# Velocity P-wave (km/s) = 6.23047 6.21322 0.32769
#
# Compressibility (1/GPa) = 0.01984628
#
# Stress axis : x y z
#
# Youngs Moduli (GPa) = 54.42602 111.45563 43.60798
#
# Poissons Ratio (x) = -0.20372 0.47366
# Poissons Ratio (y) = -0.09948 0.26957
# Poissons Ratio (z) = 0.59116 0.68897
#
# Static dielectric constant tensor:
#      x y z
#    x 1.935300 0.000000 -0.033660 
#    y 0.000000 1.904390 0.000000 
#    z -0.033660 0.000000 1.844190 
# 
# From -- ./inp_files/167276.got.cif
#   From: 2010.05.17/outbox.cif.g08.bks.cpg/sg12_84_cif.got.tgz:167276.got - 2010.06.03 13:09:07.
