data_PCOD9180603
_publ_section_title
;
Structure prediction by ZEFSAII (Michael W. Deem and Ramdas Pophale) SiO2 
 PCOD9180603
Probable space group: C 2/M
;
_chemical_formula_sum "Si O2"
_cell_formula_units_Z 52
_cell_length_a 14.724517
_cell_length_b 17.644656
_cell_length_c 10.325171
_cell_angle_alpha 90.000000
_cell_angle_beta 95.832527
_cell_angle_gamma 90.000000
_cell_volume 2668.685537
_symmetry_space_group_name_H-M "C 2/M"
_symmetry_group_IT_number 12
_symmetry_cell_setting 'monoclinic'
loop_
_space_group_symop_operation_xyz
x,y,z
-x,y,-z
-x,-y,-z
x,-y,z
1/2+x,1/2+y,z
1/2-x,1/2+y,-z
1/2-x,1/2-y,-z
1/2+x,1/2-y,z
loop_
_atom_site_type_symbol
_atom_site_label
_atom_site_fract_x
_atom_site_fract_y
_atom_site_fract_z
Si Si1 0.033044 0.415570 0.797463
Si Si2 0.000000 0.286923 0.000000
Si Si3 0.796636 0.354948 0.319230
Si Si4 0.172834 0.917765 0.507762
Si Si5 0.100911 0.755465 0.475177
Si Si6 0.163879 0.252963 0.184556
Si Si7 0.677034 0.917302 0.245239
O O1 0.044827 0.500000 0.857186
O O2 0.035820 0.345574 0.896712
O O3 0.114723 0.400398 0.711179
O O4 0.929548 0.414258 0.727479
O O5 0.918098 0.238996 0.926678
O O6 0.722322 0.407770 0.376807
O O7 0.828427 0.294038 0.431799
O O8 0.746561 0.306187 0.200186
O O9 0.112192 0.843416 0.516034
O O10 0.253779 0.915183 0.625374
O O11 0.127590 0.000000 0.511281
O O12 0.123051 0.749219 0.325890
O O13 0.000000 0.729892 0.500000
O O14 0.193191 0.340579 0.167507
O O15 0.688568 0.000000 0.181516
#
# Coordination Sequence:
#
# PCOD9180603 Si02
#       7
#     8   4   8   8   8   8   8
#     4  10  21  34  52  77 104 139 171 208 256 309
#     4  10  21  36  56  70  99 138 180 216 247 306
#     4  11  20  33  54  80 108 132 168 214 265 309
#     4  10  19  32  50  75 107 141 168 204 254 308
#     4  11  20  33  53  78 109 136 169 214 258 307
#     4  10  19  36  52  79 103 138 171 211 261 299
#     4   9  16  30  49  72 104 134 165 201 246 302
#
# _framework density 19.485247000000001
#
# number of rings (size 3 to 8) (size 9 to 14) (size 15 to 20)
#    0.000    1.846    3.077    3.462    0.000    1.538 
#    0.000    2.308    0.000    0.000    0.000   13.462 
#    0.000    0.000    0.000    0.308    0.000    0.000 
#
# Total GULP energy -144975.662305 kJ/mol
# GULP energy per Si atom -5575.987012 kJ/mol
# Density = 1.944090 g / cm^3
# Si number density = 19.485247 Si / 1000 Ang^3
#
#
#
# Elastic Constant Matrix: (Units=GPa)
#
#
# Indices 1 2 3 4 5 6 
#
# 1 46.7414 5.3768 11.4424 0.0000 14.1427 0.0000
# 2 5.3768 81.9202 7.0523 0.0000 23.3505 0.0000
# 3 11.4424 7.0523 36.9199 0.0000 24.9393 0.0000
# 4 0.0000 0.0000 0.0000 13.2858 0.0000 3.3411
# 5 14.1427 23.3505 24.9393 0.0000 32.3154 0.0000
# 6 0.0000 0.0000 0.0000 3.3411 0.0000 25.9167
#
#
#
# Elastic Compliance Matrix: (Units=1/GPa)
#
#
# Indices 1 2 3 4 5 6 
#
# 1 0.024884 0.001929 0.000454 0.000000 -0.012635 0.000000
# 2 0.001929 0.017320 0.010691 0.000000 -0.021610 0.000000
# 3 0.000454 0.010691 0.063205 0.000000 -0.056702 0.000000
# 4 0.000000 0.000000 0.000000 0.077790 0.000000 -0.010028
# 5 -0.012635 -0.021610 -0.056702 0.000000 0.095849 0.000000
# 6 0.000000 0.000000 0.000000 -0.010028 0.000000 0.039878
#
#
# Mechanical properties :
#
#
# Convention : Reuss Voigt Hill
#
# Bulk Modulus (GPa) = 7.60122 23.70274 15.65198
# Shear Modulus (GPa) = 14.85311 23.75093 19.30202
#
# Velocity S-wave (km/s) = 2.76393 3.49509 3.15079
# Velocity P-wave (km/s) = 3.75436 5.33651 4.61376
#
# Compressibility (1/GPa) = 0.13155781
#
# Stress axis : x y z
#
# Youngs Moduli (GPa) = 40.18616 57.73762 15.82156
#
# Poissons Ratio (x) = -0.11138 -0.00718
# Poissons Ratio (y) = -0.07752 -0.16915
# Poissons Ratio (z) = -0.01825 -0.61729
#
# Static dielectric constant tensor:
#      x y z
#    x 1.684540 0.000000 -0.000440 
#    y 0.000000 1.724810 0.000000 
#    z -0.000440 0.000000 1.705380 
# 
# From -- ./inp_files/144938.got.cif
#   From: 2010.05.17/outbox.cif.g08.bks.cpg/sg12_73_cif.got.tgz:144938.got - 2010.06.03 13:09:07.
