data_PCOD9180788
_publ_section_title
;
Structure prediction by ZEFSAII (Michael W. Deem and Ramdas Pophale) SiO2 
 PCOD9180788
Probable space group: C 2/M
;
_chemical_formula_sum "Si O2"
_cell_formula_units_Z 64
_cell_length_a 24.094449
_cell_length_b 8.810558
_cell_length_c 19.825964
_cell_angle_alpha 90.000000
_cell_angle_beta 59.189459
_cell_angle_gamma 90.000000
_cell_volume 3614.764224
_symmetry_space_group_name_H-M "C 2/M"
_symmetry_group_IT_number 12
_symmetry_cell_setting 'monoclinic'
loop_
_space_group_symop_operation_xyz
x,y,z
-x,y,-z
-x,-y,-z
x,-y,z
1/2+x,1/2+y,z
1/2-x,1/2+y,-z
1/2-x,1/2-y,-z
1/2+x,1/2-y,z
loop_
_atom_site_type_symbol
_atom_site_label
_atom_site_fract_x
_atom_site_fract_y
_atom_site_fract_z
Si Si1 0.554466 0.318049 0.763885
Si Si2 0.330692 0.683491 0.584085
Si Si3 0.453558 0.318635 0.716979
Si Si4 0.961595 0.678320 0.453156
Si Si5 0.195138 0.324643 0.828421
Si Si6 0.812098 0.675028 0.331076
Si Si7 0.671567 0.179855 0.264153
Si Si8 0.439567 0.316760 0.083773
O O1 0.556139 0.500000 0.761665
O O2 0.493303 0.269091 0.758192
O O3 0.622596 0.261451 0.691125
O O4 0.549300 0.270516 0.845180
O O5 0.333576 0.500000 0.581126
O O6 0.389831 0.756403 0.507336
O O7 0.259043 0.730797 0.603057
O O8 0.336936 0.739066 0.657730
O O9 0.444064 0.500000 0.724117
O O10 0.498972 0.272397 0.626253
O O11 0.385738 0.236605 0.747772
O O12 0.959943 0.500000 0.436256
O O13 0.000000 0.691626 0.500000
O O14 0.202980 0.500000 0.842748
O O15 0.191003 0.319116 0.748985
O O16 0.258503 0.229233 0.806771
O O17 0.128164 0.256030 0.896165
O O18 0.818639 0.500000 0.347401
O O19 0.668163 0.000000 0.276506
O O20 0.433411 0.500000 0.085828
O O21 0.500000 0.273028 0.000000
#
# Coordination Sequence:
#
# PCOD9180788 Si02
#       8
#     8   8   8   8   8   8   8   8
#     4   9  19  34  52  76 103 134 170 203 245 305
#     4  10  19  32  51  74  99 130 169 214 263 305
#     4  11  22  35  51  71 100 137 173 210 254 304
#     4  11  22  34  49  73 100 129 173 220 260 302
#     4   9  17  30  49  76 106 134 168 209 250 295
#     4   8  16  30  49  72  97 128 165 206 251 298
#     4  11  20  31  49  74 101 132 172 214 256 300
#     4   9  17  32  56  84 111 136 163 203 253 300
#
# _framework density 17.705166999999999
#
# number of rings (size 3 to 8) (size 9 to 14) (size 15 to 20)
#    0.000    2.250    1.250    3.375    0.000    5.250 
#    0.000    0.625    0.000    0.750    0.000    0.000 
#    0.000    0.000    0.000    0.000    0.000    0.000 
#
# Total GULP energy -178505.053739 kJ/mol
# GULP energy per Si atom -5578.282929 kJ/mol
# Density = 1.766487 g / cm^3
# Si number density = 17.705167 Si / 1000 Ang^3
#
#
#
# Elastic Constant Matrix: (Units=GPa)
#
#
# Indices 1 2 3 4 5 6 
#
# 1 101.0450 19.8395 25.8235 0.0001 -21.3110 0.0002
# 2 19.8395 37.7813 7.2409 0.0005 -7.0347 0.0002
# 3 25.8235 7.2409 48.6161 0.0001 -25.7548 0.0000
# 4 0.0001 0.0005 0.0001 15.7194 -0.0001 -13.0592
# 5 -21.3110 -7.0347 -25.7548 -0.0001 28.2719 0.0000
# 6 0.0002 0.0002 0.0000 -13.0592 0.0000 20.9052
#
#
#
# Elastic Compliance Matrix: (Units=1/GPa)
#
#
# Indices 1 2 3 4 5 6 
#
# 1 0.012879 -0.005124 -0.003112 0.000000 0.005598 0.000000
# 2 -0.005124 0.029814 0.000319 -0.000002 0.003846 -0.000002
# 3 -0.003112 0.000319 0.040537 0.000000 0.034662 0.000000
# 4 0.000000 -0.000002 0.000000 0.132249 -0.000001 0.082614
# 5 0.005598 0.003846 0.034662 -0.000001 0.072123 -0.000001
# 6 0.000000 -0.000002 0.000000 0.082614 -0.000001 0.099443
#
#
# Mechanical properties :
#
#
# Convention : Reuss Voigt Hill
#
# Bulk Modulus (GPa) = 14.83787 32.58337 23.71062
# Shear Modulus (GPa) = 11.75520 21.94851 16.85185
#
# Velocity S-wave (km/s) = 2.57950 3.52471 3.08848
# Velocity P-wave (km/s) = 4.15578 5.91676 5.11266
#
# Compressibility (1/GPa) = 0.06739512
#
# Stress axis : x y z
#
# Youngs Moduli (GPa) = 77.64823 33.54140 24.66870
#
# Poissons Ratio (x) = 0.17187 0.07677
# Poissons Ratio (y) = 0.39787 -0.00787
# Poissons Ratio (z) = 0.24166 -0.01070
#
# Static dielectric constant tensor:
#      x y z
#    x 1.622390 0.000000 -0.002420 
#    y 0.000000 1.594800 0.000000 
#    z -0.002420 0.000000 1.594830 
# 
# From -- ./inp_files/319855.got.cif
#   From: 2010.05.17/outbox.cif.g08.bks.cpg/sg12_160_cif.got.tgz:319855.got - 2010.06.03 13:09:07.
