data_PCOD9180039
_publ_section_title
;
Structure prediction by ZEFSAII (Michael W. Deem and Ramdas Pophale) SiO2 
 PCOD9180039
Probable space group: C 2/M
;
_chemical_formula_sum "Si O2"
_cell_formula_units_Z 64
_cell_length_a 18.012499
_cell_length_b 13.075627
_cell_length_c 28.289750
_cell_angle_alpha 90.000000
_cell_angle_beta 150.387330
_cell_angle_gamma 90.000000
_cell_volume 3292.383778
_symmetry_space_group_name_H-M "C 2/M"
_symmetry_group_IT_number 12
_symmetry_cell_setting 'monoclinic'
loop_
_space_group_symop_operation_xyz
x,y,z
-x,y,-z
-x,-y,-z
x,-y,z
1/2+x,1/2+y,z
1/2-x,1/2+y,-z
1/2-x,1/2-y,-z
1/2+x,1/2-y,z
loop_
_atom_site_type_symbol
_atom_site_label
_atom_site_fract_x
_atom_site_fract_y
_atom_site_fract_z
Si Si1 0.134215 0.731953 0.324185
Si Si2 0.682114 0.382031 0.493003
Si Si3 0.833715 0.120205 0.960334
Si Si4 0.603107 0.261977 0.151834
Si Si5 0.644443 0.774510 0.773294
Si Si6 0.953181 0.619957 0.140869
Si Si7 0.781025 0.380014 0.333405
Si Si8 0.537998 0.171596 0.409577
O O1 0.226542 0.658474 0.410435
O O2 0.238701 0.815031 0.356409
O O3 0.995000 0.778522 0.277272
O O4 0.054358 0.665619 0.239254
O O5 0.636784 0.500000 0.472336
O O6 0.554773 0.295257 0.418239
O O7 0.797146 0.369868 0.512180
O O8 0.743821 0.169193 0.867274
O O9 0.720987 0.136516 0.942319
O O10 0.850774 0.000000 0.962103
O O11 0.992290 0.170901 0.058719
O O12 0.737322 0.216543 0.194399
O O13 0.504743 0.176419 0.122563
O O14 0.676845 0.332148 0.233886
O O15 0.565220 0.853811 0.693053
O O16 0.978896 0.500000 0.152269
O O17 0.753085 0.500000 0.324229
O O18 0.950532 0.364214 0.407421
#
# Coordination Sequence:
#
# PCOD9180039 Si02
#       8
#     8   8   8   8   8   8   8   8
#     4   9  19  35  54  79 106 136 177 218 257 313
#     4  10  19  36  60  81 106 137 174 221 266 309
#     4  10  19  31  53  81 104 132 173 218 261 304
#     4  10  19  32  53  79 106 136 176 219 254 308
#     4   9  19  34  50  72 108 137 164 214 264 303
#     4   9  18  33  52  75 106 142 174 210 261 310
#     4  10  20  36  55  76 109 145 173 212 268 317
#     4   9  20  36  55  83 108 134 176 218 263 322
#
# _framework density 19.438803
#
# number of rings (size 3 to 8) (size 9 to 14) (size 15 to 20)
#    0.000    2.500    0.000    1.875    0.000    6.500 
#    0.000   14.375    0.000    2.250    0.000    0.000 
#    0.000    0.000    0.000    0.000    0.000    0.000 
#
# Total GULP energy -178402.437450 kJ/mol
# GULP energy per Si atom -5575.076170 kJ/mol
# Density = 1.939456 g / cm^3
# Si number density = 19.438803 Si / 1000 Ang^3
#
#
#
# Elastic Constant Matrix: (Units=GPa)
#
#
# Indices 1 2 3 4 5 6 
#
# 1 112.0823 33.3765 5.8988 0.0001 15.2343 0.0000
# 2 33.3765 87.3549 3.1488 0.0003 8.0069 0.0000
# 3 5.8988 3.1488 58.7732 0.0018 0.5597 0.0001
# 4 0.0001 0.0003 0.0018 12.1718 0.0001 5.6855
# 5 15.2343 8.0069 0.5597 0.0001 20.5562 0.0000
# 6 0.0000 0.0000 0.0001 5.6855 0.0000 11.4419
#
#
#
# Elastic Compliance Matrix: (Units=1/GPa)
#
#
# Indices 1 2 3 4 5 6 
#
# 1 0.010929 -0.003531 -0.000844 0.000000 -0.006701 0.000000
# 2 -0.003531 0.013033 -0.000321 0.000000 -0.002451 0.000000
# 3 -0.000844 -0.000321 0.017114 -0.000003 0.000284 0.000001
# 4 0.000000 0.000000 -0.000003 0.106990 -0.000001 -0.053163
# 5 -0.006701 -0.002451 0.000284 -0.000001 0.054560 0.000001
# 6 0.000000 0.000000 0.000001 -0.053163 0.000001 0.113815
#
#
# Mechanical properties :
#
#
# Convention : Reuss Voigt Hill
#
# Bulk Modulus (GPa) = 31.56118 38.11765 34.83941
# Shear Modulus (GPa) = 14.86359 23.21973 19.04166
#
# Velocity S-wave (km/s) = 2.76820 3.45991 3.13320
# Velocity P-wave (km/s) = 5.14672 5.96766 5.57232
#
# Compressibility (1/GPa) = 0.03168449
#
# Stress axis : x y z
#
# Youngs Moduli (GPa) = 91.50199 76.72900 58.43268
#
# Poissons Ratio (x) = 0.27093 0.04931
# Poissons Ratio (y) = 0.32309 0.01873
# Poissons Ratio (z) = 0.07722 0.02459
#
# Static dielectric constant tensor:
#      x y z
#    x 1.730970 0.000000 0.002270 
#    y 0.000000 1.629120 0.000000 
#    z 0.002270 0.000000 1.706610 
# 
# From -- ./inp_files/296471.got.cif
#   From: 2010.05.17/outbox.cif.g08.bks.cpg/sg12_149_cif.got.tgz:296471.got - 2010.06.03 13:09:07.
