data_PCOD9180891
_publ_section_title
;
Structure prediction by ZEFSAII (Michael W. Deem and Ramdas Pophale) SiO2 
 PCOD9180891
Probable space group: C 2/M
;
_chemical_formula_sum "Si O2"
_cell_formula_units_Z 40
_cell_length_a 17.143763
_cell_length_b 15.531457
_cell_length_c 13.188316
_cell_angle_alpha 90.000000
_cell_angle_beta 151.559084
_cell_angle_gamma 90.000000
_cell_volume 1672.417673
_symmetry_space_group_name_H-M "C 2/M"
_symmetry_group_IT_number 12
_symmetry_cell_setting 'monoclinic'
loop_
_space_group_symop_operation_xyz
x,y,z
-x,y,-z
-x,-y,-z
x,-y,z
1/2+x,1/2+y,z
1/2-x,1/2+y,-z
1/2-x,1/2-y,-z
1/2+x,1/2-y,z
loop_
_atom_site_type_symbol
_atom_site_label
_atom_site_fract_x
_atom_site_fract_y
_atom_site_fract_z
Si Si1 0.714568 0.407466 0.666530
Si Si2 0.390484 0.269895 0.079590
Si Si3 0.841960 0.717730 0.378438
Si Si4 0.014320 0.591270 0.851759
Si Si5 0.106486 0.902166 0.225956
O O1 0.625591 0.500000 0.556308
O O2 0.620952 0.316943 0.547419
O O3 0.860621 0.408597 0.751661
O O4 0.817250 0.408069 0.889613
O O5 0.494403 0.183441 0.209031
O O6 0.504159 0.354009 0.197499
O O7 0.250000 0.250000 0.000000
O O8 0.299600 0.271824 0.867400
O O9 0.759896 0.656078 0.367422
O O10 0.000000 0.681938 0.500000
O O11 0.015199 0.500000 0.795091
O O12 0.147136 0.000000 0.301619
O O13 0.000000 0.907335 0.000000
#
# Coordination Sequence:
#
# PCOD9180891 Si02
#       5
#     8   8   8   8   8
#     4   8  13  24  45  70  94 122 157 195 235 287
#     4  10  19  32  51  77 100 129 166 211 255 298
#     4  10  19  32  51  77 101 132 169 210 251 297
#     4   8  13  24  45  69  92 121 158 197 234 284
#     4   9  18  34  54  72  96 134 179 214 244 295
#
# _framework density 23.917470000000002
#
# number of rings (size 3 to 8) (size 9 to 14) (size 15 to 20)
#    0.000    3.000    2.000    1.200    0.000    1.600 
#    0.000    1.000    0.000    0.000    0.000    0.000 
#    0.000    0.000    0.000    0.000    0.000    0.000 
#
# Total GULP energy -111516.196905 kJ/mol
# GULP energy per Si atom -5575.809845 kJ/mol
# Density = 2.386303 g / cm^3
# Si number density = 23.917470 Si / 1000 Ang^3
#
#
#
# Elastic Constant Matrix: (Units=GPa)
#
#
# Indices 1 2 3 4 5 6 
#
# 1 102.6366 86.3341 22.1559 0.0000 24.2108 0.0000
# 2 86.3341 243.2433 27.7211 0.0000 32.3442 0.0000
# 3 22.1559 27.7211 74.7001 0.0000 -8.3644 0.0000
# 4 0.0000 0.0000 0.0000 -13.7516 0.0000 1.5699
# 5 24.2108 32.3442 -8.3644 0.0000 35.0240 0.0000
# 6 0.0000 0.0000 0.0000 1.5699 0.0000 -6.3188
#
#
#
# Elastic Compliance Matrix: (Units=1/GPa)
#
#
# Indices 1 2 3 4 5 6 
#
# 1 0.016068 -0.004126 -0.004163 0.000000 -0.008291 0.000000
# 2 -0.004126 0.006159 -0.001417 0.000000 -0.003174 0.000000
# 3 -0.004163 -0.001417 0.016045 0.000000 0.008019 0.000000
# 4 0.000000 0.000000 0.000000 -0.074842 0.000000 -0.018594
# 5 -0.008291 -0.003174 0.008019 0.000000 0.039129 0.000000
# 6 0.000000 0.000000 0.000000 -0.018594 0.000000 -0.162878
#
#
# Mechanical properties :
#
#
# Convention : Reuss Voigt Hill
#
# Bulk Modulus (GPa) = 53.02219 77.00023 65.01121
# Shear Modulus (GPa) = -37.14237 21.94865 -7.59686
#
# Velocity S-wave (km/s) = -3.94501 3.03261 -1.78415
# Velocity P-wave (km/s) = 1.21084 6.67281 4.79544
#
# Compressibility (1/GPa) = 0.01886003
#
# Stress axis : x y z
#
# Youngs Moduli (GPa) = 62.23394 162.35871 62.32319
#
# Poissons Ratio (x) = 0.66993 0.25945
# Poissons Ratio (y) = 0.25679 0.08833
# Poissons Ratio (z) = 0.25908 0.23010
#
# Static dielectric constant tensor:
#      x y z
#    x 1.951760 0.000000 -0.026160 
#    y 0.000000 1.923930 0.000000 
#    z -0.026160 0.000000 1.927080 
# 
# From -- ./inp_files/84719.got.cif
#   From: 2010.05.17/outbox.cif.g08.bks.cpg/sg12_43_cif.got.tgz:84719.got - 2010.06.03 13:09:07.
