data_PCOD9180436
_publ_section_title
;
Structure prediction by ZEFSAII (Michael W. Deem and Ramdas Pophale) SiO2 
 PCOD9180436
Probable space group: C 2/M
;
_chemical_formula_sum "Si O2"
_cell_formula_units_Z 64
_cell_length_a 30.608122
_cell_length_b 9.438869
_cell_length_c 15.101431
_cell_angle_alpha 90.000000
_cell_angle_beta 51.574789
_cell_angle_gamma 90.000000
_cell_volume 3417.979367
_symmetry_space_group_name_H-M "C 2/M"
_symmetry_group_IT_number 12
_symmetry_cell_setting 'monoclinic'
loop_
_space_group_symop_operation_xyz
x,y,z
-x,y,-z
-x,-y,-z
x,-y,z
1/2+x,1/2+y,z
1/2-x,1/2+y,-z
1/2-x,1/2-y,-z
1/2+x,1/2-y,z
loop_
_atom_site_type_symbol
_atom_site_label
_atom_site_fract_x
_atom_site_fract_y
_atom_site_fract_z
Si Si1 0.509315 0.328376 0.757653
Si Si2 0.617160 0.671420 0.120118
Si Si3 0.552956 0.158195 0.870338
Si Si4 0.338619 0.671451 0.743093
Si Si5 0.277302 0.668334 0.133490
Si Si6 0.303663 0.339430 0.456527
Si Si7 0.851180 0.156988 0.201551
Si Si8 0.891588 0.171876 0.491513
O O1 0.510827 0.500000 0.764729
O O2 0.444925 0.281968 0.829046
O O3 0.537324 0.257382 0.807632
O O4 0.548189 0.289072 0.624381
O O5 0.615877 0.500000 0.117410
O O6 0.631301 0.710508 0.203194
O O7 0.669075 0.714381 0.992578
O O8 0.602074 0.226033 0.866245
O O9 0.567946 0.000000 0.820902
O O10 0.500000 0.151259 0.000000
O O11 0.332325 0.500000 0.749211
O O12 0.278053 0.743801 0.815830
O O13 0.374712 0.714843 0.611621
O O14 0.267615 0.500000 0.129832
O O15 0.297233 0.685674 0.209936
O O16 0.287314 0.500000 0.502052
O O17 0.250000 0.250000 0.500000
O O18 0.337391 0.346624 0.322394
O O19 0.343450 0.280796 0.483407
O O20 0.871758 0.000000 0.147963
O O21 0.890550 0.000000 0.491123
#
# Coordination Sequence:
#
# PCOD9180436 Si02
#       8
#     8   8   8   8   8   8   8   8
#     4  10  19  37  60  79 107 146 184 228 273 322
#     4   9  19  34  56  83 107 139 187 231 275 325
#     4  11  23  36  52  80 114 142 175 221 273 328
#     4  10  20  35  55  81 111 144 180 227 281 328
#     4  10  20  35  54  81 111 141 185 231 267 326
#     4  10  19  32  49  75 105 137 177 217 260 317
#     4  10  20  35  55  77 105 143 185 218 258 319
#     4   9  18  33  54  79 109 139 180 226 267 322
#
# _framework density 18.724513000000002
#
# number of rings (size 3 to 8) (size 9 to 14) (size 15 to 20)
#    0.000    2.125    1.250    2.250    0.000    3.500 
#    0.000    4.375    0.000    0.000    0.000    1.750 
#    0.000    0.000    0.000    0.000    0.000    0.000 
#
# Total GULP energy -178463.818019 kJ/mol
# GULP energy per Si atom -5576.994313 kJ/mol
# Density = 1.868189 g / cm^3
# Si number density = 18.724513 Si / 1000 Ang^3
#
#
#
# Elastic Constant Matrix: (Units=GPa)
#
#
# Indices 1 2 3 4 5 6 
#
# 1 80.7039 25.0894 18.9604 0.0000 -2.0180 0.0000
# 2 25.0894 39.7001 8.4186 0.0000 -11.2439 0.0000
# 3 18.9604 8.4186 75.5524 0.0000 -1.0138 0.0000
# 4 0.0000 0.0000 0.0000 12.4548 0.0000 -4.7692
# 5 -2.0180 -11.2439 -1.0138 0.0000 35.9694 0.0000
# 6 0.0000 0.0000 0.0000 -4.7692 0.0000 23.0891
#
#
#
# Elastic Compliance Matrix: (Units=1/GPa)
#
#
# Indices 1 2 3 4 5 6 
#
# 1 0.016230 -0.010309 -0.002957 0.000000 -0.002395 0.000000
# 2 -0.010309 0.034863 -0.001160 0.000000 0.010287 0.000000
# 3 -0.002957 -0.001160 0.014105 0.000000 -0.000131 0.000000
# 4 0.000000 0.000000 0.000000 0.087186 0.000000 0.018009
# 5 -0.002395 0.010287 -0.000131 0.000000 0.030879 0.000000
# 6 0.000000 0.000000 0.000000 0.018009 0.000000 0.047030
#
#
# Mechanical properties :
#
#
# Convention : Reuss Voigt Hill
#
# Bulk Modulus (GPa) = 27.51105 33.43257 30.47181
# Shear Modulus (GPa) = 18.43247 23.86852 21.15050
#
# Velocity S-wave (km/s) = 3.14092 3.57420 3.36454
# Velocity P-wave (km/s) = 5.27999 5.90990 5.60380
#
# Compressibility (1/GPa) = 0.03634903
#
# Stress axis : x y z
#
# Youngs Moduli (GPa) = 61.61248 28.68370 70.89535
#
# Poissons Ratio (x) = 0.29569 0.20961
# Poissons Ratio (y) = 0.63514 0.08221
# Poissons Ratio (z) = 0.18217 0.03326
#
# Static dielectric constant tensor:
#      x y z
#    x 1.632560 0.000000 -0.002150 
#    y 0.000000 1.657630 0.000000 
#    z -0.002150 0.000000 1.680400 
# 
# From -- ./inp_files/249733.got.cif
#   From: 2010.05.17/outbox.cif.g08.bks.cpg/sg12_125_cif.got.tgz:249733.got - 2010.06.03 13:09:07.
