data_PCOD9180667
_publ_section_title
;
Structure prediction by ZEFSAII (Michael W. Deem and Ramdas Pophale) SiO2 
 PCOD9180667
Probable space group: C 2/M
;
_chemical_formula_sum "Si O2"
_cell_formula_units_Z 64
_cell_length_a 20.851447
_cell_length_b 7.329911
_cell_length_c 26.649066
_cell_angle_alpha 90.000000
_cell_angle_beta 134.279283
_cell_angle_gamma 90.000000
_cell_volume 2916.061548
_symmetry_space_group_name_H-M "C 2/M"
_symmetry_group_IT_number 12
_symmetry_cell_setting 'monoclinic'
loop_
_space_group_symop_operation_xyz
x,y,z
-x,y,-z
-x,-y,-z
x,-y,z
1/2+x,1/2+y,z
1/2-x,1/2+y,-z
1/2-x,1/2-y,-z
1/2+x,1/2-y,z
loop_
_atom_site_type_symbol
_atom_site_label
_atom_site_fract_x
_atom_site_fract_y
_atom_site_fract_z
Si Si1 0.152346 0.717344 0.968577
Si Si2 0.147752 0.222675 0.644906
Si Si3 0.479482 0.777351 0.813948
Si Si4 0.460299 0.713847 0.584320
Si Si5 0.318167 0.222150 0.799980
Si Si6 0.585427 0.780433 0.329691
Si Si7 0.895951 0.277585 0.947587
Si Si8 0.789410 0.222282 0.432138
O O1 0.139415 0.500000 0.964390
O O2 0.072571 0.785017 0.889157
O O3 0.250000 0.750000 0.000000
O O4 0.141673 0.785409 0.019617
O O5 0.223120 0.280352 0.725849
O O6 0.179132 0.274982 0.606463
O O7 0.049034 0.287637 0.606025
O O8 0.146477 0.000000 0.644665
O O9 0.397445 0.723714 0.805262
O O10 0.460728 0.717223 0.746934
O O11 0.479937 0.000000 0.813533
O O12 0.458929 0.500000 0.570817
O O13 0.464031 0.730958 0.646127
O O14 0.365507 0.786487 0.512287
O O15 0.341824 0.282537 0.868978
O O16 0.318046 0.000000 0.800180
O O17 0.688585 0.715335 0.387868
O O18 0.587842 0.000000 0.328802
O O19 0.894115 0.500000 0.946077
O O20 0.000000 0.225098 0.000000
O O21 0.785920 0.000000 0.431500
#
# Coordination Sequence:
#
# PCOD9180667 Si02
#       8
#     8   8   8   8   8   8   8   8
#     4  10  20  33  50  75 104 130 157 194 243 291
#     4   9  16  27  45  70  96 122 158 203 245 283
#     4   9  16  29  49  71  95 126 164 202 235 276
#     4  10  20  31  46  73 105 127 150 199 258 294
#     4   9  14  24  45  72  95 117 158 209 243 270
#     4  10  19  32  51  71  93 129 172 201 228 282
#     4   9  15  25  45  71  94 117 153 202 241 268
#     4   9  16  29  49  70  93 127 168 202 235 283
#
# _framework density 21.947410000000001
#
# number of rings (size 3 to 8) (size 9 to 14) (size 15 to 20)
#    0.000    2.625    2.500    0.750    0.000    2.500 
#    0.000    1.875    0.000    2.625    0.000    0.000 
#    0.000    0.000    0.000    0.000    0.000    0.000 
#
# Total GULP energy -178809.018812 kJ/mol
# GULP energy per Si atom -5587.781838 kJ/mol
# Density = 2.189746 g / cm^3
# Si number density = 21.947410 Si / 1000 Ang^3
#
#
#
# Elastic Constant Matrix: (Units=GPa)
#
#
# Indices 1 2 3 4 5 6 
#
# 1 77.1814 -11.3762 -5.1583 0.0000 -3.4703 0.0000
# 2 -11.3762 83.0732 -4.8769 0.0001 4.1965 -0.0001
# 3 -5.1583 -4.8769 93.7958 0.0000 -9.5059 0.0000
# 4 0.0000 0.0001 0.0000 -8.7762 0.0000 -6.2735
# 5 -3.4703 4.1965 -9.5059 0.0000 29.5696 0.0000
# 6 0.0000 -0.0001 0.0000 -6.2735 0.0000 5.8243
#
#
#
# Elastic Compliance Matrix: (Units=1/GPa)
#
#
# Indices 1 2 3 4 5 6 
#
# 1 0.013362 0.001806 0.000994 0.000000 0.001632 0.000000
# 2 0.001806 0.012389 0.000607 0.000000 -0.001351 0.000000
# 3 0.000994 0.000607 0.011113 0.000000 0.003603 0.000000
# 4 0.000000 0.000000 0.000000 -0.064377 0.000000 -0.069342
# 5 0.001632 -0.001351 0.003603 0.000000 0.035360 0.000000
# 6 0.000000 0.000000 0.000000 -0.069342 0.000000 0.097005
#
#
# Mechanical properties :
#
#
# Convention : Reuss Voigt Hill
#
# Bulk Modulus (GPa) = 22.89541 23.46976 23.18258
# Shear Modulus (GPa) = 44.40563 23.68765 34.04664
#
# Velocity S-wave (km/s) = 4.50296 3.28882 3.94291
# Velocity P-wave (km/s) = 6.12292 5.01384 5.59593
#
# Compressibility (1/GPa) = 0.04367688
#
# Stress axis : x y z
#
# Youngs Moduli (GPa) = 74.83657 80.71849 89.98612
#
# Poissons Ratio (x) = -0.14576 -0.08946
# Poissons Ratio (y) = -0.13514 -0.05458
# Poissons Ratio (z) = -0.07440 -0.04896
#
# Static dielectric constant tensor:
#      x y z
#    x 1.737650 0.000000 0.000350 
#    y 0.000000 1.894410 0.000000 
#    z 0.000350 0.000000 1.775800 
# 
# From -- ./inp_files/282558.got.cif
#   From: 2010.05.17/outbox.cif.g08.bks.cpg/sg12_142_cif.got.tgz:282558.got - 2010.06.03 13:09:07.
