data_PCOD9180079
_publ_section_title
;
Structure prediction by ZEFSAII (Michael W. Deem and Ramdas Pophale) SiO2 
 PCOD9180079
Probable space group: C 2/M
;
_chemical_formula_sum "Si O2"
_cell_formula_units_Z 64
_cell_length_a 22.062933
_cell_length_b 8.799804
_cell_length_c 17.166887
_cell_angle_alpha 90.000000
_cell_angle_beta 95.077231
_cell_angle_gamma 90.000000
_cell_volume 3319.864865
_symmetry_space_group_name_H-M "C 2/M"
_symmetry_group_IT_number 12
_symmetry_cell_setting 'monoclinic'
loop_
_space_group_symop_operation_xyz
x,y,z
-x,y,-z
-x,-y,-z
x,-y,z
1/2+x,1/2+y,z
1/2-x,1/2+y,-z
1/2-x,1/2-y,-z
1/2+x,1/2-y,z
loop_
_atom_site_type_symbol
_atom_site_label
_atom_site_fract_x
_atom_site_fract_y
_atom_site_fract_z
Si Si1 0.614097 0.324149 0.259819
Si Si2 0.411204 0.180065 0.127012
Si Si3 0.648425 0.678851 0.738856
Si Si4 0.048474 0.320812 0.115610
Si Si5 0.151862 0.819108 0.020809
Si Si6 0.764341 0.822371 0.832302
Si Si7 0.674319 0.180428 0.410058
Si Si8 0.308309 0.819484 0.410353
O O1 0.594631 0.500000 0.256816
O O2 0.568060 0.220244 0.205851
O O3 0.677940 0.315776 0.219463
O O4 0.628488 0.265295 0.347484
O O5 0.402879 0.260601 0.208652
O O6 0.477413 0.214282 0.098673
O O7 0.407071 0.000000 0.136472
O O8 0.359432 0.236279 0.061673
O O9 0.644368 0.500000 0.727950
O O10 0.711077 0.723511 0.790114
O O11 0.651311 0.760642 0.655983
O O12 0.058099 0.500000 0.100705
O O13 0.092939 0.223859 0.066298
O O14 0.209333 0.773162 0.080726
O O15 0.154592 0.000000 0.009967
O O16 0.745321 0.000000 0.834318
O O17 0.664813 0.210440 0.500762
O O18 0.742743 0.237657 0.399566
O O19 0.671316 0.000000 0.396250
O O20 0.298175 0.000000 0.401569
#
# Coordination Sequence:
#
# PCOD9180079 Si02
#       8
#     8   8   8   8   8   8   8   8
#     4  10  19  32  55  83 113 145 176 223 276 318
#     4  11  24  40  57  77 106 146 185 226 275 326
#     4  12  24  36  55  79 108 147 186 225 269 325
#     4  10  21  37  58  82 108 141 183 227 273 324
#     4  10  21  37  59  84 109 138 177 229 278 322
#     4   9  19  35  53  77 110 145 177 215 271 326
#     4  10  19  31  53  83 112 144 181 219 264 320
#     4  10  20  34  52  78 114 148 178 219 268 320
#
# _framework density 19.277894
#
# number of rings (size 3 to 8) (size 9 to 14) (size 15 to 20)
#    0.000    1.750    1.250    4.500    0.000    8.000 
#    0.000    0.000    0.000    0.750    0.000    5.250 
#    0.000    0.000    0.000    0.000    0.000    0.000 
#
# Total GULP energy -178825.136847 kJ/mol
# GULP energy per Si atom -5588.285526 kJ/mol
# Density = 1.923402 g / cm^3
# Si number density = 19.277894 Si / 1000 Ang^3
#
#
#
# Elastic Constant Matrix: (Units=GPa)
#
#
# Indices 1 2 3 4 5 6 
#
# 1 25.4926 -3.7834 -6.1984 0.0000 1.5402 0.0000
# 2 -3.7834 31.8598 5.3012 0.0000 -1.2791 0.0000
# 3 -6.1984 5.3012 88.0603 0.0000 -1.0400 0.0000
# 4 0.0000 0.0000 0.0000 34.6826 0.0000 1.0264
# 5 1.5402 -1.2791 -1.0400 0.0000 24.4175 0.0000
# 6 0.0000 0.0000 0.0000 1.0264 0.0000 22.4005
#
#
#
# Elastic Compliance Matrix: (Units=1/GPa)
#
#
# Indices 1 2 3 4 5 6 
#
# 1 0.040627 0.004307 0.002574 0.000000 -0.002227 0.000000
# 2 0.004307 0.032223 -0.001621 0.000000 0.001347 0.000000
# 3 0.002574 -0.001621 0.011638 0.000000 0.000248 0.000000
# 4 0.000000 0.000000 0.000000 0.028872 0.000000 -0.001323
# 5 -0.002227 0.001347 0.000248 0.000000 0.041176 0.000000
# 6 0.000000 0.000000 0.000000 -0.001323 0.000000 0.044702
#
#
# Mechanical properties :
#
#
# Convention : Reuss Voigt Hill
#
# Bulk Modulus (GPa) = 10.52551 15.11682 12.82116
# Shear Modulus (GPa) = 22.68744 26.30634 24.49689
#
# Velocity S-wave (km/s) = 3.43427 3.69804 3.56859
# Velocity P-wave (km/s) = 4.60405 5.10808 4.86260
#
# Compressibility (1/GPa) = 0.09500731
#
# Stress axis : x y z
#
# Youngs Moduli (GPa) = 24.61434 31.03398 85.92878
#
# Poissons Ratio (x) = -0.13366 -0.22119
# Poissons Ratio (y) = -0.10601 0.13927
# Poissons Ratio (z) = -0.06336 0.05030
#
# Static dielectric constant tensor:
#      x y z
#    x 1.670120 0.000000 -0.008340 
#    y 0.000000 1.638050 0.000000 
#    z -0.008340 0.000000 1.701180 
# 
# From -- ./inp_files/238560.got.cif
#   From: 2010.05.17/outbox.cif.g08.bks.cpg/sg12_120_cif.got.tgz:238560.got - 2010.06.03 13:09:07.
