data_PCOD9180265
_publ_section_title
;
Structure prediction by ZEFSAII (Michael W. Deem and Ramdas Pophale) SiO2 
 PCOD9180265
Probable space group: C 2/M
;
_chemical_formula_sum "Si O2"
_cell_formula_units_Z 40
_cell_length_a 38.545312
_cell_length_b 10.899606
_cell_length_c 5.163024
_cell_angle_alpha 90.000000
_cell_angle_beta 75.090425
_cell_angle_gamma 90.000000
_cell_volume 2096.106584
_symmetry_space_group_name_H-M "C 2/M"
_symmetry_group_IT_number 12
_symmetry_cell_setting 'monoclinic'
loop_
_space_group_symop_operation_xyz
x,y,z
-x,y,-z
-x,-y,-z
x,-y,z
1/2+x,1/2+y,z
1/2-x,1/2+y,-z
1/2-x,1/2-y,-z
1/2+x,1/2-y,z
loop_
_atom_site_type_symbol
_atom_site_label
_atom_site_fract_x
_atom_site_fract_y
_atom_site_fract_z
Si Si1 0.708204 0.259090 0.159797
Si Si2 0.271179 0.500000 0.633028
Si Si3 0.977573 0.850309 0.292754
Si Si4 0.721490 0.000000 0.233628
Si Si5 0.395774 0.352553 0.489435
Si Si6 0.850790 0.852658 0.088875
O O1 0.706208 0.377504 0.350563
O O2 0.700077 0.127010 0.298174
O O3 0.684284 0.286538 0.955694
O O4 0.750000 0.250000 0.000000
O O5 0.252765 0.500000 0.389728
O O6 0.239832 0.500000 0.912863
O O7 0.936407 0.807424 0.377304
O O8 0.000000 0.812731 0.500000
O O9 0.976337 0.000000 0.294895
O O10 0.000000 0.812079 0.000000
O O11 0.396958 0.500000 0.450276
O O12 0.380144 0.332492 0.804473
O O13 0.368486 0.307944 0.320764
O O14 0.843595 0.000000 0.114222
#
# Coordination Sequence:
#
# PCOD9180265 Si02
#       6
#     8   4   8   4   8   8
#     4  10  21  37  53  74  96 130 170 216 260 305
#     4  10  20  36  52  72  94 122 160 208 260 304
#     4   9  15  24  40  62  91 126 158 190 229 283
#     4  10  22  34  52  72  96 120 160 214 256 302
#     4   9  18  29  44  67  94 126 166 198 238 293
#     4  10  19  32  47  66  93 128 164 207 246 292
#
# _framework density 19.082999999999998
#
# number of rings (size 3 to 8) (size 9 to 14) (size 15 to 20)
#    0.000    2.400    1.000    1.800    0.000   11.200 
#    0.000    0.000    0.000    0.000    0.000    0.000 
#    0.000    0.000    0.000   18.000    0.000    8.000 
#
# Total GULP energy -111664.838470 kJ/mol
# GULP energy per Si atom -5583.241924 kJ/mol
# Density = 1.903957 g / cm^3
# Si number density = 19.083000 Si / 1000 Ang^3
#
#
#
# Elastic Constant Matrix: (Units=GPa)
#
#
# Indices 1 2 3 4 5 6 
#
# 1 121.1533 11.4836 29.3313 0.0000 -0.3643 0.0000
# 2 11.4836 92.1002 9.1438 0.0000 4.4341 0.0000
# 3 29.3313 9.1438 74.9508 0.0000 7.3605 0.0000
# 4 0.0000 0.0000 0.0000 6.8109 0.0000 3.1674
# 5 -0.3643 4.4341 7.3605 0.0000 27.9759 0.0000
# 6 0.0000 0.0000 0.0000 3.1674 0.0000 13.3232
#
#
#
# Elastic Compliance Matrix: (Units=1/GPa)
#
#
# Indices 1 2 3 4 5 6 
#
# 1 0.009215 -0.000848 -0.003621 0.000000 0.001207 0.000000
# 2 -0.000848 0.011125 -0.000874 0.000000 -0.001544 0.000000
# 3 -0.003621 -0.000874 0.015251 0.000000 -0.003921 0.000000
# 4 0.000000 0.000000 0.000000 0.165073 0.000000 -0.039244
# 5 0.001207 -0.001544 -0.003921 0.000000 0.037037 0.000000
# 6 0.000000 0.000000 0.000000 -0.039244 0.000000 0.084387
#
#
# Mechanical properties :
#
#
# Convention : Reuss Voigt Hill
#
# Bulk Modulus (GPa) = 40.15269 43.12462 41.63866
# Shear Modulus (GPa) = 14.65958 25.50505 20.08231
#
# Velocity S-wave (km/s) = 2.77465 3.65983 3.24754
# Velocity P-wave (km/s) = 5.59926 6.36448 5.99409
#
# Compressibility (1/GPa) = 0.02490493
#
# Stress axis : x y z
#
# Youngs Moduli (GPa) = 108.52259 89.89153 65.56993
#
# Poissons Ratio (x) = 0.07619 0.23744
# Poissons Ratio (y) = 0.09198 0.05730
# Poissons Ratio (z) = 0.39298 0.07855
#
# Static dielectric constant tensor:
#      x y z
#    x 1.677210 0.000000 -0.036330 
#    y 0.000000 1.697000 0.000000 
#    z -0.036330 0.000000 1.712630 
# 
# From -- ./inp_files/30634.got.cif
#   From: 2010.05.17/outbox.cif.g08.bks.cpg/sg12_16_cif.got.tgz:30634.got - 2010.06.03 13:09:07.
