data_PCOD9180862
_publ_section_title
;
Structure prediction by ZEFSAII (Michael W. Deem and Ramdas Pophale) SiO2 
 PCOD9180862
Probable space group: C 2/M
;
_chemical_formula_sum "Si O2"
_cell_formula_units_Z 56
_cell_length_a 26.483399
_cell_length_b 12.819209
_cell_length_c 10.344978
_cell_angle_alpha 90.000000
_cell_angle_beta 124.524777
_cell_angle_gamma 90.000000
_cell_volume 2893.537418
_symmetry_space_group_name_H-M "C 2/M"
_symmetry_group_IT_number 12
_symmetry_cell_setting 'monoclinic'
loop_
_space_group_symop_operation_xyz
x,y,z
-x,y,-z
-x,-y,-z
x,-y,z
1/2+x,1/2+y,z
1/2-x,1/2+y,-z
1/2-x,1/2-y,-z
1/2+x,1/2-y,z
loop_
_atom_site_type_symbol
_atom_site_label
_atom_site_fract_x
_atom_site_fract_y
_atom_site_fract_z
Si Si1 0.299426 0.619717 0.778391
Si Si2 0.354511 0.214155 0.686955
Si Si3 0.664935 0.121427 0.623191
Si Si4 0.440331 0.883117 0.005852
Si Si5 0.056008 0.886131 0.287764
Si Si6 0.930266 0.212811 0.414945
Si Si7 0.420725 0.329359 0.114676
O O1 0.297068 0.500000 0.725939
O O2 0.304539 0.709071 0.676904
O O3 0.236156 0.635527 0.764271
O O4 0.360412 0.634604 0.952470
O O5 0.338160 0.156316 0.531634
O O6 0.381043 0.133255 0.829046
O O7 0.410332 0.294473 0.738993
O O8 0.617977 0.195764 0.628911
O O9 0.648661 0.000000 0.612263
O O10 0.443071 0.000000 0.063492
O O11 0.500000 0.869826 0.000000
O O12 0.434392 0.792589 0.103063
O O13 0.067835 0.861193 0.456400
O O14 0.983330 0.883200 0.159857
O O15 0.080236 0.000000 0.288271
O O16 0.914198 0.155950 0.258237
O O17 0.000000 0.253093 0.500000
#
# Coordination Sequence:
#
# PCOD9180862 Si02
#       7
#     8   8   8   8   8   8   8
#     4  10  21  34  54  79 106 141 176 213 258 312
#     4  10  19  35  53  78 108 138 173 216 263 305
#     4  10  21  37  55  77 104 139 179 215 258 310
#     4  10  19  32  51  76 106 138 172 212 260 310
#     4  10  19  33  55  80 107 137 172 215 260 311
#     4   9  21  37  54  78 104 134 175 218 264 310
#     4  10  20  35  52  79 108 139 172 214 262 306
#
# _framework density 19.353473999999999
#
# number of rings (size 3 to 8) (size 9 to 14) (size 15 to 20)
#    0.000    2.143    1.429    1.714    0.000    4.571 
#    0.000    2.143    0.000    7.714    0.000    0.000 
#    0.000    0.000    0.000    0.000    0.000    0.000 
#
# Total GULP energy -156221.926629 kJ/mol
# GULP energy per Si atom -5579.354522 kJ/mol
# Density = 1.930942 g / cm^3
# Si number density = 19.353474 Si / 1000 Ang^3
#
#
#
# Elastic Constant Matrix: (Units=GPa)
#
#
# Indices 1 2 3 4 5 6 
#
# 1 45.7951 -0.5946 2.5243 0.0000 14.9906 0.0000
# 2 -0.5946 76.2322 -4.6288 0.0000 14.0059 0.0000
# 3 2.5243 -4.6288 48.2129 0.0000 11.2530 0.0000
# 4 0.0000 0.0000 0.0000 -7.1773 0.0000 18.4440
# 5 14.9906 14.0059 11.2530 0.0000 24.9383 0.0000
# 6 0.0000 0.0000 0.0000 18.4440 0.0000 13.5837
#
#
#
# Elastic Compliance Matrix: (Units=1/GPa)
#
#
# Indices 1 2 3 4 5 6 
#
# 1 0.028723 0.004419 0.003945 0.000000 -0.021527 0.000000
# 2 0.004419 0.015927 0.004477 0.000000 -0.013621 0.000000
# 3 0.003945 0.004477 0.024707 0.000000 -0.016034 0.000000
# 4 0.000000 0.000000 0.000000 -0.031036 0.000000 0.042141
# 5 -0.021527 -0.013621 -0.016034 0.000000 0.067924 0.000000
# 6 0.000000 0.000000 0.000000 0.042141 0.000000 0.016399
#
#
# Mechanical properties :
#
#
# Convention : Reuss Voigt Hill
#
# Bulk Modulus (GPa) = 10.52211 18.31577 14.41894
# Shear Modulus (GPa) = 38.86754 17.79823 28.33288
#
# Velocity S-wave (km/s) = 4.48627 3.03585 3.83034
# Velocity P-wave (km/s) = 5.68190 4.66614 5.19889
#
# Compressibility (1/GPa) = 0.09503801
#
# Stress axis : x y z
#
# Youngs Moduli (GPa) = 34.81514 62.78781 40.47423
#
# Poissons Ratio (x) = -0.27744 -0.15967
# Poissons Ratio (y) = -0.15384 -0.18120
# Poissons Ratio (z) = -0.13734 -0.28110
#
# Static dielectric constant tensor:
#      x y z
#    x 1.676980 0.000000 0.008630 
#    y 0.000000 1.660200 0.000000 
#    z 0.008630 0.000000 1.689010 
# 
# From -- ./inp_files/165030.got.cif
#   From: 2010.05.17/outbox.cif.g08.bks.cpg/sg12_83_cif.got.tgz:165030.got - 2010.06.03 13:09:07.
