data_PCOD9180375
_publ_section_title
;
Structure prediction by ZEFSAII (Michael W. Deem and Ramdas Pophale) SiO2 
 PCOD9180375
Probable space group: C 2/M
;
_chemical_formula_sum "Si O2"
_cell_formula_units_Z 64
_cell_length_a 31.983686
_cell_length_b 8.868272
_cell_length_c 14.627210
_cell_angle_alpha 90.000000
_cell_angle_beta 88.947752
_cell_angle_gamma 90.000000
_cell_volume 4148.162594
_symmetry_space_group_name_H-M "C 2/M"
_symmetry_group_IT_number 12
_symmetry_cell_setting 'monoclinic'
loop_
_space_group_symop_operation_xyz
x,y,z
-x,y,-z
-x,-y,-z
x,-y,z
1/2+x,1/2+y,z
1/2-x,1/2+y,-z
1/2-x,1/2-y,-z
1/2+x,1/2-y,z
loop_
_atom_site_type_symbol
_atom_site_label
_atom_site_fract_x
_atom_site_fract_y
_atom_site_fract_z
Si Si1 0.799408 0.178940 0.396363
Si Si2 0.299883 0.180657 0.590685
Si Si3 0.826693 0.319029 0.210191
Si Si4 0.914417 0.318123 0.889629
Si Si5 0.911314 0.318764 0.102743
Si Si6 0.749573 0.181737 0.101079
Si Si7 0.333250 0.183441 0.782854
Si Si8 0.001680 0.825904 0.889028
O O1 0.749449 0.208577 0.388412
O O2 0.811299 0.237220 0.496397
O O3 0.822915 0.263960 0.314327
O O4 0.805607 0.000000 0.388220
O O5 0.325473 0.230906 0.678782
O O6 0.304540 0.000000 0.578805
O O7 0.822762 0.500000 0.205270
O O8 0.870603 0.275233 0.161850
O O9 0.788882 0.243476 0.155982
O O10 0.915854 0.500000 0.887294
O O11 0.876176 0.265841 0.827958
O O12 0.959473 0.255358 0.858732
O O13 0.906356 0.273937 0.996041
O O14 0.914761 0.500000 0.104178
O O15 0.954501 0.250446 0.138042
O O16 0.706823 0.226379 0.154668
O O17 0.751113 0.000000 0.097293
O O18 0.750000 0.250000 0.000000
O O19 0.333803 0.000000 0.782107
O O20 0.001339 0.000000 0.862121
O O21 0.000000 0.817514 0.000000
#
# Coordination Sequence:
#
# PCOD9180375 Si02
#       8
#     8   8   8   8   8   8   8   8
#     4  10  19  32  49  70  94 123 158 202 247 287
#     4   9  17  32  50  68  91 123 161 202 241 282
#     4  11  21  33  49  71  96 127 164 201 239 284
#     4   9  16  29  49  68  91 125 160 194 231 276
#     4   9  18  31  47  68  94 126 164 196 229 280
#     4  11  21  34  47  66  97 133 168 199 232 277
#     4   9  17  31  49  68  93 126 163 197 233 279
#     4   9  17  29  45  67  94 121 153 196 241 278
#
# _framework density 15.428518
#
# number of rings (size 3 to 8) (size 9 to 14) (size 15 to 20)
#    0.000    2.375    1.250    2.250    0.000    5.000 
#    0.000    4.375    0.000    0.000    0.000    0.875 
#    0.000    7.000    0.000    0.000    0.000    0.000 
#
# Total GULP energy -178445.143263 kJ/mol
# GULP energy per Si atom -5576.410727 kJ/mol
# Density = 1.539340 g / cm^3
# Si number density = 15.428518 Si / 1000 Ang^3
#
#
#
# Elastic Constant Matrix: (Units=GPa)
#
#
# Indices 1 2 3 4 5 6 
#
# 1 140.1427 41.3765 69.4226 0.0000 11.1571 0.0000
# 2 41.3765 33.1567 31.7959 0.0000 2.2018 0.0000
# 3 69.4226 31.7959 105.7260 0.0000 9.8618 0.0000
# 4 0.0000 0.0000 0.0000 22.7474 0.0000 -0.0951
# 5 11.1571 2.2018 9.8618 0.0000 9.3559 0.0000
# 6 0.0000 0.0000 0.0000 -0.0951 0.0000 22.2100
#
#
#
# Elastic Compliance Matrix: (Units=1/GPa)
#
#
# Indices 1 2 3 4 5 6 
#
# 1 0.013633 -0.012124 -0.004497 0.000000 -0.008664 0.000000
# 2 -0.012124 0.053291 -0.009143 0.000000 0.011555 0.000000
# 3 -0.004497 -0.009143 0.016037 0.000000 -0.009389 0.000000
# 4 0.000000 0.000000 0.000000 0.043962 0.000000 0.000188
# 5 -0.008664 0.011555 -0.009389 0.000000 0.124393 0.000000
# 6 0.000000 0.000000 0.000000 0.000188 0.000000 0.045026
#
#
# Mechanical properties :
#
#
# Convention : Reuss Voigt Hill
#
# Bulk Modulus (GPa) = 31.81605 62.69060 47.25333
# Shear Modulus (GPa) = 13.95294 19.95802 16.95548
#
# Velocity S-wave (km/s) = 3.01052 3.60054 3.31867
# Velocity P-wave (km/s) = 5.72282 7.61619 6.73636
#
# Compressibility (1/GPa) = 0.03143067
#
# Stress axis : x y z
#
# Youngs Moduli (GPa) = 73.35235 18.76503 62.35603
#
# Poissons Ratio (x) = 0.22752 0.28043
# Poissons Ratio (y) = 0.88936 0.57013
# Poissons Ratio (z) = 0.32989 0.17157
#
# Static dielectric constant tensor:
#      x y z
#    x 1.500420 0.000000 0.005530 
#    y 0.000000 1.516620 0.000000 
#    z 0.005530 0.000000 1.502020 
# 
# From -- ./inp_files/248338.got.cif
#   From: 2010.05.17/outbox.cif.g08.bks.cpg/sg12_125_cif.got.tgz:248338.got - 2010.06.03 13:09:07.
