data_PCOD9180374
_publ_section_title
;
Structure prediction by ZEFSAII (Michael W. Deem and Ramdas Pophale) SiO2 
 PCOD9180374
Probable space group: C 2/M
;
_chemical_formula_sum "Si O2"
_cell_formula_units_Z 56
_cell_length_a 5.172751
_cell_length_b 24.698271
_cell_length_c 26.791740
_cell_angle_alpha 90.000000
_cell_angle_beta 94.971777
_cell_angle_gamma 90.000000
_cell_volume 3409.980802
_symmetry_space_group_name_H-M "C 2/M"
_symmetry_group_IT_number 12
_symmetry_cell_setting 'monoclinic'
loop_
_space_group_symop_operation_xyz
x,y,z
-x,y,-z
-x,-y,-z
x,-y,z
1/2+x,1/2+y,z
1/2-x,1/2+y,-z
1/2-x,1/2-y,-z
1/2+x,1/2-y,z
loop_
_atom_site_type_symbol
_atom_site_label
_atom_site_fract_x
_atom_site_fract_y
_atom_site_fract_z
Si Si1 0.735370 0.062449 0.477673
Si Si2 0.353438 0.712490 0.730846
Si Si3 0.968664 0.787149 0.053052
Si Si4 0.966007 0.871224 0.645860
Si Si5 0.539264 0.714709 0.559779
Si Si6 0.366007 0.286399 0.841843
Si Si7 0.555826 0.938345 0.361544
O O1 0.500000 0.092247 0.500000
O O2 0.684188 0.060144 0.418777
O O3 0.000000 0.086876 0.500000
O O4 0.742412 0.000000 0.497275
O O5 0.579348 0.756707 0.725927
O O6 0.381306 0.668807 0.688393
O O7 0.386748 0.688136 0.787343
O O8 0.180798 0.737962 0.053025
O O9 0.048858 0.816373 0.105894
O O10 0.000000 0.815888 0.000000
O O11 0.002084 0.835909 0.596081
O O12 0.731438 0.914116 0.637001
O O13 0.239240 0.900224 0.663332
O O14 0.500000 0.704510 0.500000
O O15 0.824298 0.740367 0.570999
O O16 0.575591 0.236953 0.843051
O O17 0.544910 0.000000 0.342568
#
# Coordination Sequence:
#
# PCOD9180374 Si02
#       7
#     8   8   8   8   8   8   8
#     4   9  17  31  49  65  83 106 128 157 200 247
#     4  10  19  32  49  70  93 115 150 194 228 262
#     4   8  12  18  29  47  73 107 145 176 204 245
#     4  12  22  35  55  72  90 121 153 180 225 272
#     4  10  21  37  54  73  96 117 142 179 218 260
#     4   8  14  23  36  55  81 111 141 181 221 247
#     4  11  24  38  51  71  96 118 146 183 220 268
#
# _framework density 16.42238
#
# number of rings (size 3 to 8) (size 9 to 14) (size 15 to 20)
#    0.000    2.286    0.000    3.857    0.000    4.000 
#    0.000    0.000    0.000    0.429    0.000    0.000 
#    0.000    0.000    0.000    0.000    0.000    4.286 
#
# Total GULP energy -156014.842305 kJ/mol
# GULP energy per Si atom -5571.958654 kJ/mol
# Density = 1.638500 g / cm^3
# Si number density = 16.422380 Si / 1000 Ang^3
#
#
#
# Elastic Constant Matrix: (Units=GPa)
#
#
# Indices 1 2 3 4 5 6 
#
# 1 75.0183 2.6450 -6.9954 0.0000 -11.9033 0.0000
# 2 2.6450 45.4852 18.2031 0.0000 -6.2715 0.0000
# 3 -6.9954 18.2031 80.8647 0.0000 -8.7857 0.0000
# 4 0.0000 0.0000 0.0000 22.6908 0.0000 117.7082
# 5 -11.9033 -6.2715 -8.7857 0.0000 21.5317 0.0000
# 6 0.0000 0.0000 0.0000 117.7082 0.0000 716.8818
#
#
#
# Elastic Compliance Matrix: (Units=1/GPa)
#
#
# Indices 1 2 3 4 5 6 
#
# 1 0.015024 -0.000585 0.002423 0.000000 0.009124 0.000000
# 2 -0.000585 0.024719 -0.005094 0.000000 0.004798 0.000000
# 3 0.002423 -0.005094 0.014343 0.000000 0.005708 0.000000
# 4 0.000000 0.000000 0.000000 0.297287 0.000000 -0.048813
# 5 0.009124 0.004798 0.005708 0.000000 0.055214 0.000000
# 6 0.000000 0.000000 0.000000 -0.048813 0.000000 0.009410
#
#
# Mechanical properties :
#
#
# Convention : Reuss Voigt Hill
#
# Bulk Modulus (GPa) = 21.01998 25.45262 23.23630
# Shear Modulus (GPa) = 11.40595 164.72189 88.06392
#
# Velocity S-wave (km/s) = 2.63827 10.02602 7.33081
# Velocity P-wave (km/s) = 4.70191 12.22949 9.26468
#
# Compressibility (1/GPa) = 0.04757380
#
# Stress axis : x y z
#
# Youngs Moduli (GPa) = 66.55854 40.45422 69.72175
#
# Poissons Ratio (x) = 0.02368 -0.16892
# Poissons Ratio (y) = 0.03895 0.35515
# Poissons Ratio (z) = -0.16125 0.20607
#
# Static dielectric constant tensor:
#      x y z
#    x 1.592470 0.000000 -0.003640 
#    y 0.000000 1.538640 0.000000 
#    z -0.003640 0.000000 1.610260 
# 
# From -- ./inp_files/355011.got.cif
#   From: 2010.05.17/outbox.cif.g08.bks.cpg/sg12_178_cif.got.tgz:355011.got - 2010.06.03 13:09:07.
