data_PCOD9180030
_publ_section_title
;
Structure prediction by ZEFSAII (Michael W. Deem and Ramdas Pophale) SiO2 
 PCOD9180030
Probable space group: C 2/M
;
_chemical_formula_sum "Si O2"
_cell_formula_units_Z 56
_cell_length_a 25.957900
_cell_length_b 14.521454
_cell_length_c 9.870698
_cell_angle_alpha 90.000000
_cell_angle_beta 57.581820
_cell_angle_gamma 90.000000
_cell_volume 3140.878915
_symmetry_space_group_name_H-M "C 2/M"
_symmetry_group_IT_number 12
_symmetry_cell_setting 'monoclinic'
loop_
_space_group_symop_operation_xyz
x,y,z
-x,y,-z
-x,-y,-z
x,-y,z
1/2+x,1/2+y,z
1/2-x,1/2+y,-z
1/2-x,1/2-y,-z
1/2+x,1/2-y,z
loop_
_atom_site_type_symbol
_atom_site_label
_atom_site_fract_x
_atom_site_fract_y
_atom_site_fract_z
Si Si1 0.230965 0.393816 0.932241
Si Si2 0.385286 0.224261 0.837147
Si Si3 0.745931 0.340984 0.598241
Si Si4 0.996923 0.606211 0.339632
Si Si5 0.327830 0.608865 0.037265
Si Si6 0.873502 0.708989 0.528017
Si Si7 0.820758 0.899456 0.556102
O O1 0.210399 0.500000 0.952917
O O2 0.274912 0.375035 0.743536
O O3 0.173637 0.327618 0.020085
O O4 0.272644 0.384125 0.006513
O O5 0.446130 0.168063 0.786993
O O6 0.377841 0.220047 0.684641
O O7 0.381272 0.327938 0.899673
O O8 0.750000 0.250000 0.500000
O O9 0.697736 0.347966 0.787979
O O10 0.812950 0.347742 0.570100
O O11 0.720043 0.407455 0.520251
O O12 0.000114 0.500000 0.288796
O O13 0.933300 0.655465 0.394592
O O14 0.000000 0.603922 0.500000
O O15 0.341956 0.500000 0.033310
O O16 0.866140 0.812945 0.481361
O O17 0.848558 0.000000 0.546866
#
# Coordination Sequence:
#
# PCOD9180030 Si02
#       7
#     8   8   8   8   8   8   8
#     4  10  19  31  53  80 107 141 177 223 276 321
#     4  11  18  33  53  76 109 142 178 225 269 319
#     4  10  20  34  54  81 110 145 178 218 269 321
#     4   9  20  34  51  77 106 140 180 223 268 318
#     4  11  21  32  53  83 111 142 180 224 275 326
#     4  10  19  33  52  76 108 142 179 219 268 321
#     4  10  20  34  52  79 111 141 175 216 272 330
#
# _framework density 17.829404
#
# number of rings (size 3 to 8) (size 9 to 14) (size 15 to 20)
#    0.000    1.857    2.857    3.000    0.000    1.714 
#    0.000    0.714    0.000   10.286    0.000   16.000 
#    0.000    0.000    0.000    0.000    0.000    0.000 
#
# Total GULP energy -156008.931236 kJ/mol
# GULP energy per Si atom -5571.747544 kJ/mol
# Density = 1.778882 g / cm^3
# Si number density = 17.829404 Si / 1000 Ang^3
#
#
#
# Elastic Constant Matrix: (Units=GPa)
#
#
# Indices 1 2 3 4 5 6 
#
# 1 70.1680 53.4332 29.8925 0.0000 -7.3630 0.0000
# 2 53.4332 138.3185 42.4092 0.0000 -23.8804 0.0000
# 3 29.8925 42.4092 70.9972 0.0000 10.3738 0.0000
# 4 0.0000 0.0000 0.0000 108.6980 0.0000 -33.2185
# 5 -7.3630 -23.8804 10.3738 0.0000 26.5568 0.0000
# 6 0.0000 0.0000 0.0000 -33.2185 0.0000 30.9577
#
#
#
# Elastic Compliance Matrix: (Units=1/GPa)
#
#
# Indices 1 2 3 4 5 6 
#
# 1 0.021702 -0.006067 -0.005934 0.000000 0.002879 0.000000
# 2 -0.006067 0.014707 -0.008396 0.000000 0.014822 0.000000
# 3 -0.005934 -0.008396 0.024331 0.000000 -0.018700 0.000000
# 4 0.000000 0.000000 0.000000 0.013689 0.000000 0.014688
# 5 0.002879 0.014822 -0.018700 0.000000 0.059086 0.000000
# 6 0.000000 0.000000 0.000000 0.014688 0.000000 0.048063
#
#
# Mechanical properties :
#
#
# Convention : Reuss Voigt Hill
#
# Bulk Modulus (GPa) = 50.13707 58.99485 54.56596
# Shear Modulus (GPa) = 21.83214 43.49243 32.66228
#
# Velocity S-wave (km/s) = 3.50308 4.94435 4.28475
# Velocity P-wave (km/s) = 6.67410 8.10900 7.42629
#
# Compressibility (1/GPa) = 0.01994532
#
# Stress axis : x y z
#
# Youngs Moduli (GPa) = 46.07953 67.99588 41.09966
#
# Poissons Ratio (x) = 0.41253 0.24388
# Poissons Ratio (y) = 0.27957 0.34508
# Poissons Ratio (z) = 0.27343 0.57091
#
# Static dielectric constant tensor:
#      x y z
#    x 1.600820 0.000000 0.021530 
#    y 0.000000 1.671920 0.000000 
#    z 0.021530 0.000000 1.618040 
# 
# From -- ./inp_files/96795.got.cif
#   From: 2010.05.17/outbox.cif.g08.bks.cpg/sg12_49_cif.got.tgz:96795.got - 2010.06.03 13:09:07.
