data_PCOD9180875
_publ_section_title
;
Structure prediction by ZEFSAII (Michael W. Deem and Ramdas Pophale) SiO2 
 PCOD9180875
Probable space group: C 2/M
;
_chemical_formula_sum "Si O2"
_cell_formula_units_Z 64
_cell_length_a 25.319306
_cell_length_b 14.405265
_cell_length_c 18.951894
_cell_angle_alpha 90.000000
_cell_angle_beta 154.109377
_cell_angle_gamma 90.000000
_cell_volume 3018.308796
_symmetry_space_group_name_H-M "C 2/M"
_symmetry_group_IT_number 12
_symmetry_cell_setting 'monoclinic'
loop_
_space_group_symop_operation_xyz
x,y,z
-x,y,-z
-x,-y,-z
x,-y,z
1/2+x,1/2+y,z
1/2-x,1/2+y,-z
1/2-x,1/2-y,-z
1/2+x,1/2-y,z
loop_
_atom_site_type_symbol
_atom_site_label
_atom_site_fract_x
_atom_site_fract_y
_atom_site_fract_z
Si Si1 0.303271 0.194747 0.893828
Si Si2 0.817063 0.098898 0.937614
Si Si3 0.504182 0.859766 0.766860
Si Si4 0.491307 0.360083 0.718679
Si Si5 0.142537 0.389610 0.184790
Si Si6 0.961017 0.400853 0.350214
Si Si7 0.232724 0.351040 0.445733
Si Si8 0.965434 0.807618 0.382036
O O1 0.344881 0.302246 0.934950
O O2 0.287241 0.150715 0.797969
O O3 0.180506 0.196848 0.791729
O O4 0.400707 0.135495 0.055087
O O5 0.674529 0.099064 0.782527
O O6 0.153793 0.000000 0.063399
O O7 0.893098 0.101112 0.101797
O O8 0.495096 0.749987 0.739353
O O9 0.544615 0.900662 0.741343
O O10 0.374489 0.895173 0.637347
O O11 0.365155 0.395281 0.598976
O O12 0.494672 0.365491 0.638124
O O13 0.160997 0.500000 0.213209
O O14 0.184052 0.344044 0.307482
O O15 0.000000 0.372883 0.000000
O O16 0.020096 0.500000 0.442676
O O17 0.014413 0.299810 0.435578
O O18 0.250000 0.250000 0.500000
O O19 0.000000 0.845494 0.500000
#
# Coordination Sequence:
#
# PCOD9180875 Si02
#       8
#     8   8   8   8   8   8   8   8
#     4  10  19  35  58  80 111 151 183 234 285 338
#     4   9  18  34  57  83 108 144 189 232 284 341
#     4   9  17  31  52  80 103 141 189 229 280 335
#     4   9  18  32  52  78 109 141 182 232 282 339
#     4  11  23  38  58  87 118 149 190 236 285 341
#     4   9  18  31  50  77 108 139 183 239 281 328
#     4  10  20  36  58  81 111 153 193 232 282 340
#     4  10  19  32  51  76 107 145 186 225 283 346
#
# _framework density 21.203927
#
# number of rings (size 3 to 8) (size 9 to 14) (size 15 to 20)
#    0.000    2.375    1.250    1.500    0.000    4.750 
#    0.000    0.625    0.000    2.625    0.000    0.000 
#    0.000    0.000    0.000    0.000    0.000    0.000 
#
# Total GULP energy -178450.730847 kJ/mol
# GULP energy per Si atom -5576.585339 kJ/mol
# Density = 2.115567 g / cm^3
# Si number density = 21.203927 Si / 1000 Ang^3
#
#
#
# Elastic Constant Matrix: (Units=GPa)
#
#
# Indices 1 2 3 4 5 6 
#
# 1 68.3876 20.0346 -0.1128 0.0000 -16.7468 0.0000
# 2 20.0346 84.5915 9.2878 0.0000 -2.1107 0.0000
# 3 -0.1128 9.2878 37.7485 0.0000 -12.5150 0.0000
# 4 0.0000 0.0000 0.0000 -4.5696 0.0000 3.1003
# 5 -16.7468 -2.1107 -12.5150 0.0000 36.7315 0.0000
# 6 0.0000 0.0000 0.0000 3.1003 0.0000 -4.4248
#
#
#
# Elastic Compliance Matrix: (Units=1/GPa)
#
#
# Indices 1 2 3 4 5 6 
#
# 1 0.018314 -0.004577 0.004354 0.000000 0.009570 0.000000
# 2 -0.004577 0.013298 -0.004198 0.000000 -0.002753 0.000000
# 3 0.004354 -0.004198 0.031695 0.000000 0.012543 0.000000
# 4 0.000000 0.000000 0.000000 -0.417124 0.000000 -0.292265
# 5 0.009570 -0.002753 0.012543 0.000000 0.035703 0.000000
# 6 0.000000 0.000000 0.000000 -0.292265 0.000000 -0.430782
#
#
# Mechanical properties :
#
#
# Convention : Reuss Voigt Hill
#
# Bulk Modulus (GPa) = 18.36050 27.68298 23.02174
# Shear Modulus (GPa) = -6.92618 16.31530 4.69456
#
# Velocity S-wave (km/s) = -1.80930 2.77690 1.48957
# Velocity P-wave (km/s) = 2.07679 4.83379 3.72012
#
# Compressibility (1/GPa) = 0.05446475
#
# Stress axis : x y z
#
# Youngs Moduli (GPa) = 54.60292 75.20091 31.55029
#
# Poissons Ratio (x) = 0.34417 -0.13736
# Poissons Ratio (y) = 0.24990 0.13245
# Poissons Ratio (z) = -0.23772 0.31571
#
# Static dielectric constant tensor:
#      x y z
#    x 1.747530 0.000000 0.022410 
#    y 0.000000 1.852260 0.000000 
#    z 0.022410 0.000000 1.785050 
# 
# From -- ./inp_files/290123.got.cif
#   From: 2010.05.17/outbox.cif.g08.bks.cpg/sg12_146_cif.got.tgz:290123.got - 2010.06.03 13:09:07.
