data_PCOD9180739
_publ_section_title
;
Structure prediction by ZEFSAII (Michael W. Deem and Ramdas Pophale) SiO2 
 PCOD9180739
Probable space group: C 2/M
;
_chemical_formula_sum "Si O2"
_cell_formula_units_Z 64
_cell_length_a 14.326986
_cell_length_b 9.421635
_cell_length_c 23.631771
_cell_angle_alpha 90.000000
_cell_angle_beta 63.692110
_cell_angle_gamma 90.000000
_cell_volume 2859.509469
_symmetry_space_group_name_H-M "C 2/M"
_symmetry_group_IT_number 12
_symmetry_cell_setting 'monoclinic'
loop_
_space_group_symop_operation_xyz
x,y,z
-x,y,-z
-x,-y,-z
x,-y,z
1/2+x,1/2+y,z
1/2-x,1/2+y,-z
1/2-x,1/2-y,-z
1/2+x,1/2-y,z
loop_
_atom_site_type_symbol
_atom_site_label
_atom_site_fract_x
_atom_site_fract_y
_atom_site_fract_z
Si Si1 0.656993 0.161009 0.954340
Si Si2 0.221358 0.338791 0.814415
Si Si3 0.287306 0.840080 0.436928
Si Si4 0.107647 0.162662 0.683012
Si Si5 0.894162 0.159831 0.929968
Si Si6 0.505981 0.160760 0.803993
Si Si7 0.929106 0.160502 0.570925
Si Si8 0.828672 0.662241 0.692928
O O1 0.680452 0.219505 0.885396
O O2 0.771004 0.148125 0.951862
O O3 0.615895 0.000000 0.959273
O O4 0.591931 0.256645 0.014974
O O5 0.261658 0.500000 0.813532
O O6 0.119586 0.349991 0.802632
O O7 0.301955 0.243731 0.758139
O O8 0.250000 0.750000 0.500000
O O9 0.369609 0.748884 0.379888
O O10 0.185911 0.852710 0.424583
O O11 0.322050 0.000000 0.442050
O O12 0.026193 0.249151 0.742494
O O13 0.218062 0.159333 0.687975
O O14 0.076665 0.000000 0.681857
O O15 0.937878 0.252286 0.866793
O O16 0.938096 0.000000 0.919020
O O17 0.468012 0.000000 0.804785
O O18 0.910388 0.255645 0.631045
O O19 0.000000 0.217269 0.500000
O O20 0.967003 0.000000 0.574211
O O21 0.860137 0.500000 0.694053
#
# Coordination Sequence:
#
# PCOD9180739 Si02
#       8
#     8   8   8   8   8   8   8   8
#     4   9  19  36  54  71  95 131 169 200 237 288
#     4   9  18  33  53  74  96 126 164 202 239 286
#     4  10  19  32  51  74 100 130 165 203 244 290
#     4   9  17  31  50  72  99 129 162 200 244 292
#     4  10  20  34  52  73  99 131 164 200 243 290
#     4  10  19  32  52  76 100 126 160 202 244 289
#     4   9  18  33  52  72  96 130 168 201 237 287
#     4   9  17  29  48  74 101 127 156 198 249 292
#
# _framework density 22.381461999999999
#
# number of rings (size 3 to 8) (size 9 to 14) (size 15 to 20)
#    0.000    2.625    0.000    1.875    0.000    5.750 
#    0.000    3.750    0.000    3.000    0.000    0.000 
#    0.000    0.000    0.000    0.000    0.000    0.000 
#
# Total GULP energy -178793.633897 kJ/mol
# GULP energy per Si atom -5587.301059 kJ/mol
# Density = 2.233052 g / cm^3
# Si number density = 22.381462 Si / 1000 Ang^3
#
#
#
# Elastic Constant Matrix: (Units=GPa)
#
#
# Indices 1 2 3 4 5 6 
#
# 1 46.5583 -2.5559 -4.2539 0.0000 -5.7775 0.0000
# 2 -2.5559 202.7967 141.0552 0.0000 -9.5962 0.0000
# 3 -4.2539 141.0552 236.3607 0.0000 -8.1284 0.0000
# 4 0.0000 0.0000 0.0000 19.9963 0.0000 -3.1502
# 5 -5.7775 -9.5962 -8.1284 0.0000 24.9421 0.0000
# 6 0.0000 0.0000 0.0000 -3.1502 0.0000 6.2187
#
#
#
# Elastic Compliance Matrix: (Units=1/GPa)
#
#
# Indices 1 2 3 4 5 6 
#
# 1 0.022199 0.000218 0.000454 0.000000 0.005374 0.000000
# 2 0.000218 0.008498 -0.005009 0.000000 0.001688 0.000000
# 3 0.000454 -0.005009 0.007247 0.000000 0.000540 0.000000
# 4 0.000000 0.000000 0.000000 0.054346 0.000000 0.027530
# 5 0.005374 0.001688 0.000540 0.000000 0.042163 0.000000
# 6 0.000000 0.000000 0.000000 0.027530 0.000000 0.174750
#
#
# Mechanical properties :
#
#
# Convention : Reuss Voigt Hill
#
# Bulk Modulus (GPa) = 34.16514 83.80070 58.98292
# Shear Modulus (GPa) = 15.26095 33.66279 24.46187
#
# Velocity S-wave (km/s) = 2.61407 3.88241 3.30957
# Velocity P-wave (km/s) = 4.94057 7.59084 6.40430
#
# Compressibility (1/GPa) = 0.02926960
#
# Stress axis : x y z
#
# Youngs Moduli (GPa) = 45.04751 117.67512 137.98640
#
# Poissons Ratio (x) = -0.02568 -0.06266
# Poissons Ratio (y) = -0.00983 0.69124
# Poissons Ratio (z) = -0.02046 0.58949
#
# Static dielectric constant tensor:
#      x y z
#    x 1.896850 0.000000 0.013300 
#    y 0.000000 1.811500 0.000000 
#    z 0.013300 0.000000 1.794080 
# 
# From -- ./inp_files/346038.got.cif
#   From: 2010.05.17/outbox.cif.g08.bks.cpg/sg12_174_cif.got.tgz:346038.got - 2010.06.03 13:09:07.
