data_PCOD9180201
_publ_section_title
;
Structure prediction by ZEFSAII (Michael W. Deem and Ramdas Pophale) SiO2 
 PCOD9180201
Probable space group: C 2/M
;
_chemical_formula_sum "Si O2"
_cell_formula_units_Z 56
_cell_length_a 12.792469
_cell_length_b 29.455651
_cell_length_c 8.321427
_cell_angle_alpha 90.000000
_cell_angle_beta 112.041005
_cell_angle_gamma 90.000000
_cell_volume 2906.437318
_symmetry_space_group_name_H-M "C 2/M"
_symmetry_group_IT_number 12
_symmetry_cell_setting 'monoclinic'
loop_
_space_group_symop_operation_xyz
x,y,z
-x,y,-z
-x,-y,-z
x,-y,z
1/2+x,1/2+y,z
1/2-x,1/2+y,-z
1/2-x,1/2-y,-z
1/2+x,1/2-y,z
loop_
_atom_site_type_symbol
_atom_site_label
_atom_site_fract_x
_atom_site_fract_y
_atom_site_fract_z
Si Si1 0.629301 0.090351 0.395866
Si Si2 0.874117 0.553214 0.280083
Si Si3 0.581106 0.809146 0.408199
Si Si4 0.637850 0.090864 0.064070
Si Si5 0.500432 0.284999 0.694032
Si Si6 0.721501 0.722541 0.255295
Si Si7 0.750001 0.312055 0.920759
O O1 0.503317 0.070333 0.339134
O O2 0.680947 0.079438 0.600012
O O3 0.624709 0.144374 0.359754
O O4 0.678010 0.070634 0.258276
O O5 0.871674 0.500000 0.313682
O O6 0.828965 0.563352 0.076021
O O7 0.500000 0.827900 0.500000
O O8 0.507300 0.769848 0.282092
O O9 0.682181 0.782236 0.554526
O O10 0.692087 0.140167 0.072118
O O11 0.500000 0.093884 0.000000
O O12 0.500000 0.291298 0.500000
O O13 0.390109 0.299327 0.730682
O O14 0.615035 0.307657 0.818496
O O15 0.703613 0.774132 0.179124
O O16 0.763867 0.699366 0.116618
#
# Coordination Sequence:
#
# PCOD9180201 Si02
#       7
#     8   8   8   8   8   8   8
#     4  10  19  31  56  76 111 150 184 219 273 342
#     4  10  20  35  53  81 114 146 179 221 283 350
#     4  11  19  34  55  79 111 152 190 229 279 319
#     4  10  23  36  54  83 113 147 186 233 281 336
#     4  11  23  37  51  77 109 153 194 236 276 313
#     4  11  23  35  54  75 109 155 195 240 272 320
#     4  11  23  37  54  76 108 150 198 235 277 325
#
# _framework density 19.267575999999998
#
# number of rings (size 3 to 8) (size 9 to 14) (size 15 to 20)
#    0.000    1.429    4.286    3.429    4.000    5.429 
#    0.000    0.000    0.000    0.000    0.000    0.000 
#    0.000   10.857    0.000    0.714    0.000    0.000 
#
# Total GULP energy -155994.413673 kJ/mol
# GULP energy per Si atom -5571.229060 kJ/mol
# Density = 1.922372 g / cm^3
# Si number density = 19.267576 Si / 1000 Ang^3
#
#
#
# Elastic Constant Matrix: (Units=GPa)
#
#
# Indices 1 2 3 4 5 6 
#
# 1 71.6028 -4.9559 32.5180 0.0000 -6.0992 0.0000
# 2 -4.9559 64.2880 17.3252 0.0000 -10.7087 0.0000
# 3 32.5180 17.3252 89.2859 0.0000 -27.1071 0.0000
# 4 0.0000 0.0000 0.0000 20.1520 0.0000 -0.2907
# 5 -6.0992 -10.7087 -27.1071 0.0000 30.4573 0.0000
# 6 0.0000 0.0000 0.0000 -0.2907 0.0000 6.0490
#
#
#
# Elastic Compliance Matrix: (Units=1/GPa)
#
#
# Indices 1 2 3 4 5 6 
#
# 1 0.017444 0.003027 -0.007614 0.000000 -0.002219 0.000000
# 2 0.003027 0.017306 -0.003329 0.000000 0.003729 0.000000
# 3 -0.007614 -0.003329 0.018911 0.000000 0.014135 0.000000
# 4 0.000000 0.000000 0.000000 0.049657 0.000000 0.002386
# 5 -0.002219 0.003729 0.014135 0.000000 0.046280 0.000000
# 6 0.000000 0.000000 0.000000 0.002386 0.000000 0.165430
#
#
# Mechanical properties :
#
#
# Convention : Reuss Voigt Hill
#
# Bulk Modulus (GPa) = 26.43437 34.99459 30.71448
# Shear Modulus (GPa) = 14.55729 23.35097 18.95413
#
# Velocity S-wave (km/s) = 2.75168 3.48506 3.13985
# Velocity P-wave (km/s) = 4.88314 5.86481 5.39634
#
# Compressibility (1/GPa) = 0.03782953
#
# Stress axis : x y z
#
# Youngs Moduli (GPa) = 57.32478 57.78178 52.88067
#
# Poissons Ratio (x) = -0.17491 0.40266
# Poissons Ratio (y) = -0.17353 0.17602
# Poissons Ratio (z) = 0.43650 0.19234
#
# Static dielectric constant tensor:
#      x y z
#    x 1.683540 0.000000 -0.046690 
#    y 0.000000 1.678920 0.000000 
#    z -0.046690 0.000000 1.911960 
# 
# From -- ./inp_files/53272.got.cif
#   From: 2010.05.17/outbox.cif.g08.bks.cpg/sg12_27_cif.got.tgz:53272.got - 2010.06.03 13:09:07.
