data_PCOD9180081
_publ_section_title
;
Structure prediction by ZEFSAII (Michael W. Deem and Ramdas Pophale) SiO2 
 PCOD9180081
Probable space group: C 2/M
;
_chemical_formula_sum "Si O2"
_cell_formula_units_Z 64
_cell_length_a 20.903709
_cell_length_b 7.688686
_cell_length_c 19.355799
_cell_angle_alpha 90.000000
_cell_angle_beta 92.978712
_cell_angle_gamma 90.000000
_cell_volume 3106.700679
_symmetry_space_group_name_H-M "C 2/M"
_symmetry_group_IT_number 12
_symmetry_cell_setting 'monoclinic'
loop_
_space_group_symop_operation_xyz
x,y,z
-x,y,-z
-x,-y,-z
x,-y,z
1/2+x,1/2+y,z
1/2-x,1/2+y,-z
1/2-x,1/2-y,-z
1/2+x,1/2-y,z
loop_
_atom_site_type_symbol
_atom_site_label
_atom_site_fract_x
_atom_site_fract_y
_atom_site_fract_z
Si Si1 0.837135 0.295393 0.439487
Si Si2 0.194105 0.792789 0.943432
Si Si3 0.549667 0.712924 0.943806
Si Si4 0.224221 0.295335 0.789006
Si Si5 0.857648 0.208181 0.739548
Si Si6 0.308878 0.208945 0.589226
Si Si7 0.005467 0.792219 0.206287
Si Si8 0.396071 0.210856 0.305812
O O1 0.851071 0.500000 0.446796
O O2 0.764038 0.276390 0.408165
O O3 0.835979 0.223767 0.517334
O O4 0.884375 0.225221 0.383307
O O5 0.122951 0.730820 0.960464
O O6 0.211471 0.722806 0.869044
O O7 0.190383 0.000000 0.937218
O O8 0.250000 0.750000 0.000000
O O9 0.549407 0.500000 0.944247
O O10 0.526622 0.772318 0.866563
O O11 0.500000 0.769066 0.000000
O O12 0.226543 0.500000 0.772028
O O13 0.292868 0.220844 0.770867
O O14 0.164098 0.223407 0.743047
O O15 0.850178 0.240249 0.657582
O O16 0.923568 0.277936 0.774744
O O17 0.858765 0.000000 0.750485
O O18 0.304770 0.000000 0.585762
O O19 0.959952 0.759644 0.269087
O O20 0.010406 0.000000 0.198187
O O21 0.394086 0.000000 0.307226
#
# Coordination Sequence:
#
# PCOD9180081 Si02
#       8
#     8   8   8   8   8   8   8   8
#     4   9  18  34  54  79 110 149 187 222 279 339
#     4  11  23  38  59  85 114 142 178 231 275 323
#     4   9  19  36  58  80 104 140 183 220 260 319
#     4  10  20  36  59  82 108 146 186 223 271 328
#     4  10  21  37  57  80 113 152 186 225 275 336
#     4  10  19  31  53  83 113 142 184 238 277 320
#     4  10  21  37  58  82 108 142 187 229 269 325
#     4  10  19  35  58  80 109 146 182 225 276 333
#
# _framework density 20.600633999999999
#
# number of rings (size 3 to 8) (size 9 to 14) (size 15 to 20)
#    0.000    2.125    2.500    0.750    1.750    2.000 
#    0.000    0.625    0.000    5.625    0.000    0.000 
#    0.000    0.000    0.000    0.000    0.000    0.000 
#
# Total GULP energy -178639.439952 kJ/mol
# GULP energy per Si atom -5582.482498 kJ/mol
# Density = 2.055375 g / cm^3
# Si number density = 20.600634 Si / 1000 Ang^3
#
#
#
# Elastic Constant Matrix: (Units=GPa)
#
#
# Indices 1 2 3 4 5 6 
#
# 1 139.6993 1.1822 50.9888 0.0000 -1.8577 0.0000
# 2 1.1822 31.6773 -7.1963 0.0000 -1.3918 0.0000
# 3 50.9888 -7.1963 61.6109 0.0000 -10.5988 0.0000
# 4 0.0000 0.0000 0.0000 21.7736 0.0000 -1.5327
# 5 -1.8577 -1.3918 -10.5988 0.0000 27.7356 0.0000
# 6 0.0000 0.0000 0.0000 -1.5327 0.0000 16.7393
#
#
#
# Elastic Compliance Matrix: (Units=1/GPa)
#
#
# Indices 1 2 3 4 5 6 
#
# 1 0.010679 -0.002738 -0.009695 0.000000 -0.003127 0.000000
# 2 -0.002738 0.033414 0.006878 0.000000 0.004122 0.000000
# 3 -0.009695 0.006878 0.026765 0.000000 0.009924 0.000000
# 4 0.000000 0.000000 0.000000 0.046225 0.000000 0.004233
# 5 -0.003127 0.004122 0.009924 0.000000 0.039844 0.000000
# 6 0.000000 0.000000 0.000000 0.004233 0.000000 0.060127
#
#
# Mechanical properties :
#
#
# Convention : Reuss Voigt Hill
#
# Bulk Modulus (GPa) = 16.73725 35.88189 26.30957
# Shear Modulus (GPa) = 20.15469 25.78388 22.96928
#
# Velocity S-wave (km/s) = 3.13126 3.54164 3.34275
# Velocity P-wave (km/s) = 4.60601 5.84636 5.26285
#
# Compressibility (1/GPa) = 0.05974696
#
# Stress axis : x y z
#
# Youngs Moduli (GPa) = 93.64610 29.92738 37.36194
#
# Poissons Ratio (x) = 0.08195 0.36223
# Poissons Ratio (y) = 0.25645 -0.25699
# Poissons Ratio (z) = 0.90792 -0.20585
#
# Static dielectric constant tensor:
#      x y z
#    x 1.721580 0.000000 -0.010600 
#    y 0.000000 1.444320 0.000000 
#    z -0.010600 0.000000 1.723410 
# 
# From -- ./inp_files/281389.got.cif
#   From: 2010.05.17/outbox.cif.g08.bks.cpg/sg12_141_cif.got.tgz:281389.got - 2010.06.03 13:09:07.
