data_PCOD9180321
_publ_section_title
;
Structure prediction by ZEFSAII (Michael W. Deem and Ramdas Pophale) SiO2 
 PCOD9180321
Probable space group: C 2/M
;
_chemical_formula_sum "Si O2"
_cell_formula_units_Z 56
_cell_length_a 23.710008
_cell_length_b 7.419459
_cell_length_c 32.454951
_cell_angle_alpha 90.000000
_cell_angle_beta 153.958065
_cell_angle_gamma 90.000000
_cell_volume 2506.559208
_symmetry_space_group_name_H-M "C 2/M"
_symmetry_group_IT_number 12
_symmetry_cell_setting 'monoclinic'
loop_
_space_group_symop_operation_xyz
x,y,z
-x,y,-z
-x,-y,-z
x,-y,z
1/2+x,1/2+y,z
1/2-x,1/2+y,-z
1/2-x,1/2-y,-z
1/2+x,1/2-y,z
loop_
_atom_site_type_symbol
_atom_site_label
_atom_site_fract_x
_atom_site_fract_y
_atom_site_fract_z
Si Si1 0.459245 0.212129 0.145305
Si Si2 0.814074 0.291339 0.653811
Si Si3 0.026738 0.220097 0.470962
Si Si4 0.886661 0.213755 0.611224
Si Si5 0.145858 0.720173 0.088115
Si Si6 0.882806 0.779696 0.296778
Si Si7 0.782355 0.281677 0.956509
O O1 0.591464 0.289553 0.249945
O O2 0.351331 0.228470 0.110046
O O3 0.480342 0.000000 0.151816
O O4 0.394420 0.283916 0.061093
O O5 0.795147 0.500000 0.653007
O O6 0.670813 0.217455 0.554587
O O7 0.882700 0.287019 0.654708
O O8 0.000000 0.275042 0.500000
O O9 0.924534 0.279421 0.369684
O O10 0.023827 0.000000 0.467728
O O11 0.750000 0.250000 0.500000
O O12 0.003833 0.278312 0.659976
O O13 0.901540 0.000000 0.624707
O O14 0.145326 0.500000 0.087703
O O15 0.246228 0.777526 0.189058
O O16 0.196294 0.777070 0.076203
O O17 0.000000 0.778348 0.000000
O O18 0.882610 0.000000 0.296720
O O19 0.784299 0.500000 0.957914
#
# Coordination Sequence:
#
# PCOD9180321 Si02
#       7
#     8   8   8   8   8   8   8
#     4   9  18  30  48  71  98 129 162 203 248 295
#     4  10  19  32  48  73 102 128 164 206 247 300
#     4   9  17  29  45  65  94 129 162 200 245 293
#     4  11  20  32  52  76 103 133 164 204 251 298
#     4   9  17  28  45  69  98 127 160 204 248 289
#     4   9  17  29  45  69  97 126 162 203 246 294
#     4   9  17  31  48  70  98 128 163 204 250 296
#
# _framework density 22.341383
#
# number of rings (size 3 to 8) (size 9 to 14) (size 15 to 20)
#    0.000    2.571    1.429    1.286    0.000    2.857 
#    0.000    5.714    0.000    0.857    0.000    0.000 
#    0.000    0.000    0.000    0.000    0.000    0.000 
#
# Total GULP energy -156368.380950 kJ/mol
# GULP energy per Si atom -5584.585034 kJ/mol
# Density = 2.229053 g / cm^3
# Si number density = 22.341383 Si / 1000 Ang^3
#
#
#
# Elastic Constant Matrix: (Units=GPa)
#
#
# Indices 1 2 3 4 5 6 
#
# 1 100.0406 -5.9599 68.7595 0.0012 -24.2497 -0.0001
# 2 -5.9599 71.8262 2.4999 0.0011 -0.9151 0.0003
# 3 68.7595 2.4999 213.7453 0.0042 -28.2818 0.0000
# 4 0.0012 0.0011 0.0042 -6.8319 0.0005 3.5017
# 5 -24.2497 -0.9151 -28.2818 0.0005 28.5598 0.0000
# 6 -0.0001 0.0003 0.0000 3.5017 0.0000 11.8111
#
#
#
# Elastic Compliance Matrix: (Units=1/GPa)
#
#
# Indices 1 2 3 4 5 6 
#
# 1 0.014714 0.001460 -0.003557 0.000001 0.009017 0.000000
# 2 0.001460 0.014076 -0.000472 0.000002 0.001223 -0.000001
# 3 -0.003557 -0.000472 0.006245 0.000003 0.003149 -0.000001
# 4 0.000001 0.000002 0.000003 -0.127064 0.000006 0.037672
# 5 0.009017 0.001223 0.003149 0.000006 0.045828 -0.000002
# 6 0.000000 -0.000001 -0.000001 0.037672 -0.000002 0.073497
#
#
# Mechanical properties :
#
#
# Convention : Reuss Voigt Hill
#
# Bulk Modulus (GPa) = 33.45132 57.35679 45.40405
# Shear Modulus (GPa) = 117.92451 28.06198 72.99324
#
# Velocity S-wave (km/s) = 7.27307 3.54793 5.72212
# Velocity P-wave (km/s) = 9.24854 6.52015 8.00149
#
# Compressibility (1/GPa) = 0.02989419
#
# Stress axis : x y z
#
# Youngs Moduli (GPa) = 67.96447 71.04480 160.13078
#
# Poissons Ratio (x) = -0.10370 0.56961
# Poissons Ratio (y) = -0.09920 0.07565
# Poissons Ratio (z) = 0.24176 0.03356
#
# Static dielectric constant tensor:
#      x y z
#    x 1.771680 0.000000 -0.008250 
#    y 0.000000 1.907370 0.000000 
#    z -0.008250 0.000000 1.823560 
# 
# From -- ./inp_files/237475.got.cif
#   From: 2010.05.17/outbox.cif.g08.bks.cpg/sg12_119_cif.got.tgz:237475.got - 2010.06.03 13:09:07.
