data_PCOD9180412
_publ_section_title
;
Structure prediction by ZEFSAII (Michael W. Deem and Ramdas Pophale) SiO2 
 PCOD9180412
Probable space group: C 2/M
;
_chemical_formula_sum "Si O2"
_cell_formula_units_Z 44
_cell_length_a 29.168850
_cell_length_b 7.227225
_cell_length_c 9.771030
_cell_angle_alpha 90.000000
_cell_angle_beta 54.984541
_cell_angle_gamma 90.000000
_cell_volume 1686.994539
_symmetry_space_group_name_H-M "C 2/M"
_symmetry_group_IT_number 12
_symmetry_cell_setting 'monoclinic'
loop_
_space_group_symop_operation_xyz
x,y,z
-x,y,-z
-x,-y,-z
x,-y,z
1/2+x,1/2+y,z
1/2-x,1/2+y,-z
1/2-x,1/2-y,-z
1/2+x,1/2-y,z
loop_
_atom_site_type_symbol
_atom_site_label
_atom_site_fract_x
_atom_site_fract_y
_atom_site_fract_z
Si Si1 0.677361 0.224149 0.733156
Si Si2 0.078413 0.000000 0.162260
Si Si3 0.438846 0.783482 0.123327
Si Si4 0.704659 0.786278 0.378290
Si Si5 0.124395 0.278801 0.273928
Si Si6 0.525403 0.215061 0.644922
O O1 0.614294 0.298158 0.862322
O O2 0.691835 0.289213 0.552783
O O3 0.728148 0.275463 0.743824
O O4 0.674663 0.000000 0.737422
O O5 0.122493 0.838264 0.141038
O O6 0.027787 0.840349 0.236313
O O7 0.432249 0.773989 0.297936
O O8 0.442527 0.000000 0.077648
O O9 0.500000 0.702060 0.000000
O O10 0.671388 0.716717 0.303495
O O11 0.687652 0.000000 0.415177
O O12 0.128452 0.500000 0.245561
O O13 0.064102 0.236241 0.450080
O O14 0.508474 0.000000 0.662701
#
# Coordination Sequence:
#
# PCOD9180412 Si02
#       6
#     8   4   8   8   8   8
#     4   9  16  29  48  72 101 135 168 205 255 316
#     4  12  23  32  49  78 103 142 183 210 262 322
#     4   9  17  32  54  76 104 140 176 211 261 317
#     4   9  17  29  45  71 104 138 164 204 262 312
#     4  10  19  32  49  72 108 140 170 214 261 313
#     4  10  19  34  50  71 108 141 170 217 260 310
#
# _framework density 26.081883999999999
#
# number of rings (size 3 to 8) (size 9 to 14) (size 15 to 20)
#    0.000    2.364    1.818    2.182    1.273    1.455 
#    1.636    0.455    0.000    0.000    0.000    1.273 
#    0.000    0.000    0.000    0.000    0.000    0.000 
#
# Total GULP energy -122528.769026 kJ/mol
# GULP energy per Si atom -5569.489501 kJ/mol
# Density = 2.602252 g / cm^3
# Si number density = 26.081884 Si / 1000 Ang^3
#
#
#
# Elastic Constant Matrix: (Units=GPa)
#
#
# Indices 1 2 3 4 5 6 
#
# 1 220.8511 25.6737 28.7148 0.0000 -18.4300 0.0000
# 2 25.6737 129.4415 -17.1282 0.0000 4.6527 0.0000
# 3 28.7148 -17.1282 62.0406 0.0000 -4.8040 0.0000
# 4 0.0000 0.0000 0.0000 -24.6930 0.0000 -20.0066
# 5 -18.4300 4.6527 -4.8040 0.0000 37.4763 0.0000
# 6 0.0000 0.0000 0.0000 -20.0066 0.0000 23.7300
#
#
#
# Elastic Compliance Matrix: (Units=1/GPa)
#
#
# Indices 1 2 3 4 5 6 
#
# 1 0.005246 -0.001478 -0.002649 0.000000 0.002424 0.000000
# 2 -0.001478 0.008454 0.002910 0.000000 -0.001404 0.000000
# 3 -0.002649 0.002910 0.018199 0.000000 0.000669 0.000000
# 4 0.000000 0.000000 0.000000 -0.024061 0.000000 -0.020286
# 5 0.002424 -0.001404 0.000669 0.000000 0.028136 0.000000
# 6 0.000000 0.000000 0.000000 -0.020286 0.000000 0.025038
#
#
# Mechanical properties :
#
#
# Convention : Reuss Voigt Hill
#
# Bulk Modulus (GPa) = 33.93816 54.09485 44.01650
# Shear Modulus (GPa) = 68.24206 32.30753 50.27480
#
# Velocity S-wave (km/s) = 5.12068 3.52333 4.39518
# Velocity P-wave (km/s) = 6.92836 6.11042 6.53221
#
# Compressibility (1/GPa) = 0.02946536
#
# Stress axis : x y z
#
# Youngs Moduli (GPa) = 190.60539 118.28528 54.94668
#
# Poissons Ratio (x) = 0.17485 0.14553
# Poissons Ratio (y) = 0.28175 -0.15987
# Poissons Ratio (z) = 0.50485 -0.34415
#
# Static dielectric constant tensor:
#      x y z
#    x 2.073630 0.000000 0.049930 
#    y 0.000000 1.993220 0.000000 
#    z 0.049930 0.000000 2.180420 
# 
# From -- ./inp_files/186264.got.cif
#   From: 2010.05.17/outbox.cif.g08.bks.cpg/sg12_94_cif.got.tgz:186264.got - 2010.06.03 13:09:07.
