data_PCOD9180144
_publ_section_title
;
Structure prediction by ZEFSAII (Michael W. Deem and Ramdas Pophale) SiO2 
 PCOD9180144
Probable space group: C 2/M
;
_chemical_formula_sum "Si O2"
_cell_formula_units_Z 60
_cell_length_a 15.905988
_cell_length_b 22.459561
_cell_length_c 7.641878
_cell_angle_alpha 90.000000
_cell_angle_beta 78.111526
_cell_angle_gamma 90.000000
_cell_volume 2671.438824
_symmetry_space_group_name_H-M "C 2/M"
_symmetry_group_IT_number 12
_symmetry_cell_setting 'monoclinic'
loop_
_space_group_symop_operation_xyz
x,y,z
-x,y,-z
-x,-y,-z
x,-y,z
1/2+x,1/2+y,z
1/2-x,1/2+y,-z
1/2-x,1/2-y,-z
1/2+x,1/2-y,z
loop_
_atom_site_type_symbol
_atom_site_label
_atom_site_fract_x
_atom_site_fract_y
_atom_site_fract_z
Si Si1 0.321941 0.409912 0.697310
Si Si2 0.632991 0.069422 0.940146
Si Si3 0.001156 0.066449 0.709386
Si Si4 0.000000 0.840908 0.000000
Si Si5 0.151533 0.790665 0.169585
Si Si6 0.436773 0.930861 0.387410
Si Si7 0.799820 0.336525 0.852799
Si Si8 0.246149 0.064575 0.635734
O O1 0.230719 0.426126 0.822859
O O2 0.397803 0.434648 0.784429
O O3 0.345195 0.339862 0.679857
O O4 0.316985 0.433384 0.502382
O O5 0.573399 0.091079 0.806012
O O6 0.615755 0.000000 0.989117
O O7 0.633525 0.115370 0.098333
O O8 0.035140 0.115345 0.830406
O O9 0.000000 0.079450 0.500000
O O10 0.034278 0.000000 0.727562
O O11 0.072625 0.802418 0.069628
O O12 0.155932 0.723303 0.235417
O O13 0.237655 0.810460 0.029043
O O14 0.500000 0.901690 0.500000
O O15 0.341914 0.931795 0.511557
O O16 0.463641 0.000000 0.354330
O O17 0.741415 0.376635 0.752611
O O18 0.239430 0.000000 0.729294
#
# Coordination Sequence:
#
# PCOD9180144 Si02
#       8
#     8   8   8   4   8   8   8   8
#     4   9  18  34  54  76 108 142 174 216 264 328
#     4   9  16  30  53  77 105 139 170 213 272 326
#     4  10  20  33  55  87 115 140 180 225 278 334
#     4  10  21  40  58  74 113 156 180 224 282 326
#     4   9  21  39  55  71 102 148 186 213 263 321
#     4   8  15  30  49  70 103 139 166 202 264 328
#     4  10  20  35  54  79 103 137 182 225 256 315
#     4  10  19  31  54  84 109 131 169 224 273 314
#
# _framework density 22.459806
#
# number of rings (size 3 to 8) (size 9 to 14) (size 15 to 20)
#    0.000    2.667    0.000    2.600    1.867    0.533 
#    2.400    1.333    0.000    3.200    0.000    0.000 
#    0.000    0.000    0.000    0.000    0.000    0.000 
#
# Total GULP energy -167271.804953 kJ/mol
# GULP energy per Si atom -5575.726832 kJ/mol
# Density = 2.240869 g / cm^3
# Si number density = 22.459806 Si / 1000 Ang^3
#
#
#
# Elastic Constant Matrix: (Units=GPa)
#
#
# Indices 1 2 3 4 5 6 
#
# 1 81.3791 11.1142 7.6247 0.0000 26.9219 0.0000
# 2 11.1142 166.7394 33.1606 0.0000 13.2138 0.0000
# 3 7.6247 33.1606 53.8308 0.0000 16.1560 0.0000
# 4 0.0000 0.0000 0.0000 19.0127 0.0000 -6.2583
# 5 26.9219 13.2138 16.1560 0.0000 31.7898 0.0000
# 6 0.0000 0.0000 0.0000 -6.2583 0.0000 -0.0297
#
#
#
# Elastic Compliance Matrix: (Units=1/GPa)
#
#
# Indices 1 2 3 4 5 6 
#
# 1 0.017333 -0.000408 0.002538 0.000000 -0.015799 0.000000
# 2 -0.000408 0.006863 -0.004032 0.000000 -0.000458 0.000000
# 3 0.002538 -0.004032 0.024595 0.000000 -0.012973 0.000000
# 4 0.000000 0.000000 0.000000 0.000747 0.000000 -0.157517
# 5 -0.015799 -0.000458 -0.012973 0.000000 0.051619 0.000000
# 6 0.000000 0.000000 0.000000 -0.157517 0.000000 -0.478534
#
#
# Mechanical properties :
#
#
# Convention : Reuss Voigt Hill
#
# Bulk Modulus (GPa) = 22.22957 45.08316 33.65637
# Shear Modulus (GPa) = -13.94400 26.82454 6.44027
#
# Velocity S-wave (km/s) = -2.49437 3.45966 1.69520
# Velocity P-wave (km/s) = 1.27401 6.00628 4.34158
#
# Compressibility (1/GPa) = 0.04498512
#
# Stress axis : x y z
#
# Youngs Moduli (GPa) = 57.69445 145.71289 40.65919
#
# Poissons Ratio (x) = 0.05946 -0.10319
# Poissons Ratio (y) = 0.02354 0.16396
# Poissons Ratio (z) = -0.14643 0.58758
#
# Static dielectric constant tensor:
#      x y z
#    x 1.929350 0.000000 -0.046490 
#    y 0.000000 1.879400 0.000000 
#    z -0.046490 0.000000 1.872330 
# 
# From -- ./inp_files/77550.got.cif
#   From: 2010.05.17/outbox.cif.g08.bks.cpg/sg12_39_cif.got.tgz:77550.got - 2010.06.03 13:09:07.
