data_PCOD9180987
_publ_section_title
;
Structure prediction by ZEFSAII (Michael W. Deem and Ramdas Pophale) SiO2 
 PCOD9180987
Probable space group: C 2/M
;
_chemical_formula_sum "Si O2"
_cell_formula_units_Z 56
_cell_length_a 15.374407
_cell_length_b 19.020944
_cell_length_c 11.793764
_cell_angle_alpha 90.000000
_cell_angle_beta 58.010022
_cell_angle_gamma 90.000000
_cell_volume 2925.168018
_symmetry_space_group_name_H-M "C 2/M"
_symmetry_group_IT_number 12
_symmetry_cell_setting 'monoclinic'
loop_
_space_group_symop_operation_xyz
x,y,z
-x,y,-z
-x,-y,-z
x,-y,z
1/2+x,1/2+y,z
1/2-x,1/2+y,-z
1/2-x,1/2-y,-z
1/2+x,1/2-y,z
loop_
_atom_site_type_symbol
_atom_site_label
_atom_site_fract_x
_atom_site_fract_y
_atom_site_fract_z
Si Si1 0.892961 0.769342 0.505169
Si Si2 0.041453 0.716236 0.781478
Si Si3 0.121414 0.075443 0.441494
Si Si4 0.583097 0.348928 0.032027
Si Si5 0.558778 0.923058 0.080033
Si Si6 0.789784 0.888250 0.862332
Si Si7 0.229594 0.752446 0.800499
O O1 0.911587 0.733419 0.372754
O O2 0.858809 0.850789 0.509718
O O3 0.809938 0.733570 0.644722
O O4 0.000000 0.771055 0.500000
O O5 0.133076 0.712895 0.809445
O O6 0.971551 0.781060 0.872382
O O7 0.979468 0.644004 0.824053
O O8 0.177372 0.082108 0.281748
O O9 0.000000 0.074255 0.500000
O O10 0.149228 0.000000 0.475607
O O11 0.623704 0.399089 0.102690
O O12 0.500000 0.377545 0.000000
O O13 0.681910 0.319124 0.896206
O O14 0.535911 0.000000 0.145882
O O15 0.500000 0.919518 0.000000
O O16 0.679821 0.916236 0.975117
O O17 0.779786 0.803789 0.850568
#
# Coordination Sequence:
#
# PCOD9180987 Si02
#       7
#     8   8   8   8   8   8   8
#     4  10  21  32  52  81 111 148 191 234 289 341
#     4  11  19  36  52  82 118 147 191 245 282 336
#     4   9  18  33  51  78 112 145 186 232 283 344
#     4  10  20  32  55  83 115 146 186 237 293 337
#     4  11  22  36  56  86 117 149 190 239 292 340
#     4  11  19  33  57  84 114 148 188 235 289 342
#     4  10  19  32  51  81 112 152 181 241 288 336
#
# _framework density 19.144199
#
# number of rings (size 3 to 8) (size 9 to 14) (size 15 to 20)
#    0.000    1.714    2.857    4.286    2.000    0.000 
#    0.000    0.000    0.000    2.143    0.000    6.000 
#    0.000    4.000    0.000    0.000    0.000    0.000 
#
# Total GULP energy -156306.603455 kJ/mol
# GULP energy per Si atom -5582.378695 kJ/mol
# Density = 1.910063 g / cm^3
# Si number density = 19.144199 Si / 1000 Ang^3
#
#
#
# Elastic Constant Matrix: (Units=GPa)
#
#
# Indices 1 2 3 4 5 6 
#
# 1 76.1822 3.7975 3.9370 0.0000 -0.3060 0.0000
# 2 3.7975 46.3142 24.0108 0.0000 -0.8705 0.0000
# 3 3.9370 24.0108 83.7794 0.0000 -16.9181 0.0000
# 4 0.0000 0.0000 0.0000 25.4970 0.0000 -3.4146
# 5 -0.3060 -0.8705 -16.9181 0.0000 28.6725 0.0000
# 6 0.0000 0.0000 0.0000 -3.4146 0.0000 4.2738
#
#
#
# Elastic Compliance Matrix: (Units=1/GPa)
#
#
# Indices 1 2 3 4 5 6 
#
# 1 0.013190 -0.000881 -0.000391 0.000000 -0.000117 0.000000
# 2 -0.000881 0.025828 -0.008179 0.000000 -0.004051 0.000000
# 3 -0.000391 -0.008179 0.016175 0.000000 0.009291 0.000000
# 4 0.000000 0.000000 0.000000 0.043920 0.000000 0.035091
# 5 -0.000117 -0.004051 0.009291 0.000000 0.040235 0.000000
# 6 0.000000 0.000000 0.000000 0.035091 0.000000 0.262022
#
#
# Mechanical properties :
#
#
# Convention : Reuss Voigt Hill
#
# Bulk Modulus (GPa) = 27.55487 29.97404 28.76445
# Shear Modulus (GPa) = 11.56421 23.32402 17.44412
#
# Velocity S-wave (km/s) = 2.46043 3.49425 3.02188
# Velocity P-wave (km/s) = 4.74301 5.65426 5.21857
#
# Compressibility (1/GPa) = 0.03629122
#
# Stress axis : x y z
#
# Youngs Moduli (GPa) = 75.81460 38.71777 61.82462
#
# Poissons Ratio (x) = 0.03411 0.02417
# Poissons Ratio (y) = 0.06680 0.50566
# Poissons Ratio (z) = 0.02963 0.31667
#
# Static dielectric constant tensor:
#      x y z
#    x 1.692060 0.000000 -0.007450 
#    y 0.000000 1.696110 0.000000 
#    z -0.007450 0.000000 1.657980 
# 
# From -- ./inp_files/146054.got.cif
#   From: 2010.05.17/outbox.cif.g08.bks.cpg/sg12_74_cif.got.tgz:146054.got - 2010.06.03 13:09:07.
