data_PCOD9180948
_publ_section_title
;
Structure prediction by ZEFSAII (Michael W. Deem and Ramdas Pophale) SiO2 
 PCOD9180948
Probable space group: C 2/M
;
_chemical_formula_sum "Si O2"
_cell_formula_units_Z 48
_cell_length_a 9.567510
_cell_length_b 24.805248
_cell_length_c 12.100551
_cell_angle_alpha 90.000000
_cell_angle_beta 63.355916
_cell_angle_gamma 90.000000
_cell_volume 2566.803319
_symmetry_space_group_name_H-M "C 2/M"
_symmetry_group_IT_number 12
_symmetry_cell_setting 'monoclinic'
loop_
_space_group_symop_operation_xyz
x,y,z
-x,y,-z
-x,-y,-z
x,-y,z
1/2+x,1/2+y,z
1/2-x,1/2+y,-z
1/2-x,1/2-y,-z
1/2+x,1/2-y,z
loop_
_atom_site_type_symbol
_atom_site_label
_atom_site_fract_x
_atom_site_fract_y
_atom_site_fract_z
Si Si1 0.662132 0.938974 0.873578
Si Si2 0.631197 0.183907 0.533119
Si Si3 0.633215 0.720679 0.702045
Si Si4 0.824255 0.934701 0.033736
Si Si5 0.822650 0.735954 0.857419
Si Si6 0.026170 0.623014 0.231651
O O1 0.615006 0.902059 0.788615
O O2 0.703008 0.000000 0.824663
O O3 0.500000 0.942133 0.000000
O O4 0.783964 0.918654 0.921653
O O5 0.500000 0.210463 0.500000
O O6 0.671473 0.225037 0.617805
O O7 0.779357 0.175454 0.401505
O O8 0.541042 0.134614 0.622775
O O9 0.703326 0.725206 0.799756
O O10 0.447236 0.718950 0.776283
O O11 0.683912 0.912208 0.160250
O O12 0.817539 0.000000 0.040361
O O13 0.000000 0.917025 0.000000
O O14 0.921479 0.680885 0.834970
O O15 0.750000 0.750000 0.000000
#
# Coordination Sequence:
#
# PCOD9180948 Si02
#       6
#     8   8   8   8   8   8
#     4   8  15  30  54  78 107 142 179 221 279 344
#     4  10  19  36  57  73 100 152 195 232 260 317
#     4  10  20  37  55  73 103 146 193 228 271 329
#     4   9  18  33  56  84 116 146 175 226 294 348
#     4  11  23  36  54  82 113 147 183 239 291 329
#     4  10  19  32  51  78 112 142 184 233 266 334
#
# _framework density 18.700303999999999
#
# number of rings (size 3 to 8) (size 9 to 14) (size 15 to 20)
#    0.000    2.333    3.333    2.000    0.000    9.333 
#    0.000    0.000    3.667    2.000    0.000    0.000 
#    0.000    4.000    0.000    0.500    0.000    0.000 
#
# Total GULP energy -133628.562029 kJ/mol
# GULP energy per Si atom -5567.856751 kJ/mol
# Density = 1.865774 g / cm^3
# Si number density = 18.700304 Si / 1000 Ang^3
#
#
#
# Elastic Constant Matrix: (Units=GPa)
#
#
# Indices 1 2 3 4 5 6 
#
# 1 103.6164 21.0219 28.2198 0.0000 12.8568 0.0000
# 2 21.0219 32.5081 17.5824 0.0000 6.6143 0.0000
# 3 28.2198 17.5824 104.8460 0.0000 2.2214 0.0000
# 4 0.0000 0.0000 0.0000 25.3609 0.0000 3.6575
# 5 12.8568 6.6143 2.2214 0.0000 34.5860 0.0000
# 6 0.0000 0.0000 0.0000 3.6575 0.0000 13.5426
#
#
#
# Elastic Compliance Matrix: (Units=1/GPa)
#
#
# Indices 1 2 3 4 5 6 
#
# 1 0.011806 -0.005844 -0.002131 0.000000 -0.003134 0.000000
# 2 -0.005844 0.038065 -0.004709 0.000000 -0.004805 0.000000
# 3 -0.002131 -0.004709 0.010880 0.000000 0.000994 0.000000
# 4 0.000000 0.000000 0.000000 0.041029 0.000000 -0.011081
# 5 -0.003134 -0.004805 0.000994 0.000000 0.030934 0.000000
# 6 0.000000 0.000000 0.000000 -0.011081 0.000000 0.076834
#
#
# Mechanical properties :
#
#
# Convention : Reuss Voigt Hill
#
# Bulk Modulus (GPa) = 28.26204 41.62429 34.94316
# Shear Modulus (GPa) = 20.26675 26.30766 23.28720
#
# Velocity S-wave (km/s) = 3.29563 3.75481 3.53269
# Velocity P-wave (km/s) = 5.44312 6.41132 5.94696
#
# Compressibility (1/GPa) = 0.03538315
#
# Stress axis : x y z
#
# Youngs Moduli (GPa) = 84.70295 26.27077 91.91186
#
# Poissons Ratio (x) = 0.15353 0.19588
# Poissons Ratio (y) = 0.49502 0.43278
# Poissons Ratio (z) = 0.18052 0.12370
#
# Static dielectric constant tensor:
#      x y z
#    x 1.708830 0.000000 -0.011560 
#    y 0.000000 1.702120 0.000000 
#    z -0.011560 0.000000 1.683450 
# 
# From -- ./inp_files/122424.got.cif
#   From: 2010.05.17/outbox.cif.g08.bks.cpg/sg12_62_cif.got.tgz:122424.got - 2010.06.03 13:09:07.
