data_PCOD9180760
_publ_section_title
;
Structure prediction by ZEFSAII (Michael W. Deem and Ramdas Pophale) SiO2 
 PCOD9180760
Probable space group: C 2/M
;
_chemical_formula_sum "Si O2"
_cell_formula_units_Z 56
_cell_length_a 29.371802
_cell_length_b 8.898079
_cell_length_c 19.566537
_cell_angle_alpha 90.000000
_cell_angle_beta 42.062545
_cell_angle_gamma 90.000000
_cell_volume 3425.923474
_symmetry_space_group_name_H-M "C 2/M"
_symmetry_group_IT_number 12
_symmetry_cell_setting 'monoclinic'
loop_
_space_group_symop_operation_xyz
x,y,z
-x,y,-z
-x,-y,-z
x,-y,z
1/2+x,1/2+y,z
1/2-x,1/2+y,-z
1/2-x,1/2-y,-z
1/2+x,1/2-y,z
loop_
_atom_site_type_symbol
_atom_site_label
_atom_site_fract_x
_atom_site_fract_y
_atom_site_fract_z
Si Si1 0.294577 0.180078 0.195859
Si Si2 0.450964 0.818854 0.992435
Si Si3 0.740050 0.178983 0.120993
Si Si4 0.255915 0.679347 0.383257
Si Si5 0.508290 0.318603 0.197882
Si Si6 0.645216 0.319398 0.601852
Si Si7 0.355574 0.680107 0.880127
O O1 0.373291 0.224250 0.095156
O O2 0.251392 0.243161 0.180766
O O3 0.270109 0.245772 0.294948
O O4 0.290996 0.000000 0.201236
O O5 0.453654 0.000000 0.983735
O O6 0.500000 0.773228 0.000000
O O7 0.475256 0.748352 0.894504
O O8 0.675341 0.238790 0.151221
O O9 0.736927 0.000000 0.132484
O O10 0.805061 0.214696 0.999930
O O11 0.252980 0.500000 0.379409
O O12 0.316390 0.716125 0.369641
O O13 0.187684 0.740266 0.494957
O O14 0.509465 0.500000 0.191076
O O15 0.433282 0.273904 0.305836
O O16 0.568800 0.275117 0.181986
O O17 0.648946 0.500000 0.588417
O O18 0.353233 0.500000 0.872293
#
# Coordination Sequence:
#
# PCOD9180760 Si02
#       7
#     8   8   8   8   8   8   8
#     4  11  21  33  51  74 104 138 171 210 256 303
#     4  10  21  33  46  71 106 139 168 203 251 303
#     4  10  19  32  51  74 102 134 171 210 250 303
#     4  10  20  34  53  76 102 135 176 216 252 297
#     4  10  19  33  53  76 102 134 170 209 251 302
#     4   9  19  35  54  76 102 135 174 213 254 299
#     4   9  18  32  50  74 103 133 168 208 252 303
#
# _framework density 16.345956000000001
#
# number of rings (size 3 to 8) (size 9 to 14) (size 15 to 20)
#    0.000    2.143    1.429    2.143    0.000    3.143 
#    0.000    0.000    0.000    0.857    0.000    6.000 
#    0.000    0.000    0.000    0.000    0.000    0.000 
#
# Total GULP energy -156283.615522 kJ/mol
# GULP energy per Si atom -5581.557697 kJ/mol
# Density = 1.630875 g / cm^3
# Si number density = 16.345956 Si / 1000 Ang^3
#
#
#
# Elastic Constant Matrix: (Units=GPa)
#
#
# Indices 1 2 3 4 5 6 
#
# 1 144.1706 46.0271 88.0653 -0.0040 -11.4401 0.0046
# 2 46.0271 32.5439 44.7243 -0.0007 0.1587 0.0018
# 3 88.0653 44.7243 119.0269 -0.0049 -9.8341 0.0051
# 4 -0.0040 -0.0007 -0.0049 27.9068 -0.0033 7.1981
# 5 -11.4401 0.1587 -9.8341 -0.0033 21.5565 0.0018
# 6 0.0046 0.0018 0.0051 7.1981 0.0018 21.2640
#
#
#
# Elastic Compliance Matrix: (Units=1/GPa)
#
#
# Indices 1 2 3 4 5 6 
#
# 1 0.015229 -0.013898 -0.005579 0.000002 0.005639 -0.000002
# 2 -0.013898 0.079249 -0.020942 -0.000007 -0.017513 0.000005
# 3 -0.005579 -0.020942 0.020956 0.000004 0.006753 -0.000004
# 4 0.000002 -0.000007 0.000004 0.039262 0.000010 -0.013290
# 5 0.005639 -0.017513 0.006753 0.000010 0.052592 -0.000009
# 6 -0.000002 0.000005 -0.000004 -0.013290 -0.000009 0.051527
#
#
# Mechanical properties :
#
#
# Convention : Reuss Voigt Hill
#
# Bulk Modulus (GPa) = 28.90526 72.59717 50.75122
# Shear Modulus (GPa) = 14.23748 21.94045 18.08896
#
# Velocity S-wave (km/s) = 2.95449 3.66766 3.33022
# Velocity P-wave (km/s) = 5.41853 7.90221 6.77515
#
# Compressibility (1/GPa) = 0.03459578
#
# Stress axis : x y z
#
# Youngs Moduli (GPa) = 65.66491 12.61839 47.71827
#
# Poissons Ratio (x) = 0.17537 0.26624
# Poissons Ratio (y) = 0.91263 0.99931
# Poissons Ratio (z) = 0.36637 0.26425
#
# Static dielectric constant tensor:
#      x y z
#    x 1.540700 0.000000 -0.017590 
#    y 0.000000 1.541650 0.000000 
#    z -0.017590 0.000000 1.517030 
# 
# From -- ./inp_files/287388.got.cif
#   From: 2010.05.17/outbox.cif.g08.bks.cpg/sg12_144_cif.got.tgz:287388.got - 2010.06.03 13:09:07.
