data_PCOD9180978
_publ_section_title
;
Structure prediction by ZEFSAII (Michael W. Deem and Ramdas Pophale) SiO2 
 PCOD9180978
Probable space group: C 2/M
;
_chemical_formula_sum "Si O2"
_cell_formula_units_Z 64
_cell_length_a 18.154897
_cell_length_b 13.272461
_cell_length_c 23.715810
_cell_angle_alpha 90.000000
_cell_angle_beta 31.213879
_cell_angle_gamma 90.000000
_cell_volume 2961.483202
_symmetry_space_group_name_H-M "C 2/M"
_symmetry_group_IT_number 12
_symmetry_cell_setting 'monoclinic'
loop_
_space_group_symop_operation_xyz
x,y,z
-x,y,-z
-x,-y,-z
x,-y,z
1/2+x,1/2+y,z
1/2-x,1/2+y,-z
1/2-x,1/2-y,-z
1/2+x,1/2-y,z
loop_
_atom_site_type_symbol
_atom_site_label
_atom_site_fract_x
_atom_site_fract_y
_atom_site_fract_z
Si Si1 0.835815 0.379024 0.595358
Si Si2 0.153543 0.380420 0.726625
Si Si3 0.136349 0.879548 0.026556
Si Si4 0.913989 0.755840 0.829214
Si Si5 0.606458 0.381040 0.516448
Si Si6 0.677691 0.879865 0.524092
Si Si7 0.646134 0.718446 0.817383
Si Si8 0.090673 0.248464 0.289895
O O1 0.829709 0.500000 0.602360
O O2 0.790652 0.349712 0.561375
O O3 0.732867 0.336101 0.710118
O O4 0.000000 0.350646 0.500000
O O5 0.126178 0.500000 0.742786
O O6 0.309272 0.364288 0.596889
O O7 0.130518 0.331684 0.803059
O O8 0.044269 0.317206 0.759781
O O9 0.101949 0.840786 0.112734
O O10 0.002543 0.837640 0.078806
O O11 0.150807 0.000000 0.013689
O O12 0.277804 0.818175 0.918415
O O13 0.925514 0.803259 0.759945
O O14 0.579842 0.500000 0.537580
O O15 0.711041 0.350196 0.500173
O O16 0.464081 0.320988 0.623110
O O17 0.519560 0.840584 0.639549
O O18 0.675841 0.000000 0.526624
O O19 0.749924 0.718551 0.802258
#
# Coordination Sequence:
#
# PCOD9180978 Si02
#       8
#     8   8   8   8   8   8   8   8
#     4  10  19  32  51  79 118 159 195 233 292 362
#     4  10  21  39  61  86 121 166 209 244 289 352
#     4  10  23  45  67  91 118 149 202 256 303 361
#     4  10  23  41  68  92 114 157 199 252 310 350
#     4  10  22  36  56  88 122 161 204 246 292 346
#     4  10  20  32  52  83 118 156 198 242 290 348
#     4  11  24  37  58  88 122 163 198 243 302 354
#     4  12  23  37  58  87 127 156 195 244 298 361
#
# _framework density 21.610793000000001
#
# number of rings (size 3 to 8) (size 9 to 14) (size 15 to 20)
#    0.000    1.625    2.500    1.875    3.500    2.500 
#    0.000    1.875    0.000    0.000    0.000    6.125 
#    0.000    0.000    0.000    0.000    0.000    0.000 
#
# Total GULP energy -178911.402461 kJ/mol
# GULP energy per Si atom -5590.981327 kJ/mol
# Density = 2.156161 g / cm^3
# Si number density = 21.610793 Si / 1000 Ang^3
#
#
#
# Elastic Constant Matrix: (Units=GPa)
#
#
# Indices 1 2 3 4 5 6 
#
# 1 75.9608 3.0141 1.6072 0.0001 -7.3666 0.0000
# 2 3.0141 84.5040 10.1827 0.0005 -8.7892 0.0000
# 3 1.6072 10.1827 56.7488 0.0004 -17.1527 0.0001
# 4 0.0001 0.0005 0.0004 18.0827 0.0000 -1.7637
# 5 -7.3666 -8.7892 -17.1527 0.0000 37.9333 0.0000
# 6 0.0000 0.0000 0.0001 -1.7637 0.0000 16.1282
#
#
#
# Elastic Compliance Matrix: (Units=1/GPa)
#
#
# Indices 1 2 3 4 5 6 
#
# 1 0.013433 -0.000251 0.000504 0.000000 0.002779 0.000000
# 2 -0.000251 0.012247 -0.001561 0.000000 0.002083 0.000000
# 3 0.000504 -0.001561 0.020627 0.000000 0.009063 0.000000
# 4 0.000000 0.000000 0.000000 0.055898 0.000000 0.006113
# 5 0.002779 0.002083 0.009063 0.000000 0.031483 0.000000
# 6 0.000000 0.000000 0.000000 0.006113 0.000000 0.062672
#
#
# Mechanical properties :
#
#
# Convention : Reuss Voigt Hill
#
# Bulk Modulus (GPa) = 22.88693 27.42463 25.15578
# Shear Modulus (GPa) = 23.41497 27.92282 25.66890
#
# Velocity S-wave (km/s) = 3.29520 3.59845 3.45016
# Velocity P-wave (km/s) = 5.00912 5.47566 5.24758
#
# Compressibility (1/GPa) = 0.04369306
#
# Stress axis : x y z
#
# Youngs Moduli (GPa) = 74.44110 81.64952 48.48072
#
# Poissons Ratio (x) = 0.02049 -0.02446
# Poissons Ratio (y) = 0.01868 0.07567
# Poissons Ratio (z) = -0.03755 0.12744
#
# Static dielectric constant tensor:
#      x y z
#    x 1.822500 0.000000 0.007010 
#    y 0.000000 1.782680 0.000000 
#    z 0.007010 0.000000 1.802960 
# 
# From -- ./inp_files/344045.got.cif
#   From: 2010.05.17/outbox.cif.g08.bks.cpg/sg12_173_cif.got.tgz:344045.got - 2010.06.03 13:09:07.
