data_PCOD9180911
_publ_section_title
;
Structure prediction by ZEFSAII (Michael W. Deem and Ramdas Pophale) SiO2 
 PCOD9180911
Probable space group: C 2/M
;
_chemical_formula_sum "Si O2"
_cell_formula_units_Z 60
_cell_length_a 12.569563
_cell_length_b 16.784212
_cell_length_c 12.995642
_cell_angle_alpha 90.000000
_cell_angle_beta 78.206471
_cell_angle_gamma 90.000000
_cell_volume 2683.817489
_symmetry_space_group_name_H-M "C 2/M"
_symmetry_group_IT_number 12
_symmetry_cell_setting 'monoclinic'
loop_
_space_group_symop_operation_xyz
x,y,z
-x,y,-z
-x,-y,-z
x,-y,z
1/2+x,1/2+y,z
1/2-x,1/2+y,-z
1/2-x,1/2-y,-z
1/2+x,1/2-y,z
loop_
_atom_site_type_symbol
_atom_site_label
_atom_site_fract_x
_atom_site_fract_y
_atom_site_fract_z
Si Si1 0.526548 0.243300 0.322530
Si Si2 0.634606 0.911121 0.374850
Si Si3 0.752396 0.091273 0.568091
Si Si4 0.784232 0.869449 0.157264
Si Si5 0.500000 0.641463 0.500000
Si Si6 0.731081 0.807645 0.760296
Si Si7 0.774313 0.093249 0.933418
Si Si8 0.501014 0.311271 0.113484
O O1 0.547686 0.156878 0.365628
O O2 0.464708 0.300641 0.412842
O O3 0.644010 0.286183 0.293648
O O4 0.487889 0.251185 0.212456
O O5 0.703390 0.894081 0.464312
O O6 0.718556 0.907271 0.262672
O O7 0.588442 0.000000 0.391053
O O8 0.698022 0.154928 0.656970
O O9 0.885834 0.096130 0.543217
O O10 0.725257 0.000000 0.602604
O O11 0.791985 0.775002 0.176397
O O12 0.913311 0.883847 0.132820
O O13 0.733429 0.888914 0.057037
O O14 0.707640 0.875049 0.849623
O O15 0.883076 0.145833 0.902142
O O16 0.795130 0.000000 0.920684
O O17 0.500000 0.273171 0.000000
#
# Coordination Sequence:
#
# PCOD9180911 Si02
#       8
#     8   8   8   8   4   8   8   8
#     4   9  19  34  51  73 100 135 175 209 253 308
#     4  10  21  35  52  74 103 137 174 217 258 300
#     4  10  20  34  53  80 109 135 167 211 261 305
#     4  10  19  32  52  75 100 133 175 211 250 305
#     4  10  19  32  55  80 104 136 168 206 253 308
#     4   9  19  33  51  73 103 139 172 205 246 306
#     4  10  19  32  51  77 108 136 164 207 261 309
#     4   9  19  33  51  76 103 133 169 213 259 309
#
# _framework density 22.356216
#
# number of rings (size 3 to 8) (size 9 to 14) (size 15 to 20)
#    0.000    2.400    0.000    2.200    0.000    9.867 
#    0.000    3.667    0.000    2.000    0.000    0.000 
#    0.000    0.000    0.000    0.000    0.000    0.000 
#
# Total GULP energy -167139.390604 kJ/mol
# GULP energy per Si atom -5571.313020 kJ/mol
# Density = 2.230533 g / cm^3
# Si number density = 22.356216 Si / 1000 Ang^3
#
#
#
# Elastic Constant Matrix: (Units=GPa)
#
#
# Indices 1 2 3 4 5 6 
#
# 1 23.7587 7.6948 2.7510 0.0000 10.3419 0.0000
# 2 7.6948 126.8402 61.7250 0.0000 26.2784 0.0000
# 3 2.7510 61.7250 119.5216 0.0000 25.2154 0.0000
# 4 0.0000 0.0000 0.0000 33.9342 0.0000 7.0695
# 5 10.3419 26.2784 25.2154 0.0000 29.1596 0.0000
# 6 0.0000 0.0000 0.0000 7.0695 0.0000 12.3218
#
#
#
# Elastic Compliance Matrix: (Units=1/GPa)
#
#
# Indices 1 2 3 4 5 6 
#
# 1 0.050787 -0.000491 0.003414 0.000000 -0.020522 0.000000
# 2 -0.000491 0.011421 -0.004590 0.000000 -0.006150 0.000000
# 3 0.003414 -0.004590 0.012282 0.000000 -0.007695 0.000000
# 4 0.000000 0.000000 0.000000 0.033469 0.000000 -0.019203
# 5 -0.020522 -0.006150 -0.007695 0.000000 0.053769 0.000000
# 6 0.000000 0.000000 0.000000 -0.019203 0.000000 0.092175
#
#
# Mechanical properties :
#
#
# Convention : Reuss Voigt Hill
#
# Bulk Modulus (GPa) = 14.05342 46.05134 30.05238
# Shear Modulus (GPa) = 17.79650 28.27976 23.03813
#
# Velocity S-wave (km/s) = 2.82448 3.56049 3.21363
# Velocity P-wave (km/s) = 4.11543 6.12751 5.21934
#
# Compressibility (1/GPa) = 0.07115705
#
# Stress axis : x y z
#
# Youngs Moduli (GPa) = 19.69027 87.55572 81.42136
#
# Poissons Ratio (x) = 0.04296 -0.27797
# Poissons Ratio (y) = 0.00966 0.37369
# Poissons Ratio (z) = -0.06722 0.40185
#
# Static dielectric constant tensor:
#      x y z
#    x 2.024220 0.000000 -0.042840 
#    y 0.000000 1.804680 0.000000 
#    z -0.042840 0.000000 1.886870 
# 
# From -- ./inp_files/156581.got.cif
#   From: 2010.05.17/outbox.cif.g08.bks.cpg/sg12_79_cif.got.tgz:156581.got - 2010.06.03 13:09:07.
