data_PCOD9180047
_publ_section_title
;
Structure prediction by ZEFSAII (Michael W. Deem and Ramdas Pophale) SiO2 
 PCOD9180047
Probable space group: C 2/M
;
_chemical_formula_sum "Si O2"
_cell_formula_units_Z 58
_cell_length_a 19.177047
_cell_length_b 15.388239
_cell_length_c 24.145259
_cell_angle_alpha 90.000000
_cell_angle_beta 26.874907
_cell_angle_gamma 90.000000
_cell_volume 3220.945137
_symmetry_space_group_name_H-M "C 2/M"
_symmetry_group_IT_number 12
_symmetry_cell_setting 'monoclinic'
loop_
_space_group_symop_operation_xyz
x,y,z
-x,y,-z
-x,-y,-z
x,-y,z
1/2+x,1/2+y,z
1/2-x,1/2+y,-z
1/2-x,1/2-y,-z
1/2+x,1/2-y,z
loop_
_atom_site_type_symbol
_atom_site_label
_atom_site_fract_x
_atom_site_fract_y
_atom_site_fract_z
Si Si1 0.027005 0.228336 0.046308
Si Si2 0.702263 0.101115 0.108620
Si Si3 0.139499 0.396577 0.601959
Si Si4 0.210175 0.679824 0.328625
Si Si5 0.280829 0.356538 0.610748
Si Si6 0.578839 0.100545 0.523296
Si Si7 0.000000 0.000000 0.500000
Si Si8 0.954011 0.401417 0.897083
O O1 0.873514 0.188139 0.183203
O O2 0.055394 0.324065 0.052171
O O3 0.000000 0.233990 0.000000
O O4 0.169328 0.166371 0.960768
O O5 0.540450 0.115099 0.254952
O O6 0.662742 0.113556 0.071482
O O7 0.746774 0.000000 0.085060
O O8 0.172834 0.500000 0.585814
O O9 0.239749 0.344664 0.575489
O O10 0.157362 0.373579 0.525184
O O11 0.186169 0.769634 0.378682
O O12 0.192029 0.609912 0.390711
O O13 0.072497 0.656964 0.383959
O O14 0.416123 0.424354 0.522318
O O15 0.125076 0.396066 0.748893
O O16 0.530567 0.000000 0.563373
O O17 0.931758 0.500000 0.934109
#
# Coordination Sequence:
#
# PCOD9180047 Si02
#       8
#     8   8   8   8   8   8   2   8
#     4  11  22  33  53  84 109 138 180 238 276 310
#     4   9  18  33  56  80 108 142 180 225 265 319
#     4   9  17  34  55  80 105 139 186 214 262 328
#     4  10  21  35  49  80 108 139 184 218 271 323
#     4  10  19  31  53  81 108 136 175 224 266 317
#     4  10  20  36  57  72 103 153 178 211 264 336
#     4  12  16  28  56  80 108 138 170 216 266 304
#     4   9  18  37  55  75 105 145 185 213 268 334
#
# _framework density 18.007137
#
# number of rings (size 3 to 8) (size 9 to 14) (size 15 to 20)
#    0.000    2.207    1.379    3.724    0.000    2.207 
#    0.000    0.000    0.000    1.655    7.172    0.000 
#    0.000    0.000    0.000    0.000    0.000    0.000 
#
# Total GULP energy -161446.551946 kJ/mol
# GULP energy per Si atom -5567.122481 kJ/mol
# Density = 1.796615 g / cm^3
# Si number density = 18.007137 Si / 1000 Ang^3
#
#
#
# Elastic Constant Matrix: (Units=GPa)
#
#
# Indices 1 2 3 4 5 6 
#
# 1 128.9268 50.3653 28.0954 -0.0012 2.0158 0.0000
# 2 50.3653 78.9327 7.6481 -0.0077 -8.5737 0.0014
# 3 28.0954 7.6481 28.0941 -0.0132 4.5785 0.0025
# 4 -0.0012 -0.0077 -0.0132 19.5922 -0.0006 -0.2824
# 5 2.0158 -8.5737 4.5785 -0.0006 14.0426 0.0004
# 6 0.0000 0.0014 0.0025 -0.2824 0.0004 21.9149
#
#
#
# Elastic Compliance Matrix: (Units=1/GPa)
#
#
# Indices 1 2 3 4 5 6 
#
# 1 0.013091 -0.007679 -0.010488 -0.000009 -0.003148 0.000002
# 2 -0.007679 0.018872 0.000511 0.000008 0.012458 -0.000001
# 3 -0.010488 0.000511 0.048209 0.000031 -0.013901 -0.000005
# 4 -0.000009 0.000008 0.000031 0.051050 -0.000002 0.000658
# 5 -0.003148 0.012458 -0.013901 -0.000002 0.083802 -0.000001
# 6 0.000002 -0.000001 -0.000005 0.000658 -0.000001 0.045639
#
#
# Mechanical properties :
#
#
# Convention : Reuss Voigt Hill
#
# Bulk Modulus (GPa) = 22.29095 45.35239 33.82167
# Shear Modulus (GPa) = 16.08082 21.09959 18.59020
#
# Velocity S-wave (km/s) = 2.99159 3.42677 3.21655
# Velocity P-wave (km/s) = 4.93342 6.39512 5.71122
#
# Compressibility (1/GPa) = 0.04486126
#
# Stress axis : x y z
#
# Youngs Moduli (GPa) = 76.38996 52.98786 20.74285
#
# Poissons Ratio (x) = 0.40687 0.21755
# Poissons Ratio (y) = 0.58657 -0.01060
# Poissons Ratio (z) = 0.80118 -0.02708
#
# Static dielectric constant tensor:
#      x y z
#    x 1.617350 0.000000 0.008430 
#    y 0.000000 1.634190 0.000000 
#    z 0.008430 0.000000 1.616080 
# 
# From -- ./inp_files/343819.got.cif
#   From: 2010.05.17/outbox.cif.g08.bks.cpg/sg12_172_cif.got.tgz:343819.got - 2010.06.03 13:09:07.
