data_PCOD9180453
_publ_section_title
;
Structure prediction by ZEFSAII (Michael W. Deem and Ramdas Pophale) SiO2 
 PCOD9180453
Probable space group: C 2/M
;
_chemical_formula_sum "Si O2"
_cell_formula_units_Z 64
_cell_length_a 16.516288
_cell_length_b 17.899439
_cell_length_c 18.192323
_cell_angle_alpha 90.000000
_cell_angle_beta 142.465646
_cell_angle_gamma 90.000000
_cell_volume 3276.621681
_symmetry_space_group_name_H-M "C 2/M"
_symmetry_group_IT_number 12
_symmetry_cell_setting 'monoclinic'
loop_
_space_group_symop_operation_xyz
x,y,z
-x,y,-z
-x,-y,-z
x,-y,z
1/2+x,1/2+y,z
1/2-x,1/2+y,-z
1/2-x,1/2-y,-z
1/2+x,1/2-y,z
loop_
_atom_site_type_symbol
_atom_site_label
_atom_site_fract_x
_atom_site_fract_y
_atom_site_fract_z
Si Si1 0.910531 0.410870 0.368057
Si Si2 0.926269 0.819764 0.256035
Si Si3 0.631541 0.669397 0.960178
Si Si4 0.829008 0.086397 0.583493
Si Si5 0.634386 0.175979 0.049263
Si Si6 0.632325 0.413052 0.211970
Si Si7 0.103952 0.587927 0.884699
Si Si8 0.563948 0.161092 0.349151
O O1 0.898988 0.500000 0.369687
O O2 0.760849 0.380865 0.263450
O O3 0.000000 0.381963 0.500000
O O4 0.985251 0.393253 0.347679
O O5 0.895207 0.820781 0.146069
O O6 0.027401 0.887745 0.342150
O O7 0.008300 0.743298 0.327057
O O8 0.782578 0.826612 0.191522
O O9 0.642614 0.748668 0.006705
O O10 0.503711 0.628526 0.900684
O O11 0.764636 0.620373 0.061048
O O12 0.834803 0.091374 0.676844
O O13 0.717303 0.143115 0.473990
O O14 0.798070 0.000000 0.542996
O O15 0.621881 0.107469 0.983169
O O16 0.500000 0.178464 0.000000
O O17 0.614484 0.500000 0.181008
O O18 0.089653 0.500000 0.862285
O O19 0.981515 0.635312 0.764213
#
# Coordination Sequence:
#
# PCOD9180453 Si02
#       8
#     8   8   8   8   8   8   8   8
#     4  10  19  32  49  78 122 156 183 221 276 348
#     4  10  21  38  59  84 115 150 194 241 285 345
#     4  10  19  38  58  82 114 151 189 240 290 344
#     4  10  20  35  58  84 112 152 194 235 282 339
#     4  11  23  41  61  83 117 155 195 247 293 343
#     4   9  18  31  51  82 115 152 189 223 272 342
#     4  11  22  38  61  87 115 152 198 244 292 343
#     4  12  20  35  57  87 118 151 187 236 292 343
#
# _framework density 19.532312999999998
#
# number of rings (size 3 to 8) (size 9 to 14) (size 15 to 20)
#    0.000    1.625    3.750    2.625    1.750    3.250 
#    0.000    0.000    0.000    3.000    0.000    1.750 
#    0.000    0.000    0.000    0.000    0.000    0.000 
#
# Total GULP energy -178605.391862 kJ/mol
# GULP energy per Si atom -5581.418496 kJ/mol
# Density = 1.948786 g / cm^3
# Si number density = 19.532313 Si / 1000 Ang^3
#
#
#
# Elastic Constant Matrix: (Units=GPa)
#
#
# Indices 1 2 3 4 5 6 
#
# 1 53.0878 6.4290 23.7666 0.0001 33.3034 0.0000
# 2 6.4290 44.8433 6.3170 0.0000 6.3696 0.0000
# 3 23.7666 6.3170 72.6725 0.0001 27.3703 0.0000
# 4 0.0001 0.0000 0.0001 24.4794 0.0000 4.8343
# 5 33.3034 6.3696 27.3703 0.0000 32.9070 0.0000
# 6 0.0000 0.0000 0.0000 4.8343 0.0000 12.8283
#
#
#
# Elastic Compliance Matrix: (Units=1/GPa)
#
#
# Indices 1 2 3 4 5 6 
#
# 1 0.052430 -0.000076 0.004134 0.000000 -0.056485 0.000000
# 2 -0.000076 0.022941 -0.000474 0.000000 -0.003969 0.000000
# 3 0.004134 -0.000474 0.020373 0.000000 -0.021037 0.000000
# 4 0.000000 0.000000 0.000000 0.044135 0.000000 -0.016632
# 5 -0.056485 -0.003969 -0.021037 0.000000 0.105820 0.000000
# 6 0.000000 0.000000 0.000000 -0.016632 0.000000 0.084220
#
#
# Mechanical properties :
#
#
# Convention : Reuss Voigt Hill
#
# Bulk Modulus (GPa) = 9.71714 27.06988 18.39351
# Shear Modulus (GPa) = 14.00340 22.98233 18.49287
#
# Velocity S-wave (km/s) = 2.68047 3.43393 3.08032
# Velocity P-wave (km/s) = 3.81649 5.44165 4.69985
#
# Compressibility (1/GPa) = 0.10291098
#
# Stress axis : x y z
#
# Youngs Moduli (GPa) = 19.07308 43.58934 49.08546
#
# Poissons Ratio (x) = 0.00330 -0.20291
# Poissons Ratio (y) = 0.00145 0.02329
# Poissons Ratio (z) = -0.07884 0.02068
#
# Static dielectric constant tensor:
#      x y z
#    x 1.686760 0.000000 0.002840 
#    y 0.000000 1.679480 0.000000 
#    z 0.002840 0.000000 1.755860 
# 
# From -- ./inp_files/317350.got.cif
#   From: 2010.05.17/outbox.cif.g08.bks.cpg/sg12_159_cif.got.tgz:317350.got - 2010.06.03 13:09:07.
