data_PCOD9180581
_publ_section_title
;
Structure prediction by ZEFSAII (Michael W. Deem and Ramdas Pophale) SiO2 
 PCOD9180581
Probable space group: C 2/M
;
_chemical_formula_sum "Si O2"
_cell_formula_units_Z 56
_cell_length_a 28.074957
_cell_length_b 7.523909
_cell_length_c 12.119559
_cell_angle_alpha 90.000000
_cell_angle_beta 102.799911
_cell_angle_gamma 90.000000
_cell_volume 2496.437755
_symmetry_space_group_name_H-M "C 2/M"
_symmetry_group_IT_number 12
_symmetry_cell_setting 'monoclinic'
loop_
_space_group_symop_operation_xyz
x,y,z
-x,y,-z
-x,-y,-z
x,-y,z
1/2+x,1/2+y,z
1/2-x,1/2+y,-z
1/2-x,1/2-y,-z
1/2+x,1/2-y,z
loop_
_atom_site_type_symbol
_atom_site_label
_atom_site_fract_x
_atom_site_fract_y
_atom_site_fract_z
Si Si1 0.806193 0.803267 0.041165
Si Si2 0.899591 0.218312 0.208988
Si Si3 0.493941 0.282703 0.123077
Si Si4 0.619070 0.282944 0.559844
Si Si5 0.319038 0.209355 0.806309
Si Si6 0.910395 0.214881 0.696338
Si Si7 0.230709 0.787361 0.612810
O O1 0.847008 0.714255 0.138596
O O2 0.802626 0.000000 0.086056
O O3 0.750000 0.750000 0.000000
O O4 0.827432 0.799195 0.928172
O O5 0.943431 0.275592 0.152582
O O6 0.906794 0.269043 0.339943
O O7 0.899227 0.000000 0.204558
O O8 0.493856 0.500000 0.122673
O O9 0.540181 0.224964 0.219411
O O10 0.500000 0.225165 0.000000
O O11 0.619502 0.500000 0.557127
O O12 0.596146 0.223027 0.432749
O O13 0.675473 0.222868 0.595066
O O14 0.363584 0.233188 0.745139
O O15 0.269878 0.279285 0.722015
O O16 0.313085 0.000000 0.826080
O O17 0.911275 0.000000 0.694745
O O18 0.250000 0.750000 0.500000
O O19 0.229509 0.000000 0.625374
#
# Coordination Sequence:
#
# PCOD9180581 Si02
#       7
#     8   8   8   8   8   8   8
#     4  11  22  37  58  81 110 146 184 227 276 330
#     4   9  18  33  53  78 111 145 175 224 284 325
#     4   9  17  30  50  78 108 139 182 230 275 324
#     4   9  17  30  49  76 109 138 174 221 272 328
#     4  11  22  35  54  80 112 147 183 225 276 330
#     4  10  19  32  54  81 107 139 183 230 271 322
#     4  10  19  32  50  74 107 142 176 220 270 324
#
# _framework density 22.431961999999999
#
# number of rings (size 3 to 8) (size 9 to 14) (size 15 to 20)
#    0.000    2.143    1.429    2.571    0.000    5.714 
#    0.000    2.857    0.000    5.571    0.000    1.000 
#    0.000    0.000    0.000    0.000    0.000    0.000 
#
# Total GULP energy -156463.593760 kJ/mol
# GULP energy per Si atom -5587.985491 kJ/mol
# Density = 2.238091 g / cm^3
# Si number density = 22.431962 Si / 1000 Ang^3
#
#
#
# Elastic Constant Matrix: (Units=GPa)
#
#
# Indices 1 2 3 4 5 6 
#
# 1 147.7727 5.2768 84.0087 0.0000 -1.4592 0.0000
# 2 5.2768 57.3227 -2.8242 0.0000 6.1308 0.0000
# 3 84.0087 -2.8242 164.1312 0.0000 -1.2677 0.0000
# 4 0.0000 0.0000 0.0000 4.2556 0.0000 -1.2330
# 5 -1.4592 6.1308 -1.2677 0.0000 46.1643 0.0000
# 6 0.0000 0.0000 0.0000 -1.2330 0.0000 12.9220
#
#
#
# Elastic Compliance Matrix: (Units=1/GPa)
#
#
# Indices 1 2 3 4 5 6 
#
# 1 0.009622 -0.001164 -0.004942 0.000000 0.000323 0.000000
# 2 -0.001164 0.017851 0.000884 0.000000 -0.002383 0.000000
# 3 -0.004942 0.000884 0.008637 0.000000 -0.000036 0.000000
# 4 0.000000 0.000000 0.000000 0.241663 0.000000 0.023058
# 5 0.000323 -0.002383 -0.000036 0.000000 0.021987 0.000000
# 6 0.000000 0.000000 0.000000 0.023058 0.000000 0.079587
#
#
# Mechanical properties :
#
#
# Convention : Reuss Voigt Hill
#
# Bulk Modulus (GPa) = 38.96152 60.23879 49.60016
# Shear Modulus (GPa) = 12.55192 31.51942 22.03567
#
# Velocity S-wave (km/s) = 2.36806 3.75255 3.13762
# Velocity P-wave (km/s) = 4.98833 6.75927 5.94017
#
# Compressibility (1/GPa) = 0.02566635
#
# Stress axis : x y z
#
# Youngs Moduli (GPa) = 103.93347 56.02031 115.77778
#
# Poissons Ratio (x) = 0.06519 0.57220
# Poissons Ratio (y) = 0.12095 -0.10239
# Poissons Ratio (z) = 0.51366 -0.04954
#
# Static dielectric constant tensor:
#      x y z
#    x 1.793180 0.000000 0.014280 
#    y 0.000000 1.858170 0.000000 
#    z 0.014280 0.000000 1.802560 
# 
# From -- ./inp_files/181001.got.cif
#   From: 2010.05.17/outbox.cif.g08.bks.cpg/sg12_91_cif.got.tgz:181001.got - 2010.06.03 13:09:07.
