data_PCOD9180446
_publ_section_title
;
Structure prediction by ZEFSAII (Michael W. Deem and Ramdas Pophale) SiO2 
 PCOD9180446
Probable space group: C 2/M
;
_chemical_formula_sum "Si O2"
_cell_formula_units_Z 48
_cell_length_a 14.620559
_cell_length_b 14.365892
_cell_length_c 19.055190
_cell_angle_alpha 90.000000
_cell_angle_beta 141.319512
_cell_angle_gamma 90.000000
_cell_volume 2501.346093
_symmetry_space_group_name_H-M "C 2/M"
_symmetry_group_IT_number 12
_symmetry_cell_setting 'monoclinic'
loop_
_space_group_symop_operation_xyz
x,y,z
-x,y,-z
-x,-y,-z
x,-y,z
1/2+x,1/2+y,z
1/2-x,1/2+y,-z
1/2-x,1/2-y,-z
1/2+x,1/2-y,z
loop_
_atom_site_type_symbol
_atom_site_label
_atom_site_fract_x
_atom_site_fract_y
_atom_site_fract_z
Si Si1 0.969082 0.106633 0.698582
Si Si2 0.410747 0.292180 0.003765
Si Si3 0.377222 0.762383 0.740984
Si Si4 0.615338 0.102493 0.861833
Si Si5 0.302052 0.901090 0.929100
Si Si6 0.889799 0.109328 0.368839
O O1 0.127364 0.106467 0.832728
O O2 0.021201 0.129763 0.650065
O O3 0.864240 0.177785 0.677310
O O4 0.914142 0.000000 0.665897
O O5 0.515474 0.274020 0.132607
O O6 0.500000 0.349180 0.000000
O O7 0.261261 0.341133 0.933660
O O8 0.358698 0.196098 0.934209
O O9 0.472108 0.840349 0.757148
O O10 0.238898 0.816285 0.691810
O O11 0.617717 0.000000 0.832185
O O12 0.620954 0.094030 0.949591
O O13 0.330137 0.000000 0.908418
O O14 0.000000 0.113546 0.500000
O O15 0.838323 0.000000 0.333041
#
# Coordination Sequence:
#
# PCOD9180446 Si02
#       6
#     8   8   8   8   8   8
#     4  10  19  35  60  83 110 147 186 228 281 338
#     4  11  20  30  48  78 113 150 180 221 265 328
#     4  11  20  35  60  81 112 149 190 229 278 328
#     4  10  19  32  49  76 112 149 184 218 263 322
#     4   9  16  30  48  71 103 138 176 216 261 318
#     4  10  23  41  60  85 111 139 185 242 293 337
#
# _framework density 19.189668000000001
#
# number of rings (size 3 to 8) (size 9 to 14) (size 15 to 20)
#    0.000    1.833    3.333    2.500    0.000    2.000 
#    0.000    0.000    0.000    0.500    0.000    0.000 
#    0.000    0.000    0.000    0.000    0.000    0.000 
#
# Total GULP energy -133618.522459 kJ/mol
# GULP energy per Si atom -5567.438436 kJ/mol
# Density = 1.914599 g / cm^3
# Si number density = 19.189668 Si / 1000 Ang^3
#
#
#
# Elastic Constant Matrix: (Units=GPa)
#
#
# Indices 1 2 3 4 5 6 
#
# 1 90.6286 61.3495 20.6491 0.0000 -5.9663 0.0000
# 2 61.3495 105.2049 30.1500 0.0000 -7.5991 0.0000
# 3 20.6491 30.1500 32.3641 0.0001 -6.9004 0.0000
# 4 0.0000 0.0000 0.0001 15.2496 0.0000 3.9694
# 5 -5.9663 -7.5991 -6.9004 0.0000 16.6355 0.0000
# 6 0.0000 0.0000 0.0000 3.9694 0.0000 12.2633
#
#
#
# Elastic Compliance Matrix: (Units=1/GPa)
#
#
# Indices 1 2 3 4 5 6 
#
# 1 0.018382 -0.010021 -0.002153 0.000000 0.001122 0.000000
# 2 -0.010021 0.018446 -0.010707 0.000000 0.000391 0.000000
# 3 -0.002153 -0.010707 0.045021 0.000000 0.013011 0.000000
# 4 0.000000 0.000000 0.000000 0.071609 0.000000 -0.023178
# 5 0.001122 0.000391 0.013011 0.000000 0.066090 0.000000
# 6 0.000000 0.000000 0.000000 -0.023178 0.000000 0.089046
#
#
# Mechanical properties :
#
#
# Convention : Reuss Voigt Hill
#
# Bulk Modulus (GPa) = 27.71165 50.27719 38.99442
# Shear Modulus (GPa) = 13.64684 16.56630 15.10657
#
# Velocity S-wave (km/s) = 2.66964 2.94137 2.80880
# Velocity P-wave (km/s) = 4.89642 6.14757 5.55732
#
# Compressibility (1/GPa) = 0.03608590
#
# Stress axis : x y z
#
# Youngs Moduli (GPa) = 54.40013 54.21324 22.21207
#
# Poissons Ratio (x) = 0.54329 0.04783
# Poissons Ratio (y) = 0.54516 0.23782
# Poissons Ratio (z) = 0.11715 0.58044
#
# Static dielectric constant tensor:
#      x y z
#    x 1.713920 0.000000 -0.008360 
#    y 0.000000 1.768390 0.000000 
#    z -0.008360 0.000000 1.653000 
# 
# From -- ./inp_files/142978.got.cif
#   From: 2010.05.17/outbox.cif.g08.bks.cpg/sg12_72_cif.got.tgz:142978.got - 2010.06.03 13:09:07.
