data_PCOD9180854
_publ_section_title
;
Structure prediction by ZEFSAII (Michael W. Deem and Ramdas Pophale) SiO2 
 PCOD9180854
Probable space group: C 2/M
;
_chemical_formula_sum "Si O2"
_cell_formula_units_Z 48
_cell_length_a 29.976192
_cell_length_b 7.442098
_cell_length_c 10.305276
_cell_angle_alpha 90.000000
_cell_angle_beta 78.861670
_cell_angle_gamma 90.000000
_cell_volume 2255.656293
_symmetry_space_group_name_H-M "C 2/M"
_symmetry_group_IT_number 12
_symmetry_cell_setting 'monoclinic'
loop_
_space_group_symop_operation_xyz
x,y,z
-x,y,-z
-x,-y,-z
x,-y,z
1/2+x,1/2+y,z
1/2-x,1/2+y,-z
1/2-x,1/2-y,-z
1/2+x,1/2-y,z
loop_
_atom_site_type_symbol
_atom_site_label
_atom_site_fract_x
_atom_site_fract_y
_atom_site_fract_z
Si Si1 0.712755 0.285359 0.631691
Si Si2 0.232572 0.286674 0.153784
Si Si3 0.118074 0.779285 0.563846
Si Si4 0.956585 0.781338 0.192120
Si Si5 0.059704 0.780627 0.088374
Si Si6 0.371677 0.709362 0.734098
O O1 0.707753 0.500000 0.648059
O O2 0.750000 0.250000 0.500000
O O3 0.732899 0.215605 0.755865
O O4 0.663974 0.218755 0.610877
O O5 0.229904 0.500000 0.172535
O O6 0.181717 0.218130 0.205686
O O7 0.250000 0.250000 0.000000
O O8 0.074384 0.723096 0.671101
O O9 0.118987 0.716094 0.414618
O O10 0.118914 0.000000 0.561371
O O11 0.009383 0.727772 0.164974
O O12 0.956374 0.000000 0.192857
O O13 0.936329 0.724251 0.064002
O O14 0.098344 0.715660 0.164810
O O15 0.060915 0.000000 0.084465
O O16 0.384519 0.500000 0.719009
#
# Coordination Sequence:
#
# PCOD9180854 Si02
#       6
#     8   8   8   8   8   8
#     4  10  20  35  54  76 103 138 171 211 260 309
#     4  11  24  38  54  77 106 139 175 216 261 310
#     4   9  17  28  46  72 102 132 165 208 256 303
#     4   8  14  26  43  69 103 134 168 209 257 305
#     4   8  15  26  44  71 103 136 167 208 256 302
#     4  10  19  32  51  76 105 135 170 212 258 308
#
# _framework density 21.279837000000001
#
# number of rings (size 3 to 8) (size 9 to 14) (size 15 to 20)
#    0.000    2.667    1.667    1.500    2.333    1.333 
#    0.000    3.333    0.000    0.000    0.000    5.833 
#    0.000    0.000    0.000    0.000    0.000    0.000 
#
# Total GULP energy -133995.196985 kJ/mol
# GULP energy per Si atom -5583.133208 kJ/mol
# Density = 2.123140 g / cm^3
# Si number density = 21.279837 Si / 1000 Ang^3
#
#
#
# Elastic Constant Matrix: (Units=GPa)
#
#
# Indices 1 2 3 4 5 6 
#
# 1 59.9736 -0.7238 53.0882 0.0000 8.0452 0.0000
# 2 -0.7238 61.4106 -2.8756 0.0000 8.9780 0.0000
# 3 53.0882 -2.8756 159.0736 0.0000 0.6094 0.0000
# 4 0.0000 0.0000 0.0000 -3.4423 0.0000 1.2215
# 5 8.0452 8.9780 0.6094 0.0000 46.4236 0.0000
# 6 0.0000 0.0000 0.0000 1.2215 0.0000 9.8376
#
#
#
# Elastic Compliance Matrix: (Units=1/GPa)
#
#
# Indices 1 2 3 4 5 6 
#
# 1 0.024447 0.000526 -0.008133 0.000000 -0.004232 0.000000
# 2 0.000526 0.016785 0.000141 0.000000 -0.003339 0.000000
# 3 -0.008133 0.000141 0.008998 0.000000 0.001264 0.000000
# 4 0.000000 0.000000 0.000000 -0.278245 0.000000 0.034549
# 5 -0.004232 -0.003339 0.001264 0.000000 0.022903 0.000000
# 6 0.000000 0.000000 0.000000 0.034549 0.000000 0.097361
#
#
# Mechanical properties :
#
#
# Convention : Reuss Voigt Hill
#
# Bulk Modulus (GPa) = 28.33061 42.15950 35.24506
# Shear Modulus (GPa) = -61.68922 25.96171 -17.86376
#
# Velocity S-wave (km/s) = -5.39003 3.49666 -2.90050
# Velocity P-wave (km/s) = 5.03928 6.01308 2.31978
#
# Compressibility (1/GPa) = 0.03529750
#
# Stress axis : x y z
#
# Youngs Moduli (GPa) = 40.90400 59.57775 111.13043
#
# Poissons Ratio (x) = -0.03133 0.90385
# Poissons Ratio (y) = -0.02151 -0.01563
# Poissons Ratio (z) = 0.33268 -0.00838
#
# Static dielectric constant tensor:
#      x y z
#    x 1.721710 0.000000 0.031210 
#    y 0.000000 1.820990 0.000000 
#    z 0.031210 0.000000 1.741020 
# 
# From -- ./inp_files/108583.got.cif
#   From: 2010.05.17/outbox.cif.g08.bks.cpg/sg12_55_cif.got.tgz:108583.got - 2010.06.03 13:09:07.
