data_PCOD9180960
_publ_section_title
;
Structure prediction by ZEFSAII (Michael W. Deem and Ramdas Pophale) SiO2 
 PCOD9180960
Probable space group: C 2/M
;
_chemical_formula_sum "Si O2"
_cell_formula_units_Z 56
_cell_length_a 28.172773
_cell_length_b 9.716164
_cell_length_c 10.704199
_cell_angle_alpha 90.000000
_cell_angle_beta 79.929693
_cell_angle_gamma 90.000000
_cell_volume 2884.933196
_symmetry_space_group_name_H-M "C 2/M"
_symmetry_group_IT_number 12
_symmetry_cell_setting 'monoclinic'
loop_
_space_group_symop_operation_xyz
x,y,z
-x,y,-z
-x,-y,-z
x,-y,z
1/2+x,1/2+y,z
1/2-x,1/2+y,-z
1/2-x,1/2-y,-z
1/2+x,1/2-y,z
loop_
_atom_site_type_symbol
_atom_site_label
_atom_site_fract_x
_atom_site_fract_y
_atom_site_fract_z
Si Si1 0.556784 0.847797 0.498056
Si Si2 0.048629 0.840075 0.724639
Si Si3 0.200323 0.166448 0.513716
Si Si4 0.849436 0.661533 0.682967
Si Si5 0.528678 0.154939 0.117944
Si Si6 0.857384 0.662932 0.960158
Si Si7 0.351513 0.659616 0.196110
O O1 0.500000 0.841345 0.500000
O O2 0.568002 0.729507 0.590504
O O3 0.592493 0.834248 0.364763
O O4 0.567125 0.000000 0.547970
O O5 0.091167 0.823437 0.805754
O O6 0.000290 0.762360 0.785589
O O7 0.039668 0.000000 0.710451
O O8 0.250000 0.250000 0.500000
O O9 0.172879 0.237967 0.410017
O O10 0.173655 0.188420 0.659331
O O11 0.205216 0.000000 0.494901
O O12 0.835304 0.500000 0.669223
O O13 0.837992 0.699318 0.831103
O O14 0.524863 0.000000 0.173455
O O15 0.500000 0.154166 0.000000
O O16 0.584707 0.185727 0.072009
O O17 0.850143 0.500000 0.981733
O O18 0.837009 0.746125 0.086722
O O19 0.342342 0.500000 0.170239
#
# Coordination Sequence:
#
# PCOD9180960 Si02
#       7
#     8   8   8   8   8   8   8
#     4  10  20  35  56  81 117 162 207 250 294 349
#     4  11  21  33  51  79 116 156 202 251 298 351
#     4  11  24  45  70  95 121 152 198 253 312 375
#     4  10  21  38  61  91 125 160 202 253 307 361
#     4  10  19  32  51  78 116 164 213 254 289 340
#     4  10  21  37  59  88 123 163 208 251 295 354
#     4  10  22  39  59  86 121 154 192 245 302 360
#
# _framework density 19.411196
#
# number of rings (size 3 to 8) (size 9 to 14) (size 15 to 20)
#    0.000    1.714    2.857    1.714    0.000    5.714 
#    0.000    2.143    0.000    0.000    0.000    0.000 
#    0.000    0.000    0.000    0.000    0.000    0.000 
#
# Total GULP energy -156252.493641 kJ/mol
# GULP energy per Si atom -5580.446201 kJ/mol
# Density = 1.936702 g / cm^3
# Si number density = 19.411196 Si / 1000 Ang^3
#
#
#
# Elastic Constant Matrix: (Units=GPa)
#
#
# Indices 1 2 3 4 5 6 
#
# 1 63.7993 43.9390 32.8888 0.0000 4.5853 0.0000
# 2 43.9390 113.9477 93.5915 0.0000 6.8439 0.0000
# 3 32.8888 93.5915 133.6758 0.0000 22.8865 0.0000
# 4 0.0000 0.0000 0.0000 30.0439 0.0000 4.7723
# 5 4.5853 6.8439 22.8865 0.0000 18.8093 0.0000
# 6 0.0000 0.0000 0.0000 4.7723 0.0000 19.3349
#
#
#
# Elastic Compliance Matrix: (Units=1/GPa)
#
#
# Indices 1 2 3 4 5 6 
#
# 1 0.021726 -0.010297 0.002690 0.000000 -0.004823 0.000000
# 2 -0.010297 0.028266 -0.020116 0.000000 0.016702 0.000000
# 3 0.002690 -0.020116 0.024962 0.000000 -0.023710 0.000000
# 4 0.000000 0.000000 0.000000 0.034643 0.000000 -0.008551
# 5 -0.004823 0.016702 -0.023710 0.000000 0.077113 0.000000
# 6 0.000000 0.000000 0.000000 -0.008551 0.000000 0.053830
#
#
# Mechanical properties :
#
#
# Convention : Reuss Voigt Hill
#
# Bulk Modulus (GPa) = 51.26333 72.47349 61.86841
# Shear Modulus (GPa) = 16.52946 23.03786 19.78366
#
# Velocity S-wave (km/s) = 2.92129 3.44878 3.19594
# Velocity P-wave (km/s) = 6.15183 7.29903 6.74985
#
# Compressibility (1/GPa) = 0.01950712
#
# Stress axis : x y z
#
# Youngs Moduli (GPa) = 46.02786 35.37806 40.06024
#
# Poissons Ratio (x) = 0.36430 -0.10776
# Poissons Ratio (y) = 0.47397 0.80586
# Poissons Ratio (z) = -0.12381 0.71167
#
# Static dielectric constant tensor:
#      x y z
#    x 1.696570 0.000000 0.010160 
#    y 0.000000 1.653410 0.000000 
#    z 0.010160 0.000000 1.700010 
# 
# From -- ./inp_files/186409.got.cif
#   From: 2010.05.17/outbox.cif.g08.bks.cpg/sg12_94_cif.got.tgz:186409.got - 2010.06.03 13:09:07.
