data_PCOD9180259
_publ_section_title
;
Structure prediction by ZEFSAII (Michael W. Deem and Ramdas Pophale) SiO2 
 PCOD9180259
Probable space group: C 2/M
;
_chemical_formula_sum "Si O2"
_cell_formula_units_Z 56
_cell_length_a 20.013041
_cell_length_b 16.194394
_cell_length_c 14.227417
_cell_angle_alpha 90.000000
_cell_angle_beta 35.641671
_cell_angle_gamma 90.000000
_cell_volume 2686.949069
_symmetry_space_group_name_H-M "C 2/M"
_symmetry_group_IT_number 12
_symmetry_cell_setting 'monoclinic'
loop_
_space_group_symop_operation_xyz
x,y,z
-x,y,-z
-x,-y,-z
x,-y,z
1/2+x,1/2+y,z
1/2-x,1/2+y,-z
1/2-x,1/2-y,-z
1/2+x,1/2-y,z
loop_
_atom_site_type_symbol
_atom_site_label
_atom_site_fract_x
_atom_site_fract_y
_atom_site_fract_z
Si Si1 0.544144 0.401543 0.594462
Si Si2 0.114190 0.595950 0.304315
Si Si3 0.246377 0.599120 0.332673
Si Si4 0.174341 0.899255 0.253948
Si Si5 0.574803 0.906851 0.997348
Si Si6 0.365052 0.300441 0.342696
Si Si7 0.019274 0.647755 0.712587
O O1 0.541392 0.500000 0.599343
O O2 0.613941 0.376982 0.421380
O O3 0.413346 0.371567 0.727202
O O4 0.610278 0.370161 0.608873
O O5 0.131854 0.500000 0.256411
O O6 0.214666 0.620778 0.261135
O O7 0.082750 0.645725 0.246952
O O8 0.000000 0.598062 0.500000
O O9 0.266452 0.500000 0.314580
O O10 0.344920 0.655087 0.266448
O O11 0.132821 0.619819 0.525439
O O12 0.303573 0.867950 0.113231
O O13 0.177792 0.000000 0.242806
O O14 0.602256 0.000000 0.931176
O O15 0.500000 0.866784 0.000000
O O16 0.504247 0.911689 0.173692
O O17 0.250000 0.250000 0.500000
O O18 0.462743 0.234024 0.254218
#
# Coordination Sequence:
#
# PCOD9180259 Si02
#       7
#     8   8   8   8   8   8   8
#     4   9  17  35  57  76 104 141 181 230 262 311
#     4   8  14  28  49  70  95 134 178 218 263 310
#     4   9  17  31  52  75 103 139 183 230 268 309
#     4   8  17  33  54  80 102 133 186 220 260 319
#     4  10  20  32  52  81 111 147 181 215 268 333
#     4  10  21  31  45  79 108 138 178 217 278 329
#     4  10  19  32  46  76 116 137 167 221 280 334
#
# _framework density 20.841481999999999
#
# number of rings (size 3 to 8) (size 9 to 14) (size 15 to 20)
#    0.000    2.857    0.000    3.429    4.000    0.000 
#   12.857    0.714    0.000    0.000    0.000    0.000 
#    0.000    6.857    0.000    0.000    0.000    0.000 
#
# Total GULP energy -155896.099568 kJ/mol
# GULP energy per Si atom -5567.717842 kJ/mol
# Density = 2.079405 g / cm^3
# Si number density = 20.841482 Si / 1000 Ang^3
#
#
#
# Elastic Constant Matrix: (Units=GPa)
#
#
# Indices 1 2 3 4 5 6 
#
# 1 202.9171 54.5648 22.8554 0.0000 -6.5338 0.0000
# 2 54.5648 50.3415 0.4132 0.0000 -0.3570 0.0000
# 3 22.8554 0.4132 24.5638 0.0000 -6.6568 0.0000
# 4 0.0000 0.0000 0.0000 -64.8927 0.0000 -42.1539
# 5 -6.5338 -0.3570 -6.6568 0.0000 16.6740 0.0000
# 6 0.0000 0.0000 0.0000 -42.1539 0.0000 3.9548
#
#
#
# Elastic Compliance Matrix: (Units=1/GPa)
#
#
# Indices 1 2 3 4 5 6 
#
# 1 0.008108 -0.008728 -0.007386 0.000000 0.000042 0.000000
# 2 -0.008728 0.029263 0.007705 0.000000 0.000283 0.000000
# 3 -0.007386 0.007705 0.052381 0.000000 0.018183 0.000000
# 4 0.000000 0.000000 0.000000 -0.001945 0.000000 -0.020729
# 5 0.000042 0.000283 0.018183 0.000000 0.067255 0.000000
# 6 0.000000 0.000000 0.000000 -0.020729 0.000000 0.031910
#
#
# Mechanical properties :
#
#
# Convention : Reuss Voigt Hill
#
# Bulk Modulus (GPa) = 13.71103 48.16549 30.93826
# Shear Modulus (GPa) = 21.92005 4.47982 13.19994
#
# Velocity S-wave (km/s) = 3.24659 1.46770 2.51937
# Velocity P-wave (km/s) = 4.54387 5.10223 4.83113
#
# Compressibility (1/GPa) = 0.07293396
#
# Stress axis : x y z
#
# Youngs Moduli (GPa) = 123.33096 34.17307 19.09098
#
# Poissons Ratio (x) = 0.29825 0.14101
# Poissons Ratio (y) = 1.07638 -0.14709
# Poissons Ratio (z) = 0.91096 -0.26330
#
# Static dielectric constant tensor:
#      x y z
#    x 1.782160 0.000000 -0.041590 
#    y 0.000000 1.825680 0.000000 
#    z -0.041590 0.000000 1.742510 
# 
# From -- ./inp_files/226523.got.cif
#   From: 2010.05.17/outbox.cif.g08.bks.cpg/sg12_114_cif.got.tgz:226523.got - 2010.06.03 13:09:07.
