data_PCOD9180827
_publ_section_title
;
Structure prediction by ZEFSAII (Michael W. Deem and Ramdas Pophale) SiO2 
 PCOD9180827
Probable space group: C 2/M
;
_chemical_formula_sum "Si O2"
_cell_formula_units_Z 40
_cell_length_a 29.612890
_cell_length_b 7.991331
_cell_length_c 7.038914
_cell_angle_alpha 90.000000
_cell_angle_beta 84.353537
_cell_angle_gamma 90.000000
_cell_volume 1657.651459
_symmetry_space_group_name_H-M "C 2/M"
_symmetry_group_IT_number 12
_symmetry_cell_setting 'monoclinic'
loop_
_space_group_symop_operation_xyz
x,y,z
-x,y,-z
-x,-y,-z
x,-y,z
1/2+x,1/2+y,z
1/2-x,1/2+y,-z
1/2-x,1/2-y,-z
1/2+x,1/2-y,z
loop_
_atom_site_type_symbol
_atom_site_label
_atom_site_fract_x
_atom_site_fract_y
_atom_site_fract_z
Si Si1 0.411338 0.320714 0.694482
Si Si2 0.687519 0.194575 0.343893
Si Si3 0.881609 0.813670 0.133634
Si Si4 0.434422 0.000000 0.193063
Si Si5 0.783688 0.798052 0.249082
Si Si6 0.963271 0.500000 0.733310
O O1 0.428237 0.500000 0.617471
O O2 0.359181 0.292073 0.657651
O O3 0.442998 0.163826 0.642796
O O4 0.407919 0.326775 0.925297
O O5 0.732947 0.258904 0.216745
O O6 0.702831 0.213284 0.556750
O O7 0.678811 0.000000 0.299663
O O8 0.904814 0.666167 0.241822
O O9 0.829167 0.768070 0.109852
O O10 0.881672 0.000000 0.221727
O O11 0.482865 0.000000 0.272212
O O12 0.445085 0.000000 0.960491
O O13 0.779666 0.000000 0.275405
#
# Coordination Sequence:
#
# PCOD9180827 Si02
#       6
#     8   8   8   4   8   4
#     4  10  19  33  53  76 105 137 169 212 260 303
#     4  10  19  32  51  75 104 139 176 211 252 306
#     4   9  19  34  52  77 105 134 171 212 258 307
#     4   9  18  32  55  77 105 137 169 215 264 305
#     4   9  19  34  50  73 105 138 174 213 253 305
#     4   9  18  34  51  79 107 133 173 215 258 313
#
# _framework density 24.130526
#
# number of rings (size 3 to 8) (size 9 to 14) (size 15 to 20)
#    0.000    2.600    1.000    0.600    1.400    2.400 
#    0.000    4.000    0.000    2.400    0.000    4.200 
#    0.000    0.000    0.000    0.000    0.000    0.000 
#
# Total GULP energy -111750.011840 kJ/mol
# GULP energy per Si atom -5587.500592 kJ/mol
# Density = 2.407560 g / cm^3
# Si number density = 24.130526 Si / 1000 Ang^3
#
#
#
# Elastic Constant Matrix: (Units=GPa)
#
#
# Indices 1 2 3 4 5 6 
#
# 1 159.4804 109.5354 6.6352 0.0000 26.3885 0.0000
# 2 109.5354 170.8722 1.6637 0.0000 19.9159 0.0000
# 3 6.6352 1.6637 48.1817 0.0000 -0.4426 0.0000
# 4 0.0000 0.0000 0.0000 3.3884 0.0000 6.0111
# 5 26.3885 19.9159 -0.4426 0.0000 38.8936 0.0000
# 6 0.0000 0.0000 0.0000 6.0111 0.0000 23.2470
#
#
#
# Elastic Compliance Matrix: (Units=1/GPa)
#
#
# Indices 1 2 3 4 5 6 
#
# 1 0.011977 -0.007141 -0.001444 0.000000 -0.004486 0.000000
# 2 -0.007141 0.010484 0.000617 0.000000 -0.000516 0.000000
# 3 -0.001444 0.000617 0.020941 0.000000 0.000902 0.000000
# 4 0.000000 0.000000 0.000000 0.545250 0.000000 -0.140989
# 5 -0.004486 -0.000516 0.000902 0.000000 0.029030 0.000000
# 6 0.000000 0.000000 0.000000 -0.140989 0.000000 0.079473
#
#
# Mechanical properties :
#
#
# Convention : Reuss Voigt Hill
#
# Bulk Modulus (GPa) = 36.40950 68.24475 52.32713
# Shear Modulus (GPa) = 6.92284 30.48579 18.70432
#
# Velocity S-wave (km/s) = 1.69562 3.55825 2.78714
# Velocity P-wave (km/s) = 4.35372 6.72491 5.66477
#
# Compressibility (1/GPa) = 0.02746536
#
# Stress axis : x y z
#
# Youngs Moduli (GPa) = 83.49065 95.38193 47.75402
#
# Poissons Ratio (x) = 0.68112 0.06896
# Poissons Ratio (y) = 0.59621 -0.02945
# Poissons Ratio (z) = 0.12057 -0.05882
#
# Static dielectric constant tensor:
#      x y z
#    x 1.879050 0.000000 -0.029090 
#    y 0.000000 1.900050 0.000000 
#    z -0.029090 0.000000 2.002990 
# 
# From -- ./inp_files/92870.got.cif
#   From: 2010.05.17/outbox.cif.g08.bks.cpg/sg12_47_cif.got.tgz:92870.got - 2010.06.03 13:09:07.
