data_PCOD9180799
_publ_section_title
;
Structure prediction by ZEFSAII (Michael W. Deem and Ramdas Pophale) SiO2 
 PCOD9180799
Probable space group: C 2/M
;
_chemical_formula_sum "Si O2"
_cell_formula_units_Z 56
_cell_length_a 19.092442
_cell_length_b 21.620429
_cell_length_c 7.952329
_cell_angle_alpha 90.000000
_cell_angle_beta 74.355145
_cell_angle_gamma 90.000000
_cell_volume 3161.001121
_symmetry_space_group_name_H-M "C 2/M"
_symmetry_group_IT_number 12
_symmetry_cell_setting 'monoclinic'
loop_
_space_group_symop_operation_xyz
x,y,z
-x,y,-z
-x,-y,-z
x,-y,z
1/2+x,1/2+y,z
1/2-x,1/2+y,-z
1/2-x,1/2-y,-z
1/2+x,1/2-y,z
loop_
_atom_site_type_symbol
_atom_site_label
_atom_site_fract_x
_atom_site_fract_y
_atom_site_fract_z
Si Si1 0.397219 0.932019 0.064823
Si Si2 0.732778 0.430924 0.020227
Si Si3 0.441495 0.094717 0.678008
Si Si4 0.162534 0.332229 0.659326
Si Si5 0.716553 0.295869 0.161629
Si Si6 0.579328 0.767035 0.418273
Si Si7 0.213570 0.567219 0.378138
O O1 0.315717 0.931369 0.036740
O O2 0.392185 0.876260 0.199608
O O3 0.407999 0.000000 0.134271
O O4 0.448623 0.924128 0.868051
O O5 0.702901 0.500000 0.080965
O O6 0.703064 0.366451 0.109988
O O7 0.734824 0.425210 0.816295
O O8 0.500000 0.076262 0.500000
O O9 0.435443 0.169074 0.673129
O O10 0.366171 0.068760 0.654409
O O11 0.115751 0.288499 0.569878
O O12 0.280381 0.201822 0.259341
O O13 0.210915 0.378057 0.512297
O O14 0.640928 0.270261 0.281180
O O15 0.750000 0.250000 0.000000
O O16 0.500000 0.737727 0.500000
O O17 0.226270 0.500000 0.449257
#
# Coordination Sequence:
#
# PCOD9180799 Si02
#       7
#     8   8   8   8   8   8   8
#     4   9  16  27  45  70  98 130 172 215 251 297
#     4   8  16  30  49  74 102 129 162 212 267 307
#     4   9  17  30  45  63  95 137 174 209 252 299
#     4  10  19  32  51  75 102 133 173 216 257 307
#     4  11  20  34  57  80 103 135 180 219 254 310
#     4  10  21  36  51  71 103 137 170 217 271 312
#     4   9  16  28  46  70 101 132 163 204 253 302
#
# _framework density 17.715907000000001
#
# number of rings (size 3 to 8) (size 9 to 14) (size 15 to 20)
#    0.000    2.571    0.000    5.571    0.000    1.714 
#    0.000   11.429    0.000   10.286    0.000    0.000 
#    0.000    3.429    0.000    0.000    0.000    0.000 
#
# Total GULP energy -156102.720681 kJ/mol
# GULP energy per Si atom -5575.097167 kJ/mol
# Density = 1.767558 g / cm^3
# Si number density = 17.715907 Si / 1000 Ang^3
#
#
#
# Elastic Constant Matrix: (Units=GPa)
#
#
# Indices 1 2 3 4 5 6 
#
# 1 58.0328 41.2854 40.7372 0.0000 -8.4541 0.0000
# 2 41.2854 99.8739 63.3174 0.0000 -10.6735 0.0000
# 3 40.7372 63.3174 104.9255 0.0000 -9.7747 0.0000
# 4 0.0000 0.0000 0.0000 19.7489 0.0000 -3.3398
# 5 -8.4541 -10.6735 -9.7747 0.0000 28.6099 0.0000
# 6 0.0000 0.0000 0.0000 -3.3398 0.0000 17.9226
#
#
#
# Elastic Compliance Matrix: (Units=1/GPa)
#
#
# Indices 1 2 3 4 5 6 
#
# 1 0.026825 -0.007010 -0.005877 0.000000 0.003304 0.000000
# 2 -0.007010 0.018268 -0.008119 0.000000 0.001970 0.000000
# 3 -0.005877 -0.008119 0.016802 0.000000 0.000975 0.000000
# 4 0.000000 0.000000 0.000000 0.052283 0.000000 0.009743
# 5 0.003304 0.001970 0.000975 0.000000 0.036997 0.000000
# 6 0.000000 0.000000 0.000000 0.009743 0.000000 0.057611
#
#
# Mechanical properties :
#
#
# Convention : Reuss Voigt Hill
#
# Bulk Modulus (GPa) = 50.29070 61.50135 55.89602
# Shear Modulus (GPa) = 19.42301 21.08910 20.25605
#
# Velocity S-wave (km/s) = 3.31472 3.45397 3.38506
# Velocity P-wave (km/s) = 6.56497 7.12020 6.84821
#
# Compressibility (1/GPa) = 0.01988439
#
# Stress axis : x y z
#
# Youngs Moduli (GPa) = 37.27811 54.74070 59.51560
#
# Poissons Ratio (x) = 0.38374 0.34977
# Poissons Ratio (y) = 0.26132 0.48318
# Poissons Ratio (z) = 0.21908 0.44442
#
# Static dielectric constant tensor:
#      x y z
#    x 1.602390 0.000000 0.009430 
#    y 0.000000 1.644090 0.000000 
#    z 0.009430 0.000000 1.654250 
# 
# From -- ./inp_files/106220.got.cif
#   From: 2010.05.17/outbox.cif.g08.bks.cpg/sg12_54_cif.got.tgz:106220.got - 2010.06.03 13:09:07.
