data_PCOD9180682
_publ_section_title
;
Structure prediction by ZEFSAII (Michael W. Deem and Ramdas Pophale) SiO2 
 PCOD9180682
Probable space group: C 2/M
;
_chemical_formula_sum "Si O2"
_cell_formula_units_Z 56
_cell_length_a 15.475038
_cell_length_b 13.307860
_cell_length_c 16.193507
_cell_angle_alpha 90.000000
_cell_angle_beta 52.837498
_cell_angle_gamma 90.000000
_cell_volume 2657.654672
_symmetry_space_group_name_H-M "C 2/M"
_symmetry_group_IT_number 12
_symmetry_cell_setting 'monoclinic'
loop_
_space_group_symop_operation_xyz
x,y,z
-x,y,-z
-x,-y,-z
x,-y,z
1/2+x,1/2+y,z
1/2-x,1/2+y,-z
1/2-x,1/2-y,-z
1/2+x,1/2-y,z
loop_
_atom_site_type_symbol
_atom_site_label
_atom_site_fract_x
_atom_site_fract_y
_atom_site_fract_z
Si Si1 0.636078 0.882513 0.753039
Si Si2 0.010650 0.884691 0.720982
Si Si3 0.103455 0.716731 0.121361
Si Si4 0.260070 0.309624 0.363039
Si Si5 0.129470 0.614330 0.943823
Si Si6 0.658577 0.114734 0.252156
Si Si7 0.958984 0.713914 0.431375
O O1 0.512159 0.843894 0.816058
O O2 0.704995 0.806961 0.658369
O O3 0.642309 0.000000 0.730128
O O4 0.675587 0.868894 0.825601
O O5 0.931564 0.829148 0.832453
O O6 0.133891 0.875584 0.682087
O O7 0.015774 0.811631 0.638382
O O8 0.980841 0.000000 0.722718
O O9 0.153785 0.691502 0.003214
O O10 0.169665 0.670320 0.158948
O O11 0.218793 0.337331 0.295470
O O12 0.164479 0.319394 0.484452
O O13 0.155273 0.500000 0.955732
O O14 0.000000 0.617407 0.000000
O O15 0.531886 0.126838 0.349786
O O16 0.690192 0.000000 0.225622
O O17 0.000000 0.734544 0.500000
#
# Coordination Sequence:
#
# PCOD9180682 Si02
#       7
#     8   8   8   8   8   8   8
#     4   9  17  30  51  76  98 123 156 196 241 280
#     4  10  20  33  49  69  97 130 157 190 240 290
#     4   9  17  31  51  74  96 120 161 204 233 272
#     4  10  20  33  47  71 101 126 157 194 235 286
#     4   8  13  25  49  76  96 118 152 196 241 275
#     4  10  19  32  51  72  95 126 161 197 235 276
#     4   9  20  35  50  71  92 120 164 204 233 273
#
# _framework density 21.071210000000001
#
# number of rings (size 3 to 8) (size 9 to 14) (size 15 to 20)
#    0.000    2.714    0.000    3.000    0.000    4.000 
#    0.000    6.429    0.000   11.571    0.000    0.000 
#    0.000    0.000    0.000    0.000    0.000    0.000 
#
# Total GULP energy -156251.613604 kJ/mol
# GULP energy per Si atom -5580.414772 kJ/mol
# Density = 2.102325 g / cm^3
# Si number density = 21.071210 Si / 1000 Ang^3
#
#
#
# Elastic Constant Matrix: (Units=GPa)
#
#
# Indices 1 2 3 4 5 6 
#
# 1 40.4668 14.9538 28.1692 0.0000 20.3426 0.0000
# 2 14.9538 106.7598 14.7062 0.0000 3.1570 0.0000
# 3 28.1692 14.7062 59.0526 0.0000 15.4109 0.0000
# 4 0.0000 0.0000 0.0000 15.1695 0.0000 7.5431
# 5 20.3426 3.1570 15.4109 0.0000 33.1639 0.0000
# 6 0.0000 0.0000 0.0000 7.5431 0.0000 16.9800
#
#
#
# Elastic Compliance Matrix: (Units=1/GPa)
#
#
# Indices 1 2 3 4 5 6 
#
# 1 0.048593 -0.003885 -0.016535 0.000000 -0.021753 0.000000
# 2 -0.003885 0.010012 -0.001153 0.000000 0.001966 0.000000
# 3 -0.016535 -0.001153 0.025529 0.000000 -0.001611 0.000000
# 4 0.000000 0.000000 0.000000 0.084613 0.000000 -0.037588
# 5 -0.021753 0.001966 -0.001611 0.000000 0.044058 0.000000
# 6 0.000000 0.000000 0.000000 -0.037588 0.000000 0.075591
#
#
# Mechanical properties :
#
#
# Convention : Reuss Voigt Hill
#
# Bulk Modulus (GPa) = 24.39818 35.77083 30.08451
# Shear Modulus (GPa) = 14.48418 22.95936 18.72177
#
# Velocity S-wave (km/s) = 2.62466 3.30450 2.98401
# Velocity P-wave (km/s) = 4.55952 5.61896 5.11673
#
# Compressibility (1/GPa) = 0.04098666
#
# Stress axis : x y z
#
# Youngs Moduli (GPa) = 20.57914 99.88289 39.17094
#
# Poissons Ratio (x) = 0.38808 0.64770
# Poissons Ratio (y) = 0.07996 0.04516
# Poissons Ratio (z) = 0.34028 0.11516
#
# Static dielectric constant tensor:
#      x y z
#    x 1.814540 0.000000 -0.021380 
#    y 0.000000 1.707450 0.000000 
#    z -0.021380 0.000000 1.801920 
# 
# From -- ./inp_files/276375.got.cif
#   From: 2010.05.17/outbox.cif.g08.bks.cpg/sg12_139_cif.got.tgz:276375.got - 2010.06.03 13:09:07.
