data_PCOD9180762
_publ_section_title
;
Structure prediction by ZEFSAII (Michael W. Deem and Ramdas Pophale) SiO2 
 PCOD9180762
Probable space group: C 2/M
;
_chemical_formula_sum "Si O2"
_cell_formula_units_Z 64
_cell_length_a 25.580094
_cell_length_b 8.810635
_cell_length_c 24.570313
_cell_angle_alpha 90.000000
_cell_angle_beta 133.839214
_cell_angle_gamma 90.000000
_cell_volume 3994.181048
_symmetry_space_group_name_H-M "C 2/M"
_symmetry_group_IT_number 12
_symmetry_cell_setting 'monoclinic'
loop_
_space_group_symop_operation_xyz
x,y,z
-x,y,-z
-x,-y,-z
x,-y,z
1/2+x,1/2+y,z
1/2-x,1/2+y,-z
1/2-x,1/2-y,-z
1/2+x,1/2-y,z
loop_
_atom_site_type_symbol
_atom_site_label
_atom_site_fract_x
_atom_site_fract_y
_atom_site_fract_z
Si Si1 0.415994 0.817651 0.656824
Si Si2 0.066555 0.681795 0.818513
Si Si3 0.974690 0.182216 0.094778
Si Si4 0.722369 0.680880 0.922944
Si Si5 0.361580 0.317183 0.817041
Si Si6 0.836338 0.182538 0.921730
Si Si7 0.298422 0.817688 0.664498
Si Si8 0.690320 0.318334 0.498023
O O1 0.497678 0.776708 0.731482
O O2 0.362965 0.772077 0.668910
O O3 0.384701 0.745704 0.579108
O O4 0.410723 0.000000 0.648784
O O5 0.074897 0.500000 0.823692
O O6 0.047582 0.734939 0.865910
O O7 0.141060 0.759937 0.855112
O O8 0.055009 0.228384 0.134166
O O9 0.974813 0.000000 0.104597
O O10 0.914456 0.212688 0.005557
O O11 0.723312 0.500000 0.927704
O O12 0.775645 0.737552 0.914123
O O13 0.750000 0.750000 0.000000
O O14 0.359949 0.500000 0.815062
O O15 0.337450 0.268493 0.859741
O O16 0.313164 0.255074 0.733144
O O17 0.825191 0.000000 0.916018
O O18 0.222383 0.777593 0.580359
O O19 0.301774 0.000000 0.671702
O O20 0.690639 0.500000 0.494045
O O21 0.750000 0.250000 0.500000
#
# Coordination Sequence:
#
# PCOD9180762 Si02
#       8
#     8   8   8   8   8   8   8   8
#     4   9  18  31  47  71 102 132 165 207 251 299
#     4  11  21  34  53  76 103 134 169 210 256 303
#     4  10  19  32  51  74 102 135 170 208 252 299
#     4  12  24  38  55  75  98 130 172 215 259 302
#     4  10  20  32  50  76 103 136 174 208 249 300
#     4  10  21  37  53  72 101 135 173 216 254 296
#     4   9  17  30  45  68 102 136 166 202 247 296
#     4   9  17  28  44  67  98 135 169 203 246 298
#
# _framework density 16.023309000000001
#
# number of rings (size 3 to 8) (size 9 to 14) (size 15 to 20)
#    0.000    2.000    2.500    3.000    0.000    5.500 
#    0.000    0.000    0.000    2.250    0.000    0.875 
#    0.000    7.000    0.000    0.000    0.000    0.000 
#
# Total GULP energy -178507.797719 kJ/mol
# GULP energy per Si atom -5578.368679 kJ/mol
# Density = 1.598684 g / cm^3
# Si number density = 16.023309 Si / 1000 Ang^3
#
#
#
# Elastic Constant Matrix: (Units=GPa)
#
#
# Indices 1 2 3 4 5 6 
#
# 1 79.0243 30.8535 64.8024 0.0000 -13.1660 0.0000
# 2 30.8535 39.8482 53.2394 0.0000 -2.2656 0.0000
# 3 64.8024 53.2394 166.8685 0.0000 -3.7477 0.0000
# 4 0.0000 0.0000 0.0000 27.9824 0.0000 -1.0700
# 5 -13.1660 -2.2656 -3.7477 0.0000 15.2155 0.0000
# 6 0.0000 0.0000 0.0000 -1.0700 0.0000 22.3514
#
#
#
# Elastic Compliance Matrix: (Units=1/GPa)
#
#
# Indices 1 2 3 4 5 6 
#
# 1 0.024415 -0.010018 -0.005877 0.000000 0.018187 0.000000
# 2 -0.010018 0.047997 -0.011521 0.000000 -0.004360 0.000000
# 3 -0.005877 -0.011521 0.011863 0.000000 -0.003878 0.000000
# 4 0.000000 0.000000 0.000000 0.035802 0.000000 0.001714
# 5 0.018187 -0.004360 -0.003878 0.000000 0.079856 0.000000
# 6 0.000000 0.000000 0.000000 0.001714 0.000000 0.044822
#
#
# Mechanical properties :
#
#
# Convention : Reuss Voigt Hill
#
# Bulk Modulus (GPa) = 33.96314 64.83684 49.39999
# Shear Modulus (GPa) = 16.16029 22.23289 19.19659
#
# Velocity S-wave (km/s) = 3.17921 3.72900 3.46503
# Velocity P-wave (km/s) = 5.89225 7.68717 6.84876
#
# Compressibility (1/GPa) = 0.02944368
#
# Stress axis : x y z
#
# Youngs Moduli (GPa) = 40.95858 20.83482 84.29277
#
# Poissons Ratio (x) = 0.20873 0.49535
# Poissons Ratio (y) = 0.41034 0.97111
# Poissons Ratio (z) = 0.24069 0.24003
#
# Static dielectric constant tensor:
#      x y z
#    x 1.508470 0.000000 0.010610 
#    y 0.000000 1.539630 0.000000 
#    z 0.010610 0.000000 1.554940 
# 
# From -- ./inp_files/323669.got.cif
#   From: 2010.05.17/outbox.cif.g08.bks.cpg/sg12_162_cif.got.tgz:323669.got - 2010.06.03 13:09:07.
