data_PCOD9180221
_publ_section_title
;
Structure prediction by ZEFSAII (Michael W. Deem and Ramdas Pophale) SiO2 
 PCOD9180221
Probable space group: C 2/M
;
_chemical_formula_sum "Si O2"
_cell_formula_units_Z 56
_cell_length_a 14.979942
_cell_length_b 16.821173
_cell_length_c 12.045132
_cell_angle_alpha 90.000000
_cell_angle_beta 52.909116
_cell_angle_gamma 90.000000
_cell_volume 2421.065936
_symmetry_space_group_name_H-M "C 2/M"
_symmetry_group_IT_number 12
_symmetry_cell_setting 'monoclinic'
loop_
_space_group_symop_operation_xyz
x,y,z
-x,y,-z
-x,-y,-z
x,-y,z
1/2+x,1/2+y,z
1/2-x,1/2+y,-z
1/2-x,1/2-y,-z
1/2+x,1/2-y,z
loop_
_atom_site_type_symbol
_atom_site_label
_atom_site_fract_x
_atom_site_fract_y
_atom_site_fract_z
Si Si1 0.481869 0.910127 0.671741
Si Si2 0.383458 0.243021 0.405116
Si Si3 0.891641 0.730111 0.141861
Si Si4 0.863793 0.909933 0.952737
Si Si5 0.352737 0.906969 0.001722
Si Si6 0.409005 0.409376 0.342365
Si Si7 0.254471 0.624245 0.258239
O O1 0.562146 0.835485 0.582411
O O2 0.367888 0.902826 0.685638
O O3 0.528328 0.000000 0.622149
O O4 0.437871 0.904560 0.832922
O O5 0.250000 0.250000 0.500000
O O6 0.418437 0.230332 0.250945
O O7 0.415701 0.332787 0.418065
O O8 0.878051 0.647011 0.089028
O O9 0.777857 0.781805 0.223131
O O10 0.000000 0.767608 0.000000
O O11 0.761662 0.869062 0.964467
O O12 0.986386 0.893702 0.817735
O O13 0.844506 0.000000 0.932412
O O14 0.839404 0.908344 0.100883
O O15 0.348681 0.000000 0.038262
O O16 0.413935 0.500000 0.382490
O O17 0.300454 0.401565 0.343610
#
# Coordination Sequence:
#
# PCOD9180221 Si02
#       7
#     8   8   8   8   8   8   8
#     4  10  21  38  62  91 124 161 201 251 308 362
#     4  11  25  42  59  86 120 157 205 251 309 367
#     4  11  21  36  58  90 120 160 203 249 305 356
#     4   9  17  29  52  87 121 152 187 241 301 353
#     4   9  19  33  55  91 126 159 203 250 304 363
#     4  10  20  36  58  83 118 160 202 245 298 363
#     4  10  19  31  57  90 124 154 195 246 302 362
#
# _framework density 23.130309
#
# number of rings (size 3 to 8) (size 9 to 14) (size 15 to 20)
#    0.000    2.000    1.429    4.286    2.000    3.714 
#    0.000    2.857    0.000    4.286    0.000    3.000 
#    0.000    0.000    0.000    0.000    0.000    0.000 
#
# Total GULP energy -156017.870483 kJ/mol
# GULP energy per Si atom -5572.066803 kJ/mol
# Density = 2.307766 g / cm^3
# Si number density = 23.130309 Si / 1000 Ang^3
#
#
#
# Elastic Constant Matrix: (Units=GPa)
#
#
# Indices 1 2 3 4 5 6 
#
# 1 33.1154 42.0168 -3.8874 0.0000 -14.0618 0.0000
# 2 42.0168 200.0211 25.1376 0.0000 -12.2495 0.0000
# 3 -3.8874 25.1376 41.3039 0.0000 -3.2496 0.0000
# 4 0.0000 0.0000 0.0000 22.0759 0.0000 -5.6953
# 5 -14.0618 -12.2495 -3.2496 0.0000 33.0547 0.0000
# 6 0.0000 0.0000 0.0000 -5.6953 0.0000 32.3027
#
#
#
# Elastic Compliance Matrix: (Units=1/GPa)
#
#
# Indices 1 2 3 4 5 6 
#
# 1 0.056522 -0.012420 0.014521 0.000000 0.020870 0.000000
# 2 -0.012420 0.008239 -0.006408 0.000000 -0.002860 0.000000
# 3 0.014521 -0.006408 0.030009 0.000000 0.006753 0.000000
# 4 0.000000 0.000000 0.000000 0.047457 0.000000 0.008367
# 5 0.020870 -0.002860 0.006753 0.000000 0.038735 0.000000
# 6 0.000000 0.000000 0.000000 0.008367 0.000000 0.032432
#
#
# Mechanical properties :
#
#
# Convention : Reuss Voigt Hill
#
# Bulk Modulus (GPa) = 11.60701 44.55273 28.07987
# Shear Modulus (GPa) = 19.94200 31.56488 25.75344
#
# Velocity S-wave (km/s) = 2.93944 3.69813 3.34039
# Velocity P-wave (km/s) = 4.06809 6.12685 5.20037
#
# Compressibility (1/GPa) = 0.08615482
#
# Stress axis : x y z
#
# Youngs Moduli (GPa) = 17.69208 121.38001 33.32374
#
# Poissons Ratio (x) = 1.50754 -0.48388
# Poissons Ratio (y) = 0.21974 0.21354
# Poissons Ratio (z) = -0.25690 0.77780
#
# Static dielectric constant tensor:
#      x y z
#    x 1.937530 0.000000 -0.081410 
#    y 0.000000 1.981950 0.000000 
#    z -0.081410 0.000000 1.917120 
# 
# From -- ./inp_files/216294.got.cif
#   From: 2010.05.17/outbox.cif.g08.bks.cpg/sg12_109_cif.got.tgz:216294.got - 2010.06.03 13:09:07.
