data_PCOD9180790
_publ_section_title
;
Structure prediction by ZEFSAII (Michael W. Deem and Ramdas Pophale) SiO2 
 PCOD9180790
Probable space group: C 2/M
;
_chemical_formula_sum "Si O2"
_cell_formula_units_Z 64
_cell_length_a 24.103438
_cell_length_b 8.798135
_cell_length_c 17.075070
_cell_angle_alpha 90.000000
_cell_angle_beta 83.673025
_cell_angle_gamma 90.000000
_cell_volume 3598.974834
_symmetry_space_group_name_H-M "C 2/M"
_symmetry_group_IT_number 12
_symmetry_cell_setting 'monoclinic'
loop_
_space_group_symop_operation_xyz
x,y,z
-x,y,-z
-x,-y,-z
x,-y,z
1/2+x,1/2+y,z
1/2-x,1/2+y,-z
1/2-x,1/2-y,-z
1/2+x,1/2-y,z
loop_
_atom_site_type_symbol
_atom_site_label
_atom_site_fract_x
_atom_site_fract_y
_atom_site_fract_z
Si Si1 0.553799 0.680591 0.737738
Si Si2 0.561975 0.818389 0.282220
Si Si3 0.686308 0.182076 0.235371
Si Si4 0.772401 0.675138 0.330552
Si Si5 0.641754 0.176239 0.830564
Si Si6 0.438187 0.678607 0.546944
Si Si7 0.127087 0.316134 0.584803
Si Si8 0.732974 0.682614 0.919546
O O1 0.557281 0.500000 0.727377
O O2 0.490344 0.735888 0.748743
O O3 0.587914 0.734491 0.808459
O O4 0.584109 0.759379 0.658498
O O5 0.622328 0.768763 0.240990
O O6 0.562055 0.772580 0.373310
O O7 0.555959 0.000000 0.274857
O O8 0.718074 0.239029 0.308296
O O9 0.721551 0.228951 0.153615
O O10 0.686979 0.000000 0.237987
O O11 0.757782 0.500000 0.347275
O O12 0.815318 0.680765 0.250030
O O13 0.810732 0.731390 0.396392
O O14 0.674373 0.252448 0.897010
O O15 0.629082 0.000000 0.847957
O O16 0.500000 0.691834 0.500000
O O17 0.428029 0.500000 0.563804
O O18 0.393605 0.744201 0.492516
O O19 0.125581 0.500000 0.582480
O O20 0.730994 0.500000 0.922855
O O21 0.750000 0.750000 0.000000
#
# Coordination Sequence:
#
# PCOD9180790 Si02
#       8
#     8   8   8   8   8   8   8   8
#     4  11  20  31  49  76 105 136 174 218 263 306
#     4  11  22  36  53  73 101 140 179 215 260 312
#     4   9  20  36  54  77 105 137 174 211 252 307
#     4   8  16  30  50  74  99 129 169 213 258 306
#     4   9  17  31  51  78 107 137 173 213 255 303
#     4  11  22  34  49  74 103 132 175 225 270 310
#     4  10  19  32  51  74  99 133 175 220 266 312
#     4  10  19  34  57  86 114 139 169 210 256 305
#
# _framework density 17.782841000000001
#
# number of rings (size 3 to 8) (size 9 to 14) (size 15 to 20)
#    0.000    2.125    1.250    3.750    0.000    5.500 
#    0.000    0.625    0.000    0.750    0.000    5.250 
#    0.000    0.000    0.000    0.000    0.000    0.000 
#
# Total GULP energy -178551.401514 kJ/mol
# GULP energy per Si atom -5579.731297 kJ/mol
# Density = 1.774237 g / cm^3
# Si number density = 17.782841 Si / 1000 Ang^3
#
#
#
# Elastic Constant Matrix: (Units=GPa)
#
#
# Indices 1 2 3 4 5 6 
#
# 1 108.4925 22.4870 31.3935 0.0000 25.2787 0.0000
# 2 22.4870 49.2907 11.4594 0.0000 9.1647 0.0000
# 3 31.3935 11.4594 53.0533 0.0000 29.1850 0.0000
# 4 0.0000 0.0000 0.0000 20.9793 0.0000 11.2431
# 5 25.2787 9.1647 29.1850 0.0000 30.4975 0.0000
# 6 0.0000 0.0000 0.0000 11.2431 0.0000 28.4394
#
#
#
# Elastic Compliance Matrix: (Units=1/GPa)
#
#
# Indices 1 2 3 4 5 6 
#
# 1 0.012321 -0.003761 -0.003130 0.000000 -0.006087 0.000000
# 2 -0.003761 0.022771 -0.001359 0.000000 -0.002425 0.000000
# 3 -0.003130 -0.001359 0.040845 0.000000 -0.036085 0.000000
# 4 0.000000 0.000000 0.000000 0.060480 0.000000 -0.023910
# 5 -0.006087 -0.002425 -0.036085 0.000000 0.073096 0.000000
# 6 0.000000 0.000000 0.000000 -0.023910 0.000000 0.044615
#
#
# Mechanical properties :
#
#
# Convention : Reuss Voigt Hill
#
# Bulk Modulus (GPa) = 16.82469 37.94624 27.38547
# Shear Modulus (GPa) = 17.21536 25.68301 21.44918
#
# Velocity S-wave (km/s) = 3.11479 3.80446 3.47677
# Velocity P-wave (km/s) = 4.73472 6.37837 5.61699
#
# Compressibility (1/GPa) = 0.05943644
#
# Stress axis : x y z
#
# Youngs Moduli (GPa) = 81.16404 43.91642 24.48288
#
# Poissons Ratio (x) = 0.16519 0.07662
# Poissons Ratio (y) = 0.30530 0.03327
# Poissons Ratio (z) = 0.25400 0.05967
#
# Static dielectric constant tensor:
#      x y z
#    x 1.628070 0.000000 0.000700 
#    y 0.000000 1.595720 0.000000 
#    z 0.000700 0.000000 1.593140 
# 
# From -- ./inp_files/281223.got.cif
#   From: 2010.05.17/outbox.cif.g08.bks.cpg/sg12_141_cif.got.tgz:281223.got - 2010.06.03 13:09:07.
