data_PCOD9180497
_publ_section_title
;
Structure prediction by ZEFSAII (Michael W. Deem and Ramdas Pophale) SiO2 
 PCOD9180497
Probable space group: C 2/M
;
_chemical_formula_sum "Si O2"
_cell_formula_units_Z 64
_cell_length_a 15.046251
_cell_length_b 7.485980
_cell_length_c 27.259058
_cell_angle_alpha 90.000000
_cell_angle_beta 103.291356
_cell_angle_gamma 90.000000
_cell_volume 2988.105754
_symmetry_space_group_name_H-M "C 2/M"
_symmetry_group_IT_number 12
_symmetry_cell_setting 'monoclinic'
loop_
_space_group_symop_operation_xyz
x,y,z
-x,y,-z
-x,-y,-z
x,-y,z
1/2+x,1/2+y,z
1/2-x,1/2+y,-z
1/2-x,1/2-y,-z
1/2+x,1/2-y,z
loop_
_atom_site_type_symbol
_atom_site_label
_atom_site_fract_x
_atom_site_fract_y
_atom_site_fract_z
Si Si1 0.832247 0.216784 0.710760
Si Si2 0.780266 0.287537 0.558924
Si Si3 0.154008 0.790424 0.630638
Si Si4 0.614887 0.284273 0.880030
Si Si5 0.577256 0.281235 0.177282
Si Si6 0.457348 0.292449 0.637411
Si Si7 0.816238 0.791319 0.903078
Si Si8 0.401326 0.715851 0.010442
O O1 0.730627 0.274091 0.682598
O O2 0.866479 0.276370 0.768239
O O3 0.903950 0.281547 0.678258
O O4 0.832093 0.000000 0.709650
O O5 0.785881 0.500000 0.566500
O O6 0.750000 0.250000 0.500000
O O7 0.705839 0.216362 0.588914
O O8 0.880640 0.216267 0.585285
O O9 0.055237 0.715126 0.633637
O O10 0.138352 0.000000 0.618285
O O11 0.613836 0.500000 0.881008
O O12 0.528409 0.227431 0.837231
O O13 0.712625 0.225759 0.873523
O O14 0.607069 0.217298 0.935309
O O15 0.580357 0.500000 0.177519
O O16 0.619939 0.217267 0.131388
O O17 0.474993 0.500000 0.651636
O O18 0.840900 0.000000 0.910139
O O19 0.830575 0.718366 0.959984
O O20 0.394567 0.500000 0.013680
O O21 0.500000 0.756659 0.000000
#
# Coordination Sequence:
#
# PCOD9180497 Si02
#       8
#     8   8   8   8   8   8   8   8
#     4   9  18  33  53  74  96 126 168 212 247 289
#     4  10  20  34  52  77 109 140 171 206 246 291
#     4   9  19  35  54  76 103 136 169 205 253 299
#     4  10  19  32  51  73  96 125 165 204 243 297
#     4   9  18  33  51  71  97 130 164 199 245 304
#     4   9  18  34  54  74  99 133 171 208 248 294
#     4  10  19  32  50  71  97 127 161 200 246 298
#     4   9  15  28  51  71  90 127 167 196 236 299
#
# _framework density 21.41825
#
# number of rings (size 3 to 8) (size 9 to 14) (size 15 to 20)
#    0.000    2.625    1.250    0.750    0.000    2.500 
#    0.000    5.625    0.000    0.750    0.000    0.000 
#    0.000    0.000    0.000    0.000    0.000    0.000 
#
# Total GULP energy -178550.873716 kJ/mol
# GULP energy per Si atom -5579.714804 kJ/mol
# Density = 2.136950 g / cm^3
# Si number density = 21.418250 Si / 1000 Ang^3
#
#
#
# Elastic Constant Matrix: (Units=GPa)
#
#
# Indices 1 2 3 4 5 6 
#
# 1 131.7095 -5.6943 24.1931 0.0000 13.5429 0.0000
# 2 -5.6943 57.4074 -7.7133 0.0000 -7.1886 0.0000
# 3 24.1931 -7.7133 90.3245 0.0000 19.6001 0.0000
# 4 0.0000 0.0000 0.0000 3.6253 0.0000 5.1786
# 5 13.5429 -7.1886 19.6001 0.0000 15.0709 0.0000
# 6 0.0000 0.0000 0.0000 5.1786 0.0000 8.5724
#
#
#
# Elastic Compliance Matrix: (Units=1/GPa)
#
#
# Indices 1 2 3 4 5 6 
#
# 1 0.008413 -0.000094 -0.000851 0.000000 -0.006497 0.000000
# 2 -0.000094 0.018541 -0.000458 0.000000 0.009524 0.000000
# 3 -0.000851 -0.000458 0.015522 0.000000 -0.019640 0.000000
# 4 0.000000 0.000000 0.000000 2.012504 0.000000 -1.215764
# 5 -0.006497 0.009524 -0.019640 0.000000 0.102277 0.000000
# 6 0.000000 0.000000 0.000000 -1.215764 0.000000 0.851102
#
#
# Mechanical properties :
#
#
# Convention : Reuss Voigt Hill
#
# Bulk Modulus (GPa) = 25.20828 33.44581 29.32704
# Shear Modulus (GPa) = 1.65323 23.36411 12.50867
#
# Velocity S-wave (km/s) = 0.87952 3.30639 2.41927
# Velocity P-wave (km/s) = 3.58141 5.49779 4.63962
#
# Compressibility (1/GPa) = 0.03966951
#
# Stress axis : x y z
#
# Youngs Moduli (GPa) = 118.86505 53.93422 64.42464
#
# Poissons Ratio (x) = 0.00504 0.05486
# Poissons Ratio (y) = 0.01111 0.02952
# Poissons Ratio (z) = 0.10121 0.02472
#
# Static dielectric constant tensor:
#      x y z
#    x 1.769120 0.000000 -0.009240 
#    y 0.000000 1.821360 0.000000 
#    z -0.009240 0.000000 1.759830 
# 
# From -- ./inp_files/359860.got.cif
#   From: 2010.05.17/outbox.cif.g08.bks.cpg/sg12_180_cif.got.tgz:359860.got - 2010.06.03 13:09:07.
