data_PCOD9180195
_publ_section_title
;
Structure prediction by ZEFSAII (Michael W. Deem and Ramdas Pophale) SiO2 
 PCOD9180195
Probable space group: C 2/M
;
_chemical_formula_sum "Si O2"
_cell_formula_units_Z 48
_cell_length_a 24.360100
_cell_length_b 14.300371
_cell_length_c 19.876237
_cell_angle_alpha 90.000000
_cell_angle_beta 21.621379
_cell_angle_gamma 90.000000
_cell_volume 2551.316813
_symmetry_space_group_name_H-M "C 2/M"
_symmetry_group_IT_number 12
_symmetry_cell_setting 'monoclinic'
loop_
_space_group_symop_operation_xyz
x,y,z
-x,y,-z
-x,-y,-z
x,-y,z
1/2+x,1/2+y,z
1/2-x,1/2+y,-z
1/2-x,1/2-y,-z
1/2+x,1/2-y,z
loop_
_atom_site_type_symbol
_atom_site_label
_atom_site_fract_x
_atom_site_fract_y
_atom_site_fract_z
Si Si1 0.597264 0.227530 0.637466
Si Si2 0.099921 0.696330 0.484229
Si Si3 0.517133 0.604769 0.400958
Si Si4 0.297497 0.112420 0.763445
Si Si5 0.380166 0.390205 0.905884
Si Si6 0.828761 0.609493 0.978491
O O1 0.750000 0.250000 0.500000
O O2 0.622851 0.175800 0.536748
O O3 0.509102 0.325416 0.730552
O O4 0.479192 0.166674 0.814659
O O5 0.212342 0.657654 0.299381
O O6 0.087792 0.808668 0.497123
O O7 0.943814 0.654028 0.634126
O O8 0.500000 0.597407 0.500000
O O9 0.489020 0.500000 0.404342
O O10 0.686974 0.631182 0.187282
O O11 0.314370 0.000000 0.738490
O O12 0.162918 0.131414 0.968204
O O13 0.414016 0.500000 0.862403
O O14 0.236562 0.372503 0.022057
O O15 0.859256 0.500000 0.950671
#
# Coordination Sequence:
#
# PCOD9180195 Si02
#       6
#     8   8   8   8   8   8
#     4  12  25  37  55  86 124 162 193 234 297 367
#     4  11  19  33  54  84 119 148 182 240 293 349
#     4  10  19  31  55  89 112 137 186 249 302 339
#     4  10  20  34  60  90 113 144 195 253 298 336
#     4  10  20  38  62  86 112 150 201 254 296 345
#     4  10  20  36  60  85 113 151 198 249 297 346
#
# _framework density 18.813814000000001
#
# number of rings (size 3 to 8) (size 9 to 14) (size 15 to 20)
#    0.000    1.500    5.000    2.500    0.000    1.333 
#    0.000    0.833    0.000    2.000    0.000    3.500 
#    0.000    0.000    0.000    0.000    0.000    0.000 
#
# Total GULP energy -133786.023051 kJ/mol
# GULP energy per Si atom -5574.417627 kJ/mol
# Density = 1.877099 g / cm^3
# Si number density = 18.813814 Si / 1000 Ang^3
#
#
#
# Elastic Constant Matrix: (Units=GPa)
#
#
# Indices 1 2 3 4 5 6 
#
# 1 82.5408 18.0597 47.3119 -0.0001 32.5079 0.0000
# 2 18.0597 85.2771 31.8632 0.0000 5.9839 0.0000
# 3 47.3119 31.8632 67.9807 0.0000 20.4344 0.0000
# 4 -0.0001 0.0000 0.0000 16.1990 0.0000 12.1622
# 5 32.5079 5.9839 20.4344 0.0000 43.1788 0.0000
# 6 0.0000 0.0000 0.0000 12.1622 0.0000 18.3585
#
#
#
# Elastic Compliance Matrix: (Units=1/GPa)
#
#
# Indices 1 2 3 4 5 6 
#
# 1 0.024687 0.000826 -0.013929 0.000000 -0.012109 0.000000
# 2 0.000826 0.014315 -0.007579 0.000000 0.000981 0.000000
# 3 -0.013929 -0.007579 0.028550 0.000000 -0.001974 0.000000
# 4 0.000000 0.000000 0.000000 0.122825 0.000000 -0.081369
# 5 -0.012109 0.000981 -0.001974 0.000000 0.033074 0.000000
# 6 0.000000 0.000000 0.000000 -0.081369 0.000000 0.108377
#
#
# Mechanical properties :
#
#
# Convention : Reuss Voigt Hill
#
# Bulk Modulus (GPa) = 38.18561 47.80758 42.99660
# Shear Modulus (GPa) = 13.09173 24.78485 18.93829
#
# Velocity S-wave (km/s) = 2.64077 3.63350 3.17616
# Velocity P-wave (km/s) = 5.44416 6.56271 6.02943
#
# Compressibility (1/GPa) = 0.02618787
#
# Stress axis : x y z
#
# Youngs Moduli (GPa) = 40.50655 69.85868 35.02663
#
# Poissons Ratio (x) = -0.05769 0.48787
# Poissons Ratio (y) = -0.03345 0.26547
# Poissons Ratio (z) = 0.56420 0.52947
#
# Static dielectric constant tensor:
#      x y z
#    x 1.687470 0.000000 0.049990 
#    y 0.000000 1.713660 0.000000 
#    z 0.049990 0.000000 1.648450 
# 
# From -- ./inp_files/111480.got.cif
#   From: 2010.05.17/outbox.cif.g08.bks.cpg/sg12_56_cif.got.tgz:111480.got - 2010.06.03 13:09:07.
