data_PCOD9180766
_publ_section_title
;
Structure prediction by ZEFSAII (Michael W. Deem and Ramdas Pophale) SiO2 
 PCOD9180766
Probable space group: C 2/M
;
_chemical_formula_sum "Si O2"
_cell_formula_units_Z 56
_cell_length_a 32.741558
_cell_length_b 7.466859
_cell_length_c 11.423351
_cell_angle_alpha 90.000000
_cell_angle_beta 117.717305
_cell_angle_gamma 90.000000
_cell_volume 2472.283744
_symmetry_space_group_name_H-M "C 2/M"
_symmetry_group_IT_number 12
_symmetry_cell_setting 'monoclinic'
loop_
_space_group_symop_operation_xyz
x,y,z
-x,y,-z
-x,-y,-z
x,-y,z
1/2+x,1/2+y,z
1/2-x,1/2+y,-z
1/2-x,1/2-y,-z
1/2+x,1/2-y,z
loop_
_atom_site_type_symbol
_atom_site_label
_atom_site_fract_x
_atom_site_fract_y
_atom_site_fract_z
Si Si1 0.386344 0.213424 0.588261
Si Si2 0.940700 0.216806 0.158000
Si Si3 0.797392 0.218824 0.861116
Si Si4 0.890566 0.785049 0.861639
Si Si5 0.346996 0.716536 0.162288
Si Si6 0.301660 0.794408 0.345511
Si Si7 0.025800 0.292768 0.423110
O O1 0.399514 0.237915 0.740338
O O2 0.335832 0.286305 0.487906
O O3 0.426275 0.287492 0.557154
O O4 0.384200 0.000000 0.565276
O O5 0.898178 0.268611 0.186985
O O6 0.988824 0.286810 0.269405
O O7 0.942916 0.000000 0.162005
O O8 0.926379 0.276416 0.008682
O O9 0.839711 0.274955 0.834920
O O10 0.748143 0.285674 0.750915
O O11 0.796363 0.000000 0.861590
O O12 0.811613 0.271654 0.011901
O O13 0.890419 0.000000 0.869026
O O14 0.346360 0.500000 0.168771
O O15 0.330974 0.790641 0.264511
O O16 0.292276 0.000000 0.367333
O O17 0.035376 0.500000 0.466505
O O18 0.000000 0.209177 0.500000
#
# Coordination Sequence:
#
# PCOD9180766 Si02
#       7
#     8   8   8   8   8   8   8
#     4  10  22  36  50  74 105 133 167 211 250 291
#     4   9  19  35  55  77 101 132 169 210 252 296
#     4   8  16  32  53  75 101 134 168 206 251 297
#     4   9  19  37  56  74 100 134 171 208 250 298
#     4   9  17  31  51  77 106 130 162 210 256 298
#     4  10  19  32  51  74 103 138 171 204 248 300
#     4  10  21  37  55  76 104 135 165 201 250 304
#
# _framework density 22.651122000000001
#
# number of rings (size 3 to 8) (size 9 to 14) (size 15 to 20)
#    0.000    2.714    0.000    3.000    0.000    4.857 
#    0.000    5.714    0.000    0.000    0.000    0.000 
#    0.000    0.000    0.000    0.000    0.000    0.000 
#
# Total GULP energy -156381.120931 kJ/mol
# GULP energy per Si atom -5585.040033 kJ/mol
# Density = 2.259957 g / cm^3
# Si number density = 22.651122 Si / 1000 Ang^3
#
#
#
# Elastic Constant Matrix: (Units=GPa)
#
#
# Indices 1 2 3 4 5 6 
#
# 1 30.5986 -5.4077 25.2953 0.0000 8.1488 0.0000
# 2 -5.4077 67.2229 -7.3924 0.0000 2.5161 0.0000
# 3 25.2953 -7.3924 78.7603 0.0000 5.7063 0.0000
# 4 0.0000 0.0000 0.0000 18.3478 0.0000 -5.5437
# 5 8.1488 2.5161 5.7063 0.0000 38.3832 0.0000
# 6 0.0000 0.0000 0.0000 -5.5437 0.0000 12.7322
#
#
#
# Elastic Compliance Matrix: (Units=1/GPa)
#
#
# Indices 1 2 3 4 5 6 
#
# 1 0.047093 0.002516 -0.014306 0.000000 -0.008036 0.000000
# 2 0.002516 0.015221 0.000740 0.000000 -0.001642 0.000000
# 3 -0.014306 0.000740 0.017331 0.000000 0.000412 0.000000
# 4 0.000000 0.000000 0.000000 0.062759 0.000000 0.027326
# 5 -0.008036 -0.001642 0.000412 0.000000 0.027805 0.000000
# 6 0.000000 0.000000 0.000000 0.027326 0.000000 0.090439
#
#
# Mechanical properties :
#
#
# Convention : Reuss Voigt Hill
#
# Bulk Modulus (GPa) = 17.37831 22.39692 19.88762
# Shear Modulus (GPa) = 16.56007 24.83173 20.69590
#
# Velocity S-wave (km/s) = 2.70681 3.31459 3.02599
# Velocity P-wave (km/s) = 4.17826 4.95559 4.58344
#
# Compressibility (1/GPa) = 0.05754298
#
# Stress axis : x y z
#
# Youngs Moduli (GPa) = 21.23470 65.69847 57.69990
#
# Poissons Ratio (x) = -0.16529 0.82548
# Poissons Ratio (y) = -0.05342 -0.04267
# Poissons Ratio (z) = 0.30379 -0.04859
#
# Static dielectric constant tensor:
#      x y z
#    x 1.821810 0.000000 0.019610 
#    y 0.000000 1.813300 0.000000 
#    z 0.019610 0.000000 1.838480 
# 
# From -- ./inp_files/110551.got.cif
#   From: 2010.05.17/outbox.cif.g08.bks.cpg/sg12_56_cif.got.tgz:110551.got - 2010.06.03 13:09:07.
