data_PCOD9180300
_publ_section_title
;
Structure prediction by ZEFSAII (Michael W. Deem and Ramdas Pophale) SiO2 
 PCOD9180300
Probable space group: C 2/M
;
_chemical_formula_sum "Si O2"
_cell_formula_units_Z 40
_cell_length_a 21.338332
_cell_length_b 18.661629
_cell_length_c 5.137282
_cell_angle_alpha 90.000000
_cell_angle_beta 72.297306
_cell_angle_gamma 90.000000
_cell_volume 1948.836988
_symmetry_space_group_name_H-M "C 2/M"
_symmetry_group_IT_number 12
_symmetry_cell_setting 'monoclinic'
loop_
_space_group_symop_operation_xyz
x,y,z
-x,y,-z
-x,-y,-z
x,-y,z
1/2+x,1/2+y,z
1/2-x,1/2+y,-z
1/2-x,1/2-y,-z
1/2+x,1/2-y,z
loop_
_atom_site_type_symbol
_atom_site_label
_atom_site_fract_x
_atom_site_fract_y
_atom_site_fract_z
Si Si1 0.783414 0.680237 0.226069
Si Si2 0.643028 0.727093 0.247816
Si Si3 0.128357 0.076618 0.035516
Si Si4 0.000000 0.130866 0.000000
Si Si5 0.726134 0.083125 0.279134
Si Si6 0.500000 0.268644 0.500000
O O1 0.711807 0.720472 0.322040
O O2 0.800143 0.634011 0.458715
O O3 0.834831 0.739096 0.056804
O O4 0.782714 0.622687 0.986783
O O5 0.574126 0.765555 0.409926
O O6 0.626916 0.643548 0.229476
O O7 0.194973 0.081507 0.786613
O O8 0.129216 0.000000 0.172471
O O9 0.064911 0.084005 0.938010
O O10 0.997783 0.182578 0.248451
O O11 0.703301 0.000000 0.310212
#
# Coordination Sequence:
#
# PCOD9180300 Si02
#       6
#     8   8   8   4   8   4
#     4  10  20  34  54  76 104 134 165 210 254 299
#     4   9  20  34  52  76 104 136 173 207 250 295
#     4   9  18  32  49  72 104 139 173 207 241 287
#     4  10  19  32  48  68 100 140 175 204 239 282
#     4  10  20  34  53  77 101 129 167 210 257 305
#     4  10  20  34  51  72 101 134 172 212 244 294
#
# _framework density 20.525061000000001
#
# number of rings (size 3 to 8) (size 9 to 14) (size 15 to 20)
#    0.000    2.400    0.000    2.100    0.000   11.200 
#    0.000   16.500    0.000    0.000    0.000    4.200 
#    0.000    0.000    0.000    0.000    0.000    0.000 
#
# Total GULP energy -111438.908370 kJ/mol
# GULP energy per Si atom -5571.945419 kJ/mol
# Density = 2.047835 g / cm^3
# Si number density = 20.525061 Si / 1000 Ang^3
#
#
#
# Elastic Constant Matrix: (Units=GPa)
#
#
# Indices 1 2 3 4 5 6 
#
# 1 65.7506 7.0168 19.9359 0.0000 -17.4958 0.0000
# 2 7.0168 91.7221 25.7180 0.0000 9.3547 0.0000
# 3 19.9359 25.7180 87.6317 0.0000 3.9299 0.0000
# 4 0.0000 0.0000 0.0000 24.3274 0.0000 3.5811
# 5 -17.4958 9.3547 3.9299 0.0000 33.3167 0.0000
# 6 0.0000 0.0000 0.0000 3.5811 0.0000 17.4355
#
#
#
# Elastic Compliance Matrix: (Units=1/GPa)
#
#
# Indices 1 2 3 4 5 6 
#
# 1 0.019758 -0.001375 -0.004598 0.000000 0.011304 0.000000
# 2 -0.001375 0.012269 -0.003118 0.000000 -0.003799 0.000000
# 3 -0.004598 -0.003118 0.013513 0.000000 -0.003133 0.000000
# 4 0.000000 0.000000 0.000000 0.042387 0.000000 -0.008706
# 5 0.011304 -0.003799 -0.003133 0.000000 0.037388 0.000000
# 6 0.000000 0.000000 0.000000 -0.008706 0.000000 0.059142
#
#
# Mechanical properties :
#
#
# Convention : Reuss Voigt Hill
#
# Bulk Modulus (GPa) = 36.55190 38.93844 37.74517
# Shear Modulus (GPa) = 23.61177 27.84484 25.72831
#
# Velocity S-wave (km/s) = 3.39542 3.68724 3.54433
# Velocity P-wave (km/s) = 5.76358 6.09426 5.93122
#
# Compressibility (1/GPa) = 0.02735836
#
# Stress axis : x y z
#
# Youngs Moduli (GPa) = 50.61275 81.50408 74.00326
#
# Poissons Ratio (x) = 0.11208 0.34028
# Poissons Ratio (y) = 0.06960 0.23071
# Poissons Ratio (z) = 0.23273 0.25409
#
# Static dielectric constant tensor:
#      x y z
#    x 1.826990 0.000000 0.003290 
#    y 0.000000 1.759420 0.000000 
#    z 0.003290 0.000000 1.764610 
# 
# From -- ./inp_files/20211.got.cif
#   From: 2010.05.17/outbox.cif.g08.bks.cpg/sg12_11_cif.got.tgz:20211.got - 2010.06.03 13:09:07.
