data_PCOD9180278
_publ_section_title
;
Structure prediction by ZEFSAII (Michael W. Deem and Ramdas Pophale) SiO2 
 PCOD9180278
Probable space group: C 2/M
;
_chemical_formula_sum "Si O2"
_cell_formula_units_Z 56
_cell_length_a 20.253254
_cell_length_b 7.559761
_cell_length_c 18.239105
_cell_angle_alpha 90.000000
_cell_angle_beta 82.875752
_cell_angle_gamma 90.000000
_cell_volume 2771.024943
_symmetry_space_group_name_H-M "C 2/M"
_symmetry_group_IT_number 12
_symmetry_cell_setting 'monoclinic'
loop_
_space_group_symop_operation_xyz
x,y,z
-x,y,-z
-x,-y,-z
x,-y,z
1/2+x,1/2+y,z
1/2-x,1/2+y,-z
1/2-x,1/2-y,-z
1/2+x,1/2-y,z
loop_
_atom_site_type_symbol
_atom_site_label
_atom_site_fract_x
_atom_site_fract_y
_atom_site_fract_z
Si Si1 0.963638 0.703940 0.225554
Si Si2 0.178033 0.291737 0.788975
Si Si3 0.034734 0.214297 0.606526
Si Si4 0.603718 0.284439 0.453421
Si Si5 0.611251 0.214723 0.194834
Si Si6 0.234015 0.709834 0.085858
Si Si7 0.798589 0.208992 0.677936
O O1 0.033265 0.500000 0.800269
O O2 0.895922 0.785371 0.203453
O O3 0.956359 0.709556 0.314454
O O4 0.036106 0.782354 0.198330
O O5 0.171305 0.500000 0.772469
O O6 0.212176 0.279320 0.863509
O O7 0.230790 0.216182 0.722439
O O8 0.089543 0.269888 0.538824
O O9 0.962629 0.264067 0.583305
O O10 0.035896 0.000000 0.611769
O O11 0.605324 0.500000 0.453291
O O12 0.668456 0.219455 0.400984
O O13 0.661701 0.272755 0.123941
O O14 0.645748 0.271458 0.266095
O O15 0.608969 0.000000 0.196771
O O16 0.234192 0.500000 0.094714
O O17 0.250000 0.750000 0.000000
O O18 0.787897 0.000000 0.668267
#
# Coordination Sequence:
#
# PCOD9180278 Si02
#       7
#     8   8   8   8   8   8   8
#     4  10  19  32  47  70 102 130 157 193 240 289
#     4   9  19  33  51  73  99 129 158 192 237 284
#     4   9  16  27  44  66  93 127 166 206 242 278
#     4   8  14  25  43  67  92 121 165 211 244 274
#     4   9  18  31  49  72  97 125 156 191 233 282
#     4  10  20  36  57  78  98 122 154 191 231 278
#     4   9  15  28  49  69  89 122 168 208 236 273
#
# _framework density 20.209128
#
# number of rings (size 3 to 8) (size 9 to 14) (size 15 to 20)
#    0.000    2.857    1.429    1.286    0.000    1.143 
#    0.000    3.571    0.000    4.286    0.000    0.000 
#    0.000    0.000    0.000    0.000    0.000    0.000 
#
# Total GULP energy -156098.666805 kJ/mol
# GULP energy per Si atom -5574.952386 kJ/mol
# Density = 2.016313 g / cm^3
# Si number density = 20.209128 Si / 1000 Ang^3
#
#
#
# Elastic Constant Matrix: (Units=GPa)
#
#
# Indices 1 2 3 4 5 6 
#
# 1 142.0972 2.0182 47.0656 0.0000 -16.1493 0.0000
# 2 2.0182 49.5661 -10.2385 0.0000 -1.8192 0.0000
# 3 47.0656 -10.2385 95.9359 0.0000 -26.5529 0.0000
# 4 0.0000 0.0000 0.0000 11.1561 0.0000 24.0152
# 5 -16.1493 -1.8192 -26.5529 0.0000 20.3937 0.0000
# 6 0.0000 0.0000 0.0000 24.0152 0.0000 -59.3708
#
#
#
# Elastic Compliance Matrix: (Units=1/GPa)
#
#
# Indices 1 2 3 4 5 6 
#
# 1 0.008510 -0.001077 -0.003832 0.000000 0.001653 0.000000
# 2 -0.001077 0.021498 0.004874 0.000000 0.007410 0.000000
# 3 -0.003832 0.004874 0.018924 0.000000 0.022039 0.000000
# 4 0.000000 0.000000 0.000000 0.047915 0.000000 0.019381
# 5 0.001653 0.007410 0.022039 0.000000 0.079700 0.000000
# 6 0.000000 0.000000 0.000000 0.019381 0.000000 -0.009004
#
#
# Mechanical properties :
#
#
# Convention : Reuss Voigt Hill
#
# Bulk Modulus (GPa) = 20.46688 40.58776 30.52732
# Shear Modulus (GPa) = 27.18841 11.01940 19.10391
#
# Velocity S-wave (km/s) = 3.67188 2.33763 3.07793
# Velocity P-wave (km/s) = 5.30344 5.23579 5.26973
#
# Compressibility (1/GPa) = 0.04885942
#
# Stress axis : x y z
#
# Youngs Moduli (GPa) = 117.50914 46.51662 52.84324
#
# Poissons Ratio (x) = 0.05012 0.20252
# Poissons Ratio (y) = 0.12661 -0.25755
# Poissons Ratio (z) = 0.45035 -0.22672
#
# Static dielectric constant tensor:
#      x y z
#    x 1.731410 0.000000 -0.100730 
#    y 0.000000 1.761130 0.000000 
#    z -0.100730 0.000000 1.565680 
# 
# From -- ./inp_files/280175.got.cif
#   From: 2010.05.17/outbox.cif.g08.bks.cpg/sg12_141_cif.got.tgz:280175.got - 2010.06.03 13:09:07.
