data_PCOD9180547
_publ_section_title
;
Structure prediction by ZEFSAII (Michael W. Deem and Ramdas Pophale) SiO2 
 PCOD9180547
Probable space group: C 2/M
;
_chemical_formula_sum "Si O2"
_cell_formula_units_Z 48
_cell_length_a 19.203348
_cell_length_b 8.826565
_cell_length_c 25.114843
_cell_angle_alpha 90.000000
_cell_angle_beta 40.602676
_cell_angle_gamma 90.000000
_cell_volume 2770.468052
_symmetry_space_group_name_H-M "C 2/M"
_symmetry_group_IT_number 12
_symmetry_cell_setting 'monoclinic'
loop_
_space_group_symop_operation_xyz
x,y,z
-x,y,-z
-x,-y,-z
x,-y,z
1/2+x,1/2+y,z
1/2-x,1/2+y,-z
1/2-x,1/2-y,-z
1/2+x,1/2-y,z
loop_
_atom_site_type_symbol
_atom_site_label
_atom_site_fract_x
_atom_site_fract_y
_atom_site_fract_z
Si Si1 0.852131 0.318062 0.818795
Si Si2 0.325400 0.681999 0.002058
Si Si3 0.502760 0.683124 0.823264
Si Si4 0.749554 0.816475 0.326150
Si Si5 0.403936 0.320348 0.674609
Si Si6 0.421020 0.174782 0.494350
O O1 0.857340 0.500000 0.812515
O O2 0.732864 0.273336 0.909310
O O3 0.880402 0.247419 0.745965
O O4 0.935256 0.259189 0.815124
O O5 0.319247 0.500000 0.003635
O O6 0.250000 0.750000 0.000000
O O7 0.444392 0.723065 0.913276
O O8 0.496642 0.500000 0.820593
O O9 0.626626 0.726375 0.748896
O O10 0.682305 0.745791 0.317054
O O11 0.691485 0.773040 0.415401
O O12 0.740804 0.000000 0.327504
O O13 0.397057 0.500000 0.679773
O O14 0.520103 0.270417 0.584784
O O15 0.500000 0.177547 0.500000
O O16 0.412810 0.000000 0.481644
#
# Coordination Sequence:
#
# PCOD9180547 Si02
#       6
#     8   8   8   8   8   8
#     4  10  19  32  50  72  99 130 162 196 238 284
#     4   8  15  28  48  71  94 124 159 193 231 281
#     4   9  17  32  53  76  99 123 157 198 239 285
#     4   9  18  33  53  74  98 127 156 193 242 291
#     4  11  21  32  49  72  97 127 164 203 238 277
#     4   8  15  30  50  70  93 124 159 193 236 289
#
# _framework density 17.325590999999999
#
# number of rings (size 3 to 8) (size 9 to 14) (size 15 to 20)
#    0.000    2.833    0.000    3.000    0.000    4.333 
#    0.000    1.667    0.000    5.000    0.000    0.000 
#    0.000    0.000    0.000    0.000    0.000    0.000 
#
# Total GULP energy -133622.988376 kJ/mol
# GULP energy per Si atom -5567.624516 kJ/mol
# Density = 1.728616 g / cm^3
# Si number density = 17.325591 Si / 1000 Ang^3
#
#
#
# Elastic Constant Matrix: (Units=GPa)
#
#
# Indices 1 2 3 4 5 6 
#
# 1 43.2910 25.8183 68.3419 0.0000 -5.1053 0.0000
# 2 25.8183 40.8305 58.2853 0.0000 1.9527 -0.0001
# 3 68.3419 58.2853 221.7403 0.0000 -8.3220 0.0000
# 4 0.0000 0.0000 0.0000 18.1175 0.0000 3.9304
# 5 -5.1053 1.9527 -8.3220 0.0000 33.3760 0.0000
# 6 0.0000 -0.0001 0.0000 3.9304 0.0000 20.1396
#
#
#
# Elastic Compliance Matrix: (Units=1/GPa)
#
#
# Indices 1 2 3 4 5 6 
#
# 1 0.051653 -0.016891 -0.011252 0.000000 0.006084 0.000000
# 2 -0.016891 0.045537 -0.007026 0.000000 -0.007000 0.000000
# 3 -0.011252 -0.007026 0.009868 0.000000 0.001150 0.000000
# 4 0.000000 0.000000 0.000000 0.057635 0.000000 -0.011248
# 5 0.006084 -0.007000 0.001150 0.000000 0.031589 0.000000
# 6 0.000000 0.000000 0.000000 -0.011248 0.000000 0.051849
#
#
# Mechanical properties :
#
#
# Convention : Reuss Voigt Hill
#
# Bulk Modulus (GPa) = 27.23325 67.86143 47.54734
# Shear Modulus (GPa) = 15.11906 24.55436 19.83671
#
# Velocity S-wave (km/s) = 2.95726 3.76870 3.38736
# Velocity P-wave (km/s) = 5.23576 7.62829 6.54232
#
# Compressibility (1/GPa) = 0.03671982
#
# Stress axis : x y z
#
# Youngs Moduli (GPa) = 19.35993 21.96012 101.34057
#
# Poissons Ratio (x) = 0.37093 1.14025
# Poissons Ratio (y) = 0.32701 0.71206
# Poissons Ratio (z) = 0.21783 0.15430
#
# Static dielectric constant tensor:
#      x y z
#    x 1.547560 0.000000 -0.023050 
#    y 0.000000 1.572470 0.000000 
#    z -0.023050 0.000000 1.649470 
# 
# From -- ./inp_files/229268.got.cif
#   From: 2010.05.17/outbox.cif.g08.bks.cpg/sg12_115_cif.got.tgz:229268.got - 2010.06.03 13:09:07.
