data_PCOD9180198
_publ_section_title
;
Structure prediction by ZEFSAII (Michael W. Deem and Ramdas Pophale) SiO2 
 PCOD9180198
Probable space group: C 2/M
;
_chemical_formula_sum "Si O2"
_cell_formula_units_Z 56
_cell_length_a 22.874367
_cell_length_b 17.648298
_cell_length_c 9.088752
_cell_angle_alpha 90.000000
_cell_angle_beta 47.651062
_cell_angle_gamma 90.000000
_cell_volume 2711.649200
_symmetry_space_group_name_H-M "C 2/M"
_symmetry_group_IT_number 12
_symmetry_cell_setting 'monoclinic'
loop_
_space_group_symop_operation_xyz
x,y,z
-x,y,-z
-x,-y,-z
x,-y,z
1/2+x,1/2+y,z
1/2-x,1/2+y,-z
1/2-x,1/2-y,-z
1/2+x,1/2-y,z
loop_
_atom_site_type_symbol
_atom_site_label
_atom_site_fract_x
_atom_site_fract_y
_atom_site_fract_z
Si Si1 0.955790 0.086532 0.877878
Si Si2 0.165962 0.191101 0.789893
Si Si3 0.230971 0.673263 0.120280
Si Si4 0.581839 0.086013 0.273894
Si Si5 0.595971 0.693731 0.608036
Si Si6 0.531569 0.810512 0.109249
Si Si7 0.867953 0.911557 0.728668
O O1 0.935612 0.097326 0.738516
O O2 0.030099 0.137687 0.789430
O O3 0.974048 0.000000 0.871932
O O4 0.878316 0.112674 0.095826
O O5 0.245474 0.188630 0.750319
O O6 0.162714 0.202786 0.620497
O O7 0.105850 0.253129 0.963056
O O8 0.143457 0.643405 0.243435
O O9 0.250000 0.750000 0.000000
O O10 0.288395 0.609976 0.951391
O O11 0.500000 0.086041 0.500000
O O12 0.562171 0.117991 0.146259
O O13 0.612750 0.000000 0.218497
O O14 0.541554 0.768598 0.683121
O O15 0.623257 0.649839 0.416171
O O16 0.500000 0.827401 0.000000
O O17 0.868244 0.000000 0.679284
#
# Coordination Sequence:
#
# PCOD9180198 Si02
#       7
#     8   8   8   8   8   8   8
#     4   9  17  29  48  78 123 168 200 228 278 356
#     4   9  19  35  55  89 118 157 201 249 303 356
#     4  11  22  41  66  88 117 161 202 253 313 371
#     4  11  25  43  66  92 119 158 212 263 304 361
#     4  10  19  31  55  89 127 155 199 245 295 366
#     4   9  19  37  60  89 125 161 206 253 302 368
#     4  10  21  35  54  87 125 163 201 248 305 368
#
# _framework density 20.65164
#
# number of rings (size 3 to 8) (size 9 to 14) (size 15 to 20)
#    0.000    2.143    1.429    2.571    2.000    3.714 
#    0.000    2.143    0.000    1.714    0.000    0.000 
#    0.000    0.000    0.000    0.000    0.000    0.000 
#
# Total GULP energy -156324.706287 kJ/mol
# GULP energy per Si atom -5583.025225 kJ/mol
# Density = 2.060464 g / cm^3
# Si number density = 20.651640 Si / 1000 Ang^3
#
#
#
# Elastic Constant Matrix: (Units=GPa)
#
#
# Indices 1 2 3 4 5 6 
#
# 1 137.1655 45.1339 28.7758 0.0000 6.4329 0.0000
# 2 45.1339 84.9066 23.0055 0.0000 2.6750 0.0000
# 3 28.7758 23.0055 65.7006 0.0000 12.7948 0.0000
# 4 0.0000 0.0000 0.0000 -10.0412 0.0000 -6.4643
# 5 6.4329 2.6750 12.7948 0.0000 23.8011 0.0000
# 6 0.0000 0.0000 0.0000 -6.4643 0.0000 22.0124
#
#
#
# Elastic Compliance Matrix: (Units=1/GPa)
#
#
# Indices 1 2 3 4 5 6 
#
# 1 0.009222 -0.004224 -0.002420 0.000000 -0.000717 0.000000
# 2 -0.004224 0.014973 -0.003672 0.000000 0.001433 0.000000
# 3 -0.002420 -0.003672 0.019388 0.000000 -0.009356 0.000000
# 4 0.000000 0.000000 0.000000 -0.083756 0.000000 -0.024596
# 5 -0.000717 0.001433 -0.009356 0.000000 0.047077 0.000000
# 6 0.000000 0.000000 0.000000 -0.024596 0.000000 0.038206
#
#
# Mechanical properties :
#
#
# Convention : Reuss Voigt Hill
#
# Bulk Modulus (GPa) = 43.57161 53.51147 48.54154
# Shear Modulus (GPa) = 68.12763 19.87831 44.00297
#
# Velocity S-wave (km/s) = 5.74983 3.10587 4.62099
# Velocity P-wave (km/s) = 8.07620 6.23134 7.21300
#
# Compressibility (1/GPa) = 0.02295073
#
# Stress axis : x y z
#
# Youngs Moduli (GPa) = 108.44111 66.78907 51.57726
#
# Poissons Ratio (x) = 0.28209 0.12484
# Poissons Ratio (y) = 0.45800 0.18939
# Poissons Ratio (z) = 0.26248 0.24524
#
# Static dielectric constant tensor:
#      x y z
#    x 1.761160 0.000000 0.003290 
#    y 0.000000 1.724740 0.000000 
#    z 0.003290 0.000000 1.770130 
# 
# From -- ./inp_files/89507.got.cif
#   From: 2010.05.17/outbox.cif.g08.bks.cpg/sg12_45_cif.got.tgz:89507.got - 2010.06.03 13:09:07.
