data_PCOD9180974
_publ_section_title
;
Structure prediction by ZEFSAII (Michael W. Deem and Ramdas Pophale) SiO2 
 PCOD9180974
Probable space group: C 2/M
;
_chemical_formula_sum "Si O2"
_cell_formula_units_Z 56
_cell_length_a 30.759678
_cell_length_b 7.556359
_cell_length_c 10.834078
_cell_angle_alpha 90.000000
_cell_angle_beta 81.329846
_cell_angle_gamma 90.000000
_cell_volume 2489.401066
_symmetry_space_group_name_H-M "C 2/M"
_symmetry_group_IT_number 12
_symmetry_cell_setting 'monoclinic'
loop_
_space_group_symop_operation_xyz
x,y,z
-x,y,-z
-x,-y,-z
x,-y,z
1/2+x,1/2+y,z
1/2-x,1/2+y,-z
1/2-x,1/2-y,-z
1/2+x,1/2-y,z
loop_
_atom_site_type_symbol
_atom_site_label
_atom_site_fract_x
_atom_site_fract_y
_atom_site_fract_z
Si Si1 0.096970 0.298010 0.228319
Si Si2 0.811223 0.296800 0.725851
Si Si3 0.410831 0.212729 0.289644
Si Si4 0.179041 0.206834 0.552888
Si Si5 0.503288 0.784079 0.355279
Si Si6 0.370726 0.293366 0.042417
Si Si7 0.716949 0.717222 0.800652
O O1 0.095776 0.500000 0.278307
O O2 0.141722 0.213746 0.262275
O O3 0.049819 0.219752 0.282456
O O4 0.104253 0.299567 0.078853
O O5 0.813287 0.500000 0.768777
O O6 0.806620 0.296029 0.579756
O O7 0.766468 0.219954 0.801144
O O8 0.373145 0.271461 0.401564
O O9 0.459274 0.276272 0.304935
O O10 0.395601 0.275299 0.161683
O O11 0.410569 0.000000 0.289716
O O12 0.201676 0.272658 0.669343
O O13 0.189307 0.000000 0.536228
O O14 0.500000 0.737648 0.500000
O O15 0.502869 0.000000 0.346555
O O16 0.368191 0.500000 0.011536
O O17 0.321101 0.226385 0.088902
O O18 0.716559 0.500000 0.800094
#
# Coordination Sequence:
#
# PCOD9180974 Si02
#       7
#     8   8   8   8   8   8   8
#     4  10  21  36  55  79 105 135 177 223 261 306
#     4  10  19  33  54  77 103 139 182 220 256 306
#     4  10  19  34  58  80 102 138 180 218 257 306
#     4  10  19  32  51  79 114 141 168 213 267 317
#     4   9  18  34  56  82 108 133 167 215 264 305
#     4  10  21  38  55  75 108 141 173 216 265 313
#     4   8  17  33  52  75 104 139 175 215 260 307
#
# _framework density 22.495370000000001
#
# number of rings (size 3 to 8) (size 9 to 14) (size 15 to 20)
#    0.000    2.429    0.000    3.429    0.000    4.000 
#    0.000    7.857    0.000    3.000    0.000    0.000 
#    0.000    0.000    0.000    0.000    0.000    0.000 
#
# Total GULP energy -156416.757046 kJ/mol
# GULP energy per Si atom -5586.312752 kJ/mol
# Density = 2.244417 g / cm^3
# Si number density = 22.495370 Si / 1000 Ang^3
#
#
#
# Elastic Constant Matrix: (Units=GPa)
#
#
# Indices 1 2 3 4 5 6 
#
# 1 176.6513 -0.7844 46.1096 0.0000 -46.6515 0.0000
# 2 -0.7844 61.1624 -9.2141 0.0000 2.1654 0.0000
# 3 46.1096 -9.2141 87.8419 0.0000 -30.3290 0.0000
# 4 0.0000 0.0000 0.0000 -5.7901 0.0000 4.4051
# 5 -46.6515 2.1654 -30.3290 0.0000 27.4072 0.0000
# 6 0.0000 0.0000 0.0000 4.4051 0.0000 2.5692
#
#
#
# Elastic Compliance Matrix: (Units=1/GPa)
#
#
# Indices 1 2 3 4 5 6 
#
# 1 0.010352 -0.000380 0.001004 0.000000 0.018762 0.000000
# 2 -0.000380 0.016643 0.002052 0.000000 0.000308 0.000000
# 3 0.001004 0.002052 0.018783 0.000000 0.022332 0.000000
# 4 0.000000 0.000000 0.000000 -0.074947 0.000000 0.128500
# 5 0.018762 0.000308 0.022332 0.000000 0.093111 0.000000
# 6 0.000000 0.000000 0.000000 0.128500 0.000000 0.168900
#
#
# Mechanical properties :
#
#
# Convention : Reuss Voigt Hill
#
# Bulk Modulus (GPa) = 19.55822 44.20865 31.88343
# Shear Modulus (GPa) = 20.44701 24.14023 22.29362
#
# Velocity S-wave (km/s) = 3.01814 3.27940 3.15148
# Velocity P-wave (km/s) = 4.56714 5.83389 5.23894
#
# Compressibility (1/GPa) = 0.05112940
#
# Stress axis : x y z
#
# Youngs Moduli (GPa) = 96.60114 60.08455 53.23990
#
# Poissons Ratio (x) = 0.02285 -0.05346
# Poissons Ratio (y) = 0.03673 -0.10924
# Poissons Ratio (z) = -0.09700 -0.12328
#
# Static dielectric constant tensor:
#      x y z
#    x 1.859030 0.000000 -0.000780 
#    y 0.000000 1.900460 0.000000 
#    z -0.000780 0.000000 1.784670 
# 
# From -- ./inp_files/186427.got.cif
#   From: 2010.05.17/outbox.cif.g08.bks.cpg/sg12_94_cif.got.tgz:186427.got - 2010.06.03 13:09:07.
