data_PCOD9180733
_publ_section_title
;
Structure prediction by ZEFSAII (Michael W. Deem and Ramdas Pophale) SiO2 
 PCOD9180733
Probable space group: C 2/M
;
_chemical_formula_sum "Si O2"
_cell_formula_units_Z 48
_cell_length_a 18.963650
_cell_length_b 8.710634
_cell_length_c 16.667800
_cell_angle_alpha 90.000000
_cell_angle_beta 88.544690
_cell_angle_gamma 90.000000
_cell_volume 2752.389350
_symmetry_space_group_name_H-M "C 2/M"
_symmetry_group_IT_number 12
_symmetry_cell_setting 'monoclinic'
loop_
_space_group_symop_operation_xyz
x,y,z
-x,y,-z
-x,-y,-z
x,-y,z
1/2+x,1/2+y,z
1/2-x,1/2+y,-z
1/2-x,1/2-y,-z
1/2+x,1/2-y,z
loop_
_atom_site_type_symbol
_atom_site_label
_atom_site_fract_x
_atom_site_fract_y
_atom_site_fract_z
Si Si1 0.469314 0.316095 0.587070
Si Si2 0.788397 0.316269 0.237903
Si Si3 0.837360 0.323022 0.669524
Si Si4 0.549730 0.813505 0.738167
Si Si5 0.216084 0.685416 0.081335
Si Si6 0.078292 0.322762 0.162759
O O1 0.500000 0.270086 0.500000
O O2 0.468459 0.500000 0.592230
O O3 0.390498 0.254118 0.605457
O O4 0.518393 0.250480 0.656449
O O5 0.784279 0.500000 0.230204
O O6 0.735488 0.262086 0.309552
O O7 0.869133 0.272205 0.251917
O O8 0.760918 0.240465 0.156619
O O9 0.824635 0.500000 0.649208
O O10 0.879894 0.320937 0.753316
O O11 0.498006 0.757225 0.811682
O O12 0.544393 0.000000 0.736028
O O13 0.214871 0.500000 0.080115
O O14 0.135276 0.742516 0.098851
O O15 0.250000 0.750000 0.000000
O O16 0.066837 0.500000 0.139398
#
# Coordination Sequence:
#
# PCOD9180733 Si02
#       6
#     8   8   8   8   8   8
#     4  10  20  33  51  76 103 130 165 210 253 293
#     4  10  19  32  52  77 102 128 164 209 253 298
#     4   9  17  31  51  72  97 132 169 201 242 300
#     4   9  18  33  53  75  99 130 167 206 251 302
#     4  10  19  32  51  73  99 132 169 209 253 300
#     4   7  13  28  48  68  90 122 163 199 236 289
#
# _framework density 17.439394
#
# number of rings (size 3 to 8) (size 9 to 14) (size 15 to 20)
#    0.000    2.833    0.000    4.000    0.000    2.667 
#    0.000    2.500    0.000    5.000    0.000    0.000 
#    0.000    0.000    0.000    0.000    0.000    0.000 
#
# Total GULP energy -133661.620378 kJ/mol
# GULP energy per Si atom -5569.234182 kJ/mol
# Density = 1.739970 g / cm^3
# Si number density = 17.439394 Si / 1000 Ang^3
#
#
#
# Elastic Constant Matrix: (Units=GPa)
#
#
# Indices 1 2 3 4 5 6 
#
# 1 177.1358 44.9879 71.3961 0.0000 -38.6356 0.0000
# 2 44.9879 46.3299 28.6349 0.0000 -12.1774 0.0000
# 3 71.3961 28.6349 93.9620 0.0000 -40.6443 0.0000
# 4 0.0000 0.0000 0.0000 24.7887 0.0000 -4.2903
# 5 -38.6356 -12.1774 -40.6443 0.0000 31.9576 0.0000
# 6 0.0000 0.0000 0.0000 -4.2903 0.0000 24.7981
#
#
#
# Elastic Compliance Matrix: (Units=1/GPa)
#
#
# Indices 1 2 3 4 5 6 
#
# 1 0.009596 -0.005957 -0.003200 0.000000 0.005261 0.000000
# 2 -0.005957 0.030294 -0.006286 0.000000 -0.003653 0.000000
# 3 -0.003200 -0.006286 0.027298 0.000000 0.028454 0.000000
# 4 0.000000 0.000000 0.000000 0.041586 0.000000 0.007195
# 5 0.005261 -0.003653 0.028454 0.000000 0.072448 0.000000
# 6 0.000000 0.000000 0.000000 0.007195 0.000000 0.041570
#
#
# Mechanical properties :
#
#
# Convention : Reuss Voigt Hill
#
# Bulk Modulus (GPa) = 27.54693 67.49615 47.52154
# Shear Modulus (GPa) = 18.81275 27.80282 23.30779
#
# Velocity S-wave (km/s) = 3.28800 3.99714 3.65979
# Velocity P-wave (km/s) = 5.49951 7.75178 6.72067
#
# Compressibility (1/GPa) = 0.03630169
#
# Stress axis : x y z
#
# Youngs Moduli (GPa) = 104.21446 33.01021 36.63323
#
# Poissons Ratio (x) = 0.19664 0.11723
# Poissons Ratio (y) = 0.62081 0.23026
# Poissons Ratio (z) = 0.33349 0.20749
#
# Static dielectric constant tensor:
#      x y z
#    x 1.620650 0.000000 -0.033250 
#    y 0.000000 1.594080 0.000000 
#    z -0.033250 0.000000 1.576550 
# 
# From -- ./inp_files/221514.got.cif
#   From: 2010.05.17/outbox.cif.g08.bks.cpg/sg12_111_cif.got.tgz:221514.got - 2010.06.03 13:09:07.
