data_PCOD9180741
_publ_section_title
;
Structure prediction by ZEFSAII (Michael W. Deem and Ramdas Pophale) SiO2 
 PCOD9180741
Probable space group: C 2/M
;
_chemical_formula_sum "Si O2"
_cell_formula_units_Z 56
_cell_length_a 27.469349
_cell_length_b 8.768594
_cell_length_c 17.768416
_cell_angle_alpha 90.000000
_cell_angle_beta 125.605512
_cell_angle_gamma 90.000000
_cell_volume 3479.697535
_symmetry_space_group_name_H-M "C 2/M"
_symmetry_group_IT_number 12
_symmetry_cell_setting 'monoclinic'
loop_
_space_group_symop_operation_xyz
x,y,z
-x,y,-z
-x,-y,-z
x,-y,z
1/2+x,1/2+y,z
1/2-x,1/2+y,-z
1/2-x,1/2-y,-z
1/2+x,1/2-y,z
loop_
_atom_site_type_symbol
_atom_site_label
_atom_site_fract_x
_atom_site_fract_y
_atom_site_fract_z
Si Si1 0.985848 0.181776 0.602047
Si Si2 0.839066 0.322699 0.112294
Si Si3 0.330347 0.815962 0.934786
Si Si4 0.038907 0.182535 0.962383
Si Si5 0.017806 0.323127 0.783953
Si Si6 0.408703 0.818282 0.404801
Si Si7 0.702861 0.680594 0.772028
O O1 0.931871 0.251446 0.504542
O O2 0.985413 0.233468 0.687988
O O3 0.045844 0.248348 0.616446
O O4 0.986519 0.000000 0.595948
O O5 0.822084 0.500000 0.110709
O O6 0.911121 0.317199 0.170650
O O7 0.818179 0.220343 0.162209
O O8 0.816808 0.273329 0.009767
O O9 0.272929 0.776507 0.832921
O O10 0.337576 0.000000 0.941521
O O11 0.393002 0.741719 0.968895
O O12 0.012156 0.252899 0.861711
O O13 0.039574 0.000000 0.956212
O O14 0.000000 0.225679 0.000000
O O15 0.999876 0.500000 0.767502
O O16 0.341987 0.768763 0.323052
O O17 0.414894 0.000000 0.409215
O O18 0.697232 0.500000 0.754339
#
# Coordination Sequence:
#
# PCOD9180741 Si02
#       7
#     8   8   8   8   8   8   8
#     4  11  20  32  49  70  96 130 171 211 247 284
#     4   9  17  29  44  65  95 130 165 200 238 287
#     4   9  20  34  48  68  96 129 166 203 245 297
#     4  10  21  36  54  77 101 126 162 207 251 295
#     4  10  19  32  51  74 100 131 166 202 247 300
#     4  11  21  32  46  66  98 137 172 207 244 286
#     4  11  20  30  45  68  97 132 170 205 241 286
#
# _framework density 16.093354000000001
#
# number of rings (size 3 to 8) (size 9 to 14) (size 15 to 20)
#    0.000    1.857    1.429    6.000    0.000    4.571 
#    0.000    0.000    0.000    0.000    0.000    1.000 
#    0.000    0.000    0.000    0.000    0.000    0.000 
#
# Total GULP energy -156286.735612 kJ/mol
# GULP energy per Si atom -5581.669129 kJ/mol
# Density = 1.605672 g / cm^3
# Si number density = 16.093354 Si / 1000 Ang^3
#
#
#
# Elastic Constant Matrix: (Units=GPa)
#
#
# Indices 1 2 3 4 5 6 
#
# 1 60.6500 34.6429 47.9969 0.0000 -9.2990 0.0000
# 2 34.6429 101.7827 62.9415 0.0000 -1.9733 0.0000
# 3 47.9969 62.9415 142.2850 0.0000 2.6658 0.0000
# 4 0.0000 0.0000 0.0000 -14.8283 0.0000 -91.6875
# 5 -9.2990 -1.9733 2.6658 0.0000 16.8901 0.0000
# 6 0.0000 0.0000 0.0000 -91.6875 0.0000 -173.5524
#
#
#
# Elastic Compliance Matrix: (Units=1/GPa)
#
#
# Indices 1 2 3 4 5 6 
#
# 1 0.027413 -0.004299 -0.007642 0.000000 0.015796 0.000000
# 2 -0.004299 0.014307 -0.004880 0.000000 0.000075 0.000000
# 3 -0.007642 -0.004880 0.011889 0.000000 -0.006654 0.000000
# 4 0.000000 0.000000 0.000000 0.029753 0.000000 -0.015718
# 5 0.015796 0.000075 -0.006654 0.000000 0.068962 0.000000
# 6 0.000000 0.000000 0.000000 -0.015718 0.000000 0.002542
#
#
# Mechanical properties :
#
#
# Convention : Reuss Voigt Hill
#
# Bulk Modulus (GPa) = 50.07899 66.20893 58.14396
# Shear Modulus (GPa) = 25.61954 -23.68904 0.96525
#
# Velocity S-wave (km/s) = 3.99423 -3.84080 0.77530
# Velocity P-wave (km/s) = 7.24274 4.64337 6.08351
#
# Compressibility (1/GPa) = 0.01996845
#
# Stress axis : x y z
#
# Youngs Moduli (GPa) = 36.47965 69.89404 84.10828
#
# Poissons Ratio (x) = 0.30044 0.64271
# Poissons Ratio (y) = 0.15681 0.41049
# Poissons Ratio (z) = 0.27876 0.34111
#
# Static dielectric constant tensor:
#      x y z
#    x 1.512180 0.000000 0.012120 
#    y 0.000000 1.539980 0.000000 
#    z 0.012120 0.000000 1.565600 
# 
# From -- ./inp_files/291971.got.cif
#   From: 2010.05.17/outbox.cif.g08.bks.cpg/sg12_146_cif.got.tgz:291971.got - 2010.06.03 13:09:07.
