data_PCOD9180409
_publ_section_title
;
Structure prediction by ZEFSAII (Michael W. Deem and Ramdas Pophale) SiO2 
 PCOD9180409
Probable space group: C 2/M
;
_chemical_formula_sum "Si O2"
_cell_formula_units_Z 64
_cell_length_a 20.908927
_cell_length_b 8.885150
_cell_length_c 19.909894
_cell_angle_alpha 90.000000
_cell_angle_beta 89.265323
_cell_angle_gamma 90.000000
_cell_volume 3698.535184
_symmetry_space_group_name_H-M "C 2/M"
_symmetry_group_IT_number 12
_symmetry_cell_setting 'monoclinic'
loop_
_space_group_symop_operation_xyz
x,y,z
-x,y,-z
-x,-y,-z
x,-y,z
1/2+x,1/2+y,z
1/2-x,1/2+y,-z
1/2-x,1/2-y,-z
1/2+x,1/2-y,z
loop_
_atom_site_type_symbol
_atom_site_label
_atom_site_fract_x
_atom_site_fract_y
_atom_site_fract_z
Si Si1 0.314370 0.321725 0.788450
Si Si2 0.755965 0.820670 0.426471
Si Si3 0.371827 0.179728 0.658843
Si Si4 0.175538 0.328197 0.073819
Si Si5 0.125836 0.318980 0.655889
Si Si6 0.672539 0.681548 0.788984
Si Si7 0.169073 0.826784 0.938212
Si Si8 0.998187 0.316850 0.577221
O O1 0.305748 0.500000 0.785486
O O2 0.359821 0.263973 0.728673
O O3 0.339409 0.272590 0.861407
O O4 0.245004 0.242781 0.779818
O O5 0.750000 0.750000 0.500000
O O6 0.690363 0.796117 0.386661
O O7 0.813679 0.743042 0.386044
O O8 0.766677 0.000000 0.430467
O O9 0.434595 0.230135 0.617656
O O10 0.376669 0.000000 0.671516
O O11 0.156603 0.500000 0.086496
O O12 0.253163 0.325216 0.066349
O O13 0.149784 0.268756 0.003130
O O14 0.128900 0.500000 0.659643
O O15 0.130730 0.249107 0.729903
O O16 0.061595 0.274908 0.617253
O O17 0.674733 0.500000 0.785639
O O18 0.649025 0.724981 0.864134
O O19 0.149581 0.000000 0.948081
O O20 0.996664 0.500000 0.574819
O O21 0.000000 0.263863 0.500000
#
# Coordination Sequence:
#
# PCOD9180409 Si02
#       8
#     8   8   8   8   8   8   8   8
#     4  11  20  30  48  74 105 138 176 220 262 308
#     4  11  22  35  55  78 104 135 171 215 265 319
#     4  10  20  36  56  76 103 140 177 214 262 317
#     4   9  16  26  42  66 100 138 173 210 258 311
#     4  11  21  34  55  81 106 134 175 221 266 315
#     4  10  19  32  49  72 105 142 176 213 263 315
#     4   8  15  26  41  64  97 136 175 211 250 304
#     4   9  19  37  58  78 102 137 177 217 262 319
#
# _framework density 17.304148999999999
#
# number of rings (size 3 to 8) (size 9 to 14) (size 15 to 20)
#    0.000    2.125    1.250    4.125    0.000    6.000 
#    0.000    1.250    0.000    2.625    0.000    0.875 
#    0.000    7.000    0.000    0.000    0.000    0.000 
#
# Total GULP energy -178530.046331 kJ/mol
# GULP energy per Si atom -5579.063948 kJ/mol
# Density = 1.726476 g / cm^3
# Si number density = 17.304149 Si / 1000 Ang^3
#
#
#
# Elastic Constant Matrix: (Units=GPa)
#
#
# Indices 1 2 3 4 5 6 
#
# 1 81.0007 37.0711 54.9698 0.0000 3.4901 0.0000
# 2 37.0711 70.3663 61.9384 0.0000 2.6972 0.0000
# 3 54.9698 61.9384 170.1917 0.0000 11.1828 0.0000
# 4 0.0000 0.0000 0.0000 34.6031 0.0000 0.9250
# 5 3.4901 2.6972 11.1828 0.0000 17.0330 0.0000
# 6 0.0000 0.0000 0.0000 0.9250 0.0000 14.8015
#
#
#
# Elastic Compliance Matrix: (Units=1/GPa)
#
#
# Indices 1 2 3 4 5 6 
#
# 1 0.017498 -0.006255 -0.003349 0.000000 -0.000396 0.000000
# 2 -0.006255 0.023197 -0.006547 0.000000 0.001907 0.000000
# 3 -0.003349 -0.006547 0.009643 0.000000 -0.004608 0.000000
# 4 0.000000 0.000000 0.000000 0.028947 0.000000 -0.001809
# 5 -0.000396 0.001907 -0.004608 0.000000 0.061514 0.000000
# 6 0.000000 0.000000 0.000000 -0.001809 0.000000 0.067674
#
#
# Mechanical properties :
#
#
# Convention : Reuss Voigt Hill
#
# Bulk Modulus (GPa) = 55.44824 69.94636 62.69730
# Shear Modulus (GPa) = 20.26034 24.45949 22.35992
#
# Velocity S-wave (km/s) = 3.42546 3.76374 3.59858
# Velocity P-wave (km/s) = 6.91071 7.70695 7.31967
#
# Compressibility (1/GPa) = 0.01803484
#
# Stress axis : x y z
#
# Youngs Moduli (GPa) = 57.14811 43.10986 103.70374
#
# Poissons Ratio (x) = 0.26967 0.34732
# Poissons Ratio (y) = 0.35749 0.67893
# Poissons Ratio (z) = 0.19140 0.28223
#
# Static dielectric constant tensor:
#      x y z
#    x 1.563820 0.000000 0.006070 
#    y 0.000000 1.585250 0.000000 
#    z 0.006070 0.000000 1.602470 
# 
# From -- ./inp_files/281354.got.cif
#   From: 2010.05.17/outbox.cif.g08.bks.cpg/sg12_141_cif.got.tgz:281354.got - 2010.06.03 13:09:07.
