data_PCOD9180880
_publ_section_title
;
Structure prediction by ZEFSAII (Michael W. Deem and Ramdas Pophale) SiO2 
 PCOD9180880
Probable space group: C 2/M
;
_chemical_formula_sum "Si O2"
_cell_formula_units_Z 56
_cell_length_a 30.726721
_cell_length_b 8.885470
_cell_length_c 12.901948
_cell_angle_alpha 90.000000
_cell_angle_beta 105.494895
_cell_angle_gamma 90.000000
_cell_volume 3394.479223
_symmetry_space_group_name_H-M "C 2/M"
_symmetry_group_IT_number 12
_symmetry_cell_setting 'monoclinic'
loop_
_space_group_symop_operation_xyz
x,y,z
-x,y,-z
-x,-y,-z
x,-y,z
1/2+x,1/2+y,z
1/2-x,1/2+y,-z
1/2-x,1/2-y,-z
1/2+x,1/2-y,z
loop_
_atom_site_type_symbol
_atom_site_label
_atom_site_fract_x
_atom_site_fract_y
_atom_site_fract_z
Si Si1 0.452082 0.818666 0.520139
Si Si2 0.114467 0.680248 0.705513
Si Si3 0.044836 0.181345 0.251861
Si Si4 0.391172 0.318584 0.894764
Si Si5 0.200176 0.820530 0.848410
Si Si6 0.303786 0.820454 0.926339
Si Si7 0.058376 0.181093 0.859449
O O1 0.500000 0.772019 0.500000
O O2 0.412337 0.776135 0.415498
O O3 0.447097 0.749182 0.630097
O O4 0.452783 0.000000 0.529140
O O5 0.116626 0.500000 0.711859
O O6 0.164191 0.748900 0.748082
O O7 0.085793 0.740532 0.784916
O O8 0.081465 0.228701 0.189745
O O9 0.994289 0.222161 0.182346
O O10 0.046255 0.000000 0.259188
O O11 0.386382 0.500000 0.890083
O O12 0.342472 0.243955 0.877490
O O13 0.420308 0.280224 0.015876
O O14 0.252593 0.786896 0.857979
O O15 0.194293 0.000000 0.848310
O O16 0.190726 0.754359 0.956930
O O17 0.308173 0.000000 0.939797
O O18 0.062155 0.000000 0.849456
#
# Coordination Sequence:
#
# PCOD9180880 Si02
#       7
#     8   8   8   8   8   8   8
#     4  10  21  37  53  73 105 140 175 221 267 304
#     4  11  21  33  53  78 106 137 175 217 261 310
#     4  10  21  35  53  77 105 142 184 216 252 310
#     4  10  20  34  52  77 110 143 174 214 260 306
#     4  10  20  34  52  77 107 137 170 214 263 308
#     4  10  20  33  52  78 107 138 172 209 257 317
#     4  10  19  32  51  76 108 142 173 209 258 309
#
# _framework density 16.497375000000002
#
# number of rings (size 3 to 8) (size 9 to 14) (size 15 to 20)
#    0.000    1.857    2.857    1.714    0.000    5.429 
#    0.000    0.000    0.000    3.429    0.000    0.000 
#    0.000    0.000    0.000    0.000    0.000    0.000 
#
# Total GULP energy -156316.304272 kJ/mol
# GULP energy per Si atom -5582.725153 kJ/mol
# Density = 1.645983 g / cm^3
# Si number density = 16.497375 Si / 1000 Ang^3
#
#
#
# Elastic Constant Matrix: (Units=GPa)
#
#
# Indices 1 2 3 4 5 6 
#
# 1 146.6380 48.6553 89.6622 0.0000 7.7086 0.0000
# 2 48.6553 30.8891 40.9869 0.0000 4.4706 0.0000
# 3 89.6622 40.9869 118.0842 0.0000 1.7770 0.0000
# 4 0.0000 0.0000 0.0000 17.8813 0.0000 1.1221
# 5 7.7086 4.4706 1.7770 0.0000 30.0544 0.0000
# 6 0.0000 0.0000 0.0000 1.1221 0.0000 28.6846
#
#
#
# Elastic Compliance Matrix: (Units=1/GPa)
#
#
# Indices 1 2 3 4 5 6 
#
# 1 0.016688 -0.017255 -0.006662 0.000000 -0.001320 0.000000
# 2 -0.017255 0.079692 -0.014460 0.000000 -0.006573 0.000000
# 3 -0.006662 -0.014460 0.018505 0.000000 0.002766 0.000000
# 4 0.000000 0.000000 0.000000 0.056062 0.000000 -0.002193
# 5 -0.001320 -0.006573 0.002766 0.000000 0.034426 0.000000
# 6 0.000000 0.000000 0.000000 -0.002193 0.000000 0.034948
#
#
# Mechanical properties :
#
#
# Convention : Reuss Voigt Hill
#
# Bulk Modulus (GPa) = 26.22629 72.69113 49.45871
# Shear Modulus (GPa) = 15.16145 23.07786 19.11965
#
# Velocity S-wave (km/s) = 3.03483 3.74422 3.40803
# Velocity P-wave (km/s) = 5.31150 7.92781 6.74767
#
# Compressibility (1/GPa) = 0.03812967
#
# Stress axis : x y z
#
# Youngs Moduli (GPa) = 59.92445 12.54834 54.04043
#
# Poissons Ratio (x) = 0.21652 0.36002
# Poissons Ratio (y) = 1.03398 0.78144
# Poissons Ratio (z) = 0.39922 0.18145
#
# Static dielectric constant tensor:
#      x y z
#    x 1.556620 0.000000 0.019200 
#    y 0.000000 1.553770 0.000000 
#    z 0.019200 0.000000 1.527120 
# 
# From -- ./inp_files/186399.got.cif
#   From: 2010.05.17/outbox.cif.g08.bks.cpg/sg12_94_cif.got.tgz:186399.got - 2010.06.03 13:09:07.
