data_PCOD9180994
_publ_section_title
;
Structure prediction by ZEFSAII (Michael W. Deem and Ramdas Pophale) SiO2 
 PCOD9180994
Probable space group: C 2/M
;
_chemical_formula_sum "Si O2"
_cell_formula_units_Z 48
_cell_length_a 19.950657
_cell_length_b 25.387973
_cell_length_c 12.056061
_cell_angle_alpha 90.000000
_cell_angle_beta 159.444589
_cell_angle_gamma 90.000000
_cell_volume 2144.063638
_symmetry_space_group_name_H-M "C 2/M"
_symmetry_group_IT_number 12
_symmetry_cell_setting 'monoclinic'
loop_
_space_group_symop_operation_xyz
x,y,z
-x,y,-z
-x,-y,-z
x,-y,z
1/2+x,1/2+y,z
1/2-x,1/2+y,-z
1/2-x,1/2-y,-z
1/2+x,1/2-y,z
loop_
_atom_site_type_symbol
_atom_site_label
_atom_site_fract_x
_atom_site_fract_y
_atom_site_fract_z
Si Si1 0.674641 0.440236 0.624030
Si Si2 0.013840 0.370084 0.248841
Si Si3 0.897127 0.088834 0.733323
Si Si4 0.255044 0.663475 0.801664
Si Si5 0.158562 0.721473 0.149864
Si Si6 0.974254 0.835617 0.335653
O O1 0.651513 0.500000 0.626385
O O2 0.674414 0.440608 0.488520
O O3 0.508715 0.398404 0.394525
O O4 0.860756 0.412778 0.968035
O O5 0.210440 0.381300 0.488676
O O6 0.076454 0.367423 0.473677
O O7 0.933632 0.313004 0.091288
O O8 0.000000 0.061544 0.000000
O O9 0.062671 0.128033 0.949195
O O10 0.283550 0.719514 0.787738
O O11 0.278758 0.674181 0.968914
O O12 0.355950 0.690076 0.474507
O O13 0.000000 0.720218 0.000000
O O14 0.000000 0.814563 0.500000
#
# Coordination Sequence:
#
# PCOD9180994 Si02
#       6
#     8   8   8   8   8   8
#     4  10  21  37  56  77 105 147 193 236 286 339
#     4  10  19  32  51  82 117 146 185 234 280 331
#     4   9  18  32  52  82 119 150 183 228 279 334
#     4  10  20  34  55  83 116 153 190 228 275 335
#     4  11  20  34  59  87 118 156 189 222 273 335
#     4  10  23  41  58  81 114 150 191 236 282 336
#
# _framework density 22.387395999999999
#
# number of rings (size 3 to 8) (size 9 to 14) (size 15 to 20)
#    0.000    2.000    0.000    6.000    0.000    4.667 
#    0.000   10.000    0.000    1.000    0.000    0.000 
#    0.000    0.000    0.000    0.000    0.000    0.000 
#
# Total GULP energy -133842.170904 kJ/mol
# GULP energy per Si atom -5576.757121 kJ/mol
# Density = 2.233644 g / cm^3
# Si number density = 22.387396 Si / 1000 Ang^3
#
#
#
# Elastic Constant Matrix: (Units=GPa)
#
#
# Indices 1 2 3 4 5 6 
#
# 1 82.8014 8.2548 38.0481 0.0000 -19.8111 0.0000
# 2 8.2548 118.9250 35.7824 0.0000 -8.8830 0.0000
# 3 38.0481 35.7824 134.0066 -0.0001 -42.4791 0.0001
# 4 0.0000 0.0000 -0.0001 -18.9722 0.0000 14.7526
# 5 -19.8111 -8.8830 -42.4791 0.0000 51.1155 0.0000
# 6 0.0000 0.0000 0.0001 14.7526 0.0000 -6.5234
#
#
#
# Elastic Compliance Matrix: (Units=1/GPa)
#
#
# Indices 1 2 3 4 5 6 
#
# 1 0.014208 0.000182 -0.003159 0.000000 0.002913 0.000000
# 2 0.000182 0.009159 -0.002675 0.000000 -0.000561 0.000000
# 3 -0.003159 -0.002675 0.011592 0.000000 0.007944 0.000000
# 4 0.000000 0.000000 0.000000 0.069491 0.000000 0.157152
# 5 0.002913 -0.000561 0.007944 0.000000 0.027197 0.000000
# 6 0.000000 0.000000 0.000000 0.157152 0.000000 0.202101
#
#
# Mechanical properties :
#
#
# Convention : Reuss Voigt Hill
#
# Bulk Modulus (GPa) = 42.27688 55.54487 48.91088
# Shear Modulus (GPa) = 14.16687 22.03381 18.10034
#
# Velocity S-wave (km/s) = 2.51829 3.14061 2.84651
# Velocity P-wave (km/s) = 5.23268 6.16570 5.71825
#
# Compressibility (1/GPa) = 0.02365359
#
# Stress axis : x y z
#
# Youngs Moduli (GPa) = 70.38531 109.18192 86.26821
#
# Poissons Ratio (x) = -0.01986 0.27254
# Poissons Ratio (y) = -0.01280 0.23078
# Poissons Ratio (z) = 0.22236 0.29207
#
# Static dielectric constant tensor:
#      x y z
#    x 1.932650 0.000000 -0.072460 
#    y 0.000000 1.772010 0.000000 
#    z -0.072460 0.000000 1.888380 
# 
# From -- ./inp_files/170697.got.cif
#   From: 2010.05.17/outbox.cif.g08.bks.cpg/sg12_86_cif.got.tgz:170697.got - 2010.06.03 13:09:07.
