data_PCOD9180986
_publ_section_title
;
Structure prediction by ZEFSAII (Michael W. Deem and Ramdas Pophale) SiO2 
 PCOD9180986
Probable space group: C 2/M
;
_chemical_formula_sum "Si O2"
_cell_formula_units_Z 64
_cell_length_a 13.505091
_cell_length_b 13.693672
_cell_length_c 15.949563
_cell_angle_alpha 90.000000
_cell_angle_beta 92.987552
_cell_angle_gamma 90.000000
_cell_volume 2945.612169
_symmetry_space_group_name_H-M "C 2/M"
_symmetry_group_IT_number 12
_symmetry_cell_setting 'monoclinic'
loop_
_space_group_symop_operation_xyz
x,y,z
-x,y,-z
-x,-y,-z
x,-y,z
1/2+x,1/2+y,z
1/2-x,1/2+y,-z
1/2-x,1/2-y,-z
1/2+x,1/2-y,z
loop_
_atom_site_type_symbol
_atom_site_label
_atom_site_fract_x
_atom_site_fract_y
_atom_site_fract_z
Si Si1 0.410009 0.772783 0.303533
Si Si2 0.552499 0.320458 0.086125
Si Si3 0.529942 0.607006 0.404426
Si Si4 0.111809 0.613035 0.288871
Si Si5 0.113774 0.109794 0.823700
Si Si6 0.225100 0.222826 0.402746
Si Si7 0.087940 0.390144 0.097863
Si Si8 0.227489 0.109651 0.005687
O O1 0.464667 0.688584 0.358436
O O2 0.321948 0.811841 0.357139
O O3 0.363946 0.707300 0.227216
O O4 0.497038 0.849194 0.285503
O O5 0.504276 0.378782 0.160145
O O6 0.522908 0.207165 0.094554
O O7 0.500000 0.359868 0.000000
O O8 0.669766 0.326223 0.071807
O O9 0.500000 0.605904 0.500000
O O10 0.512093 0.500000 0.367908
O O11 0.642811 0.639254 0.400353
O O12 0.118447 0.500000 0.316162
O O13 0.176772 0.684652 0.350221
O O14 0.141542 0.616120 0.191481
O O15 0.170021 0.117658 0.914701
O O16 0.134668 0.000000 0.791546
O O17 0.250000 0.250000 0.500000
O O18 0.044371 0.500000 0.093908
O O19 0.160142 0.380103 0.020642
O O20 0.215051 0.000000 0.037196
#
# Coordination Sequence:
#
# PCOD9180986 Si02
#       8
#     8   8   8   8   8   8   8   8
#     4  11  21  38  61  84 117 152 192 241 291 346
#     4  10  19  32  51  81 111 146 185 234 287 337
#     4  10  21  38  59  85 117 149 183 230 290 350
#     4  10  23  40  61  88 118 157 200 239 289 353
#     4  10  19  33  55  82 109 143 186 233 291 347
#     4  11  23  39  61  89 118 147 191 241 290 347
#     4  10  19  35  54  76 109 150 193 233 277 339
#     4   9  18  31  52  80 110 141 184 238 286 338
#
# _framework density 21.727232000000001
#
# number of rings (size 3 to 8) (size 9 to 14) (size 15 to 20)
#    0.000    1.875    2.500    1.875    0.000    4.750 
#    0.000    0.625    0.000    0.000    0.000    0.000 
#    0.000    0.000    0.000    0.000    0.000    0.000 
#
# Total GULP energy -178444.819406 kJ/mol
# GULP energy per Si atom -5576.400606 kJ/mol
# Density = 2.167778 g / cm^3
# Si number density = 21.727232 Si / 1000 Ang^3
#
#
#
# Elastic Constant Matrix: (Units=GPa)
#
#
# Indices 1 2 3 4 5 6 
#
# 1 81.0044 13.6433 15.8321 0.0000 -23.4798 0.0000
# 2 13.6433 79.1213 4.6070 0.0000 -11.2727 0.0000
# 3 15.8321 4.6070 53.2979 0.0000 -9.9161 0.0000
# 4 0.0000 0.0000 0.0000 27.7017 0.0000 -0.8118
# 5 -23.4798 -11.2727 -9.9161 0.0000 36.5639 0.0000
# 6 0.0000 0.0000 0.0000 -0.8118 0.0000 21.7841
#
#
#
# Elastic Compliance Matrix: (Units=1/GPa)
#
#
# Indices 1 2 3 4 5 6 
#
# 1 0.015708 -0.001271 -0.002899 0.000000 0.008909 0.000000
# 2 -0.001271 0.013331 -0.000171 0.000000 0.003248 0.000000
# 3 -0.002899 -0.000171 0.020307 0.000000 0.003593 0.000000
# 4 0.000000 0.000000 0.000000 0.036138 0.000000 0.001347
# 5 0.008909 0.003248 0.003593 0.000000 0.035046 0.000000
# 6 0.000000 0.000000 0.000000 0.001347 0.000000 0.045955
#
#
# Mechanical properties :
#
#
# Convention : Reuss Voigt Hill
#
# Bulk Modulus (GPa) = 24.59079 31.28761 27.93920
# Shear Modulus (GPa) = 26.49430 29.16602 27.83016
#
# Velocity S-wave (km/s) = 3.49579 3.66781 3.58283
# Velocity P-wave (km/s) = 5.25705 5.68934 5.47746
#
# Compressibility (1/GPa) = 0.04066564
#
# Stress axis : x y z
#
# Youngs Moduli (GPa) = 63.66215 75.01572 49.24465
#
# Poissons Ratio (x) = 0.09531 0.14274
# Poissons Ratio (y) = 0.08088 0.00840
# Poissons Ratio (z) = 0.18453 0.01280
#
# Static dielectric constant tensor:
#      x y z
#    x 1.872040 0.000000 0.001980 
#    y 0.000000 1.771890 0.000000 
#    z 0.001980 0.000000 1.799940 
# 
# From -- ./inp_files/224786.got.cif
#   From: 2010.05.17/outbox.cif.g08.bks.cpg/sg12_113_cif.got.tgz:224786.got - 2010.06.03 13:09:07.
