data_PCOD9180281
_publ_section_title
;
Structure prediction by ZEFSAII (Michael W. Deem and Ramdas Pophale) SiO2 
 PCOD9180281
Probable space group: C 2/M
;
_chemical_formula_sum "Si O2"
_cell_formula_units_Z 44
_cell_length_a 17.657632
_cell_length_b 12.402488
_cell_length_c 13.459535
_cell_angle_alpha 90.000000
_cell_angle_beta 70.928040
_cell_angle_gamma 90.000000
_cell_volume 2785.820967
_symmetry_space_group_name_H-M "C 2/M"
_symmetry_group_IT_number 12
_symmetry_cell_setting 'monoclinic'
loop_
_space_group_symop_operation_xyz
x,y,z
-x,y,-z
-x,-y,-z
x,-y,z
1/2+x,1/2+y,z
1/2-x,1/2+y,-z
1/2-x,1/2-y,-z
1/2+x,1/2-y,z
loop_
_atom_site_type_symbol
_atom_site_label
_atom_site_fract_x
_atom_site_fract_y
_atom_site_fract_z
Si Si1 0.766848 0.746438 0.830459
Si Si2 0.114162 0.369739 0.368934
Si Si3 0.000000 0.249041 0.000000
Si Si4 0.350057 0.627966 0.970569
Si Si5 0.881753 0.629560 0.197622
Si Si6 0.431721 0.869683 0.394747
O O1 0.819062 0.686494 0.725616
O O2 0.823013 0.814299 0.880630
O O3 0.701073 0.824028 0.808970
O O4 0.717179 0.662015 0.919549
O O5 0.122173 0.500000 0.360554
O O6 0.113501 0.335885 0.485197
O O7 0.025478 0.341438 0.365809
O O8 0.952381 0.322683 0.099006
O O9 0.066119 0.176500 0.027077
O O10 0.353747 0.500000 0.958222
O O11 0.882559 0.500000 0.192976
O O12 0.895956 0.665750 0.305325
O O13 0.429423 0.000000 0.396253
#
# Coordination Sequence:
#
# PCOD9180281 Si02
#       6
#     8   8   4   8   8   8
#     4  10  20  30  48  71  94 126 155 183 238 281
#     4   9  16  30  49  71  94 121 157 196 226 267
#     4  10  20  32  52  70  88 126 162 186 232 276
#     4  10  20  34  47  68  96 122 155 195 229 275
#     4  10  19  32  47  71  99 122 152 193 230 275
#     4   8  16  29  48  69  93 122 155 192 231 264
#
# _framework density 15.794267
#
# number of rings (size 3 to 8) (size 9 to 14) (size 15 to 20)
#    0.000    2.545    0.000    3.818    0.000    0.727 
#    0.000    5.455    0.000    0.000    0.000   25.455 
#    0.000    0.000    0.000    0.000    0.000    0.000 
#
# Total GULP energy -122645.047724 kJ/mol
# GULP energy per Si atom -5574.774897 kJ/mol
# Density = 1.575832 g / cm^3
# Si number density = 15.794267 Si / 1000 Ang^3
#
#
#
# Elastic Constant Matrix: (Units=GPa)
#
#
# Indices 1 2 3 4 5 6 
#
# 1 109.3019 47.8534 80.2541 0.0000 7.4545 0.0000
# 2 47.8534 80.6441 52.5958 0.0000 -4.5358 0.0000
# 3 80.2541 52.5958 141.0479 0.0000 0.2086 0.0000
# 4 0.0000 0.0000 0.0000 25.3695 0.0000 0.5553
# 5 7.4545 -4.5358 0.2086 0.0000 31.0034 0.0000
# 6 0.0000 0.0000 0.0000 0.5553 0.0000 11.6004
#
#
#
# Elastic Compliance Matrix: (Units=1/GPa)
#
#
# Indices 1 2 3 4 5 6 
#
# 1 0.017886 -0.005637 -0.008067 0.000000 -0.005071 0.000000
# 2 -0.005637 0.018348 -0.003640 0.000000 0.004064 0.000000
# 3 -0.008067 -0.003640 0.013036 0.000000 0.001319 0.000000
# 4 0.000000 0.000000 0.000000 0.039459 0.000000 -0.001889
# 5 -0.005071 0.004064 0.001319 0.000000 0.034059 0.000000
# 6 0.000000 0.000000 0.000000 -0.001889 0.000000 0.086294
#
#
# Mechanical properties :
#
#
# Convention : Reuss Voigt Hill
#
# Bulk Modulus (GPa) = 68.58791 76.93339 72.76065
# Shear Modulus (GPa) = 20.11000 23.61405 21.86202
#
# Velocity S-wave (km/s) = 3.57213 3.87085 3.72449
# Velocity P-wave (km/s) = 7.78033 8.29418 8.04136
#
# Compressibility (1/GPa) = 0.01457983
#
# Stress axis : x y z
#
# Youngs Moduli (GPa) = 55.90869 54.50164 76.71325
#
# Poissons Ratio (x) = 0.30724 0.61888
# Poissons Ratio (y) = 0.31517 0.27927
# Poissons Ratio (z) = 0.45104 0.19841
#
# Static dielectric constant tensor:
#      x y z
#    x 1.515980 0.000000 0.013710 
#    y 0.000000 1.492740 0.000000 
#    z 0.013710 0.000000 1.526040 
# 
# From -- ./inp_files/153448.got.cif
#   From: 2010.05.17/outbox.cif.g08.bks.cpg/sg12_77_cif.got.tgz:153448.got - 2010.06.03 13:09:07.
