data_PCOD9180406
_publ_section_title
;
Structure prediction by ZEFSAII (Michael W. Deem and Ramdas Pophale) SiO2 
 PCOD9180406
Probable space group: C 2/M
;
_chemical_formula_sum "Si O2"
_cell_formula_units_Z 64
_cell_length_a 17.182996
_cell_length_b 11.620458
_cell_length_c 21.844221
_cell_angle_alpha 90.000000
_cell_angle_beta 52.757615
_cell_angle_gamma 90.000000
_cell_volume 3472.296017
_symmetry_space_group_name_H-M "C 2/M"
_symmetry_group_IT_number 12
_symmetry_cell_setting 'monoclinic'
loop_
_space_group_symop_operation_xyz
x,y,z
-x,y,-z
-x,-y,-z
x,-y,z
1/2+x,1/2+y,z
1/2-x,1/2+y,-z
1/2-x,1/2-y,-z
1/2+x,1/2-y,z
loop_
_atom_site_type_symbol
_atom_site_label
_atom_site_fract_x
_atom_site_fract_y
_atom_site_fract_z
Si Si1 0.901582 0.366102 0.007294
Si Si2 0.071541 0.710197 0.414276
Si Si3 0.784707 0.868560 0.573218
Si Si4 0.567694 0.371008 0.598833
Si Si5 0.738997 0.371552 0.737836
Si Si6 0.397196 0.742718 0.295494
Si Si7 0.071602 0.630577 0.149478
Si Si8 0.785516 0.135749 0.105967
O O1 0.859098 0.500000 0.033015
O O2 0.843894 0.249749 0.055318
O O3 0.926314 0.349116 0.924080
O O4 0.000000 0.367959 0.000000
O O5 0.141247 0.795336 0.420235
O O6 0.149662 0.636833 0.339129
O O7 0.000000 0.655491 0.500000
O O8 0.005001 0.780349 0.398035
O O9 0.827462 0.858270 0.484476
O O10 0.673427 0.829907 0.634043
O O11 0.793402 0.000000 0.588355
O O12 0.532433 0.500000 0.601592
O O13 0.579503 0.353382 0.665210
O O14 0.703114 0.500000 0.744077
O O15 0.669387 0.292853 0.730179
O O16 0.730853 0.348550 0.813645
O O17 0.497476 0.790539 0.221548
O O18 0.037683 0.500000 0.175611
O O19 0.181293 0.640349 0.122071
O O20 0.822296 0.000000 0.079494
#
# Coordination Sequence:
#
# PCOD9180406 Si02
#       8
#     8   8   8   8   8   8   8   8
#     4  10  21  39  62  88 115 141 174 222 274 321
#     4   9  18  33  53  74  98 134 179 222 267 318
#     4   9  18  32  51  73  99 135 177 220 265 316
#     4  10  19  32  49  72 103 136 174 223 271 312
#     4  10  21  36  52  74 107 142 177 220 267 317
#     4  11  20  33  52  76 106 138 176 215 265 320
#     4  10  21  37  58  82 109 140 175 219 266 314
#     4  10  21  39  60  82 112 149 184 219 264 321
#
# _framework density 18.431609000000002
#
# number of rings (size 3 to 8) (size 9 to 14) (size 15 to 20)
#    0.000    2.125    0.000    3.375    0.000    2.000 
#    0.000    7.500    0.000    0.750    0.000    0.000 
#    0.000    0.000    0.000    0.000    0.000    0.000 
#
# Total GULP energy -178197.199066 kJ/mol
# GULP energy per Si atom -5568.662471 kJ/mol
# Density = 1.838966 g / cm^3
# Si number density = 18.431609 Si / 1000 Ang^3
#
#
#
# Elastic Constant Matrix: (Units=GPa)
#
#
# Indices 1 2 3 4 5 6 
#
# 1 56.2195 14.0783 25.3460 0.0000 10.9491 0.0000
# 2 14.0783 86.2290 51.5963 0.0000 -5.0787 0.0000
# 3 25.3460 51.5963 77.0870 0.0000 5.3196 0.0000
# 4 0.0000 0.0000 0.0000 20.7024 0.0000 3.1351
# 5 10.9491 -5.0787 5.3196 0.0000 29.1132 0.0000
# 6 0.0000 0.0000 0.0000 3.1351 0.0000 -1.0749
#
#
#
# Elastic Compliance Matrix: (Units=1/GPa)
#
#
# Indices 1 2 3 4 5 6 
#
# 1 0.022251 0.000055 -0.006863 0.000000 -0.007105 0.000000
# 2 0.000055 0.020368 -0.014072 0.000000 0.006104 0.000000
# 3 -0.006863 -0.014072 0.024953 0.000000 -0.004433 0.000000
# 4 0.000000 0.000000 0.000000 0.033505 0.000000 0.097719
# 5 -0.007105 0.006104 -0.004433 0.000000 0.038896 0.000000
# 6 0.000000 0.000000 0.000000 0.097719 0.000000 -0.645280
#
#
# Mechanical properties :
#
#
# Convention : Reuss Voigt Hill
#
# Bulk Modulus (GPa) = 38.73982 44.61966 41.67974
# Shear Modulus (GPa) = -10.99038 18.31579 3.66270
#
# Velocity S-wave (km/s) = -2.44453 3.15575 1.41121
# Velocity P-wave (km/s) = 3.61886 6.12692 5.03166
#
# Compressibility (1/GPa) = 0.02581324
#
# Stress axis : x y z
#
# Youngs Moduli (GPa) = 44.94111 49.09755 40.07467
#
# Poissons Ratio (x) = -0.00270 0.27502
# Poissons Ratio (y) = -0.00247 0.56393
# Poissons Ratio (z) = 0.30842 0.69089
#
# Static dielectric constant tensor:
#      x y z
#    x 1.614610 0.000000 0.002910 
#    y 0.000000 1.663290 0.000000 
#    z 0.002910 0.000000 1.634620 
# 
# From -- ./inp_files/315693.got.cif
#   From: 2010.05.17/outbox.cif.g08.bks.cpg/sg12_158_cif.got.tgz:315693.got - 2010.06.03 13:09:07.
