data_PCOD9180730
_publ_section_title
;
Structure prediction by ZEFSAII (Michael W. Deem and Ramdas Pophale) SiO2 
 PCOD9180730
Probable space group: C 2/M
;
_chemical_formula_sum "Si O2"
_cell_formula_units_Z 56
_cell_length_a 19.501493
_cell_length_b 8.695421
_cell_length_c 23.746150
_cell_angle_alpha 90.000000
_cell_angle_beta 127.634203
_cell_angle_gamma 90.000000
_cell_volume 3188.863173
_symmetry_space_group_name_H-M "C 2/M"
_symmetry_group_IT_number 12
_symmetry_cell_setting 'monoclinic'
loop_
_space_group_symop_operation_xyz
x,y,z
-x,y,-z
-x,-y,-z
x,-y,z
1/2+x,1/2+y,z
1/2-x,1/2+y,-z
1/2-x,1/2-y,-z
1/2+x,1/2-y,z
loop_
_atom_site_type_symbol
_atom_site_label
_atom_site_fract_x
_atom_site_fract_y
_atom_site_fract_z
Si Si1 0.133690 0.185748 0.283363
Si Si2 0.595470 0.685393 0.567021
Si Si3 0.708428 0.816124 0.719602
Si Si4 0.675352 0.684713 0.003580
Si Si5 0.253226 0.816236 0.564015
Si Si6 0.216555 0.815797 0.848415
Si Si7 0.556250 0.313213 0.847674
O O1 0.205249 0.227906 0.272291
O O2 0.167402 0.252248 0.359204
O O3 0.038500 0.240387 0.217764
O O4 0.132722 0.000000 0.286915
O O5 0.500000 0.733450 0.500000
O O6 0.595967 0.500000 0.573260
O O7 0.628459 0.757942 0.641705
O O8 0.666416 0.726960 0.555200
O O9 0.710323 0.743577 0.782078
O O10 0.706007 0.000000 0.722787
O O11 0.680123 0.500000 0.007829
O O12 0.699761 0.751121 0.076487
O O13 0.750000 0.750000 0.000000
O O14 0.587761 0.729495 0.926475
O O15 0.250000 0.750000 0.500000
O O16 0.257867 0.000000 0.564184
O O17 0.131092 0.765851 0.841080
O O18 0.219464 0.000000 0.851134
O O19 0.554552 0.500000 0.845683
#
# Coordination Sequence:
#
# PCOD9180730 Si02
#       7
#     8   8   8   8   8   8   8
#     4   9  18  35  54  71  96 129 164 199 239 288
#     4   9  19  36  55  72  94 129 167 199 236 287
#     4  10  20  33  51  74 100 129 159 200 249 290
#     4   9  16  29  49  73 100 128 162 203 246 288
#     4  10  20  34  52  74  99 127 160 198 241 287
#     4  10  19  32  51  73  99 131 166 203 241 287
#     4   8  16  31  52  74  94 125 166 202 237 283
#
# _framework density 17.561119000000001
#
# number of rings (size 3 to 8) (size 9 to 14) (size 15 to 20)
#    0.000    2.714    0.000    2.571    0.000    2.571 
#    0.000   10.714    0.000    4.286    0.000    0.000 
#    0.000    0.000    0.000    0.000    0.000    0.000 
#
# Total GULP energy -156073.662866 kJ/mol
# GULP energy per Si atom -5574.059388 kJ/mol
# Density = 1.752115 g / cm^3
# Si number density = 17.561119 Si / 1000 Ang^3
#
#
#
# Elastic Constant Matrix: (Units=GPa)
#
#
# Indices 1 2 3 4 5 6 
#
# 1 54.2074 23.5876 86.4634 0.0000 6.8807 0.0000
# 2 23.5876 33.2719 50.2598 0.0000 -2.6392 0.0000
# 3 86.4634 50.2598 223.0513 0.0000 4.2401 0.0000
# 4 0.0000 0.0000 0.0000 36.8072 0.0000 -4.5800
# 5 6.8807 -2.6392 4.2401 0.0000 35.2645 0.0000
# 6 0.0000 0.0000 0.0000 -4.5800 0.0000 19.7175
#
#
#
# Elastic Compliance Matrix: (Units=1/GPa)
#
#
# Indices 1 2 3 4 5 6 
#
# 1 0.052872 -0.011368 -0.017762 0.000000 -0.009031 0.000000
# 2 -0.011368 0.048784 -0.006713 0.000000 0.006676 0.000000
# 3 -0.017762 -0.006713 0.012854 0.000000 0.001418 0.000000
# 4 0.000000 0.000000 0.000000 0.027977 0.000000 0.006499
# 5 -0.009031 0.006676 0.001418 0.000000 0.030448 0.000000
# 6 0.000000 0.000000 0.000000 0.006499 0.000000 0.052226
#
#
# Mechanical properties :
#
#
# Convention : Reuss Voigt Hill
#
# Bulk Modulus (GPa) = 23.35110 70.12803 46.73956
# Shear Modulus (GPa) = 16.07086 28.37249 22.22167
#
# Velocity S-wave (km/s) = 3.02841 4.02387 3.56109
# Velocity P-wave (km/s) = 5.05512 7.84914 6.60164
#
# Compressibility (1/GPa) = 0.04282454
#
# Stress axis : x y z
#
# Youngs Moduli (GPa) = 18.91365 20.49842 77.79634
#
# Poissons Ratio (x) = 0.23303 1.38181
# Poissons Ratio (y) = 0.21502 0.52222
# Poissons Ratio (z) = 0.33594 0.13760
#
# Static dielectric constant tensor:
#      x y z
#    x 1.599270 0.000000 0.007910 
#    y 0.000000 1.593010 0.000000 
#    z 0.007910 0.000000 1.603720 
# 
# From -- ./inp_files/320203.got.cif
#   From: 2010.05.17/outbox.cif.g08.bks.cpg/sg12_161_cif.got.tgz:320203.got - 2010.06.03 13:09:07.
