data_PCOD9180905
_publ_section_title
;
Structure prediction by ZEFSAII (Michael W. Deem and Ramdas Pophale) SiO2 
 PCOD9180905
Probable space group: C 2/M
;
_chemical_formula_sum "Si O2"
_cell_formula_units_Z 64
_cell_length_a 16.223027
_cell_length_b 9.406798
_cell_length_c 20.822816
_cell_angle_alpha 90.000000
_cell_angle_beta 98.648061
_cell_angle_gamma 90.000000
_cell_volume 3141.573458
_symmetry_space_group_name_H-M "C 2/M"
_symmetry_group_IT_number 12
_symmetry_cell_setting 'monoclinic'
loop_
_space_group_symop_operation_xyz
x,y,z
-x,y,-z
-x,-y,-z
x,-y,z
1/2+x,1/2+y,z
1/2-x,1/2+y,-z
1/2-x,1/2-y,-z
1/2+x,1/2-y,z
loop_
_atom_site_type_symbol
_atom_site_label
_atom_site_fract_x
_atom_site_fract_y
_atom_site_fract_z
Si Si1 0.495874 0.828483 0.702372
Si Si2 0.950457 0.839616 0.925122
Si Si3 0.734668 0.829455 0.565328
Si Si4 0.668356 0.328438 0.292369
Si Si5 0.820841 0.329311 0.222324
Si Si6 0.044837 0.672427 0.569016
Si Si7 0.319409 0.841950 0.972803
Si Si8 0.914369 0.658305 0.114523
O O1 0.419112 0.750390 0.726661
O O2 0.588480 0.790810 0.738309
O O3 0.498310 0.783787 0.627963
O O4 0.486632 0.000000 0.705198
O O5 0.868982 0.743458 0.924608
O O6 0.011798 0.770530 0.880362
O O7 0.927053 0.000000 0.905931
O O8 0.000000 0.845491 0.000000
O O9 0.750000 0.750000 0.500000
O O10 0.797340 0.798427 0.631361
O O11 0.642081 0.790366 0.579271
O O12 0.736241 0.000000 0.554547
O O13 0.658871 0.500000 0.285547
O O14 0.740260 0.276866 0.251068
O O15 0.814514 0.500000 0.227693
O O16 0.835873 0.296683 0.149037
O O17 0.042012 0.500000 0.568057
O O18 0.000000 0.725939 0.500000
O O19 0.291015 0.000000 0.950590
O O20 0.250000 0.750000 0.000000
O O21 0.385859 0.857757 0.038244
O O22 0.941600 0.500000 0.139959
#
# Coordination Sequence:
#
# PCOD9180905 Si02
#       8
#     8   8   8   8   8   8   8   8
#     4  10  19  35  58  80 103 140 186 226 267 325
#     4   9  17  31  52  76 103 134 170 214 261 310
#     4  10  19  32  51  77 106 139 177 223 276 331
#     4  10  20  36  56  79 110 145 179 224 281 332
#     4   9  18  37  60  78 107 148 187 222 267 331
#     4   9  16  28  49  75 101 132 175 218 260 317
#     4  10  19  32  52  79 111 144 178 219 269 321
#     4   9  18  34  56  78 103 141 181 215 262 326
#
# _framework density 20.371956000000001
#
# number of rings (size 3 to 8) (size 9 to 14) (size 15 to 20)
#    0.000    2.500    1.250    1.500    0.000    3.500 
#    2.250    2.500    0.000    2.250    0.000    0.000 
#    0.000    0.000    0.000    0.000    0.000    0.000 
#
# Total GULP energy -178395.249640 kJ/mol
# GULP energy per Si atom -5574.851551 kJ/mol
# Density = 2.032559 g / cm^3
# Si number density = 20.371956 Si / 1000 Ang^3
#
#
#
# Elastic Constant Matrix: (Units=GPa)
#
#
# Indices 1 2 3 4 5 6 
#
# 1 118.3970 40.3782 20.6866 0.0000 -40.0671 0.0000
# 2 40.3782 77.3796 10.2892 0.0000 -22.7686 0.0000
# 3 20.6866 10.2892 60.0473 0.0000 -21.7563 0.0000
# 4 0.0000 0.0000 0.0000 10.9069 0.0000 -9.6587
# 5 -40.0671 -22.7686 -21.7563 0.0000 37.3022 0.0000
# 6 0.0000 0.0000 0.0000 -9.6587 0.0000 31.4570
#
#
#
# Elastic Compliance Matrix: (Units=1/GPa)
#
#
# Indices 1 2 3 4 5 6 
#
# 1 0.014028 -0.003491 0.000574 0.000000 0.013271 0.000000
# 2 -0.003491 0.016668 0.000855 0.000000 0.006923 0.000000
# 3 0.000574 0.000855 0.021202 0.000000 0.013504 0.000000
# 4 0.000000 0.000000 0.000000 0.125926 0.000000 0.038665
# 5 0.013271 0.006923 0.013504 0.000000 0.053165 0.000000
# 6 0.000000 0.000000 0.000000 0.038665 0.000000 0.043661
#
#
# Mechanical properties :
#
#
# Convention : Reuss Voigt Hill
#
# Bulk Modulus (GPa) = 20.93212 44.28131 32.60671
# Shear Modulus (GPa) = 16.96646 28.23122 22.59884
#
# Velocity S-wave (km/s) = 2.88902 3.72666 3.33425
# Velocity P-wave (km/s) = 4.62880 6.34830 5.55548
#
# Compressibility (1/GPa) = 0.04777348
#
# Stress axis : x y z
#
# Youngs Moduli (GPa) = 71.28759 59.99385 47.16484
#
# Poissons Ratio (x) = 0.20945 -0.02707
# Poissons Ratio (y) = 0.24888 -0.04032
# Poissons Ratio (z) = -0.04092 -0.05128
#
# Static dielectric constant tensor:
#      x y z
#    x 1.729770 0.000000 0.033860 
#    y 0.000000 1.713120 0.000000 
#    z 0.033860 0.000000 1.797210 
# 
# From -- ./inp_files/314010.got.cif
#   From: 2010.05.17/outbox.cif.g08.bks.cpg/sg12_158_cif.got.tgz:314010.got - 2010.06.03 13:09:07.
