data_PCOD9180134
_publ_section_title
;
Structure prediction by ZEFSAII (Michael W. Deem and Ramdas Pophale) SiO2 
 PCOD9180134
Probable space group: C 2/M
;
_chemical_formula_sum "Si O2"
_cell_formula_units_Z 64
_cell_length_a 18.508055
_cell_length_b 19.987851
_cell_length_c 8.062781
_cell_angle_alpha 90.000000
_cell_angle_beta 93.519217
_cell_angle_gamma 90.000000
_cell_volume 2977.090327
_symmetry_space_group_name_H-M "C 2/M"
_symmetry_group_IT_number 12
_symmetry_cell_setting 'monoclinic'
loop_
_space_group_symop_operation_xyz
x,y,z
-x,y,-z
-x,-y,-z
x,-y,z
1/2+x,1/2+y,z
1/2-x,1/2+y,-z
1/2-x,1/2-y,-z
1/2+x,1/2-y,z
loop_
_atom_site_type_symbol
_atom_site_label
_atom_site_fract_x
_atom_site_fract_y
_atom_site_fract_z
Si Si1 0.056332 0.643834 0.753423
Si Si2 0.686159 0.574654 0.336938
Si Si3 0.073388 0.889383 0.061829
Si Si4 0.215920 0.686442 0.171856
Si Si5 0.093705 0.667308 0.392021
Si Si6 0.306862 0.921910 0.106069
Si Si7 0.636477 0.272015 0.889193
Si Si8 0.069095 0.175281 0.400505
O O1 0.079647 0.633477 0.565737
O O2 0.108020 0.594991 0.863810
O O3 0.081115 0.718089 0.811912
O O4 0.969545 0.642225 0.741911
O O5 0.689651 0.500000 0.411601
O O6 0.763631 0.594544 0.271179
O O7 0.641033 0.629175 0.436352
O O8 0.636180 0.570957 0.163052
O O9 0.104432 0.844352 0.919666
O O10 0.948895 0.837822 0.794613
O O11 0.000000 0.925206 0.000000
O O12 0.171634 0.660185 0.321254
O O13 0.293078 0.719716 0.215945
O O14 0.223566 0.626762 0.039934
O O15 0.168002 0.742066 0.067103
O O16 0.082715 0.746439 0.423484
O O17 0.295923 0.000000 0.071312
O O18 0.000000 0.154783 0.500000
#
# Coordination Sequence:
#
# PCOD9180134 Si02
#       8
#     8   8   8   8   8   8   8   8
#     4  10  23  36  58  86 117 154 184 242 290 357
#     4   9  20  37  58  78 112 154 196 235 276 336
#     4  10  19  31  54  81 110 146 184 232 276 335
#     4  10  19  35  56  82 112 146 187 243 285 344
#     4  11  21  38  54  87 123 146 187 244 308 336
#     4  10  21  42  62  82 111 155 201 240 288 344
#     4  10  19  32  54  84 112 144 192 229 294 345
#     4  10  19  34  54  79 118 149 181 227 287 341
#
# _framework density 21.497499999999999
#
# number of rings (size 3 to 8) (size 9 to 14) (size 15 to 20)
#    0.750    1.250    3.750    0.750    3.500    2.500 
#    0.000    3.125    0.000    0.000    0.000    0.000 
#    0.000    0.000    0.000    0.000    0.000    0.000 
#
# Total GULP energy -178416.076622 kJ/mol
# GULP energy per Si atom -5575.502394 kJ/mol
# Density = 2.144857 g / cm^3
# Si number density = 21.497500 Si / 1000 Ang^3
#
#
#
# Elastic Constant Matrix: (Units=GPa)
#
#
# Indices 1 2 3 4 5 6 
#
# 1 51.9935 12.0190 4.2861 0.0000 -11.8590 0.0000
# 2 12.0190 65.9262 -9.0857 0.0000 -5.6472 0.0000
# 3 4.2861 -9.0857 19.7807 0.0000 -10.2472 0.0000
# 4 0.0000 0.0000 0.0000 4.6721 0.0000 -3.7495
# 5 -11.8590 -5.6472 -10.2472 0.0000 39.2733 0.0000
# 6 0.0000 0.0000 0.0000 -3.7495 0.0000 6.9149
#
#
#
# Elastic Compliance Matrix: (Units=1/GPa)
#
#
# Indices 1 2 3 4 5 6 
#
# 1 0.021624 -0.004077 -0.004023 0.000000 0.004893 0.000000
# 2 -0.004077 0.017835 0.011292 0.000000 0.004280 0.000000
# 3 -0.004023 0.011292 0.065706 0.000000 0.017553 0.000000
# 4 0.000000 0.000000 0.000000 0.378936 0.000000 0.205474
# 5 0.004893 0.004280 0.017553 0.000000 0.032135 0.000000
# 6 0.000000 0.000000 0.000000 0.205474 0.000000 0.256033
#
#
# Mechanical properties :
#
#
# Convention : Reuss Voigt Hill
#
# Bulk Modulus (GPa) = 8.96479 16.90435 12.93457
# Shear Modulus (GPa) = 6.22613 18.87079 12.54846
#
# Velocity S-wave (km/s) = 1.70367 2.96601 2.41865
# Velocity P-wave (km/s) = 2.83711 4.42832 3.71882
#
# Compressibility (1/GPa) = 0.11154754
#
# Stress axis : x y z
#
# Youngs Moduli (GPa) = 46.24596 56.07040 15.21929
#
# Poissons Ratio (x) = 0.22863 0.06123
# Poissons Ratio (y) = 0.18857 -0.17186
# Poissons Ratio (z) = 0.18606 -0.63317
#
# Static dielectric constant tensor:
#      x y z
#    x 1.830300 0.000000 0.006730 
#    y 0.000000 1.745030 0.000000 
#    z 0.006730 0.000000 1.808360 
# 
# From -- ./inp_files/77520.got.cif
#   From: 2010.05.17/outbox.cif.g08.bks.cpg/sg12_39_cif.got.tgz:77520.got - 2010.06.03 13:09:07.
