data_PCOD9180908
_publ_section_title
;
Structure prediction by ZEFSAII (Michael W. Deem and Ramdas Pophale) SiO2 
 PCOD9180908
Probable space group: C 2/M
;
_chemical_formula_sum "Si O2"
_cell_formula_units_Z 56
_cell_length_a 23.400562
_cell_length_b 7.605533
_cell_length_c 14.642203
_cell_angle_alpha 90.000000
_cell_angle_beta 71.073395
_cell_angle_gamma 90.000000
_cell_volume 2465.037845
_symmetry_space_group_name_H-M "C 2/M"
_symmetry_group_IT_number 12
_symmetry_cell_setting 'monoclinic'
loop_
_space_group_symop_operation_xyz
x,y,z
-x,y,-z
-x,-y,-z
x,-y,z
1/2+x,1/2+y,z
1/2-x,1/2+y,-z
1/2-x,1/2-y,-z
1/2+x,1/2-y,z
loop_
_atom_site_type_symbol
_atom_site_label
_atom_site_fract_x
_atom_site_fract_y
_atom_site_fract_z
Si Si1 0.068887 0.786694 0.453699
Si Si2 0.134823 0.202582 0.596498
Si Si3 0.837945 0.292930 0.740829
Si Si4 0.386674 0.707499 0.103753
Si Si5 0.105036 0.287472 0.111582
Si Si6 0.220035 0.785089 0.704808
Si Si7 0.029004 0.298205 0.786285
O O1 0.111183 0.718662 0.514334
O O2 0.099116 0.730422 0.344040
O O3 0.000000 0.727040 0.500000
O O4 0.068233 0.000000 0.457883
O O5 0.190633 0.280229 0.625219
O O6 0.077274 0.206369 0.695150
O O7 0.150151 0.000000 0.569395
O O8 0.824672 0.500000 0.756425
O O9 0.846856 0.222854 0.838492
O O10 0.785029 0.219785 0.703896
O O11 0.394115 0.500000 0.113478
O O12 0.327170 0.761788 0.190622
O O13 0.443053 0.793452 0.126399
O O14 0.382041 0.742491 0.999427
O O15 0.102957 0.500000 0.118016
O O16 0.038139 0.222954 0.174070
O O17 0.221039 0.000000 0.697495
O O18 0.026164 0.500000 0.756556
#
# Coordination Sequence:
#
# PCOD9180908 Si02
#       7
#     8   8   8   8   8   8   8
#     4  10  21  36  54  79 109 136 166 210 259 304
#     4   9  18  34  55  76 103 138 171 209 257 305
#     4  10  21  37  55  74 102 138 173 212 255 303
#     4  10  20  34  54  77 102 136 174 210 253 307
#     4  10  21  34  49  74 106 137 170 213 261 301
#     4   8  17  35  54  74 101 133 171 213 255 298
#     4  10  19  32  51  77 107 134 167 213 258 303
#
# _framework density 22.717706
#
# number of rings (size 3 to 8) (size 9 to 14) (size 15 to 20)
#    0.000    2.429    0.000    3.000    0.000    5.429 
#    0.000    3.571    0.000    0.000    0.000    0.000 
#    0.000    0.000    0.000    0.000    0.000    0.000 
#
# Total GULP energy -156379.965431 kJ/mol
# GULP energy per Si atom -5584.998765 kJ/mol
# Density = 2.266600 g / cm^3
# Si number density = 22.717706 Si / 1000 Ang^3
#
#
#
# Elastic Constant Matrix: (Units=GPa)
#
#
# Indices 1 2 3 4 5 6 
#
# 1 96.5637 3.0505 15.6082 0.0000 18.3212 0.0000
# 2 3.0505 49.8559 -13.0380 0.0000 2.4355 0.0000
# 3 15.6082 -13.0380 70.8791 0.0000 34.8752 0.0000
# 4 0.0000 0.0000 0.0000 19.8391 0.0000 -12.4047
# 5 18.3212 2.4355 34.8752 0.0000 33.1095 0.0000
# 6 0.0000 0.0000 0.0000 -12.4047 0.0000 6.1940
#
#
#
# Elastic Compliance Matrix: (Units=1/GPa)
#
#
# Indices 1 2 3 4 5 6 
#
# 1 0.011624 -0.000005 0.001254 0.000000 -0.007753 0.000000
# 2 -0.000005 0.023504 0.010740 0.000000 -0.013040 0.000000
# 3 0.001254 0.010740 0.034331 0.000000 -0.037646 0.000000
# 4 0.000000 0.000000 0.000000 -0.199852 0.000000 -0.400241
# 5 -0.007753 -0.013040 -0.037646 0.000000 0.075106 0.000000
# 6 0.000000 0.000000 0.000000 -0.400241 0.000000 -0.640115
#
#
# Mechanical properties :
#
#
# Convention : Reuss Voigt Hill
#
# Bulk Modulus (GPa) = 10.70209 25.39334 18.04772
# Shear Modulus (GPa) = -7.26497 25.94041 9.33772
#
# Velocity S-wave (km/s) = -1.79022 3.38281 2.02959
# Velocity P-wave (km/s) = 0.66930 5.14392 3.66796
#
# Compressibility (1/GPa) = 0.09343971
#
# Stress axis : x y z
#
# Youngs Moduli (GPa) = 86.02692 42.54620 29.12789
#
# Poissons Ratio (x) = 0.00019 -0.03653
# Poissons Ratio (y) = 0.00039 -0.31285
# Poissons Ratio (z) = -0.10789 -0.45696
#
# Static dielectric constant tensor:
#      x y z
#    x 1.868220 0.000000 0.029270 
#    y 0.000000 1.849970 0.000000 
#    z 0.029270 0.000000 1.813560 
# 
# From -- ./inp_files/237320.got.cif
#   From: 2010.05.17/outbox.cif.g08.bks.cpg/sg12_119_cif.got.tgz:237320.got - 2010.06.03 13:09:07.
