data_PCOD9180705
_publ_section_title
;
Structure prediction by ZEFSAII (Michael W. Deem and Ramdas Pophale) SiO2 
 PCOD9180705
Probable space group: C 2/M
;
_chemical_formula_sum "Si O2"
_cell_formula_units_Z 56
_cell_length_a 24.396118
_cell_length_b 7.557693
_cell_length_c 19.383981
_cell_angle_alpha 90.000000
_cell_angle_beta 127.105191
_cell_angle_gamma 90.000000
_cell_volume 2850.359121
_symmetry_space_group_name_H-M "C 2/M"
_symmetry_group_IT_number 12
_symmetry_cell_setting 'monoclinic'
loop_
_space_group_symop_operation_xyz
x,y,z
-x,y,-z
-x,-y,-z
x,-y,z
1/2+x,1/2+y,z
1/2-x,1/2+y,-z
1/2-x,1/2-y,-z
1/2+x,1/2-y,z
loop_
_atom_site_type_symbol
_atom_site_label
_atom_site_fract_x
_atom_site_fract_y
_atom_site_fract_z
Si Si1 0.388368 0.288027 0.184923
Si Si2 0.884315 0.287455 0.018757
Si Si3 0.683500 0.211873 0.240645
Si Si4 0.536631 0.715965 0.284502
Si Si5 0.254395 0.716690 0.162177
Si Si6 0.966849 0.705828 0.880461
Si Si7 0.186020 0.208095 0.403215
O O1 0.387979 0.500000 0.192424
O O2 0.380266 0.250787 0.097277
O O3 0.464932 0.225833 0.263923
O O4 0.323863 0.218562 0.179053
O O5 0.886912 0.500000 0.012530
O O6 0.957624 0.219879 0.044098
O O7 0.814304 0.225656 0.930426
O O8 0.741677 0.270694 0.231581
O O9 0.608270 0.283046 0.160189
O O10 0.696899 0.246451 0.331045
O O11 0.678393 0.000000 0.230241
O O12 0.535547 0.500000 0.281587
O O13 0.533458 0.782722 0.203293
O O14 0.610596 0.778727 0.368197
O O15 0.255877 0.500000 0.160410
O O16 0.966112 0.500000 0.901249
O O17 0.250000 0.250000 0.500000
O O18 0.178739 0.000000 0.400212
#
# Coordination Sequence:
#
# PCOD9180705 Si02
#       7
#     8   8   8   8   8   8   8
#     4   9  16  28  44  62  86 119 154 185 213 246
#     4   9  16  26  40  62  88 117 155 193 219 243
#     4   9  17  30  45  64  90 119 146 175 215 261
#     4   8  15  27  44  64  86 110 139 174 213 253
#     4   9  17  27  42  63  89 120 153 185 215 247
#     4   8  14  24  40  60  85 115 147 181 216 250
#     4  10  19  32  51  73  90 106 132 172 218 267
#
# _framework density 19.646647000000002
#
# number of rings (size 3 to 8) (size 9 to 14) (size 15 to 20)
#    0.000    3.143    0.000    0.857    0.000    1.143 
#    0.000    4.286    0.000    0.857    0.000   16.000 
#    0.000    0.000    0.000    0.000    0.000    0.000 
#
# Total GULP energy -155964.636153 kJ/mol
# GULP energy per Si atom -5570.165577 kJ/mol
# Density = 1.960193 g / cm^3
# Si number density = 19.646647 Si / 1000 Ang^3
#
#
#
# Elastic Constant Matrix: (Units=GPa)
#
#
# Indices 1 2 3 4 5 6 
#
# 1 149.3500 7.4349 87.1494 0.0000 23.6551 0.0000
# 2 7.4349 46.8572 2.4149 0.0000 4.3367 0.0000
# 3 87.1494 2.4149 123.2074 0.0000 24.6902 0.0000
# 4 0.0000 0.0000 0.0000 4.8975 0.0000 -1.8487
# 5 23.6551 4.3367 24.6902 0.0000 21.3286 0.0000
# 6 0.0000 0.0000 0.0000 -1.8487 0.0000 8.1426
#
#
#
# Elastic Compliance Matrix: (Units=1/GPa)
#
#
# Indices 1 2 3 4 5 6 
#
# 1 0.011769 -0.001095 -0.007464 0.000000 -0.004190 0.000000
# 2 -0.001095 0.021887 0.001294 0.000000 -0.004734 0.000000
# 3 -0.007464 0.001294 0.015318 0.000000 -0.009717 0.000000
# 4 0.000000 0.000000 0.000000 0.223326 0.000000 0.050705
# 5 -0.004190 -0.004734 -0.009717 0.000000 0.063744 0.000000
# 6 0.000000 0.000000 0.000000 0.050705 0.000000 0.134323
#
#
# Mechanical properties :
#
#
# Convention : Reuss Voigt Hill
#
# Bulk Modulus (GPa) = 29.03206 57.04587 43.03896
# Shear Modulus (GPa) = 10.07300 21.70144 15.88722
#
# Velocity S-wave (km/s) = 2.26676 3.32714 2.84676
# Velocity P-wave (km/s) = 4.65405 6.62260 5.72359
#
# Compressibility (1/GPa) = 0.03444468
#
# Stress axis : x y z
#
# Youngs Moduli (GPa) = 84.96889 45.68999 65.28459
#
# Poissons Ratio (x) = 0.05003 0.48725
# Poissons Ratio (y) = 0.09304 -0.08449
# Poissons Ratio (z) = 0.63417 -0.05913
#
# Static dielectric constant tensor:
#      x y z
#    x 1.744170 0.000000 0.048920 
#    y 0.000000 1.647220 0.000000 
#    z 0.048920 0.000000 1.643820 
# 
# From -- ./inp_files/238881.got.cif
#   From: 2010.05.17/outbox.cif.g08.bks.cpg/sg12_120_cif.got.tgz:238881.got - 2010.06.03 13:09:07.
