data_PCOD9180771
_publ_section_title
;
Structure prediction by ZEFSAII (Michael W. Deem and Ramdas Pophale) SiO2 
 PCOD9180771
Probable space group: C 2/M
;
_chemical_formula_sum "Si O2"
_cell_formula_units_Z 64
_cell_length_a 33.818054
_cell_length_b 14.646874
_cell_length_c 7.719592
_cell_angle_alpha 90.000000
_cell_angle_beta 99.337780
_cell_angle_gamma 90.000000
_cell_volume 3773.067510
_symmetry_space_group_name_H-M "C 2/M"
_symmetry_group_IT_number 12
_symmetry_cell_setting 'monoclinic'
loop_
_space_group_symop_operation_xyz
x,y,z
-x,y,-z
-x,-y,-z
x,-y,z
1/2+x,1/2+y,z
1/2-x,1/2+y,-z
1/2-x,1/2-y,-z
1/2+x,1/2-y,z
loop_
_atom_site_type_symbol
_atom_site_label
_atom_site_fract_x
_atom_site_fract_y
_atom_site_fract_z
Si Si1 0.082485 0.105150 0.853839
Si Si2 0.910597 0.103621 0.726436
Si Si3 0.504252 0.396284 0.298817
Si Si4 0.237634 0.897460 0.838505
Si Si5 0.755920 0.642842 0.479710
Si Si6 0.195688 0.393807 0.825867
Si Si7 0.838021 0.208035 0.122639
Si Si8 0.671857 0.606738 0.246887
O O1 0.037799 0.143792 0.794586
O O2 0.119165 0.162987 0.803474
O O3 0.083422 0.000000 0.788927
O O4 0.088592 0.101686 0.064384
O O5 0.865625 0.137361 0.659206
O O6 0.952608 0.148744 0.704797
O O7 0.912379 0.000000 0.656647
O O8 0.500000 0.403604 0.500000
O O9 0.505884 0.500000 0.222921
O O10 0.262049 0.894853 0.676953
O O11 0.199504 0.831899 0.796975
O O12 0.222271 0.000000 0.857593
O O13 0.266370 0.874434 0.019723
O O14 0.750000 0.750000 0.500000
O O15 0.789097 0.619281 0.360213
O O16 0.713735 0.607948 0.374102
O O17 0.184420 0.500000 0.844108
O O18 0.163618 0.316661 0.854109
O O19 0.827827 0.171995 0.920508
O O20 0.664634 0.500000 0.190342
#
# Coordination Sequence:
#
# PCOD9180771 Si02
#       8
#     8   8   8   8   8   8   8   8
#     4   9  17  28  46  68  94 126 160 195 232 287
#     4   8  15  27  43  64  92 129 160 186 231 286
#     4   9  16  26  40  62  96 130 156 186 228 283
#     4  11  21  33  53  73  95 130 167 205 252 302
#     4  12  22  35  50  72 101 136 172 211 248 294
#     4  11  23  39  53  69 100 133 170 219 260 294
#     4  11  19  33  50  72  95 127 169 207 249 294
#     4  10  19  32  51  74 104 133 163 208 251 295
#
# _framework density 16.962326000000001
#
# number of rings (size 3 to 8) (size 9 to 14) (size 15 to 20)
#    0.000    1.875    2.500    4.500    0.000    2.500 
#    0.000    2.500    0.000    0.000    0.000    0.000 
#    0.000    8.500    0.000    0.000    0.000    0.500 
#
# Total GULP energy -178306.826432 kJ/mol
# GULP energy per Si atom -5572.088326 kJ/mol
# Density = 1.692372 g / cm^3
# Si number density = 16.962326 Si / 1000 Ang^3
#
#
#
# Elastic Constant Matrix: (Units=GPa)
#
#
# Indices 1 2 3 4 5 6 
#
# 1 80.8538 32.9999 6.2329 0.0000 -13.1016 0.0000
# 2 32.9999 74.1995 -4.4473 0.0000 -9.5200 0.0000
# 3 6.2329 -4.4473 41.2463 0.0000 -18.9584 0.0000
# 4 0.0000 0.0000 0.0000 14.6156 0.0000 -2.2483
# 5 -13.1016 -9.5200 -18.9584 0.0000 16.5430 0.0000
# 6 0.0000 0.0000 0.0000 -2.2483 0.0000 14.9855
#
#
#
# Elastic Compliance Matrix: (Units=1/GPa)
#
#
# Indices 1 2 3 4 5 6 
#
# 1 0.016542 -0.005418 0.003179 0.000000 0.013627 0.000000
# 2 -0.005418 0.019431 0.012850 0.000000 0.021616 0.000000
# 3 0.003179 0.012850 0.062770 0.000000 0.081848 0.000000
# 4 0.000000 0.000000 0.000000 0.070036 0.000000 0.010508
# 5 0.013627 0.021616 0.081848 0.000000 0.177478 0.000000
# 6 0.000000 0.000000 0.000000 0.010508 0.000000 0.068308
#
#
# Mechanical properties :
#
#
# Convention : Reuss Voigt Hill
#
# Bulk Modulus (GPa) = 8.33582 29.54117 18.93850
# Shear Modulus (GPa) = 11.53849 19.99642 15.76746
#
# Velocity S-wave (km/s) = 2.61098 3.43720 3.05217
# Velocity P-wave (km/s) = 3.74360 5.76246 4.85904
#
# Compressibility (1/GPa) = 0.11996419
#
# Stress axis : x y z
#
# Youngs Moduli (GPa) = 60.45073 51.46535 15.93117
#
# Poissons Ratio (x) = 0.27885 -0.05065
# Poissons Ratio (y) = 0.32754 -0.20471
# Poissons Ratio (z) = -0.19219 -0.66131
#
# Static dielectric constant tensor:
#      x y z
#    x 1.636520 0.000000 -0.002480 
#    y 0.000000 1.583810 0.000000 
#    z -0.002480 0.000000 1.621920 
# 
# From -- ./inp_files/111243.got.cif
#   From: 2010.05.17/outbox.cif.g08.bks.cpg/sg12_56_cif.got.tgz:111243.got - 2010.06.03 13:09:07.
