data_PCOD9180622
_publ_section_title
;
Structure prediction by ZEFSAII (Michael W. Deem and Ramdas Pophale) SiO2 
 PCOD9180622
Probable space group: C 2/M
;
_chemical_formula_sum "Si O2"
_cell_formula_units_Z 64
_cell_length_a 21.083231
_cell_length_b 11.747905
_cell_length_c 18.738333
_cell_angle_alpha 90.000000
_cell_angle_beta 131.094471
_cell_angle_gamma 90.000000
_cell_volume 3497.718823
_symmetry_space_group_name_H-M "C 2/M"
_symmetry_group_IT_number 12
_symmetry_cell_setting 'monoclinic'
loop_
_space_group_symop_operation_xyz
x,y,z
-x,y,-z
-x,-y,-z
x,-y,z
1/2+x,1/2+y,z
1/2-x,1/2+y,-z
1/2-x,1/2-y,-z
1/2+x,1/2-y,z
loop_
_atom_site_type_symbol
_atom_site_label
_atom_site_fract_x
_atom_site_fract_y
_atom_site_fract_z
Si Si1 0.030311 0.242190 0.834043
Si Si2 0.299312 0.371007 0.019403
Si Si3 0.962138 0.635188 0.644257
Si Si4 0.881239 0.635027 0.336002
Si Si5 0.285778 0.305768 0.849637
Si Si6 0.315152 0.861727 0.442125
Si Si7 0.143803 0.868297 0.251908
Si Si8 0.921071 0.633784 0.989155
O O1 0.106093 0.151911 0.882443
O O2 0.003527 0.301483 0.741120
O O3 0.944739 0.190865 0.802460
O O4 0.064131 0.330258 0.918354
O O5 0.269731 0.500000 0.020215
O O6 0.250000 0.250000 0.000000
O O7 0.301244 0.372250 0.934477
O O8 0.957587 0.500000 0.656708
O O9 0.870429 0.676427 0.550235
O O10 0.025769 0.649496 0.624857
O O11 0.860711 0.500000 0.313585
O O12 0.813416 0.701015 0.237863
O O13 0.865326 0.665675 0.406215
O O14 0.324220 0.359306 0.806064
O O15 0.335441 0.188948 0.897778
O O16 0.220033 0.821258 0.357678
O O17 0.312333 0.000000 0.443758
O O18 0.133231 0.000000 0.262040
O O19 0.917840 0.500000 0.980046
O O20 0.000000 0.676815 0.000000
#
# Coordination Sequence:
#
# PCOD9180622 Si02
#       8
#     8   8   8   8   8   8   8   8
#     4  11  22  34  52  78 104 143 183 221 272 321
#     4  11  24  39  57  81 114 148 188 229 277 333
#     4  10  19  32  50  76 108 142 176 219 271 325
#     4   9  16  29  52  79 106 132 168 219 270 324
#     4  10  19  34  56  80 102 139 178 219 274 321
#     4   8  16  30  51  77 104 133 168 216 276 329
#     4  10  19  34  54  77 104 131 171 223 276 327
#     4  10  20  35  50  71 105 141 180 222 266 321
#
# _framework density 18.297640000000001
#
# number of rings (size 3 to 8) (size 9 to 14) (size 15 to 20)
#    0.000    2.125    1.250    3.750    0.000    5.500 
#    0.000    1.875    0.000    0.000    0.000    3.500 
#    0.000   12.000    0.000    0.000    0.000    0.000 
#
# Total GULP energy -178284.296321 kJ/mol
# GULP energy per Si atom -5571.384260 kJ/mol
# Density = 1.825599 g / cm^3
# Si number density = 18.297640 Si / 1000 Ang^3
#
#
#
# Elastic Constant Matrix: (Units=GPa)
#
#
# Indices 1 2 3 4 5 6 
#
# 1 51.9783 20.8403 19.1906 0.0000 13.9110 0.0000
# 2 20.8403 64.3834 28.2355 0.0000 11.2389 0.0000
# 3 19.1906 28.2355 128.5304 0.0000 17.3076 0.0000
# 4 0.0000 0.0000 0.0000 14.7698 0.0000 6.2586
# 5 13.9110 11.2389 17.3076 0.0000 26.2491 0.0000
# 6 0.0000 0.0000 0.0000 6.2586 0.0000 11.9656
#
#
#
# Elastic Compliance Matrix: (Units=1/GPa)
#
#
# Indices 1 2 3 4 5 6 
#
# 1 0.024584 -0.005766 -0.001078 0.000000 -0.009849 0.000000
# 2 -0.005766 0.019251 -0.002930 0.000000 -0.003255 0.000000
# 3 -0.001078 -0.002930 0.009152 0.000000 -0.004209 0.000000
# 4 0.000000 0.000000 0.000000 0.086985 0.000000 -0.045497
# 5 -0.009849 -0.003255 -0.004209 0.000000 0.047485 0.000000
# 6 0.000000 0.000000 0.000000 -0.045497 0.000000 0.107370
#
#
# Mechanical properties :
#
#
# Convention : Reuss Voigt Hill
#
# Bulk Modulus (GPa) = 29.90380 42.38056 36.14218
# Shear Modulus (GPa) = 15.36001 22.37196 18.86599
#
# Velocity S-wave (km/s) = 2.90047 3.50046 3.21450
# Velocity P-wave (km/s) = 5.25314 6.28885 5.79418
#
# Compressibility (1/GPa) = 0.03344056
#
# Stress axis : x y z
#
# Youngs Moduli (GPa) = 40.67613 51.94414 109.27135
#
# Poissons Ratio (x) = 0.29950 0.11776
# Poissons Ratio (y) = 0.23453 0.32016
# Poissons Ratio (z) = 0.04384 0.15219
#
# Static dielectric constant tensor:
#      x y z
#    x 1.668510 0.000000 0.010030 
#    y 0.000000 1.618180 0.000000 
#    z 0.010030 0.000000 1.641090 
# 
# From -- ./inp_files/283344.got.cif
#   From: 2010.05.17/outbox.cif.g08.bks.cpg/sg12_142_cif.got.tgz:283344.got - 2010.06.03 13:09:07.
