data_PCOD9180651
_publ_section_title
;
Structure prediction by ZEFSAII (Michael W. Deem and Ramdas Pophale) SiO2 
 PCOD9180651
Probable space group: C 2/M
;
_chemical_formula_sum "Si O2"
_cell_formula_units_Z 56
_cell_length_a 8.461572
_cell_length_b 19.622136
_cell_length_c 23.500189
_cell_angle_alpha 90.000000
_cell_angle_beta 126.803491
_cell_angle_gamma 90.000000
_cell_volume 3124.177767
_symmetry_space_group_name_H-M "C 2/M"
_symmetry_group_IT_number 12
_symmetry_cell_setting 'monoclinic'
loop_
_space_group_symop_operation_xyz
x,y,z
-x,y,-z
-x,-y,-z
x,-y,z
1/2+x,1/2+y,z
1/2-x,1/2+y,-z
1/2-x,1/2-y,-z
1/2+x,1/2-y,z
loop_
_atom_site_type_symbol
_atom_site_label
_atom_site_fract_x
_atom_site_fract_y
_atom_site_fract_z
Si Si1 0.808410 0.249732 0.846631
Si Si2 0.487561 0.646606 0.806740
Si Si3 0.764478 0.081172 0.657761
Si Si4 0.779106 0.307937 0.053657
Si Si5 0.468293 0.417304 0.585112
Si Si6 0.182991 0.417269 0.417371
Si Si7 0.232352 0.419525 0.036445
O O1 0.615259 0.295087 0.803527
O O2 0.830699 0.214596 0.913307
O O3 0.822786 0.188799 0.805332
O O4 0.991477 0.301284 0.879687
O O5 0.395245 0.596637 0.741207
O O6 0.631674 0.611511 0.884252
O O7 0.878337 0.107337 0.625735
O O8 0.541313 0.107387 0.621567
O O9 0.745559 0.000000 0.645769
O O10 0.750000 0.250000 0.000000
O O11 0.728871 0.378893 0.013509
O O12 0.480268 0.500000 0.591234
O O13 0.312060 0.401658 0.501335
O O14 0.683915 0.394169 0.608197
O O15 0.173687 0.500000 0.411249
O O16 0.264685 0.500000 0.038672
O O17 0.000000 0.407349 0.000000
#
# Coordination Sequence:
#
# PCOD9180651 Si02
#       7
#     8   8   8   8   8   8   8
#     4  10  21  34  58  72  93 128 190 226 256 302
#     4  11  22  37  51  76 102 140 177 223 264 322
#     4  10  19  32  50  78 118 148 165 210 284 335
#     4  11  17  34  59  78  91 131 178 231 262 314
#     4   8  14  27  50  78 108 142 181 214 252 322
#     4   8  14  27  49  79 109 141 180 215 254 320
#     4  11  21  33  53  81 108 133 169 222 279 326
#
# _framework density 17.924716
#
# number of rings (size 3 to 8) (size 9 to 14) (size 15 to 20)
#    0.000    2.143    4.286    2.143    0.000    1.714 
#    5.143    2.143    0.000    0.000    0.000    4.000 
#    0.000    0.000    0.000    0.000    0.000    0.000 
#
# Total GULP energy -155946.830995 kJ/mol
# GULP energy per Si atom -5569.529678 kJ/mol
# Density = 1.788392 g / cm^3
# Si number density = 17.924716 Si / 1000 Ang^3
#
#
#
# Elastic Constant Matrix: (Units=GPa)
#
#
# Indices 1 2 3 4 5 6 
#
# 1 129.1000 16.8894 40.7453 0.0000 -3.1878 0.0000
# 2 16.8894 35.8529 -2.0575 0.0000 0.9350 0.0000
# 3 40.7453 -2.0575 50.9096 0.0000 -3.8596 0.0000
# 4 0.0000 0.0000 0.0000 9.4765 0.0000 -2.4967
# 5 -3.1878 0.9350 -3.8596 0.0000 13.1144 0.0000
# 6 0.0000 0.0000 0.0000 -2.4967 0.0000 17.4977
#
#
#
# Elastic Compliance Matrix: (Units=1/GPa)
#
#
# Indices 1 2 3 4 5 6 
#
# 1 0.011512 -0.005976 -0.009421 0.000000 0.000452 0.000000
# 2 -0.005976 0.031095 0.005892 0.000000 -0.001935 0.000000
# 3 -0.009421 0.005892 0.027837 0.000000 0.005482 0.000000
# 4 0.000000 0.000000 0.000000 0.109647 0.000000 0.015645
# 5 0.000452 -0.001935 0.005482 0.000000 0.078113 0.000000
# 6 0.000000 0.000000 0.000000 0.015645 0.000000 0.059383
#
#
# Mechanical properties :
#
#
# Convention : Reuss Voigt Hill
#
# Bulk Modulus (GPa) = 19.44167 36.33522 27.88845
# Shear Modulus (GPa) = 14.13467 18.70339 16.41903
#
# Velocity S-wave (km/s) = 2.81117 3.23374 3.02983
# Velocity P-wave (km/s) = 4.62674 5.85301 5.27563
#
# Compressibility (1/GPa) = 0.05143591
#
# Stress axis : x y z
#
# Youngs Moduli (GPa) = 86.86431 32.15919 35.92405
#
# Poissons Ratio (x) = 0.19217 0.33844
# Poissons Ratio (y) = 0.51906 -0.21168
# Poissons Ratio (z) = 0.81835 -0.18950
#
# Static dielectric constant tensor:
#      x y z
#    x 1.687930 0.000000 0.014190 
#    y 0.000000 1.591270 0.000000 
#    z 0.014190 0.000000 1.602410 
# 
# From -- ./inp_files/333615.got.cif
#   From: 2010.05.17/outbox.cif.g08.bks.cpg/sg12_167_cif.got.tgz:333615.got - 2010.06.03 13:09:07.
