data_PCOD9180179
_publ_section_title
;
Structure prediction by ZEFSAII (Michael W. Deem and Ramdas Pophale) SiO2 
 PCOD9180179
Probable space group: C 2/M
;
_chemical_formula_sum "Si O2"
_cell_formula_units_Z 56
_cell_length_a 14.100586
_cell_length_b 14.349361
_cell_length_c 26.678805
_cell_angle_alpha 90.000000
_cell_angle_beta 145.311018
_cell_angle_gamma 90.000000
_cell_volume 3072.140143
_symmetry_space_group_name_H-M "C 2/M"
_symmetry_group_IT_number 12
_symmetry_cell_setting 'monoclinic'
loop_
_space_group_symop_operation_xyz
x,y,z
-x,y,-z
-x,-y,-z
x,-y,z
1/2+x,1/2+y,z
1/2-x,1/2+y,-z
1/2-x,1/2-y,-z
1/2+x,1/2-y,z
loop_
_atom_site_type_symbol
_atom_site_label
_atom_site_fract_x
_atom_site_fract_y
_atom_site_fract_z
Si Si1 0.807575 0.606288 0.344172
Si Si2 0.124037 0.784989 0.182129
Si Si3 0.477827 0.195670 0.283988
Si Si4 0.509814 0.110320 0.821276
Si Si5 0.384181 0.401522 0.639147
Si Si6 0.657051 0.847084 0.457249
Si Si7 0.405939 0.608719 0.011390
O O1 0.824465 0.500000 0.332953
O O2 0.665232 0.658426 0.250845
O O3 0.757859 0.603108 0.380127
O O4 0.983511 0.654954 0.411800
O O5 0.286186 0.807685 0.218528
O O6 0.090412 0.678275 0.184211
O O7 0.971259 0.826699 0.084500
O O8 0.506447 0.155070 0.241356
O O9 0.520203 0.305023 0.310871
O O10 0.594890 0.138062 0.373615
O O11 0.463165 0.000000 0.802115
O O12 0.707355 0.115935 0.919048
O O13 0.477667 0.500000 0.687670
O O14 0.291131 0.406316 0.545594
O O15 0.750000 0.750000 0.500000
O O16 0.447684 0.500000 0.040172
O O17 0.500000 0.632726 0.000000
#
# Coordination Sequence:
#
# PCOD9180179 Si02
#       7
#     8   8   8   8   8   8   8
#     4  10  19  31  55  85 109 142 188 237 283 334
#     4  11  21  37  60  84 117 149 189 234 288 342
#     4  10  21  37  56  83 113 154 192 236 282 343
#     4  11  23  39  59  85 118 154 192 234 289 348
#     4  10  19  34  54  80 112 145 188 238 286 333
#     4   9  19  32  50  79 113 148 184 230 285 335
#     4  10  20  36  61  89 114 146 189 240 287 340
#
# _framework density 18.228335000000001
#
# number of rings (size 3 to 8) (size 9 to 14) (size 15 to 20)
#    0.000    1.857    2.857    1.714    0.000    4.571 
#    0.000    0.000    0.000    0.429    0.000    6.000 
#    0.000    0.000    0.000    0.000    0.000    0.000 
#
# Total GULP energy -155890.467308 kJ/mol
# GULP energy per Si atom -5567.516690 kJ/mol
# Density = 1.818685 g / cm^3
# Si number density = 18.228335 Si / 1000 Ang^3
#
#
#
# Elastic Constant Matrix: (Units=GPa)
#
#
# Indices 1 2 3 4 5 6 
#
# 1 26.1927 23.3664 3.9826 0.0001 -8.5310 0.0001
# 2 23.3664 109.2377 40.8905 0.0000 -17.3034 0.0000
# 3 3.9826 40.8905 78.0537 0.0002 -15.4558 0.0002
# 4 0.0001 0.0000 0.0002 0.0718 0.0001 -30.6774
# 5 -8.5310 -17.3034 -15.4558 0.0001 20.8432 0.0001
# 6 0.0001 0.0000 0.0002 -30.6774 0.0001 -20.7061
#
#
#
# Elastic Compliance Matrix: (Units=1/GPa)
#
#
# Indices 1 2 3 4 5 6 
#
# 1 0.052558 -0.010930 0.006455 0.000000 0.017224 0.000000
# 2 -0.010930 0.014314 -0.006416 0.000000 0.002652 0.000000
# 3 0.006455 -0.006416 0.017947 0.000000 0.010624 0.000000
# 4 0.000000 0.000000 0.000000 0.021967 0.000000 -0.032546
# 5 0.017224 0.002652 0.010624 0.000000 0.065106 0.000000
# 6 0.000000 0.000000 0.000000 -0.032546 0.000000 -0.000076
#
#
# Mechanical properties :
#
#
# Convention : Reuss Voigt Hill
#
# Bulk Modulus (GPa) = 15.86377 38.88479 27.37428
# Shear Modulus (GPa) = 23.29792 9.72476 16.51134
#
# Velocity S-wave (km/s) = 3.57895 2.31226 3.01293
# Velocity P-wave (km/s) = 5.07939 5.33920 5.21092
#
# Compressibility (1/GPa) = 0.06303672
#
# Stress axis : x y z
#
# Youngs Moduli (GPa) = 19.02664 69.86115 55.71885
#
# Poissons Ratio (x) = 0.76360 -0.35967
# Poissons Ratio (y) = 0.20797 0.35749
# Poissons Ratio (z) = -0.12282 0.44823
#
# Static dielectric constant tensor:
#      x y z
#    x 1.626140 0.000000 -0.018090 
#    y 0.000000 1.647560 0.000000 
#    z -0.018090 0.000000 1.636020 
# 
# From -- ./inp_files/361455.got.cif
#   From: 2010.05.17/outbox.cif.g08.bks.cpg/sg12_181_cif.got.tgz:361455.got - 2010.06.03 13:09:07.
