data_PCOD9180917
_publ_section_title
;
Structure prediction by ZEFSAII (Michael W. Deem and Ramdas Pophale) SiO2 
 PCOD9180917
Probable space group: C 2/M
;
_chemical_formula_sum "Si O2"
_cell_formula_units_Z 40
_cell_length_a 24.723014
_cell_length_b 8.775757
_cell_length_c 32.518784
_cell_angle_alpha 90.000000
_cell_angle_beta 19.861542
_cell_angle_gamma 90.000000
_cell_volume 2397.053007
_symmetry_space_group_name_H-M "C 2/M"
_symmetry_group_IT_number 12
_symmetry_cell_setting 'monoclinic'
loop_
_space_group_symop_operation_xyz
x,y,z
-x,y,-z
-x,-y,-z
x,-y,z
1/2+x,1/2+y,z
1/2-x,1/2+y,-z
1/2-x,1/2-y,-z
1/2+x,1/2-y,z
loop_
_atom_site_type_symbol
_atom_site_label
_atom_site_fract_x
_atom_site_fract_y
_atom_site_fract_z
Si Si1 0.773077 0.181470 0.187091
Si Si2 0.697545 0.317802 0.080846
Si Si3 0.921348 0.317767 0.997825
Si Si4 0.450858 0.318661 0.397942
Si Si5 0.413333 0.818130 0.333905
O O1 0.592838 0.237883 0.320633
O O2 0.899101 0.255585 0.128278
O O3 0.783642 0.000000 0.180961
O O4 0.830434 0.240313 0.101144
O O5 0.682956 0.500000 0.088661
O O6 0.532630 0.247144 0.214904
O O7 0.750000 0.250000 0.000000
O O8 0.828925 0.282797 0.022025
O O9 0.920602 0.500000 0.004590
O O10 0.477189 0.500000 0.378769
O O11 0.452435 0.258622 0.349839
O O12 0.272996 0.287463 0.541463
O O13 0.433522 0.000000 0.323465
#
# Coordination Sequence:
#
# PCOD9180917 Si02
#       5
#     8   8   8   8   8
#     4  11  20  30  51  79 107 139 171 217 265 312
#     4  11  23  37  56  77 106 143 179 218 261 311
#     4  10  20  34  51  74 105 140 175 215 264 316
#     4  10  19  32  51  77 109 141 170 213 268 318
#     4  10  20  33  52  77 106 138 177 218 261 313
#
# _framework density 16.687158
#
# number of rings (size 3 to 8) (size 9 to 14) (size 15 to 20)
#    0.000    1.600    2.000    5.400    0.000    4.800 
#    0.000    0.000    0.000    1.200    0.000    8.400 
#    0.000    0.000    0.000    0.000    0.000    0.000 
#
# Total GULP energy -111683.334994 kJ/mol
# GULP energy per Si atom -5584.166750 kJ/mol
# Density = 1.664918 g / cm^3
# Si number density = 16.687158 Si / 1000 Ang^3
#
#
#
# Elastic Constant Matrix: (Units=GPa)
#
#
# Indices 1 2 3 4 5 6 
#
# 1 68.7349 42.4370 55.9267 0.0169 -5.8417 -0.0033
# 2 42.4370 87.0462 53.8799 0.0068 -9.1653 0.0006
# 3 55.9267 53.8799 127.0489 0.0233 -9.6901 0.0019
# 4 0.0169 0.0068 0.0233 30.5406 -0.0033 -3.4974
# 5 -5.8417 -9.1653 -9.6901 -0.0033 30.5541 -0.0041
# 6 -0.0033 0.0006 0.0019 -3.4974 -0.0041 25.2999
#
#
#
# Elastic Compliance Matrix: (Units=1/GPa)
#
#
# Indices 1 2 3 4 5 6 
#
# 1 0.025868 -0.007536 -0.008184 -0.000006 0.000090 0.000003
# 2 -0.007536 0.017983 -0.004107 0.000004 0.002651 0.000000
# 3 -0.008184 -0.004107 0.013324 -0.000005 0.001429 -0.000002
# 4 -0.000006 0.000004 -0.000005 0.033270 0.000003 0.004599
# 5 0.000090 0.002651 0.001429 0.000003 0.033994 0.000006
# 6 0.000003 0.000000 -0.000002 0.004599 0.000006 0.040162
#
#
# Mechanical properties :
#
#
# Convention : Reuss Voigt Hill
#
# Bulk Modulus (GPa) = 57.07317 65.25746 61.16531
# Shear Modulus (GPa) = 23.79846 25.98468 24.89157
#
# Velocity S-wave (km/s) = 3.78054 3.95038 3.86639
# Velocity P-wave (km/s) = 7.30293 7.74588 7.52766
#
# Compressibility (1/GPa) = 0.01752137
#
# Stress axis : x y z
#
# Youngs Moduli (GPa) = 38.65735 55.60681 75.04973
#
# Poissons Ratio (x) = 0.41905 0.61424
# Poissons Ratio (y) = 0.29132 0.30823
# Poissons Ratio (z) = 0.31639 0.22838
#
# Static dielectric constant tensor:
#      x y z
#    x 1.541860 0.000000 -0.036600 
#    y 0.000000 1.555590 0.000000 
#    z -0.036600 0.000000 1.573700 
# 
# From -- ./inp_files/162741.got.cif
#   From: 2010.05.17/outbox.cif.g08.bks.cpg/sg12_82_cif.got.tgz:162741.got - 2010.06.03 13:09:07.
