data_PCOD9180088
_publ_section_title
;
Structure prediction by ZEFSAII (Michael W. Deem and Ramdas Pophale) SiO2 
 PCOD9180088
Probable space group: C 2/M
;
_chemical_formula_sum "Si O2"
_cell_formula_units_Z 64
_cell_length_a 32.921328
_cell_length_b 7.471204
_cell_length_c 25.391274
_cell_angle_alpha 90.000000
_cell_angle_beta 26.796629
_cell_angle_gamma 90.000000
_cell_volume 2815.531870
_symmetry_space_group_name_H-M "C 2/M"
_symmetry_group_IT_number 12
_symmetry_cell_setting 'monoclinic'
loop_
_space_group_symop_operation_xyz
x,y,z
-x,y,-z
-x,-y,-z
x,-y,z
1/2+x,1/2+y,z
1/2-x,1/2+y,-z
1/2-x,1/2-y,-z
1/2+x,1/2-y,z
loop_
_atom_site_type_symbol
_atom_site_label
_atom_site_fract_x
_atom_site_fract_y
_atom_site_fract_z
Si Si1 0.130608 0.780912 0.498622
Si Si2 0.427966 0.716711 0.746620
Si Si3 0.925311 0.718952 0.044587
Si Si4 0.358170 0.292314 0.935285
Si Si5 0.988941 0.716948 0.164408
Si Si6 0.794538 0.708452 0.810688
Si Si7 0.283802 0.213634 0.402162
Si Si8 0.775425 0.791623 0.713413
O O1 0.210096 0.720339 0.445693
O O2 0.156686 0.721780 0.409309
O O3 0.031065 0.721148 0.630213
O O4 0.127442 0.000000 0.504419
O O5 0.427887 0.500000 0.749552
O O6 0.368546 0.784125 0.864728
O O7 0.382429 0.769204 0.744606
O O8 0.923977 0.500000 0.046309
O O9 0.825543 0.784589 0.173334
O O10 0.000000 0.774929 0.000000
O O11 0.955505 0.773014 0.951424
O O12 0.332170 0.500000 0.959511
O O13 0.456569 0.282024 0.847998
O O14 0.286891 0.212350 0.059319
O O15 0.988355 0.500000 0.167113
O O16 0.886172 0.780439 0.278654
O O17 0.774715 0.500000 0.825443
O O18 0.803854 0.783039 0.741333
O O19 0.250000 0.250000 0.500000
O O20 0.288807 0.000000 0.388368
O O21 0.765565 0.000000 0.711169
#
# Coordination Sequence:
#
# PCOD9180088 Si02
#       8
#     8   8   8   8   8   8   8   8
#     4   9  19  36  58  83 110 144 190 233 270 322
#     4  10  21  38  59  80 104 143 191 233 275 328
#     4   9  16  28  50  80 108 135 174 221 266 308
#     4  10  21  37  57  81 113 147 179 225 284 338
#     4  10  19  31  53  84 111 141 181 225 268 321
#     4  11  23  38  56  82 113 144 181 230 285 336
#     4  10  20  35  55  82 116 150 187 227 271 324
#     4  10  19  35  59  82 109 146 184 227 274 326
#
# _framework density 22.73105
#
# number of rings (size 3 to 8) (size 9 to 14) (size 15 to 20)
#    0.000    2.125    1.250    2.250    0.000    6.000 
#    0.000    4.375    0.000    3.000    0.000    0.000 
#    0.000    0.000    0.000    0.000    0.000    0.000 
#
# Total GULP energy -178840.957828 kJ/mol
# GULP energy per Si atom -5588.779932 kJ/mol
# Density = 2.267931 g / cm^3
# Si number density = 22.731050 Si / 1000 Ang^3
#
#
#
# Elastic Constant Matrix: (Units=GPa)
#
#
# Indices 1 2 3 4 5 6 
#
# 1 106.1312 -13.7236 17.0495 -0.0312 6.5182 0.0334
# 2 -13.7236 65.4978 3.4505 0.0008 2.0747 -0.0258
# 3 17.0495 3.4505 95.4987 -0.0730 10.2284 0.0573
# 4 -0.0312 0.0008 -0.0730 14.0073 0.0176 -11.1608
# 5 6.5182 2.0747 10.2284 0.0176 43.2731 -0.0161
# 6 0.0334 -0.0258 0.0573 -11.1608 -0.0161 26.8890
#
#
#
# Elastic Compliance Matrix: (Units=1/GPa)
#
#
# Indices 1 2 3 4 5 6 
#
# 1 0.010067 0.002240 -0.001749 0.000013 -0.001211 -0.000002
# 2 0.002240 0.015811 -0.000876 0.000017 -0.000888 0.000021
# 3 -0.001749 -0.000876 0.011063 0.000057 -0.002309 0.000000
# 4 0.000013 0.000017 0.000057 0.106669 -0.000043 0.044275
# 5 -0.001211 -0.000888 -0.002309 -0.000043 0.023880 0.000002
# 6 -0.000002 0.000021 0.000000 0.044275 0.000002 0.055567
#
#
# Mechanical properties :
#
#
# Convention : Reuss Voigt Hill
#
# Bulk Modulus (GPa) = 27.64604 31.18669 29.41636
# Shear Modulus (GPa) = 21.19683 34.19064 27.69373
#
# Velocity S-wave (km/s) = 3.05701 3.88253 3.49423
# Velocity P-wave (km/s) = 4.96478 5.81793 5.40821
#
# Compressibility (1/GPa) = 0.03617155
#
# Stress axis : x y z
#
# Youngs Moduli (GPa) = 99.33272 63.24591 90.39495
#
# Poissons Ratio (x) = -0.14166 0.15806
# Poissons Ratio (y) = -0.22249 0.07919
# Poissons Ratio (z) = 0.17369 0.05540
#
# Static dielectric constant tensor:
#      x y z
#    x 1.808380 0.000010 0.007140 
#    y 0.000010 1.854580 0.000010 
#    z 0.007140 0.000010 1.839620 
# 
# From -- ./inp_files/353365.got.cif
#   From: 2010.05.17/outbox.cif.g08.bks.cpg/sg12_177_cif.got.tgz:353365.got - 2010.06.03 13:09:07.
