data_PCOD9180865
_publ_section_title
;
Structure prediction by ZEFSAII (Michael W. Deem and Ramdas Pophale) SiO2 
 PCOD9180865
Probable space group: C 2/M
;
_chemical_formula_sum "Si O2"
_cell_formula_units_Z 56
_cell_length_a 15.405145
_cell_length_b 7.308085
_cell_length_c 25.676695
_cell_angle_alpha 90.000000
_cell_angle_beta 47.796465
_cell_angle_gamma 90.000000
_cell_volume 2141.351063
_symmetry_space_group_name_H-M "C 2/M"
_symmetry_group_IT_number 12
_symmetry_cell_setting 'monoclinic'
loop_
_space_group_symop_operation_xyz
x,y,z
-x,y,-z
-x,-y,-z
x,-y,z
1/2+x,1/2+y,z
1/2-x,1/2+y,-z
1/2-x,1/2-y,-z
1/2+x,1/2-y,z
loop_
_atom_site_type_symbol
_atom_site_label
_atom_site_fract_x
_atom_site_fract_y
_atom_site_fract_z
Si Si1 0.494295 0.716462 0.944020
Si Si2 0.790002 0.276930 0.409370
Si Si3 0.605301 0.220422 0.741760
Si Si4 0.367346 0.707594 0.896054
Si Si5 0.240826 0.780392 0.161759
Si Si6 0.348782 0.722757 0.697325
Si Si7 0.062819 0.792933 0.547640
O O1 0.471038 0.500000 0.957090
O O2 0.403813 0.789688 0.937208
O O3 0.628310 0.739805 0.871953
O O4 0.500000 0.794669 0.000000
O O5 0.788642 0.500000 0.411739
O O6 0.862270 0.221876 0.329685
O O7 0.856781 0.204785 0.432874
O O8 0.653197 0.218116 0.468131
O O9 0.488977 0.297362 0.814483
O O10 0.721269 0.266904 0.727179
O O11 0.592412 0.000000 0.747776
O O12 0.328567 0.500000 0.921785
O O13 0.280274 0.792079 0.888259
O O14 0.150183 0.716098 0.242761
O O15 0.229390 0.000000 0.163261
O O16 0.360095 0.500000 0.693452
O O17 0.445420 0.793156 0.618060
O O18 0.033771 0.000000 0.543484
#
# Coordination Sequence:
#
# PCOD9180865 Si02
#       7
#     8   8   8   8   8   8   8
#     4  10  22  40  59  83 116 146 175 218 271 325
#     4   9  18  30  46  71 100 132 175 225 271 316
#     4  10  19  32  51  76 106 138 179 229 272 316
#     4  10  21  37  58  83 111 145 183 222 269 324
#     4  10  20  36  58  83 110 143 185 225 263 317
#     4   9  17  30  50  74 101 134 175 222 265 311
#     4   9  17  31  49  68  97 138 178 219 269 320
#
# _framework density 26.151713000000001
#
# number of rings (size 3 to 8) (size 9 to 14) (size 15 to 20)
#    0.000    2.429    1.429    0.857    0.000    3.714 
#    0.000    4.286    0.000    0.000    0.000    5.000 
#    0.000    0.000    0.000    0.000    0.000    0.000 
#
# Total GULP energy -156503.328413 kJ/mol
# GULP energy per Si atom -5589.404586 kJ/mol
# Density = 2.609219 g / cm^3
# Si number density = 26.151713 Si / 1000 Ang^3
#
#
#
# Elastic Constant Matrix: (Units=GPa)
#
#
# Indices 1 2 3 4 5 6 
#
# 1 95.6984 9.2314 21.0368 -0.0003 20.6810 -0.0003
# 2 9.2314 118.1255 8.9076 0.0018 4.3480 0.0033
# 3 21.0368 8.9076 128.4457 -0.0002 9.3932 -0.0002
# 4 -0.0003 0.0018 -0.0002 -9.5846 0.0002 -8.2466
# 5 20.6810 4.3480 9.3932 0.0002 56.3392 0.0002
# 6 -0.0003 0.0033 -0.0002 -8.2466 0.0002 5.2751
#
#
#
# Elastic Compliance Matrix: (Units=1/GPa)
#
#
# Indices 1 2 3 4 5 6 
#
# 1 0.011722 -0.000650 -0.001583 -0.000001 -0.003989 0.000000
# 2 -0.000650 0.008564 -0.000462 0.000003 -0.000345 -0.000001
# 3 -0.001583 -0.000462 0.008131 0.000000 -0.000739 0.000000
# 4 -0.000001 0.000003 0.000000 -0.044491 0.000000 -0.069552
# 5 -0.003989 -0.000345 -0.000739 0.000000 0.019364 0.000000
# 6 0.000000 -0.000001 0.000000 -0.069552 0.000000 0.080837
#
#
# Mechanical properties :
#
#
# Convention : Reuss Voigt Hill
#
# Bulk Modulus (GPa) = 43.42814 46.73567 45.08190
# Shear Modulus (GPa) = 51.44421 30.61220 41.02820
#
# Velocity S-wave (km/s) = 4.44006 3.42506 3.96517
# Velocity P-wave (km/s) = 6.55193 5.79234 6.18381
#
# Compressibility (1/GPa) = 0.02302655
#
# Stress axis : x y z
#
# Youngs Moduli (GPa) = 85.30819 116.76888 122.98982
#
# Poissons Ratio (x) = 0.07589 0.19470
# Poissons Ratio (y) = 0.05544 0.05685
# Poissons Ratio (z) = 0.13505 0.05397
#
# Static dielectric constant tensor:
#      x y z
#    x 2.033690 0.000000 0.009530 
#    y 0.000000 2.007560 0.000000 
#    z 0.009530 0.000000 2.100970 
# 
# From -- ./inp_files/308947.got.cif
#   From: 2010.05.17/outbox.cif.g08.bks.cpg/sg12_155_cif.got.tgz:308947.got - 2010.06.03 13:09:07.
