data_PCOD9180523
_publ_section_title
;
Structure prediction by ZEFSAII (Michael W. Deem and Ramdas Pophale) SiO2 
 PCOD9180523
Probable space group: C 2/M
;
_chemical_formula_sum "Si O2"
_cell_formula_units_Z 40
_cell_length_a 25.098737
_cell_length_b 8.767803
_cell_length_c 12.437367
_cell_angle_alpha 90.000000
_cell_angle_beta 118.127129
_cell_angle_gamma 90.000000
_cell_volume 2413.750011
_symmetry_space_group_name_H-M "C 2/M"
_symmetry_group_IT_number 12
_symmetry_cell_setting 'monoclinic'
loop_
_space_group_symop_operation_xyz
x,y,z
-x,y,-z
-x,-y,-z
x,-y,z
1/2+x,1/2+y,z
1/2-x,1/2+y,-z
1/2-x,1/2-y,-z
1/2+x,1/2-y,z
loop_
_atom_site_type_symbol
_atom_site_label
_atom_site_fract_x
_atom_site_fract_y
_atom_site_fract_z
Si Si1 0.501828 0.317399 0.839376
Si Si2 0.041887 0.183421 0.440389
Si Si3 0.699165 0.318658 0.302186
Si Si4 0.667912 0.181660 0.504124
Si Si5 0.593210 0.181515 0.080929
O O1 0.499211 0.500000 0.850638
O O2 0.489551 0.280579 0.703697
O O3 0.449675 0.242600 0.863236
O O4 0.564379 0.254542 0.946780
O O5 0.107313 0.260828 0.502253
O O6 0.000000 0.229682 0.500000
O O7 0.049906 0.000000 0.452290
O O8 0.690368 0.500000 0.285536
O O9 0.674900 0.263266 0.395325
O O10 0.770636 0.284902 0.371956
O O11 0.660119 0.236007 0.174378
O O12 0.665437 0.000000 0.483662
O O13 0.589367 0.000000 0.072505
#
# Coordination Sequence:
#
# PCOD9180523 Si02
#       5
#     8   8   8   8   8
#     4  10  19  32  50  72 102 137 170 205 255 307
#     4  10  21  36  54  75 103 139 174 208 249 303
#     4  10  19  32  50  74 105 136 165 206 260 312
#     4  10  20  32  50  76 103 133 170 211 255 301
#     4  11  20  30  49  76 105 132 166 212 257 302
#
# _framework density 16.571724
#
# number of rings (size 3 to 8) (size 9 to 14) (size 15 to 20)
#    0.000    1.800    2.000    4.800    0.000    3.600 
#    0.000    0.000    0.000    1.200    0.000    0.000 
#    0.000    0.000    0.000    0.000    0.000    0.000 
#
# Total GULP energy -111637.674078 kJ/mol
# GULP energy per Si atom -5581.883704 kJ/mol
# Density = 1.653401 g / cm^3
# Si number density = 16.571724 Si / 1000 Ang^3
#
#
#
# Elastic Constant Matrix: (Units=GPa)
#
#
# Indices 1 2 3 4 5 6 
#
# 1 100.2337 38.3357 55.4194 0.0000 11.2314 0.0000
# 2 38.3357 71.1783 45.6316 0.0000 11.2886 0.0000
# 3 55.4194 45.6316 99.1255 0.0000 20.6985 0.0000
# 4 0.0000 0.0000 0.0000 4.0186 0.0000 23.9532
# 5 11.2314 11.2886 20.6985 0.0000 27.2570 0.0000
# 6 0.0000 0.0000 0.0000 23.9532 0.0000 10.1047
#
#
#
# Elastic Compliance Matrix: (Units=1/GPa)
#
#
# Indices 1 2 3 4 5 6 
#
# 1 0.015164 -0.003894 -0.006795 0.000000 0.000524 0.000000
# 2 -0.003894 0.020985 -0.007135 0.000000 -0.001668 0.000000
# 3 -0.006795 -0.007135 0.018979 0.000000 -0.008658 0.000000
# 4 0.000000 0.000000 0.000000 -0.018953 0.000000 0.044928
# 5 0.000524 -0.001668 -0.008658 0.000000 0.043737 0.000000
# 6 0.000000 0.000000 0.000000 0.044928 0.000000 -0.007537
#
#
# Mechanical properties :
#
#
# Convention : Reuss Voigt Hill
#
# Bulk Modulus (GPa) = 51.33179 61.03455 56.18317
# Shear Modulus (GPa) = 43.66148 17.01945 30.34046
#
# Velocity S-wave (km/s) = 5.13850 3.20819 4.28349
# Velocity P-wave (km/s) = 8.13931 7.11574 7.64468
#
# Compressibility (1/GPa) = 0.01948111
#
# Stress axis : x y z
#
# Youngs Moduli (GPa) = 65.94457 47.65247 52.68880
#
# Poissons Ratio (x) = 0.18557 0.35801
# Poissons Ratio (y) = 0.25681 0.37592
# Poissons Ratio (z) = 0.44808 0.33999
#
# Static dielectric constant tensor:
#      x y z
#    x 1.538740 0.000000 0.031240 
#    y 0.000000 1.554120 0.000000 
#    z 0.031240 0.000000 1.570730 
# 
# From -- ./inp_files/171871.got.cif
#   From: 2010.05.17/outbox.cif.g08.bks.cpg/sg12_86_cif.got.tgz:171871.got - 2010.06.03 13:09:07.
