data_PCOD9180121
_publ_section_title
;
Structure prediction by ZEFSAII (Michael W. Deem and Ramdas Pophale) SiO2 
 PCOD9180121
Probable space group: C 2/M
;
_chemical_formula_sum "Si O2"
_cell_formula_units_Z 36
_cell_length_a 19.234164
_cell_length_b 13.680074
_cell_length_c 6.678472
_cell_angle_alpha 90.000000
_cell_angle_beta 58.171446
_cell_angle_gamma 90.000000
_cell_volume 1493.030555
_symmetry_space_group_name_H-M "C 2/M"
_symmetry_group_IT_number 12
_symmetry_cell_setting 'monoclinic'
loop_
_space_group_symop_operation_xyz
x,y,z
-x,y,-z
-x,-y,-z
x,-y,z
1/2+x,1/2+y,z
1/2-x,1/2+y,-z
1/2-x,1/2-y,-z
1/2+x,1/2-y,z
loop_
_atom_site_type_symbol
_atom_site_label
_atom_site_fract_x
_atom_site_fract_y
_atom_site_fract_z
Si Si1 0.840471 0.743935 0.455750
Si Si2 0.201199 0.390432 0.137089
Si Si3 0.884259 0.111732 0.738887
Si Si4 0.984971 0.500000 0.769640
Si Si5 0.579537 0.783681 0.072176
O O1 0.750000 0.750000 0.500000
O O2 0.837557 0.646831 0.598090
O O3 0.860092 0.835458 0.568656
O O4 0.906969 0.736888 0.180465
O O5 0.173525 0.500000 0.123080
O O6 0.170310 0.315009 0.018496
O O7 0.298837 0.392532 0.993561
O O8 0.941985 0.185638 0.773901
O O9 0.910922 0.000000 0.673940
O O10 0.966138 0.382145 0.803906
O O11 0.000000 0.500000 0.500000
O O12 0.000000 0.500000 0.000000
#
# Coordination Sequence:
#
# PCOD9180121 Si02
#       5
#     8   8   8   4   8
#     4  11  19  31  53  92 132 176 215 253 332 430
#     4  10  19  31  53  88 133 172 209 253 332 429
#     4  10  21  35  56  94 137 174 211 259 336 448
#     4  12  32  52  74 102 128 180 256 310 346 388
#     4  11  22  40  64  87 130 174 219 284 353 385
#
# _framework density 24.112033
#
# number of rings (size 3 to 8) (size 9 to 14) (size 15 to 20)
#    0.000    1.333    5.556    1.333    7.778    1.778 
#    0.000    0.000    0.000    1.333    0.000    0.000 
#    0.000    0.000    0.000    0.000    0.000    0.000 
#
# Total GULP energy -100286.557563 kJ/mol
# GULP energy per Si atom -5571.475420 kJ/mol
# Density = 2.405715 g / cm^3
# Si number density = 24.112033 Si / 1000 Ang^3
#
#
#
# Elastic Constant Matrix: (Units=GPa)
#
#
# Indices 1 2 3 4 5 6 
#
# 1 57.9332 31.7930 30.0127 0.0000 1.5056 0.0000
# 2 31.7930 259.6088 86.3272 0.0000 27.8563 0.0000
# 3 30.0127 86.3272 206.0684 0.0000 16.1957 0.0000
# 4 0.0000 0.0000 0.0000 29.4692 0.0000 4.7972
# 5 1.5056 27.8563 16.1957 0.0000 36.1498 0.0000
# 6 0.0000 0.0000 0.0000 4.7972 0.0000 38.8434
#
#
#
# Elastic Compliance Matrix: (Units=1/GPa)
#
#
# Indices 1 2 3 4 5 6 
#
# 1 0.019345 -0.001812 -0.002182 0.000000 0.001568 0.000000
# 2 -0.001812 0.004915 -0.001558 0.000000 -0.003014 0.000000
# 3 -0.002182 -0.001558 0.005931 0.000000 -0.001365 0.000000
# 4 0.000000 0.000000 0.000000 0.034630 0.000000 -0.004277
# 5 0.001568 -0.003014 -0.001365 0.000000 0.030532 0.000000
# 6 0.000000 0.000000 0.000000 -0.004277 0.000000 0.026273
#
#
# Mechanical properties :
#
#
# Convention : Reuss Voigt Hill
#
# Bulk Modulus (GPa) = 52.39102 91.09736 71.74419
# Shear Modulus (GPa) = 35.94750 45.92434 40.93592
#
# Velocity S-wave (km/s) = 3.86535 4.36893 4.12483
# Velocity P-wave (km/s) = 6.45729 7.95695 7.24602
#
# Compressibility (1/GPa) = 0.01908724
#
# Stress axis : x y z
#
# Youngs Moduli (GPa) = 51.69276 203.43898 168.61471
#
# Poissons Ratio (x) = 0.36860 0.36787
# Poissons Ratio (y) = 0.09366 0.26278
# Poissons Ratio (z) = 0.11278 0.31705
#
# Static dielectric constant tensor:
#      x y z
#    x 2.080350 0.000000 -0.008020 
#    y 0.000000 1.855790 0.000000 
#    z -0.008020 0.000000 1.913630 
# 
# From -- ./inp_files/24010.got.cif
#   From: 2010.05.17/outbox.cif.g08.bks.cpg/sg12_13_cif.got.tgz:24010.got - 2010.06.03 13:09:07.
