data_PCOD9180199
_publ_section_title
;
Structure prediction by ZEFSAII (Michael W. Deem and Ramdas Pophale) SiO2 
 PCOD9180199
Probable space group: C 2/M
;
_chemical_formula_sum "Si O2"
_cell_formula_units_Z 56
_cell_length_a 17.036704
_cell_length_b 17.896331
_cell_length_c 9.785458
_cell_angle_alpha 90.000000
_cell_angle_beta 126.931359
_cell_angle_gamma 90.000000
_cell_volume 2384.904173
_symmetry_space_group_name_H-M "C 2/M"
_symmetry_group_IT_number 12
_symmetry_cell_setting 'monoclinic'
loop_
_space_group_symop_operation_xyz
x,y,z
-x,y,-z
-x,-y,-z
x,-y,z
1/2+x,1/2+y,z
1/2-x,1/2+y,-z
1/2-x,1/2-y,-z
1/2+x,1/2-y,z
loop_
_atom_site_type_symbol
_atom_site_label
_atom_site_fract_x
_atom_site_fract_y
_atom_site_fract_z
Si Si1 0.841613 0.586781 0.170048
Si Si2 0.357943 0.346904 0.100274
Si Si3 0.817795 0.919050 0.342405
Si Si4 0.852150 0.242736 0.689418
Si Si5 0.472916 0.218365 0.327703
Si Si6 0.385031 0.877927 0.901731
Si Si7 0.434005 0.585380 0.743139
O O1 0.840161 0.500000 0.209121
O O2 0.926461 0.639005 0.317648
O O3 0.737433 0.627627 0.081502
O O4 0.863062 0.593294 0.030298
O O5 0.335366 0.364364 0.236287
O O6 0.392364 0.261835 0.152429
O O7 0.451469 0.393970 0.146219
O O8 0.705192 0.914865 0.276971
O O9 0.891051 0.910727 0.544108
O O10 0.834392 0.000000 0.296156
O O11 0.750000 0.250000 0.500000
O O12 0.864074 0.292189 0.837548
O O13 0.880149 0.157050 0.752476
O O14 0.932185 0.278154 0.668856
O O15 0.500000 0.256303 0.500000
O O16 0.500000 0.893910 0.000000
O O17 0.418655 0.500000 0.776855
#
# Coordination Sequence:
#
# PCOD9180199 Si02
#       7
#     8   8   8   8   8   8   8
#     4  11  24  41  63  96 128 163 212 266 326 381
#     4  10  19  35  60  90 122 158 205 260 312 368
#     4  10  19  31  55  90 123 155 197 253 312 367
#     4  11  22  41  60  91 127 165 213 259 309 378
#     4  11  24  41  64  94 126 171 213 257 319 389
#     4  11  21  38  59  87 121 160 208 254 310 361
#     4  10  19  33  57  88 123 160 201 253 313 371
#
# _framework density 23.481024999999999
#
# number of rings (size 3 to 8) (size 9 to 14) (size 15 to 20)
#    0.000    1.429    2.857    5.143    2.000    2.571 
#    0.000    0.714    0.000    0.429    0.000    0.000 
#    0.000    0.000    0.000    0.000    0.000    0.000 
#
# Total GULP energy -156324.591645 kJ/mol
# GULP energy per Si atom -5583.021130 kJ/mol
# Density = 2.342758 g / cm^3
# Si number density = 23.481025 Si / 1000 Ang^3
#
#
#
# Elastic Constant Matrix: (Units=GPa)
#
#
# Indices 1 2 3 4 5 6 
#
# 1 73.0895 31.0068 41.5873 0.0000 31.2459 0.0000
# 2 31.0068 136.7778 35.2470 0.0000 23.6722 0.0000
# 3 41.5873 35.2470 100.4812 0.0000 26.7967 0.0000
# 4 0.0000 0.0000 0.0000 23.8340 0.0000 -2.0062
# 5 31.2459 23.6722 26.7967 0.0000 42.2554 0.0000
# 6 0.0000 0.0000 0.0000 -2.0062 0.0000 19.0863
#
#
#
# Elastic Compliance Matrix: (Units=1/GPa)
#
#
# Indices 1 2 3 4 5 6 
#
# 1 0.022864 -0.001586 -0.005578 0.000000 -0.012481 0.000000
# 2 -0.001586 0.008541 -0.001657 0.000000 -0.002562 0.000000
# 3 -0.005578 -0.001657 0.013834 0.000000 -0.003720 0.000000
# 4 0.000000 0.000000 0.000000 0.042331 0.000000 0.004450
# 5 -0.012481 -0.002562 -0.003720 0.000000 0.036689 0.000000
# 6 0.000000 0.000000 0.000000 0.004450 0.000000 0.052861
#
#
# Mechanical properties :
#
#
# Convention : Reuss Voigt Hill
#
# Bulk Modulus (GPa) = 36.23429 58.44788 47.34108
# Shear Modulus (GPa) = 24.51444 30.53563 27.52504
#
# Velocity S-wave (km/s) = 3.23462 3.61007 3.42749
# Velocity P-wave (km/s) = 5.42358 6.50557 5.98906
#
# Compressibility (1/GPa) = 0.02759817
#
# Stress axis : x y z
#
# Youngs Moduli (GPa) = 43.73633 117.08488 72.28538
#
# Poissons Ratio (x) = 0.18565 0.40324
# Poissons Ratio (y) = 0.06935 0.11974
# Poissons Ratio (z) = 0.24398 0.19396
#
# Static dielectric constant tensor:
#      x y z
#    x 1.902970 0.000000 0.019600 
#    y 0.000000 1.967500 0.000000 
#    z 0.019600 0.000000 1.912700 
# 
# From -- ./inp_files/158345.got.cif
#   From: 2010.05.17/outbox.cif.g08.bks.cpg/sg12_80_cif.got.tgz:158345.got - 2010.06.03 13:09:07.
