data_PCOD9180997
_publ_section_title
;
Structure prediction by ZEFSAII (Michael W. Deem and Ramdas Pophale) SiO2 
 PCOD9180997
Probable space group: C 2/M
;
_chemical_formula_sum "Si O2"
_cell_formula_units_Z 60
_cell_length_a 15.645056
_cell_length_b 17.045017
_cell_length_c 12.175829
_cell_angle_alpha 90.000000
_cell_angle_beta 95.999104
_cell_angle_gamma 90.000000
_cell_volume 3229.149586
_symmetry_space_group_name_H-M "C 2/M"
_symmetry_group_IT_number 12
_symmetry_cell_setting 'monoclinic'
loop_
_space_group_symop_operation_xyz
x,y,z
-x,y,-z
-x,-y,-z
x,-y,z
1/2+x,1/2+y,z
1/2-x,1/2+y,-z
1/2-x,1/2-y,-z
1/2+x,1/2-y,z
loop_
_atom_site_type_symbol
_atom_site_label
_atom_site_fract_x
_atom_site_fract_y
_atom_site_fract_z
Si Si1 0.240991 0.090583 0.586955
Si Si2 0.346279 0.087300 0.379281
Si Si3 0.035697 0.234696 0.297936
Si Si4 0.688664 0.818292 0.194050
Si Si5 0.153060 0.709321 0.800649
Si Si6 0.101564 0.591513 0.988153
Si Si7 0.580574 0.588925 0.430599
Si Si8 0.500000 0.835334 0.500000
O O1 0.306843 0.090189 0.494963
O O2 0.274337 0.139276 0.693043
O O3 0.155600 0.122788 0.517669
O O4 0.225104 0.000000 0.618273
O O5 0.313695 0.155924 0.296533
O O6 0.444760 0.108633 0.414512
O O7 0.334090 0.000000 0.332344
O O8 0.104993 0.269136 0.222163
O O9 0.057859 0.144738 0.327098
O O10 0.936536 0.247967 0.246965
O O11 0.046143 0.279059 0.417477
O O12 0.768273 0.766556 0.159945
O O13 0.655278 0.880545 0.100954
O O14 0.127696 0.648949 0.892914
O O15 0.117247 0.500000 0.964626
O O16 0.000000 0.600134 0.000000
O O17 0.500000 0.584186 0.500000
O O18 0.605762 0.500000 0.400572
#
# Coordination Sequence:
#
# PCOD9180997 Si02
#       8
#     8   8   8   8   8   8   8   4
#     4  10  21  35  54  88 126 160 201 242 300 365
#     4  10  20  34  53  84 124 162 195 239 301 364
#     4  11  21  36  58  90 123 161 210 244 303 364
#     4  12  23  39  64  91 124 161 201 259 311 360
#     4  11  24  40  62  92 120 162 206 258 308 367
#     4  11  24  46  69  91 120 156 206 259 320 377
#     4  10  20  34  52  77 119 168 204 240 284 349
#     4  10  19  32  51  84 122 160 196 240 297 358
#
# _framework density 18.580742999999998
#
# number of rings (size 3 to 8) (size 9 to 14) (size 15 to 20)
#    0.000    1.333    3.333    3.000    1.867    1.067 
#    0.000    1.333    0.000    0.000    0.000    1.867 
#    0.000    0.000    0.000    0.000    0.000    0.000 
#
# Total GULP energy -167383.454416 kJ/mol
# GULP energy per Si atom -5579.448481 kJ/mol
# Density = 1.853845 g / cm^3
# Si number density = 18.580743 Si / 1000 Ang^3
#
#
#
# Elastic Constant Matrix: (Units=GPa)
#
#
# Indices 1 2 3 4 5 6 
#
# 1 67.2983 43.3135 19.7272 0.0000 10.8971 0.0000
# 2 43.3135 78.6872 41.5519 0.0000 12.8165 0.0000
# 3 19.7272 41.5519 70.8729 0.0000 6.0025 0.0000
# 4 0.0000 0.0000 0.0000 31.6300 0.0000 -9.6773
# 5 10.8971 12.8165 6.0025 0.0000 27.3347 0.0000
# 6 0.0000 0.0000 0.0000 -9.6773 0.0000 21.1173
#
#
#
# Elastic Compliance Matrix: (Units=1/GPa)
#
#
# Indices 1 2 3 4 5 6 
#
# 1 0.023428 -0.013088 0.001451 0.000000 -0.003521 0.000000
# 2 -0.013088 0.026880 -0.011709 0.000000 -0.004815 0.000000
# 3 0.001451 -0.011709 0.020537 0.000000 0.000402 0.000000
# 4 0.000000 0.000000 0.000000 0.036771 0.000000 0.016851
# 5 -0.003521 -0.004815 0.000402 0.000000 0.040157 0.000000
# 6 0.000000 0.000000 0.000000 0.016851 0.000000 0.055077
#
#
# Mechanical properties :
#
#
# Convention : Reuss Voigt Hill
#
# Bulk Modulus (GPa) = 41.40446 47.33819 44.37133
# Shear Modulus (GPa) = 19.41051 23.50078 21.45564
#
# Velocity S-wave (km/s) = 3.23562 3.56025 3.40181
# Velocity P-wave (km/s) = 6.02419 6.51405 6.27390
#
# Compressibility (1/GPa) = 0.02415199
#
# Stress axis : x y z
#
# Youngs Moduli (GPa) = 42.68409 37.20202 48.69360
#
# Poissons Ratio (x) = 0.48692 -0.07064
# Poissons Ratio (y) = 0.55867 0.57014
# Poissons Ratio (z) = -0.06193 0.43559
#
# Static dielectric constant tensor:
#      x y z
#    x 1.375680 0.000000 0.073730 
#    y 0.000000 1.675000 0.000000 
#    z 0.073730 0.000000 1.604260 
# 
# From -- ./inp_files/146189.got.cif
#   From: 2010.05.17/outbox.cif.g08.bks.cpg/sg12_74_cif.got.tgz:146189.got - 2010.06.03 13:09:07.
