data_PCOD9180942
_publ_section_title
;
Structure prediction by ZEFSAII (Michael W. Deem and Ramdas Pophale) SiO2 
 PCOD9180942
Probable space group: C 2/M
;
_chemical_formula_sum "Si O2"
_cell_formula_units_Z 64
_cell_length_a 18.175196
_cell_length_b 13.426409
_cell_length_c 15.458163
_cell_angle_alpha 90.000000
_cell_angle_beta 92.024090
_cell_angle_gamma 90.000000
_cell_volume 3769.865033
_symmetry_space_group_name_H-M "C 2/M"
_symmetry_group_IT_number 12
_symmetry_cell_setting 'monoclinic'
loop_
_space_group_symop_operation_xyz
x,y,z
-x,y,-z
-x,-y,-z
x,-y,z
1/2+x,1/2+y,z
1/2-x,1/2+y,-z
1/2-x,1/2-y,-z
1/2+x,1/2-y,z
loop_
_atom_site_type_symbol
_atom_site_label
_atom_site_fract_x
_atom_site_fract_y
_atom_site_fract_z
Si Si1 0.147651 0.619360 0.076787
Si Si2 0.154595 0.619849 0.876657
Si Si3 0.902225 0.731858 0.668853
Si Si4 0.811195 0.381643 0.515311
Si Si5 0.483958 0.388600 0.398069
Si Si6 0.765725 0.745965 0.781063
Si Si7 0.008680 0.380697 0.182415
Si Si8 0.323191 0.296367 0.388778
O O1 0.155463 0.500000 0.083504
O O2 0.204110 0.671579 0.144403
O O3 0.065010 0.644028 0.106556
O O4 0.159055 0.648482 0.977918
O O5 0.156955 0.500000 0.872123
O O6 0.220568 0.667175 0.825332
O O7 0.074636 0.653392 0.837627
O O8 0.865452 0.667930 0.589576
O O9 0.836860 0.773615 0.726584
O O10 0.951948 0.820914 0.637446
O O11 0.953811 0.662953 0.730552
O O12 0.823216 0.500000 0.505707
O O13 0.729012 0.360289 0.548872
O O14 0.820856 0.315546 0.428966
O O15 0.500000 0.395793 0.500000
O O16 0.482372 0.500000 0.360634
O O17 0.405192 0.336347 0.386788
O O18 0.712308 0.698225 0.707335
O O19 0.006854 0.500000 0.188651
#
# Coordination Sequence:
#
# PCOD9180942 Si02
#       8
#     8   8   8   8   8   8   8   8
#     4   9  18  33  54  78 103 136 175 211 255 311
#     4  10  19  32  51  78 109 138 170 208 259 317
#     4  10  20  36  53  78 106 136 181 218 255 315
#     4  10  20  36  57  78 105 138 171 219 270 311
#     4  11  22  37  55  72  99 140 180 221 260 304
#     4  10  21  34  53  75 107 137 169 219 262 304
#     4   9  17  31  54  80 107 136 167 213 262 306
#     4  10  21  37  53  79 104 134 182 219 257 318
#
# _framework density 16.976735000000001
#
# number of rings (size 3 to 8) (size 9 to 14) (size 15 to 20)
#    0.000    2.125    1.250    2.250    0.000    6.000 
#    0.000    1.875    0.000    0.000    0.000    0.000 
#    0.000   14.000    0.000    0.000    0.000    0.000 
#
# Total GULP energy -178448.584392 kJ/mol
# GULP energy per Si atom -5576.518262 kJ/mol
# Density = 1.693809 g / cm^3
# Si number density = 16.976735 Si / 1000 Ang^3
#
#
#
# Elastic Constant Matrix: (Units=GPa)
#
#
# Indices 1 2 3 4 5 6 
#
# 1 126.3063 52.8245 46.2116 0.0000 8.4341 0.0000
# 2 52.8245 70.0667 9.8728 0.0000 -6.1386 0.0000
# 3 46.2116 9.8728 42.0249 0.0000 12.7093 0.0000
# 4 0.0000 0.0000 0.0000 -2.3340 0.0000 -3.5047
# 5 8.4341 -6.1386 12.7093 0.0000 17.0229 0.0000
# 6 0.0000 0.0000 0.0000 -3.5047 0.0000 25.1364
#
#
#
# Elastic Compliance Matrix: (Units=1/GPa)
#
#
# Indices 1 2 3 4 5 6 
#
# 1 0.020205 -0.012542 -0.019215 0.000000 -0.000188 0.000000
# 2 -0.012542 0.024064 0.004695 0.000000 0.011386 0.000000
# 3 -0.019215 0.004695 0.052222 0.000000 -0.027776 0.000000
# 4 0.000000 0.000000 0.000000 -0.354271 0.000000 -0.049396
# 5 -0.000188 0.011386 -0.027776 0.000000 0.083681 0.000000
# 6 0.000000 0.000000 0.000000 -0.049396 0.000000 0.032896
#
#
# Mechanical properties :
#
#
# Convention : Reuss Voigt Hill
#
# Bulk Modulus (GPa) = 23.60365 50.69062 37.14713
# Shear Modulus (GPa) = -68.53415 16.59766 -25.96824
#
# Velocity S-wave (km/s) = -6.36059 3.13017 -3.91530
# Velocity P-wave (km/s) = 6.32527 6.55649 1.22036
#
# Compressibility (1/GPa) = 0.04236633
#
# Stress axis : x y z
#
# Youngs Moduli (GPa) = 49.49154 41.55602 19.14904
#
# Poissons Ratio (x) = 0.52120 0.36795
# Poissons Ratio (y) = 0.62073 -0.08990
# Poissons Ratio (z) = 0.95099 -0.19510
#
# Static dielectric constant tensor:
#      x y z
#    x 1.576760 0.000000 -0.005640 
#    y 0.000000 1.556950 0.000000 
#    z -0.005640 0.000000 1.579830 
# 
# From -- ./inp_files/223838.got.cif
#   From: 2010.05.17/outbox.cif.g08.bks.cpg/sg12_112_cif.got.tgz:223838.got - 2010.06.03 13:09:07.
