data_PCOD9180742
_publ_section_title
;
Structure prediction by ZEFSAII (Michael W. Deem and Ramdas Pophale) SiO2 
 PCOD9180742
Probable space group: C 2/M
;
_chemical_formula_sum "Si O2"
_cell_formula_units_Z 48
_cell_length_a 18.956324
_cell_length_b 8.921083
_cell_length_c 16.179662
_cell_angle_alpha 90.000000
_cell_angle_beta 90.034639
_cell_angle_gamma 90.000000
_cell_volume 2736.157346
_symmetry_space_group_name_H-M "C 2/M"
_symmetry_group_IT_number 12
_symmetry_cell_setting 'monoclinic'
loop_
_space_group_symop_operation_xyz
x,y,z
-x,y,-z
-x,-y,-z
x,-y,z
1/2+x,1/2+y,z
1/2-x,1/2+y,-z
1/2-x,1/2-y,-z
1/2+x,1/2-y,z
loop_
_atom_site_type_symbol
_atom_site_label
_atom_site_fract_x
_atom_site_fract_y
_atom_site_fract_z
Si Si1 0.293297 0.820654 0.575467
Si Si2 0.455432 0.820626 0.922651
Si Si3 0.052242 0.180528 0.424750
Si Si4 0.959746 0.172220 0.754817
Si Si5 0.788135 0.174345 0.749150
Si Si6 0.710207 0.819931 0.077870
O O1 0.250000 0.750000 0.500000
O O2 0.374216 0.766316 0.566053
O O3 0.267584 0.757447 0.664480
O O4 0.288792 0.000000 0.574763
O O5 0.482632 0.763833 0.834414
O O6 0.372933 0.780662 0.930357
O O7 0.459333 0.000000 0.922793
O O8 0.500000 0.761919 0.000000
O O9 0.018015 0.223339 0.336407
O O10 0.000000 0.208816 0.500000
O O11 0.066510 0.000000 0.420765
O O12 0.874041 0.178892 0.751196
O O13 0.980598 0.000000 0.766290
O O14 0.764640 0.253133 0.834088
O O15 0.767149 0.000000 0.747241
O O16 0.716847 0.000000 0.078587
O O17 0.750000 0.750000 0.000000
#
# Coordination Sequence:
#
# PCOD9180742 Si02
#       6
#     8   8   8   8   8   8
#     4  11  21  34  53  77 104 134 171 211 254 305
#     4   9  18  32  49  69  94 126 162 200 242 286
#     4   9  18  34  54  75 102 134 167 206 253 302
#     4   8  15  28  48  72  95 124 160 197 240 291
#     4   9  17  32  52  73  98 129 167 208 251 301
#     4  10  19  32  51  74 100 131 166 205 249 298
#
# _framework density 17.542850999999999
#
# number of rings (size 3 to 8) (size 9 to 14) (size 15 to 20)
#    0.000    2.667    0.000    3.500    0.000    5.333 
#    0.000    1.667    0.000    4.000    0.000    0.000 
#    0.000    0.000    0.000    0.000    0.000    0.000 
#
# Total GULP energy -133764.523822 kJ/mol
# GULP energy per Si atom -5573.521826 kJ/mol
# Density = 1.750292 g / cm^3
# Si number density = 17.542851 Si / 1000 Ang^3
#
#
#
# Elastic Constant Matrix: (Units=GPa)
#
#
# Indices 1 2 3 4 5 6 
#
# 1 30.7455 35.4105 59.7386 0.0000 2.3715 0.0000
# 2 35.4105 83.2940 78.0822 0.0000 2.1327 0.0000
# 3 59.7386 78.0822 217.4520 0.0000 -0.6421 0.0000
# 4 0.0000 0.0000 0.0000 35.2655 0.0000 2.1047
# 5 2.3715 2.1327 -0.6421 0.0000 32.8757 0.0000
# 6 0.0000 0.0000 0.0000 2.1047 0.0000 16.0596
#
#
#
# Elastic Compliance Matrix: (Units=1/GPa)
#
#
# Indices 1 2 3 4 5 6 
#
# 1 0.093535 -0.023392 -0.017313 0.000000 -0.005568 0.000000
# 2 -0.023392 0.024003 -0.002193 0.000000 0.000087 0.000000
# 3 -0.017313 -0.002193 0.010147 0.000000 0.001589 0.000000
# 4 0.000000 0.000000 0.000000 0.028580 0.000000 -0.003745
# 5 -0.005568 0.000087 0.001589 0.000000 0.030845 0.000000
# 6 0.000000 0.000000 0.000000 -0.003745 0.000000 0.062759
#
#
# Mechanical properties :
#
#
# Convention : Reuss Voigt Hill
#
# Bulk Modulus (GPa) = 23.87188 75.32824 49.60006
# Shear Modulus (GPa) = 14.30098 27.39084 20.84591
#
# Velocity S-wave (km/s) = 2.85827 3.95570 3.45089
# Velocity P-wave (km/s) = 4.95280 7.99351 6.64930
#
# Compressibility (1/GPa) = 0.04189030
#
# Stress axis : x y z
#
# Youngs Moduli (GPa) = 10.69121 41.66094 98.55213
#
# Poissons Ratio (x) = 0.97453 1.70622
# Poissons Ratio (y) = 0.25009 0.21608
# Poissons Ratio (z) = 0.18510 0.09134
#
# Static dielectric constant tensor:
#      x y z
#    x 1.584930 0.000000 0.001050 
#    y 0.000000 1.591310 0.000000 
#    z 0.001050 0.000000 1.611400 
# 
# From -- ./inp_files/172379.got.cif
#   From: 2010.05.17/outbox.cif.g08.bks.cpg/sg12_87_cif.got.tgz:172379.got - 2010.06.03 13:09:07.
