data_PCOD9180650
_publ_section_title
;
Structure prediction by ZEFSAII (Michael W. Deem and Ramdas Pophale) SiO2 
 PCOD9180650
Probable space group: C 2/M
;
_chemical_formula_sum "Si O2"
_cell_formula_units_Z 64
_cell_length_a 17.485386
_cell_length_b 26.193320
_cell_length_c 21.358419
_cell_angle_alpha 90.000000
_cell_angle_beta 19.276871
_cell_angle_gamma 90.000000
_cell_volume 3229.418333
_symmetry_space_group_name_H-M "C 2/M"
_symmetry_group_IT_number 12
_symmetry_cell_setting 'monoclinic'
loop_
_space_group_symop_operation_xyz
x,y,z
-x,y,-z
-x,-y,-z
x,-y,z
1/2+x,1/2+y,z
1/2-x,1/2+y,-z
1/2-x,1/2-y,-z
1/2+x,1/2-y,z
loop_
_atom_site_type_symbol
_atom_site_label
_atom_site_fract_x
_atom_site_fract_y
_atom_site_fract_z
Si Si1 0.309596 0.796264 0.597345
Si Si2 0.526217 0.941878 0.719411
Si Si3 0.547296 0.277742 0.619418
Si Si4 0.755000 0.561118 0.049869
Si Si5 0.306127 0.373366 0.425471
Si Si6 0.608416 0.867111 0.851738
Si Si7 0.524988 0.759367 0.054993
Si Si8 0.986149 0.946060 0.584730
O O1 0.500000 0.814668 0.500000
O O2 0.428704 0.748148 0.467533
O O3 0.242422 0.838295 0.597258
O O4 0.084471 0.780597 0.812010
O O5 0.322327 0.929841 0.925360
O O6 0.576137 0.902097 0.626380
O O7 0.763254 0.940924 0.578016
O O8 0.499840 0.000000 0.717121
O O9 0.750000 0.250000 0.500000
O O10 0.606198 0.336730 0.586012
O O11 0.301587 0.267903 0.843171
O O12 0.768123 0.500000 0.050108
O O13 0.947673 0.591939 0.940850
O O14 0.506826 0.584980 0.258002
O O15 0.607553 0.811965 0.820444
O O16 0.832395 0.896037 0.703824
O O17 0.500000 0.849603 0.000000
O O18 0.500000 0.745138 0.000000
O O19 0.000000 0.952222 0.500000
O O20 0.882571 0.000000 0.689959
#
# Coordination Sequence:
#
# PCOD9180650 Si02
#       8
#     8   8   8   8   8   8   8   8
#     4  11  25  44  68  90 121 163 205 263 316 366
#     4  10  22  38  58  85 124 165 205 255 306 361
#     4  10  23  40  61  92 123 160 206 252 309 367
#     4  11  22  39  60  87 122 163 206 252 308 363
#     4  11  24  40  62  93 121 157 208 248 310 369
#     4  11  22  33  52  82 119 161 205 247 289 345
#     4  11  23  41  61  89 127 161 210 253 307 365
#     4  10  19  32  50  78 116 163 209 243 281 342
#
# _framework density 19.817810999999999
#
# number of rings (size 3 to 8) (size 9 to 14) (size 15 to 20)
#    0.000    1.375    3.750    1.500    3.500    6.500 
#    0.000    0.000    0.000    1.500    0.000    1.750 
#    0.000    0.000    0.000    0.000    0.000    0.000 
#
# Total GULP energy -178303.785431 kJ/mol
# GULP energy per Si atom -5571.993295 kJ/mol
# Density = 1.977270 g / cm^3
# Si number density = 19.817811 Si / 1000 Ang^3
#
#
#
# Elastic Constant Matrix: (Units=GPa)
#
#
# Indices 1 2 3 4 5 6 
#
# 1 64.5402 34.5655 3.0621 0.2594 8.5297 -0.4659
# 2 34.5655 80.8735 24.2952 0.0192 18.6646 0.1156
# 3 3.0621 24.2952 65.5107 0.3982 17.4872 -0.7527
# 4 0.2594 0.0192 0.3982 6.1620 0.1458 74.7112
# 5 8.5297 18.6646 17.4872 0.1458 32.0448 -0.6511
# 6 -0.4659 0.1156 -0.7527 74.7112 -0.6511 -148.3764
#
#
#
# Elastic Compliance Matrix: (Units=1/GPa)
#
#
# Indices 1 2 3 4 5 6 
#
# 1 0.020541 -0.009273 0.002922 -0.000003 -0.001663 -0.000081
# 2 -0.009273 0.019236 -0.005113 -0.000051 -0.005944 0.000070
# 3 0.002922 -0.005113 0.019239 -0.000036 -0.008301 -0.000092
# 4 -0.000003 -0.000051 -0.000036 0.022842 0.000180 0.011501
# 5 -0.001663 -0.005944 -0.008301 0.000180 0.039639 -0.000041
# 6 -0.000081 0.000070 -0.000092 0.011501 -0.000041 -0.000948
#
#
# Mechanical properties :
#
#
# Convention : Reuss Voigt Hill
#
# Bulk Modulus (GPa) = 27.70991 37.19667 32.45329
# Shear Modulus (GPa) = 32.15288 -12.10050 10.02619
#
# Velocity S-wave (km/s) = 4.03230 -2.47369 2.25170
# Velocity P-wave (km/s) = 5.97427 3.26362 4.81369
#
# Compressibility (1/GPa) = 0.03608818
#
# Stress axis : x y z
#
# Youngs Moduli (GPa) = 48.68263 51.98579 51.97763
#
# Poissons Ratio (x) = 0.48208 -0.15187
# Poissons Ratio (y) = 0.45145 0.26574
# Poissons Ratio (z) = -0.14224 0.26578
#
# Static dielectric constant tensor:
#      x y z
#    x 1.715760 -0.001070 0.020360 
#    y -0.001070 1.520010 0.001410 
#    z 0.020360 0.001410 1.721330 
# 
# From -- ./inp_files/318565.got.cif
#   From: 2010.05.17/outbox.cif.g08.bks.cpg/sg12_160_cif.got.tgz:318565.got - 2010.06.03 13:09:07.
