data_PCOD9180131
_publ_section_title
;
Structure prediction by ZEFSAII (Michael W. Deem and Ramdas Pophale) SiO2 
 PCOD9180131
Probable space group: C 2/M
;
_chemical_formula_sum "Si O2"
_cell_formula_units_Z 52
_cell_length_a 23.657675
_cell_length_b 10.930801
_cell_length_c 11.884369
_cell_angle_alpha 90.000000
_cell_angle_beta 79.272668
_cell_angle_gamma 90.000000
_cell_volume 3019.558137
_symmetry_space_group_name_H-M "C 2/M"
_symmetry_group_IT_number 12
_symmetry_cell_setting 'monoclinic'
loop_
_space_group_symop_operation_xyz
x,y,z
-x,y,-z
-x,-y,-z
x,-y,z
1/2+x,1/2+y,z
1/2-x,1/2+y,-z
1/2-x,1/2-y,-z
1/2+x,1/2-y,z
loop_
_atom_site_type_symbol
_atom_site_label
_atom_site_fract_x
_atom_site_fract_y
_atom_site_fract_z
Si Si1 0.309381 0.360658 0.860149
Si Si2 0.143878 0.639157 0.592901
Si Si3 0.413183 0.000000 0.778799
Si Si4 0.177735 0.724395 0.920114
Si Si5 0.204372 0.137021 0.697733
Si Si6 0.660454 0.809767 0.332811
Si Si7 0.404675 0.000000 0.051794
Si Si8 0.955235 0.500000 0.262530
O O1 0.322042 0.500000 0.880115
O O2 0.240675 0.337652 0.888806
O O3 0.332723 0.320623 0.730027
O O4 0.332140 0.274949 0.951628
O O5 0.170897 0.500000 0.587656
O O6 0.181458 0.747274 0.633969
O O7 0.135558 0.676036 0.466413
O O8 0.082915 0.614103 0.677026
O O9 0.378285 0.112240 0.737902
O O10 0.479913 0.000000 0.719130
O O11 0.412798 0.000000 0.914582
O O12 0.179504 0.834898 0.830917
O O13 0.132435 0.620619 0.907619
O O14 0.273627 0.142890 0.681890
O O15 0.188463 0.000000 0.664553
O O16 0.454430 0.000000 0.126856
#
# Coordination Sequence:
#
# PCOD9180131 Si02
#       8
#     8   8   4   8   8   8   4   4
#     4  10  20  31  50  85 122 162 191 235 302 368
#     4  10  21  39  59  84 119 155 207 240 294 350
#     4  12  22  40  61  89 118 148 204 259 293 354
#     4  10  19  31  54  80 122 155 191 240 296 367
#     4  11  21  34  56  88 124 155 193 234 302 363
#     4  11  22  34  56  87 119 158 190 246 296 349
#     4  12  19  38  60  90 108 148 199 249 306 338
#     4  10  24  40  63  85 114 156 205 255 298 340
#
# _framework density 17.221063000000001
#
# number of rings (size 3 to 8) (size 9 to 14) (size 15 to 20)
#    0.462    0.923    5.385    1.154    0.000    2.462 
#    0.000    0.000    0.000    0.923    0.000    4.308 
#    0.000    0.000    0.000    0.000    0.000    0.000 
#
# Total GULP energy -144790.895805 kJ/mol
# GULP energy per Si atom -5568.880608 kJ/mol
# Density = 1.718187 g / cm^3
# Si number density = 17.221063 Si / 1000 Ang^3
#
#
#
# Elastic Constant Matrix: (Units=GPa)
#
#
# Indices 1 2 3 4 5 6 
#
# 1 71.8462 42.6021 36.4570 0.0000 2.2473 0.0000
# 2 42.6021 88.5118 22.9982 0.0000 1.9802 0.0000
# 3 36.4570 22.9982 109.5091 0.0000 10.5391 0.0000
# 4 0.0000 0.0000 0.0000 820.6872 0.0000 -708.2758
# 5 2.2473 1.9802 10.5391 0.0000 15.2540 0.0000
# 6 0.0000 0.0000 0.0000 -708.2758 0.0000 648.2211
#
#
#
# Elastic Compliance Matrix: (Units=1/GPa)
#
#
# Indices 1 2 3 4 5 6 
#
# 1 0.022212 -0.009271 -0.005622 0.000000 0.001816 0.000000
# 2 -0.009271 0.015820 -0.000182 0.000000 -0.000562 0.000000
# 3 -0.005622 -0.000182 0.011740 0.000000 -0.007260 0.000000
# 4 0.000000 0.000000 0.000000 0.021371 0.000000 0.023351
# 5 0.001816 -0.000562 -0.007260 0.000000 0.070378 0.000000
# 6 0.000000 0.000000 0.000000 0.023351 0.000000 0.027057
#
#
# Mechanical properties :
#
#
# Convention : Reuss Voigt Hill
#
# Bulk Modulus (GPa) = 50.96305 52.66464 51.81385
# Shear Modulus (GPa) = 24.35840 308.01978 166.18909
#
# Velocity S-wave (km/s) = 3.76500 13.38845 9.83427
# Velocity P-wave (km/s) = 6.96836 16.42098 12.61362
#
# Compressibility (1/GPa) = 0.01962206
#
# Stress axis : x y z
#
# Youngs Moduli (GPa) = 45.02071 63.21152 85.17660
#
# Poissons Ratio (x) = 0.58601 0.47890
# Poissons Ratio (y) = 0.41737 0.01550
# Poissons Ratio (z) = 0.25313 0.01150
#
# Static dielectric constant tensor:
#      x y z
#    x 1.559080 0.000000 0.012430 
#    y 0.000000 1.580890 0.000000 
#    z 0.012430 0.000000 1.623780 
# 
# From -- ./inp_files/164813.got.cif
#   From: 2010.05.17/outbox.cif.g08.bks.cpg/sg12_83_cif.got.tgz:164813.got - 2010.06.03 13:09:07.
