data_PCOD9180254
_publ_section_title
;
Structure prediction by ZEFSAII (Michael W. Deem and Ramdas Pophale) SiO2 
 PCOD9180254
Probable space group: C 2/M
;
_chemical_formula_sum "Si O2"
_cell_formula_units_Z 44
_cell_length_a 17.089270
_cell_length_b 11.555190
_cell_length_c 20.385226
_cell_angle_alpha 90.000000
_cell_angle_beta 27.971448
_cell_angle_gamma 90.000000
_cell_volume 1888.070260
_symmetry_space_group_name_H-M "C 2/M"
_symmetry_group_IT_number 12
_symmetry_cell_setting 'monoclinic'
loop_
_space_group_symop_operation_xyz
x,y,z
-x,y,-z
-x,-y,-z
x,-y,z
1/2+x,1/2+y,z
1/2-x,1/2+y,-z
1/2-x,1/2-y,-z
1/2+x,1/2-y,z
loop_
_atom_site_type_symbol
_atom_site_label
_atom_site_fract_x
_atom_site_fract_y
_atom_site_fract_z
Si Si1 0.000000 0.215349 0.500000
Si Si2 0.628008 0.628990 0.004204
Si Si3 0.137056 0.368148 0.288131
Si Si4 0.027966 0.201566 0.691079
Si Si5 0.826440 0.627131 0.990575
Si Si6 0.252699 0.122630 0.414771
O O1 0.121044 0.295501 0.366087
O O2 0.113737 0.139014 0.462699
O O3 0.545261 0.500000 0.074918
O O4 0.694779 0.631021 0.880070
O O5 0.569091 0.761069 0.062131
O O6 0.777657 0.627671 0.948949
O O7 0.089962 0.500000 0.335290
O O8 0.014459 0.303848 0.328700
O O9 0.154317 0.123957 0.556595
O O10 0.128487 0.266413 0.673228
O O11 0.857769 0.141760 0.839369
O O12 0.891806 0.500000 0.960003
O O13 0.341772 0.000000 0.341404
#
# Coordination Sequence:
#
# PCOD9180254 Si02
#       6
#     4   8   8   8   8   8
#     4  10  20  30  46  68  90 122 158 190 236 284
#     4   8  15  26  44  68  97 126 155 189 232 278
#     4   9  16  29  46  68  94 122 154 191 228 273
#     4   9  18  29  47  70  92 120 154 190 235 281
#     4   9  15  26  44  70  97 122 152 193 236 278
#     4  10  19  32  46  66  94 123 154 194 237 284
#
# _framework density 23.304217999999999
#
# number of rings (size 3 to 8) (size 9 to 14) (size 15 to 20)
#    0.000    2.909    0.000    1.636    0.000    0.727 
#    0.000    3.636    0.000    1.091    0.000    5.091 
#    0.000    0.000    0.000    0.000    0.000    0.000 
#
# Total GULP energy -122574.456653 kJ/mol
# GULP energy per Si atom -5571.566211 kJ/mol
# Density = 2.325118 g / cm^3
# Si number density = 23.304218 Si / 1000 Ang^3
#
#
#
# Elastic Constant Matrix: (Units=GPa)
#
#
# Indices 1 2 3 4 5 6 
#
# 1 48.6472 20.6216 15.9426 0.0006 7.0728 -0.0003
# 2 20.6216 203.0129 25.1076 0.0010 10.1493 -0.0006
# 3 15.9426 25.1076 124.8598 0.0014 18.6575 -0.0008
# 4 0.0006 0.0010 0.0014 10.6980 -0.0008 3.8799
# 5 7.0728 10.1493 18.6575 -0.0008 29.7411 0.0005
# 6 -0.0003 -0.0006 -0.0008 3.8799 0.0005 -9.6448
#
#
#
# Elastic Compliance Matrix: (Units=1/GPa)
#
#
# Indices 1 2 3 4 5 6 
#
# 1 0.022501 -0.001867 -0.001979 -0.000001 -0.003473 -0.000001
# 2 -0.001867 0.005245 -0.000679 0.000000 -0.000920 0.000000
# 3 -0.001979 -0.000679 0.009151 -0.000001 -0.005039 -0.000001
# 4 -0.000001 0.000000 -0.000001 0.081574 0.000003 0.032815
# 5 -0.003473 -0.000920 -0.005039 0.000003 0.037924 0.000003
# 6 -0.000001 0.000000 -0.000001 0.032815 0.000003 -0.090482
#
#
# Mechanical properties :
#
#
# Convention : Reuss Voigt Hill
#
# Bulk Modulus (GPa) = 35.90938 55.54037 45.72488
# Shear Modulus (GPa) = 59.35001 27.14874 43.24937
#
# Velocity S-wave (km/s) = 5.05201 3.41687 4.31264
# Velocity P-wave (km/s) = 7.03369 6.28102 6.66798
#
# Compressibility (1/GPa) = 0.02784788
#
# Stress axis : x y z
#
# Youngs Moduli (GPa) = 44.44244 190.64219 109.27727
#
# Poissons Ratio (x) = 0.35598 0.21622
# Poissons Ratio (y) = 0.08299 0.07419
# Poissons Ratio (z) = 0.08794 0.12942
#
# Static dielectric constant tensor:
#      x y z
#    x 1.843850 0.000000 -0.010570 
#    y 0.000000 1.912000 0.000000 
#    z -0.010570 0.000000 1.932850 
# 
# From -- ./inp_files/268484.got.cif
#   From: 2010.05.17/outbox.cif.g08.bks.cpg/sg12_135_cif.got.tgz:268484.got - 2010.06.03 13:09:07.
