data_PCOD9180429
_publ_section_title
;
Structure prediction by ZEFSAII (Michael W. Deem and Ramdas Pophale) SiO2 
 PCOD9180429
Probable space group: C 2/M
;
_chemical_formula_sum "Si O2"
_cell_formula_units_Z 28
_cell_length_a 5.278475
_cell_length_b 25.871741
_cell_length_c 12.668564
_cell_angle_alpha 90.000000
_cell_angle_beta 76.465867
_cell_angle_gamma 90.000000
_cell_volume 1682.018754
_symmetry_space_group_name_H-M "C 2/M"
_symmetry_group_IT_number 12
_symmetry_cell_setting 'monoclinic'
loop_
_space_group_symop_operation_xyz
x,y,z
-x,y,-z
-x,-y,-z
x,-y,z
1/2+x,1/2+y,z
1/2-x,1/2+y,-z
1/2-x,1/2-y,-z
1/2+x,1/2-y,z
loop_
_atom_site_type_symbol
_atom_site_label
_atom_site_fract_x
_atom_site_fract_y
_atom_site_fract_z
Si Si1 0.466690 0.441619 0.715723
Si Si2 0.644948 0.228611 0.623549
Si Si3 0.290495 0.500000 0.927284
Si Si4 0.490533 0.891926 0.377702
O O1 0.542727 0.500000 0.672772
O O2 0.343817 0.451748 0.843357
O O3 0.245439 0.419512 0.660457
O O4 0.726646 0.407575 0.694092
O O5 0.750000 0.250000 0.500000
O O6 0.389975 0.261764 0.674833
O O7 0.565299 0.169250 0.623048
O O8 0.500000 0.500000 0.000000
O O9 0.000000 0.500000 0.000000
O O10 0.500000 0.906521 0.500000
#
# Coordination Sequence:
#
# PCOD9180429 Si02
#       4
#     8   8   4   8
#     4  10  24  36  51  86 106 143 196 207 272 347
#     4  10  19  32  49  73  99 154 203 211 248 293
#     4  10  20  42  63  72 105 140 176 248 284 312
#     4  12  21  33  54  75 123 158 173 223 253 312
#
# _framework density 16.646664000000001
#
# number of rings (size 3 to 8) (size 9 to 14) (size 15 to 20)
#    0.857    0.571    2.857    5.143    4.000    3.429 
#    0.000    0.000    0.000    0.000    0.000    0.000 
#    0.000   80.000    0.000    0.000    0.000    0.000 
#
# Total GULP energy -77983.466559 kJ/mol
# GULP energy per Si atom -5570.247611 kJ/mol
# Density = 1.660878 g / cm^3
# Si number density = 16.646664 Si / 1000 Ang^3
#
#
#
# Elastic Constant Matrix: (Units=GPa)
#
#
# Indices 1 2 3 4 5 6 
#
# 1 170.6262 64.7668 34.5088 0.0000 -11.9111 0.0000
# 2 64.7668 105.0103 42.8811 0.0000 -4.6518 0.0000
# 3 34.5088 42.8811 56.2155 0.0000 -9.6432 0.0000
# 4 0.0000 0.0000 0.0000 -2.4468 0.0000 -7.7771
# 5 -11.9111 -4.6518 -9.6432 0.0000 31.7898 0.0000
# 6 0.0000 0.0000 0.0000 -7.7771 0.0000 37.0211
#
#
#
# Elastic Compliance Matrix: (Units=1/GPa)
#
#
# Indices 1 2 3 4 5 6 
#
# 1 0.007864 -0.004254 -0.001249 0.000000 0.001945 0.000000
# 2 -0.004254 0.016179 -0.010124 0.000000 -0.002297 0.000000
# 3 -0.001249 -0.010124 0.027367 0.000000 0.006352 0.000000
# 4 0.000000 0.000000 0.000000 -0.245064 0.000000 -0.051481
# 5 0.001945 -0.002297 0.006352 0.000000 0.033776 0.000000
# 6 0.000000 0.000000 0.000000 -0.051481 0.000000 0.016197
#
#
# Mechanical properties :
#
#
# Convention : Reuss Voigt Hill
#
# Bulk Modulus (GPa) = 49.61102 68.46282 59.03692
# Shear Modulus (GPa) = -47.29994 25.91917 -10.69038
#
# Velocity S-wave (km/s) = -5.33627 3.95019 -2.53690
# Velocity P-wave (km/s) = 2.84615 7.87538 5.19235
#
# Compressibility (1/GPa) = 0.02015681
#
# Stress axis : x y z
#
# Youngs Moduli (GPa) = 127.16365 61.80835 36.53977
#
# Poissons Ratio (x) = 0.26294 0.04563
# Poissons Ratio (y) = 0.54097 0.36993
# Poissons Ratio (z) = 0.15878 0.62575
#
# Static dielectric constant tensor:
#      x y z
#    x 1.548170 0.000000 -0.082050 
#    y 0.000000 1.573500 0.000000 
#    z -0.082050 0.000000 1.431850 
# 
# From -- ./inp_files/115124.got.cif
#   From: 2010.05.17/outbox.cif.g08.bks.cpg/sg12_58_cif.got.tgz:115124.got - 2010.06.03 13:09:07.
