data_PCOD9180203
_publ_section_title
;
Structure prediction by ZEFSAII (Michael W. Deem and Ramdas Pophale) SiO2 
 PCOD9180203
Probable space group: C 2/M
;
_chemical_formula_sum "Si O2"
_cell_formula_units_Z 44
_cell_length_a 13.037085
_cell_length_b 30.713609
_cell_length_c 8.171617
_cell_angle_alpha 90.000000
_cell_angle_beta 43.620651
_cell_angle_gamma 90.000000
_cell_volume 2257.320511
_symmetry_space_group_name_H-M "C 2/M"
_symmetry_group_IT_number 12
_symmetry_cell_setting 'monoclinic'
loop_
_space_group_symop_operation_xyz
x,y,z
-x,y,-z
-x,-y,-z
x,-y,z
1/2+x,1/2+y,z
1/2-x,1/2+y,-z
1/2-x,1/2-y,-z
1/2+x,1/2-y,z
loop_
_atom_site_type_symbol
_atom_site_label
_atom_site_fract_x
_atom_site_fract_y
_atom_site_fract_z
Si Si1 0.198206 0.112320 0.949775
Si Si2 0.331864 0.814749 0.554378
Si Si3 0.855118 0.548969 0.548886
Si Si4 0.971499 0.818957 0.223430
Si Si5 0.500000 0.736728 0.500000
Si Si6 0.526548 0.879483 0.157455
O O1 0.270729 0.151066 0.757538
O O2 0.222684 0.069972 0.809257
O O3 0.306089 0.108243 0.981646
O O4 0.034704 0.131788 0.166662
O O5 0.205687 0.814297 0.561345
O O6 0.369174 0.768958 0.591834
O O7 0.478476 0.836115 0.309521
O O8 0.823558 0.500000 0.529362
O O9 0.000000 0.547644 0.500000
O O10 0.911748 0.582712 0.347395
O O11 0.040038 0.791820 0.293915
O O12 0.000000 0.804323 0.000000
O O13 0.500000 0.872287 0.000000
#
# Coordination Sequence:
#
# PCOD9180203 Si02
#       6
#     8   8   8   8   4   8
#     4   9  18  37  54  77 109 146 182 229 276 334
#     4  10  20  40  52  75 112 146 193 228 279 334
#     4   8  15  31  57  84 111 143 182 224 271 335
#     4  10  24  37  56  80 109 146 192 234 284 333
#     4  12  22  38  58  78 112 150 192 246 272 324
#     4  10  19  31  56  80 112 150 180 228 279 329
#
# _framework density 19.492138000000001
#
# number of rings (size 3 to 8) (size 9 to 14) (size 15 to 20)
#    0.000    2.364    1.818    1.636    2.545    4.000 
#    0.000    0.000    0.000   13.636    0.000    0.636 
#    0.000    0.182    0.000    0.000    0.000    0.000 
#
# Total GULP energy -122492.070970 kJ/mol
# GULP energy per Si atom -5567.821408 kJ/mol
# Density = 1.944777 g / cm^3
# Si number density = 19.492138 Si / 1000 Ang^3
#
#
#
# Elastic Constant Matrix: (Units=GPa)
#
#
# Indices 1 2 3 4 5 6 
#
# 1 85.2389 22.7021 19.0747 0.0000 -1.3861 0.0000
# 2 22.7021 87.6844 13.5961 0.0000 1.2737 0.0000
# 3 19.0747 13.5961 20.5057 0.0000 0.8395 0.0000
# 4 0.0000 0.0000 0.0000 10.5970 0.0000 -1.8095
# 5 -1.3861 1.2737 0.8395 0.0000 30.6066 0.0000
# 6 0.0000 0.0000 0.0000 -1.8095 0.0000 16.4910
#
#
#
# Elastic Compliance Matrix: (Units=1/GPa)
#
#
# Indices 1 2 3 4 5 6 
#
# 1 0.015142 -0.001945 -0.012841 0.000000 0.001119 0.000000
# 2 -0.001945 0.012964 -0.006768 0.000000 -0.000442 0.000000
# 3 -0.012841 -0.006768 0.065285 0.000000 -0.002091 0.000000
# 4 0.000000 0.000000 0.000000 0.096169 0.000000 0.010552
# 5 0.001119 -0.000442 -0.002091 0.000000 0.032799 0.000000
# 6 0.000000 0.000000 0.000000 0.010552 0.000000 0.061797
#
#
# Mechanical properties :
#
#
# Convention : Reuss Voigt Hill
#
# Bulk Modulus (GPa) = 19.88790 33.79722 26.84256
# Shear Modulus (GPa) = 14.53389 20.74266 17.63827
#
# Velocity S-wave (km/s) = 2.73358 3.26568 3.01141
# Velocity P-wave (km/s) = 4.49316 5.62104 5.08845
#
# Compressibility (1/GPa) = 0.05028184
#
# Stress axis : x y z
#
# Youngs Moduli (GPa) = 66.04334 77.13625 15.31756
#
# Poissons Ratio (x) = 0.15006 0.19669
# Poissons Ratio (y) = 0.12848 0.10367
# Poissons Ratio (z) = 0.84805 0.52205
#
# Static dielectric constant tensor:
#      x y z
#    x 1.763370 0.000000 -0.057580 
#    y 0.000000 1.695420 0.000000 
#    z -0.057580 0.000000 1.741170 
# 
# From -- ./inp_files/67729.got.cif
#   From: 2010.05.17/outbox.cif.g08.bks.cpg/sg12_34_cif.got.tgz:67729.got - 2010.06.03 13:09:07.
