data_PCOD9180222
_publ_section_title
;
Structure prediction by ZEFSAII (Michael W. Deem and Ramdas Pophale) SiO2 
 PCOD9180222
Probable space group: C 2/M
;
_chemical_formula_sum "Si O2"
_cell_formula_units_Z 64
_cell_length_a 12.319523
_cell_length_b 32.342944
_cell_length_c 16.916108
_cell_angle_alpha 90.000000
_cell_angle_beta 27.960905
_cell_angle_gamma 90.000000
_cell_volume 3160.278798
_symmetry_space_group_name_H-M "C 2/M"
_symmetry_group_IT_number 12
_symmetry_cell_setting 'monoclinic'
loop_
_space_group_symop_operation_xyz
x,y,z
-x,y,-z
-x,-y,-z
x,-y,z
1/2+x,1/2+y,z
1/2-x,1/2+y,-z
1/2-x,1/2-y,-z
1/2+x,1/2-y,z
loop_
_atom_site_type_symbol
_atom_site_label
_atom_site_fract_x
_atom_site_fract_y
_atom_site_fract_z
Si Si1 0.136777 0.750122 0.832646
Si Si2 0.352486 0.547584 0.905808
Si Si3 0.118065 0.707353 0.568648
Si Si4 0.721518 0.098582 0.304006
Si Si5 0.556783 0.677665 0.779913
Si Si6 0.269677 0.830731 0.334693
Si Si7 0.222463 0.544859 0.164152
Si Si8 0.627017 0.872186 0.998815
O O1 0.360241 0.777696 0.713256
O O2 0.996258 0.781057 0.866097
O O3 0.204870 0.710340 0.737053
O O4 0.000000 0.739275 0.000000
O O5 0.363083 0.500000 0.872337
O O6 0.605914 0.564803 0.767476
O O7 0.203830 0.548919 0.082741
O O8 0.235692 0.581951 0.926550
O O9 0.250000 0.750000 0.500000
O O10 0.241817 0.686739 0.413303
O O11 0.154264 0.680597 0.624786
O O12 0.500000 0.103783 0.500000
O O13 0.861481 0.141296 0.213541
O O14 0.642328 0.082141 0.269859
O O15 0.336050 0.659598 0.877456
O O16 0.444094 0.864407 0.186544
O O17 0.000000 0.842981 0.500000
O O18 0.128717 0.500000 0.250058
O O19 0.500000 0.543862 0.000000
O O20 0.500000 0.863198 0.000000
#
# Coordination Sequence:
#
# PCOD9180222 Si02
#       8
#     8   8   8   8   8   8   8   8
#     4  12  25  39  62  91 122 160 205 254 305 362
#     4   9  20  39  60  87 121 159 200 241 299 370
#     4  12  23  40  63  86 123 169 208 249 304 355
#     4  10  19  31  57  90 128 158 192 246 294 359
#     4  11  24  42  58  88 126 161 208 255 308 359
#     4  12  24  41  64  85 117 160 205 258 303 364
#     4   8  15  30  53  79 112 151 186 223 284 360
#     4  11  25  41  64  90 116 156 207 259 309 366
#
# _framework density 20.251377999999999
#
# number of rings (size 3 to 8) (size 9 to 14) (size 15 to 20)
#    0.000    1.375    2.500    4.125    1.750    6.750 
#    0.000    0.000    0.000    0.375    0.000    0.000 
#    0.000    0.000    0.000    0.000    0.000    0.000 
#
# Total GULP energy -178784.378409 kJ/mol
# GULP energy per Si atom -5587.011825 kJ/mol
# Density = 2.020529 g / cm^3
# Si number density = 20.251378 Si / 1000 Ang^3
#
#
#
# Elastic Constant Matrix: (Units=GPa)
#
#
# Indices 1 2 3 4 5 6 
#
# 1 59.0501 19.0254 1.8431 0.0000 -0.0183 0.0000
# 2 19.0254 77.5816 20.6260 0.0000 -15.0521 0.0000
# 3 1.8431 20.6260 48.8066 0.0001 -3.4620 0.0000
# 4 0.0000 0.0000 0.0001 19.3612 0.0000 8.6129
# 5 -0.0183 -15.0521 -3.4620 0.0000 30.5092 0.0000
# 6 0.0000 0.0000 0.0000 8.6129 0.0000 7.5966
#
#
#
# Elastic Compliance Matrix: (Units=1/GPa)
#
#
# Indices 1 2 3 4 5 6 
#
# 1 0.018641 -0.005434 0.001415 0.000000 -0.002509 0.000000
# 2 -0.005434 0.017517 -0.006638 0.000000 0.007886 0.000000
# 3 0.001415 -0.006638 0.023195 0.000000 -0.000642 0.000000
# 4 0.000000 0.000000 0.000000 0.104209 0.000000 -0.118151
# 5 -0.002509 0.007886 -0.000642 0.000000 0.036593 0.000000
# 6 0.000000 0.000000 0.000000 -0.118151 0.000000 0.265597
#
#
# Mechanical properties :
#
#
# Convention : Reuss Voigt Hill
#
# Bulk Modulus (GPa) = 26.28989 29.82527 28.05758
# Shear Modulus (GPa) = 10.00504 21.08966 15.54735
#
# Velocity S-wave (km/s) = 2.22512 3.23056 2.77378
# Velocity P-wave (km/s) = 4.42849 5.35489 4.91357
#
# Compressibility (1/GPa) = 0.03803744
#
# Stress axis : x y z
#
# Youngs Moduli (GPa) = 53.64608 57.08702 43.11196
#
# Poissons Ratio (x) = 0.31022 -0.06099
# Poissons Ratio (y) = 0.29152 0.28619
# Poissons Ratio (z) = -0.07589 0.37896
#
# Static dielectric constant tensor:
#      x y z
#    x 1.795390 0.000000 -0.010380 
#    y 0.000000 1.752350 0.000000 
#    z -0.010380 0.000000 1.718890 
# 
# From -- ./inp_files/266279.got.cif
#   From: 2010.05.17/outbox.cif.g08.bks.cpg/sg12_134_cif.got.tgz:266279.got - 2010.06.03 13:09:07.
