data_PCOD9180824
_publ_section_title
;
Structure prediction by ZEFSAII (Michael W. Deem and Ramdas Pophale) SiO2 
 PCOD9180824
Probable space group: C 2/M
;
_chemical_formula_sum "Si O2"
_cell_formula_units_Z 40
_cell_length_a 13.719144
_cell_length_b 8.291546
_cell_length_c 18.953262
_cell_angle_alpha 90.000000
_cell_angle_beta 48.261961
_cell_angle_gamma 90.000000
_cell_volume 1608.790991
_symmetry_space_group_name_H-M "C 2/M"
_symmetry_group_IT_number 12
_symmetry_cell_setting 'monoclinic'
loop_
_space_group_symop_operation_xyz
x,y,z
-x,y,-z
-x,-y,-z
x,-y,z
1/2+x,1/2+y,z
1/2-x,1/2+y,-z
1/2-x,1/2-y,-z
1/2+x,1/2-y,z
loop_
_atom_site_type_symbol
_atom_site_label
_atom_site_fract_x
_atom_site_fract_y
_atom_site_fract_z
Si Si1 0.343371 0.683276 0.725164
Si Si2 0.037034 0.500000 0.366599
Si Si3 0.218765 0.500000 0.415244
Si Si4 0.041380 0.816625 0.127545
Si Si5 0.176712 0.313194 0.932015
Si Si6 0.325053 0.175754 0.328353
O O1 0.382475 0.500000 0.728885
O O2 0.443587 0.830837 0.683603
O O3 0.217649 0.732807 0.833167
O O4 0.298506 0.669678 0.666018
O O5 0.158395 0.500000 0.364670
O O6 0.906279 0.500000 0.474599
O O7 0.301261 0.336544 0.384636
O O8 0.182505 0.802690 0.097086
O O9 0.946218 0.701998 0.216992
O O10 0.993331 0.000000 0.157326
O O11 0.073754 0.777322 0.030689
O O12 0.138902 0.500000 0.950210
O O13 0.331889 0.000000 0.360132
#
# Coordination Sequence:
#
# PCOD9180824 Si02
#       6
#     8   4   4   8   8   8
#     4   9  19  34  52  77 103 133 171 208 254 301
#     4   9  18  32  55  77 103 131 163 216 258 302
#     4   9  18  34  51  79 105 127 169 210 258 308
#     4  10  19  32  51  75 104 137 173 208 247 302
#     4   9  19  34  50  73 104 137 173 208 247 301
#     4  10  19  33  53  76 104 135 168 209 255 300
#
# _framework density 24.863391
#
# number of rings (size 3 to 8) (size 9 to 14) (size 15 to 20)
#    0.000    2.600    1.000    0.600    1.400    2.400 
#    0.000    8.000    0.000    1.200    0.000    0.000 
#    0.000    0.000    0.000    0.000    0.000    0.000 
#
# Total GULP energy -111812.018160 kJ/mol
# GULP energy per Si atom -5590.600908 kJ/mol
# Density = 2.480680 g / cm^3
# Si number density = 24.863391 Si / 1000 Ang^3
#
#
#
# Elastic Constant Matrix: (Units=GPa)
#
#
# Indices 1 2 3 4 5 6 
#
# 1 54.7655 10.4308 6.5740 0.0000 -0.6209 0.0000
# 2 10.4308 205.1183 76.9429 0.0000 -20.9665 0.0000
# 3 6.5740 76.9429 70.3670 0.0000 -20.8975 0.0000
# 4 0.0000 0.0000 0.0000 33.0968 0.0000 -2.4520
# 5 -0.6209 -20.9665 -20.8975 0.0000 33.2800 0.0000
# 6 0.0000 0.0000 0.0000 -2.4520 0.0000 17.7232
#
#
#
# Elastic Compliance Matrix: (Units=1/GPa)
#
#
# Indices 1 2 3 4 5 6 
#
# 1 0.018517 -0.000483 -0.001463 0.000000 -0.000877 0.000000
# 2 -0.000483 0.008287 -0.009181 0.000000 -0.000553 0.000000
# 3 -0.001463 -0.009181 0.027855 0.000000 0.011680 0.000000
# 4 0.000000 0.000000 0.000000 0.030527 0.000000 0.004223
# 5 -0.000877 -0.000553 0.011680 0.000000 0.037018 0.000000
# 6 0.000000 0.000000 0.000000 0.004223 0.000000 0.057007
#
#
# Mechanical properties :
#
#
# Convention : Reuss Voigt Hill
#
# Bulk Modulus (GPa) = 30.85704 57.57180 44.21442
# Shear Modulus (GPa) = 23.55535 32.57355 28.06445
#
# Velocity S-wave (km/s) = 3.08131 3.62346 3.36333
# Velocity P-wave (km/s) = 5.00968 6.38055 5.73621
#
# Compressibility (1/GPa) = 0.03240752
#
# Stress axis : x y z
#
# Youngs Moduli (GPa) = 54.00373 120.67056 35.90011
#
# Poissons Ratio (x) = 0.05824 0.05251
# Poissons Ratio (y) = 0.02606 0.32958
# Poissons Ratio (z) = 0.07899 1.10782
#
# Static dielectric constant tensor:
#      x y z
#    x 2.088410 0.000000 0.019550 
#    y 0.000000 1.955480 0.000000 
#    z 0.019550 0.000000 1.883280 
# 
# From -- ./inp_files/151908.got.cif
#   From: 2010.05.17/outbox.cif.g08.bks.cpg/sg12_76_cif.got.tgz:151908.got - 2010.06.03 13:09:07.
