data_PCOD9180123
_publ_section_title
;
Structure prediction by ZEFSAII (Michael W. Deem and Ramdas Pophale) SiO2 
 PCOD9180123
Probable space group: C 2/M
;
_chemical_formula_sum "Si O2"
_cell_formula_units_Z 64
_cell_length_a 24.778005
_cell_length_b 20.267845
_cell_length_c 8.925902
_cell_angle_alpha 90.000000
_cell_angle_beta 47.910383
_cell_angle_gamma 90.000000
_cell_volume 3326.495108
_symmetry_space_group_name_H-M "C 2/M"
_symmetry_group_IT_number 12
_symmetry_cell_setting 'monoclinic'
loop_
_space_group_symop_operation_xyz
x,y,z
-x,y,-z
-x,-y,-z
x,-y,z
1/2+x,1/2+y,z
1/2-x,1/2+y,-z
1/2-x,1/2-y,-z
1/2+x,1/2-y,z
loop_
_atom_site_type_symbol
_atom_site_label
_atom_site_fract_x
_atom_site_fract_y
_atom_site_fract_z
Si Si1 0.581722 0.708562 0.807419
Si Si2 0.207468 0.296556 0.193858
Si Si3 0.730959 0.924320 0.608315
Si Si4 0.834161 0.835146 0.606217
Si Si5 0.574537 0.642333 0.277580
Si Si6 0.423371 0.144519 0.091295
Si Si7 0.321981 0.624654 0.162959
Si Si8 0.067246 0.698947 0.266027
O O1 0.597727 0.666167 0.630837
O O2 0.583413 0.787646 0.800854
O O3 0.643428 0.685573 0.808551
O O4 0.500000 0.691269 0.000000
O O5 0.185795 0.242274 0.357207
O O6 0.258649 0.350284 0.171364
O O7 0.138225 0.320361 0.229909
O O8 0.250000 0.250000 0.000000
O O9 0.770186 0.878617 0.658798
O O10 0.648884 0.897513 0.743832
O O11 0.781126 0.918218 0.365120
O O12 0.729415 0.000000 0.658420
O O13 0.862976 0.857533 0.712027
O O14 0.500000 0.621234 0.500000
O O15 0.565785 0.720642 0.251353
O O16 0.609566 0.604171 0.070294
O O17 0.500000 0.113115 0.000000
O O18 0.430200 0.166427 0.903161
O O19 0.000000 0.682202 0.500000
#
# Coordination Sequence:
#
# PCOD9180123 Si02
#       8
#     8   8   8   8   8   8   8   8
#     4  10  19  31  53  91 126 147 181 228 303 376
#     4  11  18  31  57  90 123 144 183 235 305 374
#     4  11  26  44  59  77 113 165 222 264 284 322
#     4  10  20  33  58  83 116 157 188 239 295 359
#     4  10  19  33  58  93 128 152 173 223 308 382
#     4  11  23  37  60  89 120 162 198 241 302 366
#     4  11  20  35  59  87 118 157 194 241 303 361
#     4  10  21  33  55  91 132 154 176 228 308 384
#
# _framework density 19.239470000000001
#
# number of rings (size 3 to 8) (size 9 to 14) (size 15 to 20)
#    0.000    1.500    3.750    3.000   10.500    2.250 
#    0.000    0.625    0.000   14.625    0.000    0.000 
#    0.000    0.000    0.000    0.000    0.000    0.000 
#
# Total GULP energy -178343.251450 kJ/mol
# GULP energy per Si atom -5573.226608 kJ/mol
# Density = 1.919568 g / cm^3
# Si number density = 19.239470 Si / 1000 Ang^3
#
#
#
# Elastic Constant Matrix: (Units=GPa)
#
#
# Indices 1 2 3 4 5 6 
#
# 1 86.5746 21.7996 30.3010 0.0000 -13.5841 0.0000
# 2 21.7996 20.8304 16.6431 0.0000 -4.3319 0.0000
# 3 30.3010 16.6431 110.6766 0.0000 -9.2447 0.0000
# 4 0.0000 0.0000 0.0000 10.2762 0.0000 -1.5319
# 5 -13.5841 -4.3319 -9.2447 0.0000 32.5004 0.0000
# 6 0.0000 0.0000 0.0000 -1.5319 0.0000 -0.9007
#
#
#
# Elastic Compliance Matrix: (Units=1/GPa)
#
#
# Indices 1 2 3 4 5 6 
#
# 1 0.016706 -0.015006 -0.001947 0.000000 0.004428 0.000000
# 2 -0.015006 0.068866 -0.006151 0.000000 0.001157 0.000000
# 3 -0.001947 -0.006151 0.010609 0.000000 0.001384 0.000000
# 4 0.000000 0.000000 0.000000 0.077630 0.000000 -0.132032
# 5 0.004428 0.001157 0.001384 0.000000 0.033168 0.000000
# 6 0.000000 0.000000 0.000000 -0.132032 0.000000 -0.885718
#
#
# Mechanical properties :
#
#
# Convention : Reuss Voigt Hill
#
# Bulk Modulus (GPa) = 20.01099 39.50769 29.75934
# Shear Modulus (GPa) = -8.11855 18.33105 5.10625
#
# Velocity S-wave (km/s) = -2.05643 3.09007 1.63089
# Velocity P-wave (km/s) = 2.18748 5.77154 4.36438
#
# Compressibility (1/GPa) = 0.04997255
#
# Stress axis : x y z
#
# Youngs Moduli (GPa) = 59.85979 14.52085 94.25983
#
# Poissons Ratio (x) = 0.21790 0.18354
# Poissons Ratio (y) = 0.89828 0.57977
# Poissons Ratio (z) = 0.11656 0.08931
#
# Static dielectric constant tensor:
#      x y z
#    x 1.709580 0.000000 0.021310 
#    y 0.000000 1.651560 0.000000 
#    z 0.021310 0.000000 1.804380 
# 
# From -- ./inp_files/99102.got.cif
#   From: 2010.05.17/outbox.cif.g08.bks.cpg/sg12_50_cif.got.tgz:99102.got - 2010.06.03 13:09:07.
