data_PCOD9180738
_publ_section_title
;
Structure prediction by ZEFSAII (Michael W. Deem and Ramdas Pophale) SiO2 
 PCOD9180738
Probable space group: C 2/M
;
_chemical_formula_sum "Si O2"
_cell_formula_units_Z 64
_cell_length_a 29.384221
_cell_length_b 9.470278
_cell_length_c 14.402080
_cell_angle_alpha 90.000000
_cell_angle_beta 72.862811
_cell_angle_gamma 90.000000
_cell_volume 3829.827036
_symmetry_space_group_name_H-M "C 2/M"
_symmetry_group_IT_number 12
_symmetry_cell_setting 'monoclinic'
loop_
_space_group_symop_operation_xyz
x,y,z
-x,y,-z
-x,-y,-z
x,-y,z
1/2+x,1/2+y,z
1/2-x,1/2+y,-z
1/2-x,1/2-y,-z
1/2+x,1/2-y,z
loop_
_atom_site_type_symbol
_atom_site_label
_atom_site_fract_x
_atom_site_fract_y
_atom_site_fract_z
Si Si1 0.103429 0.663730 0.808526
Si Si2 0.945326 0.830883 0.001895
Si Si3 0.054949 0.838125 0.498715
Si Si4 0.532255 0.840842 0.683464
Si Si5 0.374890 0.169149 0.675929
Si Si6 0.289980 0.168437 0.595170
Si Si7 0.572215 0.166398 0.177229
Si Si8 0.807626 0.669088 0.375148
O O1 0.109938 0.500000 0.834832
O O2 0.090338 0.763959 0.901241
O O3 0.058646 0.666081 0.765679
O O4 0.148742 0.706224 0.718552
O O5 0.941227 0.000000 0.000315
O O6 0.933355 0.760867 0.910246
O O7 0.000000 0.797297 0.000000
O O8 0.055004 0.769163 0.599872
O O9 0.086661 0.748386 0.409922
O O10 0.000000 0.833347 0.500000
O O11 0.070858 0.000000 0.490410
O O12 0.476551 0.817257 0.734511
O O13 0.538924 0.000000 0.641657
O O14 0.324033 0.203991 0.660903
O O15 0.385204 0.203495 0.777384
O O16 0.381575 0.000000 0.662906
O O17 0.240542 0.251695 0.624351
O O18 0.315470 0.199822 0.480337
O O19 0.281038 0.000000 0.602204
O O20 0.575634 0.000000 0.149773
O O21 0.801249 0.500000 0.372267
#
# Coordination Sequence:
#
# PCOD9180738 Si02
#       8
#     8   8   8   8   8   8   8   8
#     4  10  20  35  56  78 103 136 177 222 261 308
#     4  11  23  36  52  76 108 141 174 219 270 316
#     4  11  22  31  43  69 106 142 172 208 254 304
#     4  10  19  32  51  73  99 136 177 213 251 303
#     4  10  20  35  54  75 101 139 182 217 255 308
#     4   9  18  34  56  80 109 138 170 214 260 310
#     4  10  20  34  54  75  98 136 180 216 254 307
#     4   9  18  33  54  81 109 137 171 213 261 310
#
# _framework density 16.710937999999999
#
# number of rings (size 3 to 8) (size 9 to 14) (size 15 to 20)
#    0.000    2.000    2.500    1.500    0.000    5.500 
#    0.000    2.500    0.000    0.750    0.000    0.000 
#    0.000    0.000    0.000    0.000    0.000    0.000 
#
# Total GULP energy -178494.503118 kJ/mol
# GULP energy per Si atom -5577.953222 kJ/mol
# Density = 1.667290 g / cm^3
# Si number density = 16.710938 Si / 1000 Ang^3
#
#
#
# Elastic Constant Matrix: (Units=GPa)
#
#
# Indices 1 2 3 4 5 6 
#
# 1 91.9115 36.1319 46.4238 0.0000 15.6583 0.0000
# 2 36.1319 43.3718 48.9007 0.0000 11.7886 0.0000
# 3 46.4238 48.9007 87.7168 0.0000 13.9254 0.0000
# 4 0.0000 0.0000 0.0000 13.8686 0.0000 -2.6163
# 5 15.6583 11.7886 13.9254 0.0000 26.6673 0.0000
# 6 0.0000 0.0000 0.0000 -2.6163 0.0000 23.6549
#
#
#
# Elastic Compliance Matrix: (Units=1/GPa)
#
#
# Indices 1 2 3 4 5 6 
#
# 1 0.016829 -0.009682 -0.002857 0.000000 -0.004110 0.000000
# 2 -0.009682 0.070304 -0.032753 0.000000 -0.008290 0.000000
# 3 -0.002857 -0.032753 0.031193 0.000000 -0.000132 0.000000
# 4 0.000000 0.000000 0.000000 0.073642 0.000000 0.008145
# 5 -0.004110 -0.008290 -0.000132 0.000000 0.043646 0.000000
# 6 0.000000 0.000000 0.000000 0.008145 0.000000 0.043175
#
#
# Mechanical properties :
#
#
# Convention : Reuss Voigt Hill
#
# Bulk Modulus (GPa) = 36.04623 53.99033 45.01828
# Shear Modulus (GPa) = 13.20582 18.94107 16.07344
#
# Velocity S-wave (km/s) = 2.81419 3.37033 3.10474
# Velocity P-wave (km/s) = 5.67246 6.89377 6.31272
#
# Compressibility (1/GPa) = 0.02774216
#
# Stress axis : x y z
#
# Youngs Moduli (GPa) = 59.42012 14.22392 32.05883
#
# Poissons Ratio (x) = 0.13771 0.09159
# Poissons Ratio (y) = 0.57530 1.05003
# Poissons Ratio (z) = 0.16976 0.46588
#
# Static dielectric constant tensor:
#      x y z
#    x 1.567460 0.000000 0.016220 
#    y 0.000000 1.560480 0.000000 
#    z 0.016220 0.000000 1.547410 
# 
# From -- ./inp_files/243815.got.cif
#   From: 2010.05.17/outbox.cif.g08.bks.cpg/sg12_122_cif.got.tgz:243815.got - 2010.06.03 13:09:07.
