data_PCOD9180167
_publ_section_title
;
Structure prediction by ZEFSAII (Michael W. Deem and Ramdas Pophale) SiO2 
 PCOD9180167
Probable space group: C 2/M
;
_chemical_formula_sum "Si O2"
_cell_formula_units_Z 56
_cell_length_a 21.687239
_cell_length_b 17.667356
_cell_length_c 14.514484
_cell_angle_alpha 90.000000
_cell_angle_beta 150.505186
_cell_angle_gamma 90.000000
_cell_volume 2738.083980
_symmetry_space_group_name_H-M "C 2/M"
_symmetry_group_IT_number 12
_symmetry_cell_setting 'monoclinic'
loop_
_space_group_symop_operation_xyz
x,y,z
-x,y,-z
-x,-y,-z
x,-y,z
1/2+x,1/2+y,z
1/2-x,1/2+y,-z
1/2-x,1/2-y,-z
1/2+x,1/2-y,z
loop_
_atom_site_type_symbol
_atom_site_label
_atom_site_fract_x
_atom_site_fract_y
_atom_site_fract_z
Si Si1 0.824558 0.586581 0.542332
Si Si2 0.553784 0.279481 0.869435
Si Si3 0.093891 0.090128 0.373121
Si Si4 0.046647 0.369330 0.960794
Si Si5 0.332708 0.258606 0.232042
Si Si6 0.416396 0.794531 0.529348
Si Si7 0.334718 0.587906 0.318807
O O1 0.797641 0.500000 0.486793
O O2 0.715736 0.614019 0.470707
O O3 0.849100 0.631729 0.480561
O O4 0.954444 0.594978 0.766384
O O5 0.524057 0.367770 0.827876
O O6 0.541325 0.221750 0.938071
O O7 0.444053 0.253331 0.656717
O O8 0.694053 0.260882 0.016463
O O9 0.115184 0.102224 0.511414
O O10 0.081416 0.000000 0.348212
O O11 0.185704 0.399844 0.129278
O O12 0.000000 0.389934 0.000000
O O13 0.442907 0.207976 0.331274
O O14 0.331395 0.238912 0.339005
O O15 0.370603 0.347967 0.288557
O O16 0.361645 0.500000 0.329392
#
# Coordination Sequence:
#
# PCOD9180167 Si02
#       7
#     8   8   8   8   8   8   8
#     4  10  21  36  58  86 121 156 195 250 302 350
#     4  10  21  36  57  84 119 157 197 242 296 356
#     4  10  20  35  56  86 124 157 187 238 303 365
#     4  10  19  31  54  88 118 153 194 242 296 358
#     4  10  21  39  60  83 116 158 205 249 290 338
#     4  10  21  39  59  83 115 156 207 248 287 347
#     4  10  19  33  56  87 122 154 190 240 306 358
#
# _framework density 20.452258
#
# number of rings (size 3 to 8) (size 9 to 14) (size 15 to 20)
#    0.000    2.000    2.857    0.857    0.000    5.143 
#    0.000    5.000    0.000    2.143    0.000    0.000 
#    0.000    0.000    0.000    0.000    0.000    0.000 
#
# Total GULP energy -155917.737879 kJ/mol
# GULP energy per Si atom -5568.490639 kJ/mol
# Density = 2.040571 g / cm^3
# Si number density = 20.452258 Si / 1000 Ang^3
#
#
#
# Elastic Constant Matrix: (Units=GPa)
#
#
# Indices 1 2 3 4 5 6 
#
# 1 64.3579 35.4411 12.5646 0.0000 16.2682 0.0000
# 2 35.4411 90.7105 35.1011 0.0000 10.5758 0.0000
# 3 12.5646 35.1011 79.7837 0.0000 12.3736 0.0000
# 4 0.0000 0.0000 0.0000 -496.1563 0.0000 -486.1748
# 5 16.2682 10.5758 12.3736 0.0000 25.9595 0.0000
# 6 0.0000 0.0000 0.0000 -486.1748 0.0000 -416.2700
#
#
#
# Elastic Compliance Matrix: (Units=1/GPa)
#
#
# Indices 1 2 3 4 5 6 
#
# 1 0.022663 -0.008206 0.001863 0.000000 -0.011747 0.000000
# 2 -0.008206 0.016453 -0.006160 0.000000 0.001375 0.000000
# 3 0.001863 -0.006160 0.015919 0.000000 -0.006246 0.000000
# 4 0.000000 0.000000 0.000000 0.013954 0.000000 -0.016298
# 5 -0.011747 0.001375 -0.006246 0.000000 0.048300 0.000000
# 6 0.000000 0.000000 0.000000 -0.016298 0.000000 0.016632
#
#
# Mechanical properties :
#
#
# Convention : Reuss Voigt Hill
#
# Bulk Modulus (GPa) = 33.29982 44.56284 38.93133
# Shear Modulus (GPa) = 29.59690 -167.17700 -68.79005
#
# Velocity S-wave (km/s) = 3.80823 -9.05083 -5.80581
# Velocity P-wave (km/s) = 5.97109 9.34812 5.08594
#
# Compressibility (1/GPa) = 0.03003019
#
# Stress axis : x y z
#
# Youngs Moduli (GPa) = 44.12553 60.77803 62.81739
#
# Poissons Ratio (x) = 0.49873 -0.11703
# Poissons Ratio (y) = 0.36208 0.38694
# Poissons Ratio (z) = -0.08221 0.37438
#
# Static dielectric constant tensor:
#      x y z
#    x 1.766630 0.000000 0.002550 
#    y 0.000000 1.855630 0.000000 
#    z 0.002550 0.000000 1.710860 
# 
# From -- ./inp_files/234719.got.cif
#   From: 2010.05.17/outbox.cif.g08.bks.cpg/sg12_118_cif.got.tgz:234719.got - 2010.06.03 13:09:07.
