data_PCOD9180012
_publ_section_title
;
Structure prediction by ZEFSAII (Michael W. Deem and Ramdas Pophale) SiO2 
 PCOD9180012
Probable space group: C 2/M
;
_chemical_formula_sum "Si O2"
_cell_formula_units_Z 64
_cell_length_a 15.353687
_cell_length_b 15.345363
_cell_length_c 25.802368
_cell_angle_alpha 90.000000
_cell_angle_beta 151.822107
_cell_angle_gamma 90.000000
_cell_volume 2870.682927
_symmetry_space_group_name_H-M "C 2/M"
_symmetry_group_IT_number 12
_symmetry_cell_setting 'monoclinic'
loop_
_space_group_symop_operation_xyz
x,y,z
-x,y,-z
-x,-y,-z
x,-y,z
1/2+x,1/2+y,z
1/2-x,1/2+y,-z
1/2-x,1/2-y,-z
1/2+x,1/2-y,z
loop_
_atom_site_type_symbol
_atom_site_label
_atom_site_fract_x
_atom_site_fract_y
_atom_site_fract_z
Si Si1 0.359141 0.247453 0.002678
Si Si2 0.277616 0.095870 0.140961
Si Si3 0.584139 0.596481 0.361662
Si Si4 0.012106 0.105423 0.432166
Si Si5 0.507501 0.898733 0.564459
Si Si6 0.179777 0.656561 0.327654
Si Si7 0.815420 0.836683 0.794877
Si Si8 0.522412 0.339484 0.804648
O O1 0.316653 0.331688 0.944942
O O2 0.243113 0.171047 0.915539
O O3 0.250000 0.250000 0.000000
O O4 0.574827 0.250624 0.128191
O O5 0.498255 0.103364 0.248867
O O6 0.231134 0.112913 0.176807
O O7 0.215132 0.000000 0.092835
O O8 0.513749 0.500000 0.333763
O O9 0.507500 0.643972 0.371664
O O10 0.804133 0.600583 0.480633
O O11 0.541512 0.614077 0.280207
O O12 0.812587 0.118021 0.353280
O O13 0.174245 0.156815 0.548113
O O14 0.057183 0.000000 0.459838
O O15 0.500000 0.873068 0.500000
O O16 0.633347 0.836766 0.664764
O O17 0.576656 0.000000 0.602315
O O18 0.086293 0.746715 0.259131
O O19 0.958944 0.875997 0.827096
#
# Coordination Sequence:
#
# PCOD9180012 Si02
#       8
#     8   8   8   8   8   8   8   8
#     4   9  22  42  58  81 119 165 208 253 308 368
#     4  11  22  37  62  94 123 157 210 267 322 385
#     4  10  21  37  59  91 128 166 209 259 316 388
#     4  10  20  36  58  82 116 165 218 266 315 369
#     4  10  19  31  52  88 132 167 195 243 312 382
#     4  10  21  36  56  82 119 165 211 264 315 370
#     4  11  21  36  59  85 123 166 201 249 311 377
#     4  10  22  39  59  85 123 164 209 256 315 387
#
# _framework density 22.294346000000001
#
# number of rings (size 3 to 8) (size 9 to 14) (size 15 to 20)
#    0.000    1.875    1.250    3.000    0.000    7.500 
#    0.000    3.125    0.000    0.000    0.000    0.000 
#    0.000   34.000    0.000    0.000    0.000    0.000 
#
# Total GULP energy -178335.794116 kJ/mol
# GULP energy per Si atom -5572.993566 kJ/mol
# Density = 2.224360 g / cm^3
# Si number density = 22.294346 Si / 1000 Ang^3
#
#
#
# Elastic Constant Matrix: (Units=GPa)
#
#
# Indices 1 2 3 4 5 6 
#
# 1 135.4138 23.3290 32.4196 -0.0003 -24.7158 -0.0001
# 2 23.3290 31.8472 18.0959 0.0002 -6.4044 0.0000
# 3 32.4196 18.0959 118.0556 0.0029 1.4329 0.0000
# 4 -0.0003 0.0002 0.0029 -83.1550 0.0006 3.6047
# 5 -24.7158 -6.4044 1.4329 0.0006 30.3068 0.0000
# 6 -0.0001 0.0000 0.0000 3.6047 0.0000 21.1632
#
#
#
# Elastic Compliance Matrix: (Units=1/GPa)
#
#
# Indices 1 2 3 4 5 6 
#
# 1 0.010030 -0.004672 -0.002127 0.000000 0.007293 0.000000
# 2 -0.004672 0.038376 -0.004654 0.000000 0.004519 0.000000
# 3 -0.002127 -0.004654 0.009807 0.000000 -0.003182 0.000000
# 4 0.000000 0.000000 0.000000 -0.011938 0.000000 0.002033
# 5 0.007293 0.004519 -0.003182 0.000000 0.040049 0.000000
# 6 0.000000 0.000000 0.000000 0.002033 0.000000 0.046906
#
#
# Mechanical properties :
#
#
# Convention : Reuss Voigt Hill
#
# Bulk Modulus (GPa) = 28.32361 48.11175 38.21768
# Shear Modulus (GPa) = 29.77889 7.76112 18.77000
#
# Velocity S-wave (km/s) = 3.65871 1.86782 2.90473
# Velocity P-wave (km/s) = 5.52993 5.12628 5.33193
#
# Compressibility (1/GPa) = 0.03530623
#
# Stress axis : x y z
#
# Youngs Moduli (GPa) = 99.70136 26.05803 101.97193
#
# Poissons Ratio (x) = 0.12175 0.21686
# Poissons Ratio (y) = 0.46583 0.47459
# Poissons Ratio (z) = 0.21203 0.12128
#
# Static dielectric constant tensor:
#      x y z
#    x 1.856530 0.000000 -0.015530 
#    y 0.000000 1.889690 0.000000 
#    z -0.015530 0.000000 1.882340 
# 
# From -- ./inp_files/340856.got.cif
#   From: 2010.05.17/outbox.cif.g08.bks.cpg/sg12_171_cif.got.tgz:340856.got - 2010.06.03 13:09:07.
