data_PCOD9180493
_publ_section_title
;
Structure prediction by ZEFSAII (Michael W. Deem and Ramdas Pophale) SiO2 
 PCOD9180493
Probable space group: C 2/M
;
_chemical_formula_sum "Si O2"
_cell_formula_units_Z 48
_cell_length_a 15.145943
_cell_length_b 7.383635
_cell_length_c 28.574273
_cell_angle_alpha 90.000000
_cell_angle_beta 137.244614
_cell_angle_gamma 90.000000
_cell_volume 2169.342868
_symmetry_space_group_name_H-M "C 2/M"
_symmetry_group_IT_number 12
_symmetry_cell_setting 'monoclinic'
loop_
_space_group_symop_operation_xyz
x,y,z
-x,y,-z
-x,-y,-z
x,-y,z
1/2+x,1/2+y,z
1/2-x,1/2+y,-z
1/2-x,1/2-y,-z
1/2+x,1/2-y,z
loop_
_atom_site_type_symbol
_atom_site_label
_atom_site_fract_x
_atom_site_fract_y
_atom_site_fract_z
Si Si1 0.386779 0.712862 0.490062
Si Si2 0.401895 0.780874 0.605451
Si Si3 0.083298 0.218970 0.986278
Si Si4 0.828053 0.711079 0.133161
Si Si5 0.161671 0.721778 0.757751
Si Si6 0.438234 0.281690 0.836641
O O1 0.500000 0.787260 0.500000
O O2 0.377062 0.500000 0.474889
O O3 0.420246 0.730871 0.558102
O O4 0.238297 0.785640 0.430193
O O5 0.525423 0.718656 0.683276
O O6 0.398269 0.000000 0.605447
O O7 0.012996 0.286027 0.912331
O O8 0.084222 0.000000 0.981897
O O9 0.228601 0.284493 0.055252
O O10 0.000000 0.262330 0.000000
O O11 0.792588 0.500000 0.123541
O O12 0.815735 0.785628 0.180359
O O13 0.974407 0.726265 0.172760
O O14 0.158136 0.500000 0.757106
O O15 0.289078 0.776961 0.778533
O O16 0.437536 0.500000 0.837982
#
# Coordination Sequence:
#
# PCOD9180493 Si02
#       6
#     8   8   8   8   8   8
#     4   9  18  33  53  76 101 128 157 194 242 288
#     4   9  18  33  52  74  99 128 164 199 232 281
#     4   9  15  28  51  71  90 126 170 204 236 287
#     4  10  19  32  51  73  96 127 167 204 243 289
#     4   9  18  33  51  70  97 133 166 195 234 293
#     4  10  19  32  50  71  96 127 165 206 246 285
#
# _framework density 22.126518000000001
#
# number of rings (size 3 to 8) (size 9 to 14) (size 15 to 20)
#    0.000    2.667    1.667    0.500    0.000    1.667 
#    0.000    4.167    0.000    1.000    0.000    0.000 
#    0.000    0.000    0.000    0.000    0.000    0.000 
#
# Total GULP energy -133964.225448 kJ/mol
# GULP energy per Si atom -5581.842727 kJ/mol
# Density = 2.207616 g / cm^3
# Si number density = 22.126518 Si / 1000 Ang^3
#
#
#
# Elastic Constant Matrix: (Units=GPa)
#
#
# Indices 1 2 3 4 5 6 
#
# 1 128.1617 -3.7107 30.7593 0.0000 29.3556 0.0000
# 2 -3.7107 72.2025 1.5021 0.0000 3.2570 0.0000
# 3 30.7593 1.5021 99.8132 0.0000 37.4571 0.0000
# 4 0.0000 0.0000 0.0000 2.6754 0.0000 -2.3859
# 5 29.3556 3.2570 37.4571 0.0000 24.8105 0.0000
# 6 0.0000 0.0000 0.0000 -2.3859 0.0000 4.6421
#
#
#
# Elastic Compliance Matrix: (Units=1/GPa)
#
#
# Indices 1 2 3 4 5 6 
#
# 1 0.011346 0.001370 0.003664 0.000000 -0.019136 0.000000
# 2 0.001370 0.014150 0.001546 0.000000 -0.005813 0.000000
# 3 0.003664 0.001546 0.024385 0.000000 -0.041353 0.000000
# 4 0.000000 0.000000 0.000000 0.690059 0.000000 0.354665
# 5 -0.019136 -0.005813 -0.041353 0.000000 0.126142 0.000000
# 6 0.000000 0.000000 0.000000 0.354665 0.000000 0.397705
#
#
# Mechanical properties :
#
#
# Convention : Reuss Voigt Hill
#
# Bulk Modulus (GPa) = 15.86224 39.69766 27.77995
# Shear Modulus (GPa) = 3.93193 24.53406 14.23299
#
# Velocity S-wave (km/s) = 1.33450 3.33349 2.53900
# Velocity P-wave (km/s) = 3.09176 5.72681 4.60192
#
# Compressibility (1/GPa) = 0.06304280
#
# Stress axis : x y z
#
# Youngs Moduli (GPa) = 88.13602 70.66928 41.00927
#
# Poissons Ratio (x) = -0.09683 -0.15027
# Poissons Ratio (y) = -0.12076 -0.06342
# Poissons Ratio (z) = -0.32295 -0.10929
#
# Static dielectric constant tensor:
#      x y z
#    x 1.792970 0.000000 0.031820 
#    y 0.000000 1.847190 0.000000 
#    z 0.031820 0.000000 1.794250 
# 
# From -- ./inp_files/261629.got.cif
#   From: 2010.05.17/outbox.cif.g08.bks.cpg/sg12_131_cif.got.tgz:261629.got - 2010.06.03 13:09:07.
