data_PCOD9180521
_publ_section_title
;
Structure prediction by ZEFSAII (Michael W. Deem and Ramdas Pophale) SiO2 
 PCOD9180521
Probable space group: C 2/M
;
_chemical_formula_sum "Si O2"
_cell_formula_units_Z 64
_cell_length_a 29.891821
_cell_length_b 14.936866
_cell_length_c 9.384293
_cell_angle_alpha 90.000000
_cell_angle_beta 112.261402
_cell_angle_gamma 90.000000
_cell_volume 3877.693498
_symmetry_space_group_name_H-M "C 2/M"
_symmetry_group_IT_number 12
_symmetry_cell_setting 'monoclinic'
loop_
_space_group_symop_operation_xyz
x,y,z
-x,y,-z
-x,-y,-z
x,-y,z
1/2+x,1/2+y,z
1/2-x,1/2+y,-z
1/2-x,1/2-y,-z
1/2+x,1/2-y,z
loop_
_atom_site_type_symbol
_atom_site_label
_atom_site_fract_x
_atom_site_fract_y
_atom_site_fract_z
Si Si1 0.787512 0.818093 0.623852
Si Si2 0.238276 0.394362 0.097682
Si Si3 0.329409 0.606282 0.392290
Si Si4 0.853653 0.285941 0.930544
Si Si5 0.130566 0.260158 0.721667
Si Si6 0.449725 0.103790 0.014575
Si Si7 0.217147 0.395402 0.762803
Si Si8 0.450572 0.901574 0.354655
O O1 0.750000 0.750000 0.500000
O O2 0.817784 0.869810 0.540535
O O3 0.825806 0.772851 0.779033
O O4 0.752123 0.880856 0.672669
O O5 0.238951 0.500000 0.110191
O O6 0.281249 0.362115 0.248442
O O7 0.186000 0.361596 0.081361
O O8 0.246145 0.370894 0.942477
O O9 0.336964 0.500000 0.383152
O O10 0.369350 0.669284 0.368500
O O11 0.903395 0.331718 0.936506
O O12 0.862629 0.243553 0.099356
O O13 0.172735 0.326450 0.713785
O O14 0.083082 0.319498 0.646040
O O15 0.438765 0.000000 0.958939
O O16 0.500000 0.130362 0.000000
O O17 0.458629 0.103284 0.195013
O O18 0.202261 0.500000 0.754786
O O19 0.500000 0.898132 0.500000
O O20 0.427675 0.000000 0.354869
#
# Coordination Sequence:
#
# PCOD9180521 Si02
#       8
#     8   8   8   8   8   8   8   8
#     4  12  21  33  46  70 105 138 171 217 260 306
#     4   9  17  30  49  71  95 132 174 209 248 300
#     4  11  22  35  49  70 102 136 174 218 260 301
#     4  10  19  32  52  72 100 138 175 213 255 308
#     4  10  19  34  54  76  99 135 179 213 250 310
#     4   9  18  33  51  76 108 139 172 207 250 311
#     4  10  19  32  50  72 102 135 170 209 252 305
#     4   9  18  33  54  81 110 135 163 208 261 309
#
# _framework density 16.504656000000001
#
# number of rings (size 3 to 8) (size 9 to 14) (size 15 to 20)
#    0.000    2.000    2.500    1.875    0.000    6.000 
#    0.000    0.625    0.000    0.375    0.000    0.000 
#    0.000    6.000    0.000    0.000    0.000    0.000 
#
# Total GULP energy -178294.811833 kJ/mol
# GULP energy per Si atom -5571.712870 kJ/mol
# Density = 1.646709 g / cm^3
# Si number density = 16.504656 Si / 1000 Ang^3
#
#
#
# Elastic Constant Matrix: (Units=GPa)
#
#
# Indices 1 2 3 4 5 6 
#
# 1 80.3321 50.4418 29.4623 0.0000 -12.7195 0.0000
# 2 50.4418 84.3322 39.1062 0.0000 -6.4937 0.0000
# 3 29.4623 39.1062 59.3633 0.0000 -1.6529 0.0000
# 4 0.0000 0.0000 0.0000 23.4419 0.0000 -3.5635
# 5 -12.7195 -6.4937 -1.6529 0.0000 23.4497 0.0000
# 6 0.0000 0.0000 0.0000 -3.5635 0.0000 27.1985
#
#
#
# Elastic Compliance Matrix: (Units=1/GPa)
#
#
# Indices 1 2 3 4 5 6 
#
# 1 0.021880 -0.010797 -0.003507 0.000000 0.008631 0.000000
# 2 -0.010797 0.022773 -0.009650 0.000000 -0.000230 0.000000
# 3 -0.003507 -0.009650 0.024864 0.000000 -0.002822 0.000000
# 4 0.000000 0.000000 0.000000 0.043525 0.000000 0.005703
# 5 0.008631 -0.000230 -0.002822 0.000000 0.047064 0.000000
# 6 0.000000 0.000000 0.000000 0.005703 0.000000 0.037514
#
#
# Mechanical properties :
#
#
# Convention : Reuss Voigt Hill
#
# Bulk Modulus (GPa) = 46.27233 51.33868 48.80551
# Shear Modulus (GPa) = 19.78395 21.81917 20.80156
#
# Velocity S-wave (km/s) = 3.46596 3.63988 3.55399
# Velocity P-wave (km/s) = 6.64184 6.98842 6.81733
#
# Compressibility (1/GPa) = 0.02161119
#
# Stress axis : x y z
#
# Youngs Moduli (GPa) = 45.70284 43.91207 40.21866
#
# Poissons Ratio (x) = 0.47411 0.14103
# Poissons Ratio (y) = 0.49344 0.38810
# Poissons Ratio (z) = 0.16026 0.42374
#
# Static dielectric constant tensor:
#      x y z
#    x 1.546660 0.000000 -0.005990 
#    y 0.000000 1.568460 0.000000 
#    z -0.005990 0.000000 1.581360 
# 
# From -- ./inp_files/104605.got.cif
#   From: 2010.05.17/outbox.cif.g08.bks.cpg/sg12_53_cif.got.tgz:104605.got - 2010.06.03 13:09:07.
