data_PCOD9180842
_publ_section_title
;
Structure prediction by ZEFSAII (Michael W. Deem and Ramdas Pophale) SiO2 
 PCOD9180842
Probable space group: C 2/M
;
_chemical_formula_sum "Si O2"
_cell_formula_units_Z 64
_cell_length_a 24.524207
_cell_length_b 8.547967
_cell_length_c 20.411527
_cell_angle_alpha 90.000000
_cell_angle_beta 58.758716
_cell_angle_gamma 90.000000
_cell_volume 3658.429887
_symmetry_space_group_name_H-M "C 2/M"
_symmetry_group_IT_number 12
_symmetry_cell_setting 'monoclinic'
loop_
_space_group_symop_operation_xyz
x,y,z
-x,y,-z
-x,-y,-z
x,-y,z
1/2+x,1/2+y,z
1/2-x,1/2+y,-z
1/2-x,1/2-y,-z
1/2+x,1/2-y,z
loop_
_atom_site_type_symbol
_atom_site_label
_atom_site_fract_x
_atom_site_fract_y
_atom_site_fract_z
Si Si1 0.924348 0.190721 0.908838
Si Si2 0.698617 0.812167 0.729615
Si Si3 0.422445 0.308931 0.757565
Si Si4 0.711474 0.310551 0.212320
Si Si5 0.303387 0.814274 0.418586
Si Si6 0.212347 0.188345 0.959949
Si Si7 0.561579 0.681125 0.666155
Si Si8 0.936480 0.819160 0.175733
O O1 0.914570 0.237854 0.838783
O O2 0.994286 0.244152 0.889116
O O3 0.927279 0.000000 0.907048
O O4 0.861838 0.237355 0.987678
O O5 0.754433 0.756018 0.742592
O O6 0.704737 0.753011 0.651131
O O7 0.628929 0.766407 0.800455
O O8 0.701246 0.000000 0.725493
O O9 0.424333 0.500000 0.756433
O O10 0.361138 0.258140 0.754803
O O11 0.491970 0.256738 0.689418
O O12 0.710937 0.500000 0.212626
O O13 0.753719 0.254383 0.125152
O O14 0.250000 0.750000 0.500000
O O15 0.375151 0.769530 0.394796
O O16 0.297990 0.000000 0.420057
O O17 0.214576 0.000000 0.958449
O O18 0.250000 0.250000 0.000000
O O19 0.567497 0.500000 0.642605
O O20 0.559792 0.684203 0.746945
O O21 0.930807 0.000000 0.158621
#
# Coordination Sequence:
#
# PCOD9180842 Si02
#       8
#     8   8   8   8   8   8   8   8
#     4   8  14  26  45  67  89 118 160 205 241 277
#     4   9  19  33  49  71  99 126 155 194 241 289
#     4   8  13  25  47  69  90 121 159 196 234 276
#     4  10  19  33  50  68  96 132 162 196 243 290
#     4  10  19  32  51  76 101 124 153 191 235 284
#     4  11  20  31  47  69  97 127 165 209 248 287
#     4   8  14  26  47  73  94 117 154 195 232 273
#     4   8  14  27  48  67  87 120 160 199 237 278
#
# _framework density 17.493843999999999
#
# number of rings (size 3 to 8) (size 9 to 14) (size 15 to 20)
#    0.000    3.000    1.250    2.250    0.000    1.000 
#    0.000    2.500    0.000    4.500    0.000    5.250 
#    0.000    0.000    0.000    0.000    0.000    0.000 
#
# Total GULP energy -178202.798382 kJ/mol
# GULP energy per Si atom -5568.837449 kJ/mol
# Density = 1.745403 g / cm^3
# Si number density = 17.493844 Si / 1000 Ang^3
#
#
#
# Elastic Constant Matrix: (Units=GPa)
#
#
# Indices 1 2 3 4 5 6 
#
# 1 130.8267 16.7674 63.7296 0.0000 -28.4047 0.0000
# 2 16.7674 9.5407 16.0699 0.0001 -5.7327 -0.0002
# 3 63.7296 16.0699 96.3822 0.0000 -32.0840 0.0000
# 4 0.0000 0.0001 0.0000 22.5391 0.0000 -5.9102
# 5 -28.4047 -5.7327 -32.0840 0.0000 27.3831 0.0000
# 6 0.0000 -0.0002 0.0000 -5.9102 0.0000 18.4367
#
#
#
# Elastic Compliance Matrix: (Units=1/GPa)
#
#
# Indices 1 2 3 4 5 6 
#
# 1 0.012441 -0.010851 -0.004717 0.000000 0.005107 0.000000
# 2 -0.010851 0.155394 -0.019102 0.000000 -0.001105 0.000002
# 3 -0.004717 -0.019102 0.022492 0.000000 0.017461 0.000000
# 4 0.000000 0.000000 0.000000 0.048439 0.000000 0.015528
# 5 0.005107 -0.001105 0.017461 0.000000 0.062043 0.000000
# 6 0.000000 0.000002 0.000000 0.015528 0.000000 0.059217
#
#
# Mechanical properties :
#
#
# Convention : Reuss Voigt Hill
#
# Bulk Modulus (GPa) = 8.26537 47.76483 28.01510
# Shear Modulus (GPa) = 10.64520 23.01730 16.83125
#
# Velocity S-wave (km/s) = 2.46948 3.63124 3.10518
# Velocity P-wave (km/s) = 3.58693 6.70405 5.37636
#
# Compressibility (1/GPa) = 0.12098675
#
# Stress axis : x y z
#
# Youngs Moduli (GPa) = 80.37967 6.43525 44.46087
#
# Poissons Ratio (x) = 0.06983 0.20973
# Poissons Ratio (y) = 0.87218 0.84930
# Poissons Ratio (z) = 0.37916 0.12293
#
# Static dielectric constant tensor:
#      x y z
#    x 1.628240 0.000000 -0.018540 
#    y 0.000000 1.606890 0.000000 
#    z -0.018540 0.000000 1.584710 
# 
# From -- ./inp_files/348524.got.cif
#   From: 2010.05.17/outbox.cif.g08.bks.cpg/sg12_175_cif.got.tgz:348524.got - 2010.06.03 13:09:07.
