data_PCOD9180007
_publ_section_title
;
Structure prediction by ZEFSAII (Michael W. Deem and Ramdas Pophale) SiO2 
 PCOD9180007
Probable space group: C 2/M
;
_chemical_formula_sum "Si O2"
_cell_formula_units_Z 64
_cell_length_a 35.129777
_cell_length_b 13.366888
_cell_length_c 10.493945
_cell_angle_alpha 90.000000
_cell_angle_beta 135.979673
_cell_angle_gamma 90.000000
_cell_volume 3424.327178
_symmetry_space_group_name_H-M "C 2/M"
_symmetry_group_IT_number 12
_symmetry_cell_setting 'monoclinic'
loop_
_space_group_symop_operation_xyz
x,y,z
-x,y,-z
-x,-y,-z
x,-y,z
1/2+x,1/2+y,z
1/2-x,1/2+y,-z
1/2-x,1/2-y,-z
1/2+x,1/2-y,z
loop_
_atom_site_type_symbol
_atom_site_label
_atom_site_fract_x
_atom_site_fract_y
_atom_site_fract_z
Si Si1 0.640394 0.886160 0.671536
Si Si2 0.488638 0.117112 0.621569
Si Si3 0.322933 0.118264 0.943472
Si Si4 0.565859 0.618435 0.148472
Si Si5 0.884387 0.884533 0.464580
Si Si6 0.084370 0.256722 0.954742
Si Si7 0.434691 0.616308 0.327585
Si Si8 0.221297 0.221339 0.797867
O O1 0.575301 0.874356 0.500188
O O2 0.677580 0.811389 0.677986
O O3 0.655103 0.000000 0.674064
O O4 0.653128 0.874683 0.853868
O O5 0.500000 0.143893 0.500000
O O6 0.527151 0.184328 0.801820
O O7 0.504258 0.000000 0.671008
O O8 0.268973 0.188546 0.816686
O O9 0.312171 0.000000 0.894521
O O10 0.367178 0.164337 0.953661
O O11 0.579331 0.500000 0.157890
O O12 0.592655 0.652280 0.346223
O O13 0.500000 0.623961 0.000000
O O14 0.585911 0.690896 0.085135
O O15 0.910058 0.840213 0.398523
O O16 0.819580 0.872677 0.294458
O O17 0.901616 0.000000 0.504026
O O18 0.085196 0.179469 0.838975
O O19 0.500000 0.618510 0.500000
O O20 0.418370 0.500000 0.272268
O O21 0.250000 0.250000 0.000000
#
# Coordination Sequence:
#
# PCOD9180007 Si02
#       8
#     8   8   8   8   8   8   8   8
#     4   9  18  32  51  82 121 153 189 242 300 358
#     4  10  19  31  52  85 120 154 195 245 302 364
#     4  10  20  35  54  82 117 151 195 248 295 350
#     4  10  23  41  58  83 123 165 202 242 296 366
#     4  10  21  38  58  81 116 161 203 241 297 366
#     4  12  21  33  59  87 117 158 200 248 296 355
#     4  10  20  31  50  84 120 148 188 251 304 348
#     4  10  20  34  57  86 114 151 199 248 298 349
#
# _framework density 18.689803000000001
#
# number of rings (size 3 to 8) (size 9 to 14) (size 15 to 20)
#    0.000    1.875    1.250    3.750    3.500    2.500 
#    0.000    1.875    0.000    3.000    0.000    0.000 
#    0.000    0.000    0.000    0.000    0.000    0.000 
#
# Total GULP energy -178526.463569 kJ/mol
# GULP energy per Si atom -5578.951987 kJ/mol
# Density = 1.864726 g / cm^3
# Si number density = 18.689803 Si / 1000 Ang^3
#
#
#
# Elastic Constant Matrix: (Units=GPa)
#
#
# Indices 1 2 3 4 5 6 
#
# 1 91.2132 37.1329 38.2305 0.0000 8.5625 0.0000
# 2 37.1329 104.3052 17.0307 0.0000 -8.5014 0.0000
# 3 38.2305 17.0307 69.8312 0.0000 -5.6095 0.0000
# 4 0.0000 0.0000 0.0000 25.1540 0.0000 7.0094
# 5 8.5625 -8.5014 -5.6095 0.0000 29.7067 0.0000
# 6 0.0000 0.0000 0.0000 7.0094 0.0000 37.3156
#
#
#
# Elastic Compliance Matrix: (Units=1/GPa)
#
#
# Indices 1 2 3 4 5 6 
#
# 1 0.017821 -0.005549 -0.009081 0.000000 -0.008439 0.000000
# 2 -0.005549 0.011889 0.000549 0.000000 0.005106 0.000000
# 3 -0.009081 0.000549 0.019679 0.000000 0.006490 0.000000
# 4 0.000000 0.000000 0.000000 0.041951 0.000000 -0.007880
# 5 -0.008439 0.005106 0.006490 0.000000 0.038782 0.000000
# 6 0.000000 0.000000 0.000000 -0.007880 0.000000 0.028279
#
#
# Mechanical properties :
#
#
# Convention : Reuss Voigt Hill
#
# Bulk Modulus (GPa) = 47.11154 50.01532 48.56343
# Shear Modulus (GPa) = 25.82116 29.96563 27.89339
#
# Velocity S-wave (km/s) = 3.72097 4.00848 3.86740
# Velocity P-wave (km/s) = 6.61231 6.94570 6.78106
#
# Compressibility (1/GPa) = 0.02122622
#
# Stress axis : x y z
#
# Youngs Moduli (GPa) = 56.11407 84.10854 50.81469
#
# Poissons Ratio (x) = 0.46675 0.46144
# Poissons Ratio (y) = 0.31140 -0.02788
# Poissons Ratio (z) = 0.50957 -0.04614
#
# Static dielectric constant tensor:
#      x y z
#    x 1.655980 0.000000 0.029050 
#    y 0.000000 1.704120 0.000000 
#    z 0.029050 0.000000 1.640430 
# 
# From -- ./inp_files/112021.got.cif
#   From: 2010.05.17/outbox.cif.g08.bks.cpg/sg12_57_cif.got.tgz:112021.got - 2010.06.03 13:09:07.
