data_PCOD9180668
_publ_section_title
;
Structure prediction by ZEFSAII (Michael W. Deem and Ramdas Pophale) SiO2 
 PCOD9180668
Probable space group: C 2/M
;
_chemical_formula_sum "Si O2"
_cell_formula_units_Z 56
_cell_length_a 17.002507
_cell_length_b 13.917627
_cell_length_c 30.892580
_cell_angle_alpha 90.000000
_cell_angle_beta 27.599393
_cell_angle_gamma 90.000000
_cell_volume 3386.742033
_symmetry_space_group_name_H-M "C 2/M"
_symmetry_group_IT_number 12
_symmetry_cell_setting 'monoclinic'
loop_
_space_group_symop_operation_xyz
x,y,z
-x,y,-z
-x,-y,-z
x,-y,z
1/2+x,1/2+y,z
1/2-x,1/2+y,-z
1/2-x,1/2-y,-z
1/2+x,1/2-y,z
loop_
_atom_site_type_symbol
_atom_site_label
_atom_site_fract_x
_atom_site_fract_y
_atom_site_fract_z
Si Si1 0.669782 0.766799 0.792851
Si Si2 0.304372 0.609050 0.083437
Si Si3 0.866198 0.115594 0.627095
Si Si4 0.897347 0.610870 0.728031
Si Si5 0.468978 0.112057 0.964390
Si Si6 0.740011 0.383440 0.416307
Si Si7 0.669469 0.272214 0.085522
O O1 0.779237 0.840900 0.711404
O O2 0.788625 0.681785 0.751797
O O3 0.578382 0.820929 0.878200
O O4 0.528047 0.725119 0.829076
O O5 0.301734 0.500000 0.066546
O O6 0.195870 0.609344 0.180062
O O7 0.223060 0.685241 0.090770
O O8 0.500000 0.631409 0.000000
O O9 0.771761 0.145371 0.628468
O O10 0.063303 0.144718 0.525002
O O11 0.860393 0.000000 0.631766
O O12 0.901219 0.500000 0.710383
O O13 0.088836 0.646949 0.643266
O O14 0.506643 0.000000 0.937842
O O15 0.500000 0.132857 0.000000
O O16 0.270463 0.135196 0.053010
O O17 0.744295 0.500000 0.413852
O O18 0.750000 0.250000 0.000000
#
# Coordination Sequence:
#
# PCOD9180668 Si02
#       7
#     8   8   8   8   8   8   8
#     4  11  21  31  50  76  98 126 164 202 241 288
#     4  10  19  32  51  71  94 126 163 204 246 289
#     4   9  17  31  52  78 102 123 157 202 246 293
#     4  10  20  33  49  70  98 131 164 200 245 290
#     4  10  21  36  50  65  94 133 165 196 237 286
#     4   8  16  32  52  73 100 130 157 197 251 295
#     4  10  20  31  45  68  95 122 155 196 239 283
#
# _framework density 16.535066
#
# number of rings (size 3 to 8) (size 9 to 14) (size 15 to 20)
#    0.000    2.286    0.000    5.143    0.000    5.143 
#    0.000    0.000    0.000    0.000    0.000    2.000 
#    0.000    0.000    0.000    0.000    0.000    0.000 
#
# Total GULP energy -156036.942167 kJ/mol
# GULP energy per Si atom -5572.747935 kJ/mol
# Density = 1.649743 g / cm^3
# Si number density = 16.535066 Si / 1000 Ang^3
#
#
#
# Elastic Constant Matrix: (Units=GPa)
#
#
# Indices 1 2 3 4 5 6 
#
# 1 114.8131 48.8154 56.2986 -0.0004 -22.9870 0.0002
# 2 48.8154 62.6069 32.7528 0.0016 -10.7147 0.0005
# 3 56.2986 32.7528 84.7651 0.0082 -13.0702 0.0011
# 4 -0.0004 0.0016 0.0082 -6.5732 0.0011 -4.9682
# 5 -22.9870 -10.7147 -13.0702 0.0011 33.3158 0.0004
# 6 0.0002 0.0005 0.0011 -4.9682 0.0004 1.0729
#
#
#
# Elastic Compliance Matrix: (Units=1/GPa)
#
#
# Indices 1 2 3 4 5 6 
#
# 1 0.017053 -0.008530 -0.007066 -0.000003 0.006251 -0.000010
# 2 -0.008530 0.024706 -0.003793 0.000001 0.000572 0.000001
# 3 -0.007066 -0.003793 0.018112 0.000008 0.001010 0.000020
# 4 -0.000003 0.000001 0.000008 -0.033807 0.000004 -0.156552
# 5 0.006251 0.000572 0.001010 0.000004 0.034909 0.000004
# 6 -0.000010 0.000001 0.000020 -0.156552 0.000004 0.207126
#
#
# Mechanical properties :
#
#
# Convention : Reuss Voigt Hill
#
# Bulk Modulus (GPa) = 47.40992 59.76874 53.58933
# Shear Modulus (GPa) = 15.92825 13.85098 14.88962
#
# Velocity S-wave (km/s) = 3.10708 2.89740 3.00407
# Velocity P-wave (km/s) = 6.45031 6.88610 6.67176
#
# Compressibility (1/GPa) = 0.02109263
#
# Stress axis : x y z
#
# Youngs Moduli (GPa) = 58.64098 40.47673 55.21269
#
# Poissons Ratio (x) = 0.34526 0.39015
# Poissons Ratio (y) = 0.50020 0.20940
# Poissons Ratio (z) = 0.41438 0.15351
#
# Static dielectric constant tensor:
#      x y z
#    x 1.563180 0.000000 -0.030310 
#    y 0.000000 1.559070 0.000000 
#    z -0.030310 0.000000 1.567490 
# 
# From -- ./inp_files/251131.got.cif
#   From: 2010.05.17/outbox.cif.g08.bks.cpg/sg12_126_cif.got.tgz:251131.got - 2010.06.03 13:09:07.
