data_PCOD9180643
_publ_section_title
;
Structure prediction by ZEFSAII (Michael W. Deem and Ramdas Pophale) SiO2 
 PCOD9180643
Probable space group: C 2/M
;
_chemical_formula_sum "Si O2"
_cell_formula_units_Z 56
_cell_length_a 32.876094
_cell_length_b 8.879002
_cell_length_c 24.084736
_cell_angle_alpha 90.000000
_cell_angle_beta 157.112913
_cell_angle_gamma 90.000000
_cell_volume 2734.276532
_symmetry_space_group_name_H-M "C 2/M"
_symmetry_group_IT_number 12
_symmetry_cell_setting 'monoclinic'
loop_
_space_group_symop_operation_xyz
x,y,z
-x,y,-z
-x,-y,-z
x,-y,z
1/2+x,1/2+y,z
1/2-x,1/2+y,-z
1/2-x,1/2-y,-z
1/2+x,1/2-y,z
loop_
_atom_site_type_symbol
_atom_site_label
_atom_site_fract_x
_atom_site_fract_y
_atom_site_fract_z
Si Si1 0.802001 0.679696 0.892091
Si Si2 0.642894 0.181208 0.342957
Si Si3 0.283341 0.824075 0.681908
Si Si4 0.045627 0.824462 0.397399
Si Si5 0.096965 0.325372 0.579881
Si Si6 0.408760 0.677131 0.927527
Si Si7 0.555861 0.181625 0.832688
O O1 0.793087 0.500000 0.879384
O O2 0.695798 0.750553 0.735183
O O3 0.892638 0.730702 0.963204
O O4 0.840893 0.725541 0.002489
O O5 0.750000 0.250000 0.500000
O O6 0.645568 0.219305 0.281027
O O7 0.542974 0.228856 0.252969
O O8 0.648904 0.000000 0.353677
O O9 0.160874 0.812586 0.514108
O O10 0.307047 0.715640 0.762757
O O11 0.303150 0.000000 0.722018
O O12 0.061736 0.752305 0.478146
O O13 0.963504 0.748447 0.252463
O O14 0.020834 0.000000 0.372749
O O15 0.122046 0.500000 0.600424
O O16 0.000000 0.317357 0.500000
O O17 0.419279 0.500000 0.952114
O O18 0.500000 0.725619 0.000000
O O19 0.554397 0.000000 0.827175
#
# Coordination Sequence:
#
# PCOD9180643 Si02
#       7
#     8   8   8   8   8   8   8
#     4  11  23  41  65  93 126 167 211 260 317 375
#     4  10  19  32  50  77 117 164 211 252 294 352
#     4  10  20  34  53  81 116 159 209 257 306 360
#     4  11  22  38  64  94 123 159 203 253 307 372
#     4  11  25  46  72  98 124 157 201 260 326 387
#     4  11  23  36  54  84 122 167 214 260 310 365
#     4  10  22  38  59  88 127 171 209 254 309 364
#
# _framework density 20.480737000000001
#
# number of rings (size 3 to 8) (size 9 to 14) (size 15 to 20)
#    0.000    1.429    2.857    2.571    0.000    5.714 
#    0.000    0.714    0.000    0.000    0.000    0.000 
#    0.000    0.000    0.000    0.000    0.000    0.000 
#
# Total GULP energy -156367.883232 kJ/mol
# GULP energy per Si atom -5584.567258 kJ/mol
# Density = 2.043412 g / cm^3
# Si number density = 20.480737 Si / 1000 Ang^3
#
#
#
# Elastic Constant Matrix: (Units=GPa)
#
#
# Indices 1 2 3 4 5 6 
#
# 1 67.9933 37.9251 52.9510 0.0000 -20.5493 0.0000
# 2 37.9251 59.7765 58.6730 0.0000 -16.3647 0.0000
# 3 52.9510 58.6730 143.4560 0.0000 -39.7536 0.0000
# 4 0.0000 0.0000 0.0000 24.4819 0.0000 -5.1709
# 5 -20.5493 -16.3647 -39.7536 0.0000 34.4165 0.0000
# 6 0.0000 0.0000 0.0000 -5.1709 0.0000 24.3030
#
#
#
# Elastic Compliance Matrix: (Units=1/GPa)
#
#
# Indices 1 2 3 4 5 6 
#
# 1 0.025252 -0.011463 -0.002890 0.000000 0.006289 0.000000
# 2 -0.011463 0.033153 -0.010085 0.000000 -0.002729 0.000000
# 3 -0.002890 -0.010085 0.015230 0.000000 0.011071 0.000000
# 4 0.000000 0.000000 0.000000 0.042769 0.000000 0.009100
# 5 0.006289 -0.002729 0.011071 0.000000 0.044301 0.000000
# 6 0.000000 0.000000 0.000000 0.009100 0.000000 0.043083
#
#
# Mechanical properties :
#
#
# Convention : Reuss Voigt Hill
#
# Bulk Modulus (GPa) = 40.38685 63.36934 51.87810
# Shear Modulus (GPa) = 19.16316 24.75205 21.95760
#
# Velocity S-wave (km/s) = 3.06219 3.48020 3.27786
# Velocity P-wave (km/s) = 5.68022 6.86711 6.30167
#
# Compressibility (1/GPa) = 0.02476053
#
# Stress axis : x y z
#
# Youngs Moduli (GPa) = 39.60018 30.16303 65.66035
#
# Poissons Ratio (x) = 0.34577 0.18973
# Poissons Ratio (y) = 0.45395 0.66215
# Poissons Ratio (z) = 0.11443 0.30418
#
# Static dielectric constant tensor:
#      x y z
#    x 1.755330 0.000000 0.003430 
#    y 0.000000 1.687970 0.000000 
#    z 0.003430 0.000000 1.775970 
# 
# From -- ./inp_files/329682.got.cif
#   From: 2010.05.17/outbox.cif.g08.bks.cpg/sg12_165_cif.got.tgz:329682.got - 2010.06.03 13:09:07.
