data_PCOD9180035
_publ_section_title
;
Structure prediction by ZEFSAII (Michael W. Deem and Ramdas Pophale) SiO2 
 PCOD9180035
Probable space group: C 2/M
;
_chemical_formula_sum "Si O2"
_cell_formula_units_Z 48
_cell_length_a 11.235158
_cell_length_b 20.639438
_cell_length_c 10.649228
_cell_angle_alpha 90.000000
_cell_angle_beta 108.687094
_cell_angle_gamma 90.000000
_cell_volume 2339.239447
_symmetry_space_group_name_H-M "C 2/M"
_symmetry_group_IT_number 12
_symmetry_cell_setting 'monoclinic'
loop_
_space_group_symop_operation_xyz
x,y,z
-x,y,-z
-x,-y,-z
x,-y,z
1/2+x,1/2+y,z
1/2-x,1/2+y,-z
1/2-x,1/2-y,-z
1/2+x,1/2-y,z
loop_
_atom_site_type_symbol
_atom_site_label
_atom_site_fract_x
_atom_site_fract_y
_atom_site_fract_z
Si Si1 0.640867 0.500000 0.001091
Si Si2 0.802582 0.111715 0.173155
Si Si3 0.683507 0.500000 0.292894
Si Si4 0.080478 0.000000 0.653221
Si Si5 0.022349 0.782690 0.247623
Si Si6 0.000000 0.712523 0.500000
Si Si7 0.774953 0.638992 0.292808
Si Si8 0.850242 0.309174 0.049103
O O1 0.712809 0.500000 0.154582
O O2 0.500000 0.500000 0.000000
O O3 0.667545 0.563130 0.930352
O O4 0.829779 0.062880 0.298420
O O5 0.908519 0.166270 0.217927
O O6 0.674758 0.146572 0.083179
O O7 0.536004 0.500000 0.284363
O O8 0.741717 0.569650 0.344245
O O9 0.000000 0.000000 0.500000
O O10 0.147344 0.819293 0.250247
O O11 0.039729 0.753774 0.392077
O O12 0.976914 0.728340 0.133128
O O13 0.882626 0.671041 0.412861
O O14 0.819947 0.646826 0.162720
O O15 0.750000 0.250000 0.000000
#
# Coordination Sequence:
#
# PCOD9180035 Si02
#       8
#     4   8   4   4   8   4   8   8
#     4  11  16  28  51  87 109 139 191 245 300 336
#     4  10  19  31  53  80 117 147 190 245 293 349
#     4  12  21  34  62  86 113 157 197 261 303 346
#     4  11  23  34  51  88 123 165 202 244 295 359
#     4  10  20  35  56  81 119 154 196 244 296 368
#     4  10  24  39  56  83 118 168 202 240 306 366
#     4  11  21  38  59  86 120 153 206 251 307 364
#     4   9  20  33  53  86 115 150 189 244 300 353
#
# _framework density 20.519490000000001
#
# number of rings (size 3 to 8) (size 9 to 14) (size 15 to 20)
#    0.000    1.667    5.000    0.500    1.167    2.333 
#    0.000    0.000    0.000    0.000    0.000    0.000 
#    0.000   48.333    0.000    0.000    0.000    0.000 
#
# Total GULP energy -133664.124476 kJ/mol
# GULP energy per Si atom -5569.338520 kJ/mol
# Density = 2.047279 g / cm^3
# Si number density = 20.519490 Si / 1000 Ang^3
#
#
#
# Elastic Constant Matrix: (Units=GPa)
#
#
# Indices 1 2 3 4 5 6 
#
# 1 36.9794 29.2594 12.7684 0.0000 10.9116 0.0000
# 2 29.2594 116.2803 42.6892 0.0000 14.6215 0.0000
# 3 12.7684 42.6892 137.0655 0.0000 13.7903 0.0000
# 4 0.0000 0.0000 0.0000 44.3962 0.0000 12.3378
# 5 10.9116 14.6215 13.7903 0.0000 24.3654 0.0000
# 6 0.0000 0.0000 0.0000 12.3378 0.0000 22.4291
#
#
#
# Elastic Compliance Matrix: (Units=1/GPa)
#
#
# Indices 1 2 3 4 5 6 
#
# 1 0.036642 -0.007808 0.000210 0.000000 -0.011843 0.000000
# 2 -0.007808 0.011832 -0.002752 0.000000 -0.002046 0.000000
# 3 0.000210 -0.002752 0.008458 0.000000 -0.003230 0.000000
# 4 0.000000 0.000000 0.000000 0.026589 0.000000 -0.014626
# 5 -0.011843 -0.002046 -0.003230 0.000000 0.049401 0.000000
# 6 0.000000 0.000000 0.000000 -0.014626 0.000000 0.052630
#
#
# Mechanical properties :
#
#
# Convention : Reuss Voigt Hill
#
# Bulk Modulus (GPa) = 27.59955 51.08434 39.34194
# Shear Modulus (GPa) = 22.90099 31.94536 27.42317
#
# Velocity S-wave (km/s) = 3.34437 3.94995 3.65971
# Velocity P-wave (km/s) = 5.32848 6.76405 6.08872
#
# Compressibility (1/GPa) = 0.03623247
#
# Stress axis : x y z
#
# Youngs Moduli (GPa) = 27.29094 84.51479 118.22751
#
# Poissons Ratio (x) = 0.65990 -0.02482
# Poissons Ratio (y) = 0.21309 0.32535
# Poissons Ratio (z) = -0.00573 0.23258
#
# Static dielectric constant tensor:
#      x y z
#    x 1.879690 0.000000 0.023640 
#    y 0.000000 1.787430 0.000000 
#    z 0.023640 0.000000 1.821210 
# 
# From -- ./inp_files/133050.got.cif
#   From: 2010.05.17/outbox.cif.g08.bks.cpg/sg12_67_cif.got.tgz:133050.got - 2010.06.03 13:09:07.
