data_PCOD9180554
_publ_section_title
;
Structure prediction by ZEFSAII (Michael W. Deem and Ramdas Pophale) SiO2 
 PCOD9180554
Probable space group: C 2/M
;
_chemical_formula_sum "Si O2"
_cell_formula_units_Z 52
_cell_length_a 17.472564
_cell_length_b 11.189383
_cell_length_c 26.905640
_cell_angle_alpha 90.000000
_cell_angle_beta 33.765632
_cell_angle_gamma 90.000000
_cell_volume 2923.629620
_symmetry_space_group_name_H-M "C 2/M"
_symmetry_group_IT_number 12
_symmetry_cell_setting 'monoclinic'
loop_
_space_group_symop_operation_xyz
x,y,z
-x,y,-z
-x,-y,-z
x,-y,z
1/2+x,1/2+y,z
1/2-x,1/2+y,-z
1/2-x,1/2-y,-z
1/2+x,1/2-y,z
loop_
_atom_site_type_symbol
_atom_site_label
_atom_site_fract_x
_atom_site_fract_y
_atom_site_fract_z
Si Si1 0.197313 0.862585 0.181739
Si Si2 0.101594 0.864295 0.039778
Si Si3 0.794267 0.143646 0.513671
Si Si4 0.377411 0.359144 0.669458
Si Si5 0.794247 0.362573 0.329297
Si Si6 0.500000 0.217672 0.000000
Si Si7 0.094169 0.714672 0.143683
O O1 0.160728 0.809759 0.255600
O O2 0.127336 0.791678 0.174730
O O3 0.151182 0.000000 0.204558
O O4 0.361653 0.855835 0.085207
O O5 0.032197 0.797254 0.031002
O O6 0.073589 0.796848 0.106346
O O7 0.054860 0.000000 0.067423
O O8 0.266947 0.859298 0.941925
O O9 0.750000 0.250000 0.500000
O O10 0.732795 0.180959 0.600429
O O11 0.960024 0.146801 0.426859
O O12 0.758440 0.000000 0.522337
O O13 0.337642 0.500000 0.694067
O O14 0.294171 0.306027 0.667793
O O15 0.747901 0.500000 0.357273
O O16 0.954088 0.355420 0.228984
#
# Coordination Sequence:
#
# PCOD9180554 Si02
#       7
#     8   8   8   8   8   4   8
#     4  10  19  32  50  73 102 131 167 213 257 302
#     4  10  20  34  49  69 100 133 169 210 253 304
#     4  10  20  35  57  82 108 138 173 214 260 309
#     4   9  18  32  52  77 102 133 171 211 254 303
#     4  10  19  33  54  78 104 133 170 212 251 301
#     4  10  20  32  50  72  96 134 174 208 252 302
#     4  10  20  32  50  74  99 132 169 207 256 306
#
# _framework density 17.786110000000001
#
# number of rings (size 3 to 8) (size 9 to 14) (size 15 to 20)
#    0.000    2.154    0.000    3.692    0.000    1.846 
#    0.000    5.385    0.000    8.308    0.000    0.000 
#    0.000    0.000    0.000    0.000    0.000    0.000 
#
# Total GULP energy -144860.498511 kJ/mol
# GULP energy per Si atom -5571.557635 kJ/mol
# Density = 1.774563 g / cm^3
# Si number density = 17.786110 Si / 1000 Ang^3
#
#
#
# Elastic Constant Matrix: (Units=GPa)
#
#
# Indices 1 2 3 4 5 6 
#
# 1 127.2126 34.0354 34.2881 0.0000 28.4739 0.0000
# 2 34.0354 53.5399 0.7943 0.0000 15.0495 0.0000
# 3 34.2881 0.7943 67.9212 -0.0002 23.3411 0.0000
# 4 0.0000 0.0000 -0.0002 19.5981 0.0000 -0.2349
# 5 28.4739 15.0495 23.3411 0.0000 37.1110 0.0000
# 6 0.0000 0.0000 0.0000 -0.2349 0.0000 3.1511
#
#
#
# Elastic Compliance Matrix: (Units=1/GPa)
#
#
# Indices 1 2 3 4 5 6 
#
# 1 0.011550 -0.006313 -0.004582 0.000000 -0.003420 0.000000
# 2 -0.006313 0.025178 0.006043 0.000000 -0.009167 0.000000
# 3 -0.004582 0.006043 0.021176 0.000000 -0.012254 0.000000
# 4 0.000000 0.000000 0.000000 0.051071 0.000000 0.003808
# 5 -0.003420 -0.009167 -0.012254 0.000000 0.040995 0.000000
# 6 0.000000 0.000000 0.000000 0.003808 0.000000 0.317631
#
#
# Mechanical properties :
#
#
# Convention : Reuss Voigt Hill
#
# Bulk Modulus (GPa) = 20.74649 42.98993 31.86821
# Shear Modulus (GPa) = 10.13431 23.94244 17.03837
#
# Velocity S-wave (km/s) = 2.38961 3.67295 3.09845
# Velocity P-wave (km/s) = 4.39357 6.49695 5.54589
#
# Compressibility (1/GPa) = 0.04820091
#
# Stress axis : x y z
#
# Youngs Moduli (GPa) = 86.57682 39.71696 47.22259
#
# Poissons Ratio (x) = 0.25074 0.21636
# Poissons Ratio (y) = 0.54658 -0.28536
# Poissons Ratio (z) = 0.39667 -0.24001
#
# Static dielectric constant tensor:
#      x y z
#    x 1.623390 0.000000 0.019550 
#    y 0.000000 1.591950 0.000000 
#    z 0.019550 0.000000 1.600210 
# 
# From -- ./inp_files/309757.got.cif
#   From: 2010.05.17/outbox.cif.g08.bks.cpg/sg12_155_cif.got.tgz:309757.got - 2010.06.03 13:09:07.
