data_PCOD9180576
_publ_section_title
;
Structure prediction by ZEFSAII (Michael W. Deem and Ramdas Pophale) SiO2 
 PCOD9180576
Probable space group: C 2/M
;
_chemical_formula_sum "Si O2"
_cell_formula_units_Z 56
_cell_length_a 17.115838
_cell_length_b 12.030543
_cell_length_c 17.271052
_cell_angle_alpha 90.000000
_cell_angle_beta 120.113341
_cell_angle_gamma 90.000000
_cell_volume 3076.349540
_symmetry_space_group_name_H-M "C 2/M"
_symmetry_group_IT_number 12
_symmetry_cell_setting 'monoclinic'
loop_
_space_group_symop_operation_xyz
x,y,z
-x,y,-z
-x,-y,-z
x,-y,z
1/2+x,1/2+y,z
1/2-x,1/2+y,-z
1/2-x,1/2-y,-z
1/2+x,1/2-y,z
loop_
_atom_site_type_symbol
_atom_site_label
_atom_site_fract_x
_atom_site_fract_y
_atom_site_fract_z
Si Si1 0.878573 0.871211 0.580771
Si Si2 0.042420 0.279146 0.599160
Si Si3 0.054017 0.375886 0.769438
Si Si4 0.590612 0.370989 0.086306
Si Si5 0.619897 0.750009 0.261597
Si Si6 0.204655 0.127468 0.619903
Si Si7 0.744221 0.869472 0.951291
O O1 0.853126 0.829174 0.653050
O O2 0.802317 0.858694 0.476794
O O3 0.964694 0.804273 0.591309
O O4 0.902622 0.000000 0.597015
O O5 0.062789 0.357054 0.681811
O O6 0.131348 0.210017 0.620537
O O7 0.000000 0.331625 0.500000
O O8 0.020370 0.500000 0.766817
O O9 0.150135 0.363240 0.858211
O O10 0.979471 0.293975 0.767006
O O11 0.572903 0.500000 0.097753
O O12 0.616035 0.308193 0.177112
O O13 0.672071 0.366887 0.066079
O O14 0.500000 0.326411 0.000000
O O15 0.695999 0.844638 0.301002
O O16 0.179648 0.000000 0.624480
O O17 0.746424 0.000000 0.987009
O O18 0.750000 0.750000 0.000000
#
# Coordination Sequence:
#
# PCOD9180576 Si02
#       7
#     8   8   8   8   8   8   8
#     4   9  18  32  51  75 103 137 176 218 261 307
#     4   9  18  33  53  75 101 137 181 221 259 308
#     4  10  21  36  53  76 109 144 175 214 267 322
#     4  10  21  37  58  82 106 133 171 222 272 316
#     4  11  20  33  53  77 107 139 174 210 260 322
#     4  10  19  32  50  74 105 138 175 220 264 305
#     4  10  21  40  62  83 110 143 179 223 274 327
#
# _framework density 18.203392999999998
#
# number of rings (size 3 to 8) (size 9 to 14) (size 15 to 20)
#    0.000    2.143    0.000    3.429    0.000    2.000 
#    0.000    7.143    0.000    4.714    0.000    0.000 
#    0.000    0.000    0.000    0.000    0.000    0.000 
#
# Total GULP energy -156007.736491 kJ/mol
# GULP energy per Si atom -5571.704875 kJ/mol
# Density = 1.816196 g / cm^3
# Si number density = 18.203393 Si / 1000 Ang^3
#
#
#
# Elastic Constant Matrix: (Units=GPa)
#
#
# Indices 1 2 3 4 5 6 
#
# 1 50.7652 6.5482 27.5339 0.0000 2.6249 0.0000
# 2 6.5482 72.4374 42.9199 0.0000 -10.1919 0.0000
# 3 27.5339 42.9199 87.6208 0.0000 0.2262 0.0000
# 4 0.0000 0.0000 0.0000 27.6012 0.0000 -3.3426
# 5 2.6249 -10.1919 0.2262 0.0000 30.4501 0.0000
# 6 0.0000 0.0000 0.0000 -3.3426 0.0000 12.6630
#
#
#
# Elastic Compliance Matrix: (Units=1/GPa)
#
#
# Indices 1 2 3 4 5 6 
#
# 1 0.024314 0.003082 -0.009147 0.000000 -0.000997 0.000000
# 2 0.003082 0.021255 -0.011398 0.000000 0.006933 0.000000
# 3 -0.009147 -0.011398 0.019879 0.000000 -0.003174 0.000000
# 4 0.000000 0.000000 0.000000 0.037427 0.000000 0.009879
# 5 -0.000997 0.006933 -0.003174 0.000000 0.035271 0.000000
# 6 0.000000 0.000000 0.000000 0.009879 0.000000 0.081578
#
#
# Mechanical properties :
#
#
# Convention : Reuss Voigt Hill
#
# Bulk Modulus (GPa) = 32.76462 40.53638 36.65050
# Shear Modulus (GPa) = 18.88043 23.06429 20.97236
#
# Velocity S-wave (km/s) = 3.22404 3.56340 3.39796
# Velocity P-wave (km/s) = 5.64779 6.26477 5.96426
#
# Compressibility (1/GPa) = 0.03052073
#
# Stress axis : x y z
#
# Youngs Moduli (GPa) = 41.12878 47.04689 50.30526
#
# Poissons Ratio (x) = -0.14499 0.46016
# Poissons Ratio (y) = -0.12675 0.57338
# Poissons Ratio (z) = 0.37622 0.53624
#
# Static dielectric constant tensor:
#      x y z
#    x 1.600710 0.000000 -0.000480 
#    y 0.000000 1.641480 0.000000 
#    z -0.000480 0.000000 1.623890 
# 
# From -- ./inp_files/276684.got.cif
#   From: 2010.05.17/outbox.cif.g08.bks.cpg/sg12_139_cif.got.tgz:276684.got - 2010.06.03 13:09:07.
