data_PCOD9180909
_publ_section_title
;
Structure prediction by ZEFSAII (Michael W. Deem and Ramdas Pophale) SiO2 
 PCOD9180909
Probable space group: C 2/M
;
_chemical_formula_sum "Si O2"
_cell_formula_units_Z 56
_cell_length_a 14.833653
_cell_length_b 7.581106
_cell_length_c 26.670792
_cell_angle_alpha 90.000000
_cell_angle_beta 67.354396
_cell_angle_gamma 90.000000
_cell_volume 2768.045013
_symmetry_space_group_name_H-M "C 2/M"
_symmetry_group_IT_number 12
_symmetry_cell_setting 'monoclinic'
loop_
_space_group_symop_operation_xyz
x,y,z
-x,y,-z
-x,-y,-z
x,-y,z
1/2+x,1/2+y,z
1/2-x,1/2+y,-z
1/2-x,1/2-y,-z
1/2+x,1/2-y,z
loop_
_atom_site_type_symbol
_atom_site_label
_atom_site_fract_x
_atom_site_fract_y
_atom_site_fract_z
Si Si1 0.972571 0.208174 0.855575
Si Si2 0.271656 0.715732 0.643881
Si Si3 0.179349 0.713103 0.767436
Si Si4 0.733644 0.716252 0.145349
Si Si5 0.563920 0.794807 0.941533
Si Si6 0.526756 0.702625 0.440519
Si Si7 0.325781 0.210055 0.439091
O O1 0.066515 0.235938 0.799904
O O2 0.003890 0.286911 0.902425
O O3 0.870876 0.274396 0.853762
O O4 0.961021 0.000000 0.866296
O O5 0.270247 0.500000 0.646898
O O6 0.224596 0.777955 0.705699
O O7 0.382233 0.776495 0.609581
O O8 0.213937 0.767933 0.606187
O O9 0.181856 0.500000 0.766875
O O10 0.241437 0.770834 0.802930
O O11 0.733405 0.500000 0.145378
O O12 0.827605 0.777227 0.092883
O O13 0.580108 0.000000 0.950986
O O14 0.500000 0.714757 0.000000
O O15 0.500000 0.786481 0.500000
O O16 0.556102 0.500000 0.445836
O O17 0.428914 0.706016 0.429800
O O18 0.250000 0.250000 0.500000
O O19 0.338523 0.000000 0.434892
#
# Coordination Sequence:
#
# PCOD9180909 Si02
#       7
#     8   8   8   8   8   8   8
#     4  10  19  32  51  77 107 135 166 216 267 300
#     4   9  19  35  55  75 101 135 171 211 260 314
#     4   9  18  36  56  72  96 137 179 211 251 311
#     4   8  16  31  51  73 100 134 169 207 255 304
#     4   9  18  34  54  76 104 141 181 211 243 305
#     4  10  19  35  55  76 102 134 168 206 257 322
#     4  11  21  35  53  77 104 135 171 212 260 312
#
# _framework density 20.230885000000001
#
# number of rings (size 3 to 8) (size 9 to 14) (size 15 to 20)
#    0.000    2.571    1.429    1.714    0.000    2.286 
#    0.000    9.286    0.000    0.000    0.000    0.000 
#    0.000    0.000    0.000    0.000    0.000    0.000 
#
# Total GULP energy -156194.004101 kJ/mol
# GULP energy per Si atom -5578.357289 kJ/mol
# Density = 2.018484 g / cm^3
# Si number density = 20.230885 Si / 1000 Ang^3
#
#
#
# Elastic Constant Matrix: (Units=GPa)
#
#
# Indices 1 2 3 4 5 6 
#
# 1 166.2163 -14.9363 87.5808 0.0000 -23.3028 0.0000
# 2 -14.9363 43.7809 -6.3989 -0.0001 -1.6842 -0.0001
# 3 87.5808 -6.3989 193.4178 0.0000 -20.0282 0.0000
# 4 0.0000 -0.0001 0.0000 0.1859 0.0000 1.2604
# 5 -23.3028 -1.6842 -20.0282 0.0000 15.2400 0.0000
# 6 0.0000 -0.0001 0.0000 1.2604 0.0000 21.7236
#
#
#
# Elastic Compliance Matrix: (Units=1/GPa)
#
#
# Indices 1 2 3 4 5 6 
#
# 1 0.009412 0.003179 -0.003044 0.000003 0.010742 0.000000
# 2 0.003179 0.024248 0.000166 0.000013 0.007759 -0.000001
# 3 -0.003044 0.000166 0.007031 0.000000 0.004603 0.000000
# 4 0.000003 0.000013 0.000000 8.869782 0.000007 -0.514640
# 5 0.010742 0.007759 0.004603 0.000007 0.088949 0.000000
# 6 0.000000 -0.000001 0.000000 -0.514640 0.000000 0.075893
#
#
# Mechanical properties :
#
#
# Convention : Reuss Voigt Hill
#
# Bulk Modulus (GPa) = 24.21696 59.54513 41.88104
# Shear Modulus (GPa) = 0.55015 29.90785 15.22900
#
# Velocity S-wave (km/s) = 0.52204 3.84907 2.74662
# Velocity P-wave (km/s) = 3.51563 7.01787 5.55023
#
# Compressibility (1/GPa) = 0.04129337
#
# Stress axis : x y z
#
# Youngs Moduli (GPa) = 106.24712 41.23977 142.23159
#
# Poissons Ratio (x) = -0.13111 0.43300
# Poissons Ratio (y) = -0.33779 -0.02362
# Poissons Ratio (z) = 0.32345 -0.00685
#
# Static dielectric constant tensor:
#      x y z
#    x 1.677510 0.000000 -0.015040 
#    y 0.000000 1.794150 0.000000 
#    z -0.015040 0.000000 1.708630 
# 
# From -- ./inp_files/359662.got.cif
#   From: 2010.05.17/outbox.cif.g08.bks.cpg/sg12_180_cif.got.tgz:359662.got - 2010.06.03 13:09:07.
