data_PCOD9180798
_publ_section_title
;
Structure prediction by ZEFSAII (Michael W. Deem and Ramdas Pophale) SiO2 
 PCOD9180798
Probable space group: C 2/M
;
_chemical_formula_sum "Si O2"
_cell_formula_units_Z 56
_cell_length_a 27.369789
_cell_length_b 13.069610
_cell_length_c 10.088210
_cell_angle_alpha 90.000000
_cell_angle_beta 138.979363
_cell_angle_gamma 90.000000
_cell_volume 2368.486919
_symmetry_space_group_name_H-M "C 2/M"
_symmetry_group_IT_number 12
_symmetry_cell_setting 'monoclinic'
loop_
_space_group_symop_operation_xyz
x,y,z
-x,y,-z
-x,-y,-z
x,-y,z
1/2+x,1/2+y,z
1/2-x,1/2+y,-z
1/2-x,1/2-y,-z
1/2+x,1/2-y,z
loop_
_atom_site_type_symbol
_atom_site_label
_atom_site_fract_x
_atom_site_fract_y
_atom_site_fract_z
Si Si1 0.243566 0.618510 0.385150
Si Si2 0.064564 0.719035 0.299844
Si Si3 0.793842 0.288906 0.282609
Si Si4 0.112987 0.117090 0.183188
Si Si5 0.411546 0.118843 0.031065
Si Si6 0.984189 0.885781 0.284368
Si Si7 0.642003 0.285007 0.864757
O O1 0.251951 0.500000 0.365033
O O2 0.274787 0.688704 0.331592
O O3 0.297473 0.634539 0.621860
O O4 0.155225 0.636002 0.211488
O O5 0.139351 0.660323 0.497495
O O6 0.078845 0.798229 0.209963
O O7 0.992171 0.648636 0.141046
O O8 0.042858 0.797925 0.374005
O O9 0.827413 0.258386 0.209362
O O10 0.713421 0.335973 0.084323
O O11 0.072924 0.122909 0.960270
O O12 0.099306 0.000000 0.203065
O O13 0.388919 0.190805 0.108474
O O14 0.411188 0.000000 0.068217
O O15 0.014014 0.000000 0.347391
O O16 0.927187 0.861754 0.286080
#
# Coordination Sequence:
#
# PCOD9180798 Si02
#       7
#     8   8   8   8   8   8   8
#     4   8  15  30  53  76  98 131 171 206 241 286
#     4  10  19  32  51  75 102 132 163 203 250 296
#     4   9  18  34  52  73 100 130 168 207 244 291
#     4   9  17  32  54  77 101 130 164 200 244 299
#     4   9  18  33  51  73 100 131 170 208 244 289
#     4  10  20  33  51  78 107 131 158 199 252 303
#     4   9  19  36  54  71  98 133 168 207 244 288
#
# _framework density 23.643788000000001
#
# number of rings (size 3 to 8) (size 9 to 14) (size 15 to 20)
#    0.000    2.857    0.000    0.857    0.000    4.571 
#    0.000   17.857    0.000    6.857    0.000    0.000 
#    0.000    0.000    0.000    0.000    0.000    0.000 
#
# Total GULP energy -156386.503843 kJ/mol
# GULP energy per Si atom -5585.232280 kJ/mol
# Density = 2.358997 g / cm^3
# Si number density = 23.643788 Si / 1000 Ang^3
#
#
#
# Elastic Constant Matrix: (Units=GPa)
#
#
# Indices 1 2 3 4 5 6 
#
# 1 77.5179 14.3523 23.0123 0.0000 9.2700 0.0000
# 2 14.3523 66.4305 14.4074 0.0000 11.1733 0.0000
# 3 23.0123 14.4074 124.5363 0.0000 34.5826 0.0000
# 4 0.0000 0.0000 0.0000 25.9210 0.0000 3.3431
# 5 9.2700 11.1733 34.5826 0.0000 48.2428 0.0000
# 6 0.0000 0.0000 0.0000 3.3431 0.0000 14.9720
#
#
#
# Elastic Compliance Matrix: (Units=1/GPa)
#
#
# Indices 1 2 3 4 5 6 
#
# 1 0.014067 -0.002474 -0.002150 0.000000 -0.000589 0.000000
# 2 -0.002474 0.016200 -0.000633 0.000000 -0.002823 0.000000
# 3 -0.002150 -0.000633 0.010419 0.000000 -0.006909 0.000000
# 4 0.000000 0.000000 0.000000 0.039723 0.000000 -0.008870
# 5 -0.000589 -0.002823 -0.006909 0.000000 0.026448 0.000000
# 6 0.000000 0.000000 0.000000 -0.008870 0.000000 0.068772
#
#
# Mechanical properties :
#
#
# Convention : Reuss Voigt Hill
#
# Bulk Modulus (GPa) = 33.14283 41.33653 37.23968
# Shear Modulus (GPa) = 25.48431 32.27465 28.87948
#
# Velocity S-wave (km/s) = 3.28661 3.69865 3.49870
# Velocity P-wave (km/s) = 5.33390 5.98005 5.66619
#
# Compressibility (1/GPa) = 0.03017244
#
# Stress axis : x y z
#
# Youngs Moduli (GPa) = 71.08908 61.72874 95.98034
#
# Poissons Ratio (x) = 0.15271 0.20631
# Poissons Ratio (y) = 0.17586 0.06077
# Poissons Ratio (z) = 0.15281 0.03908
#
# Static dielectric constant tensor:
#      x y z
#    x 1.947080 0.000000 0.002360 
#    y 0.000000 1.856060 0.000000 
#    z 0.002360 0.000000 2.007870 
# 
# From -- ./inp_files/189244.got.cif
#   From: 2010.05.17/outbox.cif.g08.bks.cpg/sg12_95_cif.got.tgz:189244.got - 2010.06.03 13:09:07.
