data_PCOD9180640
_publ_section_title
;
Structure prediction by ZEFSAII (Michael W. Deem and Ramdas Pophale) SiO2 
 PCOD9180640
Probable space group: C 2/M
;
_chemical_formula_sum "Si O2"
_cell_formula_units_Z 64
_cell_length_a 33.975545
_cell_length_b 7.594426
_cell_length_c 15.815121
_cell_angle_alpha 90.000000
_cell_angle_beta 137.914828
_cell_angle_gamma 90.000000
_cell_volume 2735.021430
_symmetry_space_group_name_H-M "C 2/M"
_symmetry_group_IT_number 12
_symmetry_cell_setting 'monoclinic'
loop_
_space_group_symop_operation_xyz
x,y,z
-x,y,-z
-x,-y,-z
x,-y,z
1/2+x,1/2+y,z
1/2-x,1/2+y,-z
1/2-x,1/2-y,-z
1/2+x,1/2-y,z
loop_
_atom_site_type_symbol
_atom_site_label
_atom_site_fract_x
_atom_site_fract_y
_atom_site_fract_z
Si Si1 0.438276 0.699858 0.362372
Si Si2 0.897820 0.786982 0.626015
Si Si3 0.015076 0.293334 0.738847
Si Si4 0.939274 0.206629 0.872333
Si Si5 0.733540 0.711134 0.570796
Si Si6 0.724166 0.214546 0.183565
Si Si7 0.301682 0.712008 0.152710
Si Si8 0.399791 0.211646 0.986150
O O1 0.500000 0.779359 0.500000
O O2 0.435108 0.500000 0.392585
O O3 0.454446 0.698263 0.289551
O O4 0.370684 0.773970 0.258444
O O5 0.916579 0.719489 0.748645
O O6 0.831770 0.726685 0.511226
O O7 0.945498 0.730155 0.633926
O O8 0.897156 0.000000 0.624363
O O9 0.028511 0.500000 0.751861
O O10 0.042844 0.228713 0.871661
O O11 0.898242 0.222662 0.888062
O O12 0.948802 0.000000 0.871404
O O13 0.000000 0.289088 0.000000
O O14 0.734873 0.500000 0.576608
O O15 0.750000 0.750000 0.500000
O O16 0.769550 0.774245 0.709385
O O17 0.772892 0.274465 0.195270
O O18 0.657821 0.263230 0.053221
O O19 0.727366 0.000000 0.187854
O O20 0.306115 0.500000 0.159387
O O21 0.250000 0.750000 0.000000
O O22 0.400978 0.000000 0.982184
#
# Coordination Sequence:
#
# PCOD9180640 Si02
#       8
#     8   8   8   8   8   8   8   8
#     4  10  23  41  65  92 117 154 202 249 298 361
#     4  10  21  36  56  81 113 153 195 238 287 348
#     4  11  23  37  57  86 117 151 188 239 300 353
#     4  10  19  32  50  77 112 150 187 233 285 330
#     4  10  21  37  59  83 113 153 194 240 290 341
#     4   9  19  36  59  84 111 150 193 233 283 345
#     4  10  21  40  65  92 123 158 201 250 304 364
#     4  10  20  34  54  81 113 149 190 232 280 343
#
# _framework density 23.400183999999999
#
# number of rings (size 3 to 8) (size 9 to 14) (size 15 to 20)
#    0.000    2.000    1.250    1.875    1.750    3.500 
#    0.000    1.250    0.000    0.000    0.000    0.000 
#    0.000    0.000    0.000    0.000    0.000    0.000 
#
# Total GULP energy -178453.037019 kJ/mol
# GULP energy per Si atom -5576.657407 kJ/mol
# Density = 2.334692 g / cm^3
# Si number density = 23.400184 Si / 1000 Ang^3
#
#
#
# Elastic Constant Matrix: (Units=GPa)
#
#
# Indices 1 2 3 4 5 6 
#
# 1 155.3547 -8.3924 44.4473 0.0000 25.5004 0.0000
# 2 -8.3924 55.2879 2.5556 0.0000 3.7467 0.0002
# 3 44.4473 2.5556 101.6354 0.0000 23.3051 0.0000
# 4 0.0000 0.0000 0.0000 12.3214 0.0000 -3.9287
# 5 25.5004 3.7467 23.3051 0.0000 43.7425 0.0000
# 6 0.0000 0.0002 0.0000 -3.9287 0.0000 41.4001
#
#
#
# Elastic Compliance Matrix: (Units=1/GPa)
#
#
# Indices 1 2 3 4 5 6 
#
# 1 0.007831 0.001534 -0.002718 0.000000 -0.003248 0.000000
# 2 0.001534 0.018495 -0.000647 0.000000 -0.002134 0.000000
# 3 -0.002718 -0.000647 0.012153 0.000000 -0.004835 0.000000
# 4 0.000000 0.000000 0.000000 0.083692 0.000000 0.007942
# 5 -0.003248 -0.002134 -0.004835 0.000000 0.027513 0.000000
# 6 0.000000 0.000000 0.000000 0.007942 0.000000 0.024908
#
#
# Mechanical properties :
#
#
# Convention : Reuss Voigt Hill
#
# Bulk Modulus (GPa) = 28.72181 43.27766 35.99974
# Shear Modulus (GPa) = 26.33547 37.73732 32.03640
#
# Velocity S-wave (km/s) = 3.35840 4.02019 3.70410
# Velocity P-wave (km/s) = 5.22870 6.33119 5.80617
#
# Compressibility (1/GPa) = 0.03481675
#
# Stress axis : x y z
#
# Youngs Moduli (GPa) = 127.70350 54.06990 82.28632
#
# Poissons Ratio (x) = -0.08297 0.22368
# Poissons Ratio (y) = -0.19595 0.05322
# Poissons Ratio (z) = 0.34713 0.03497
#
# Static dielectric constant tensor:
#      x y z
#    x 1.871650 0.000000 0.034170 
#    y 0.000000 1.894640 0.000000 
#    z 0.034170 0.000000 1.956250 
# 
# From -- ./inp_files/249995.got.cif
#   From: 2010.05.17/outbox.cif.g08.bks.cpg/sg12_125_cif.got.tgz:249995.got - 2010.06.03 13:09:07.
