data_PCOD9180695
_publ_section_title
;
Structure prediction by ZEFSAII (Michael W. Deem and Ramdas Pophale) SiO2 
 PCOD9180695
Probable space group: C 2/M
;
_chemical_formula_sum "Si O2"
_cell_formula_units_Z 56
_cell_length_a 19.503040
_cell_length_b 7.536787
_cell_length_c 17.429073
_cell_angle_alpha 90.000000
_cell_angle_beta 86.504095
_cell_angle_gamma 90.000000
_cell_volume 2557.136647
_symmetry_space_group_name_H-M "C 2/M"
_symmetry_group_IT_number 12
_symmetry_cell_setting 'monoclinic'
loop_
_space_group_symop_operation_xyz
x,y,z
-x,y,-z
-x,-y,-z
x,-y,z
1/2+x,1/2+y,z
1/2-x,1/2+y,-z
1/2-x,1/2-y,-z
1/2+x,1/2-y,z
loop_
_atom_site_type_symbol
_atom_site_label
_atom_site_fract_x
_atom_site_fract_y
_atom_site_fract_z
Si Si1 0.169495 0.288796 0.495703
Si Si2 0.456290 0.710250 0.259108
Si Si3 0.326816 0.215648 0.674178
Si Si4 0.032528 0.796402 0.575250
Si Si5 0.805602 0.216755 0.229567
Si Si6 0.222751 0.712256 0.086080
Si Si7 0.407424 0.786426 0.819524
O O1 0.160495 0.500000 0.500809
O O2 0.250000 0.250000 0.500000
O O3 0.151235 0.224353 0.411012
O O4 0.115056 0.206639 0.557742
O O5 0.447587 0.500000 0.272195
O O6 0.480855 0.785123 0.340074
O O7 0.382054 0.781228 0.240225
O O8 0.513744 0.732832 0.190339
O O9 0.248946 0.267697 0.701007
O O10 0.373536 0.274974 0.741515
O O11 0.328310 0.000000 0.673125
O O12 0.000000 0.714098 0.500000
O O13 0.007962 0.000000 0.578709
O O14 0.773202 0.275848 0.150614
O O15 0.806817 0.000000 0.227918
O O16 0.220882 0.500000 0.093903
O O17 0.145381 0.775614 0.111264
O O18 0.250000 0.750000 0.000000
O O19 0.406792 0.000000 0.819969
#
# Coordination Sequence:
#
# PCOD9180695 Si02
#       7
#     8   8   8   8   8   8   8
#     4  11  21  32  49  72  98 131 172 217 262 304
#     4  10  19  32  51  73 100 134 168 203 244 292
#     4   8  15  30  50  68  90 126 169 207 243 290
#     4  10  21  35  50  72 104 138 172 215 262 301
#     4   8  15  30  51  72  95 128 167 200 236 287
#     4   9  18  34  56  78  99 125 158 198 241 289
#     4   9  18  33  53  75  98 126 161 200 242 290
#
# _framework density 21.899494000000001
#
# number of rings (size 3 to 8) (size 9 to 14) (size 15 to 20)
#    0.000    2.714    0.000    3.857    0.000    3.714 
#    0.000    2.143    0.000    8.571    0.000    0.000 
#    0.000    0.000    0.000    0.000    0.000    0.000 
#
# Total GULP energy -156301.191149 kJ/mol
# GULP energy per Si atom -5582.185398 kJ/mol
# Density = 2.184965 g / cm^3
# Si number density = 21.899494 Si / 1000 Ang^3
#
#
#
# Elastic Constant Matrix: (Units=GPa)
#
#
# Indices 1 2 3 4 5 6 
#
# 1 116.8775 -0.5908 28.1265 0.0000 -27.3835 0.0000
# 2 -0.5908 61.2627 1.5309 0.0000 3.4454 0.0000
# 3 28.1265 1.5309 105.0372 0.0000 -28.6383 0.0000
# 4 0.0000 0.0000 0.0000 10.0909 0.0000 -8.2936
# 5 -27.3835 3.4454 -28.6383 0.0000 29.2750 0.0000
# 6 0.0000 0.0000 0.0000 -8.2936 0.0000 16.4426
#
#
#
# Elastic Compliance Matrix: (Units=1/GPa)
#
#
# Indices 1 2 3 4 5 6 
#
# 1 0.010973 -0.000462 -0.000161 0.000000 0.010160 0.000000
# 2 -0.000462 0.016536 -0.001044 0.000000 -0.003399 0.000000
# 3 -0.000161 -0.001044 0.013053 0.000000 0.012741 0.000000
# 4 0.000000 0.000000 0.000000 0.169272 0.000000 0.085380
# 5 0.010160 -0.003399 0.012741 0.000000 0.056526 0.000000
# 6 0.000000 0.000000 0.000000 0.085380 0.000000 0.103883
#
#
# Mechanical properties :
#
#
# Convention : Reuss Voigt Hill
#
# Bulk Modulus (GPa) = 26.86209 37.92341 32.39275
# Shear Modulus (GPa) = 12.95381 28.10243 20.52812
#
# Velocity S-wave (km/s) = 2.43474 3.58613 3.06499
# Velocity P-wave (km/s) = 4.49407 5.87382 5.22964
#
# Compressibility (1/GPa) = 0.03722719
#
# Stress axis : x y z
#
# Youngs Moduli (GPa) = 91.13301 60.47425 76.61320
#
# Poissons Ratio (x) = 0.02791 0.01236
# Poissons Ratio (y) = 0.04206 0.08000
# Poissons Ratio (z) = 0.01470 0.06315
#
# Static dielectric constant tensor:
#      x y z
#    x 1.826000 0.000000 0.004290 
#    y 0.000000 1.871220 0.000000 
#    z 0.004290 0.000000 1.802240 
# 
# From -- ./inp_files/280173.got.cif
#   From: 2010.05.17/outbox.cif.g08.bks.cpg/sg12_141_cif.got.tgz:280173.got - 2010.06.03 13:09:07.
