data_PCOD9180887
_publ_section_title
;
Structure prediction by ZEFSAII (Michael W. Deem and Ramdas Pophale) SiO2 
 PCOD9180887
Probable space group: C 2/M
;
_chemical_formula_sum "Si O2"
_cell_formula_units_Z 56
_cell_length_a 27.586036
_cell_length_b 8.748733
_cell_length_c 13.762870
_cell_angle_alpha 90.000000
_cell_angle_beta 121.597581
_cell_angle_gamma 90.000000
_cell_volume 2829.144499
_symmetry_space_group_name_H-M "C 2/M"
_symmetry_group_IT_number 12
_symmetry_cell_setting 'monoclinic'
loop_
_space_group_symop_operation_xyz
x,y,z
-x,y,-z
-x,-y,-z
x,-y,z
1/2+x,1/2+y,z
1/2-x,1/2+y,-z
1/2-x,1/2-y,-z
1/2+x,1/2-y,z
loop_
_atom_site_type_symbol
_atom_site_label
_atom_site_fract_x
_atom_site_fract_y
_atom_site_fract_z
Si Si1 0.015075 0.822544 0.173228
Si Si2 0.114518 0.318444 0.174656
Si Si3 0.613427 0.684804 0.762443
Si Si4 0.687247 0.182722 0.441613
Si Si5 0.621691 0.321517 0.984621
Si Si6 0.513027 0.179103 0.371647
Si Si7 0.624834 0.318239 0.563260
O O1 0.055100 0.770416 0.127941
O O2 0.030933 0.713042 0.279392
O O3 0.026885 0.000000 0.210102
O O4 0.947453 0.809742 0.088549
O O5 0.104820 0.500000 0.165763
O O6 0.152856 0.274133 0.307618
O O7 0.141032 0.271057 0.099139
O O8 0.606867 0.500000 0.759356
O O9 0.550669 0.757212 0.689596
O O10 0.644072 0.723411 0.693199
O O11 0.639247 0.730375 0.894256
O O12 0.750000 0.250000 0.500000
O O13 0.657936 0.241282 0.509494
O O14 0.689023 0.000000 0.446412
O O15 0.636403 0.500000 0.011848
O O16 0.558982 0.267896 0.483834
O O17 0.514903 0.000000 0.395037
O O18 0.629093 0.500000 0.557158
#
# Coordination Sequence:
#
# PCOD9180887 Si02
#       7
#     8   8   8   8   8   8   8
#     4  10  19  32  51  76 110 153 193 227 271 331
#     4  11  22  35  54  81 112 143 181 233 285 333
#     4   9  20  36  53  79 114 153 193 227 267 330
#     4  11  25  43  62  86 112 140 184 239 292 341
#     4   9  19  34  52  78 113 152 191 224 262 328
#     4  11  20  30  48  79 116 152 190 232 275 328
#     4  11  21  36  59  81 109 149 188 231 284 335
#
# _framework density 19.793970999999999
#
# number of rings (size 3 to 8) (size 9 to 14) (size 15 to 20)
#    0.000    1.714    1.429    4.714    0.000    9.143 
#    0.000    0.000    0.000    0.857    0.000    0.000 
#    0.000    0.000    0.000    0.000    0.000    0.000 
#
# Total GULP energy -156296.928384 kJ/mol
# GULP energy per Si atom -5582.033157 kJ/mol
# Density = 1.974892 g / cm^3
# Si number density = 19.793971 Si / 1000 Ang^3
#
#
#
# Elastic Constant Matrix: (Units=GPa)
#
#
# Indices 1 2 3 4 5 6 
#
# 1 65.7697 24.4750 55.4309 0.0000 -29.5979 0.0000
# 2 24.4750 46.1811 34.8286 0.0000 -11.5034 0.0000
# 3 55.4309 34.8286 92.9265 0.0000 -42.9159 0.0000
# 4 0.0000 0.0000 0.0000 17.2364 0.0000 5.1628
# 5 -29.5979 -11.5034 -42.9159 0.0000 38.9986 0.0000
# 6 0.0000 0.0000 0.0000 5.1628 0.0000 5.7757
#
#
#
# Elastic Compliance Matrix: (Units=1/GPa)
#
#
# Indices 1 2 3 4 5 6 
#
# 1 0.032056 -0.004658 -0.013775 0.000000 0.007796 0.000000
# 2 -0.004658 0.031895 -0.013142 0.000000 -0.008590 0.000000
# 3 -0.013775 -0.013142 0.035148 0.000000 0.024347 0.000000
# 4 0.000000 0.000000 0.000000 0.079230 0.000000 -0.070822
# 5 0.007796 -0.008590 0.024347 0.000000 0.055818 0.000000
# 6 0.000000 0.000000 0.000000 -0.070822 0.000000 0.236445
#
#
# Mechanical properties :
#
#
# Convention : Reuss Voigt Hill
#
# Bulk Modulus (GPa) = 27.81869 48.26068 38.03969
# Shear Modulus (GPa) = 9.16209 18.41166 13.78688
#
# Velocity S-wave (km/s) = 2.15378 3.05317 2.64203
# Velocity P-wave (km/s) = 4.50219 6.07154 5.34477
#
# Compressibility (1/GPa) = 0.03594705
#
# Stress axis : x y z
#
# Youngs Moduli (GPa) = 31.19502 31.35325 28.45090
#
# Poissons Ratio (x) = 0.14605 0.39192
# Poissons Ratio (y) = 0.14531 0.37391
# Poissons Ratio (z) = 0.42973 0.41206
#
# Static dielectric constant tensor:
#      x y z
#    x 1.710990 0.000000 -0.064290 
#    y 0.000000 1.656460 0.000000 
#    z -0.064290 0.000000 1.755210 
# 
# From -- ./inp_files/249294.got.cif
#   From: 2010.05.17/outbox.cif.g08.bks.cpg/sg12_125_cif.got.tgz:249294.got - 2010.06.03 13:09:07.
