data_PCOD9180735
_publ_section_title
;
Structure prediction by ZEFSAII (Michael W. Deem and Ramdas Pophale) SiO2 
 PCOD9180735
Probable space group: C 2/M
;
_chemical_formula_sum "Si O2"
_cell_formula_units_Z 56
_cell_length_a 19.779674
_cell_length_b 7.652530
_cell_length_c 19.678941
_cell_angle_alpha 90.000000
_cell_angle_beta 58.663840
_cell_angle_gamma 90.000000
_cell_volume 2544.194266
_symmetry_space_group_name_H-M "C 2/M"
_symmetry_group_IT_number 12
_symmetry_cell_setting 'monoclinic'
loop_
_space_group_symop_operation_xyz
x,y,z
-x,y,-z
-x,-y,-z
x,-y,z
1/2+x,1/2+y,z
1/2-x,1/2+y,-z
1/2-x,1/2-y,-z
1/2+x,1/2-y,z
loop_
_atom_site_type_symbol
_atom_site_label
_atom_site_fract_x
_atom_site_fract_y
_atom_site_fract_z
Si Si1 0.681823 0.797060 0.742172
Si Si2 0.495276 0.712847 0.326470
Si Si3 0.666276 0.713777 0.253265
Si Si4 0.004384 0.798588 0.830951
Si Si5 0.245526 0.290055 0.923061
Si Si6 0.321499 0.708621 0.412763
Si Si7 0.574911 0.799855 0.996333
O O1 0.760440 0.727920 0.738252
O O2 0.596862 0.713270 0.803596
O O3 0.691718 0.783151 0.655697
O O4 0.673860 0.000000 0.765516
O O5 0.495751 0.500000 0.329081
O O6 0.577252 0.772529 0.317419
O O7 0.499148 0.762902 0.244800
O O8 0.407721 0.769138 0.395312
O O9 0.665574 0.500000 0.256848
O O10 0.687333 0.766131 0.164702
O O11 0.948298 0.699992 0.912373
O O12 0.978765 0.000000 0.845417
O O13 0.243541 0.500000 0.919694
O O14 0.250000 0.250000 0.000000
O O15 0.160767 0.220688 0.941594
O O16 0.326288 0.500000 0.401586
O O17 0.250000 0.750000 0.500000
O O18 0.579446 0.000000 0.968679
O O19 0.500000 0.712187 0.000000
#
# Coordination Sequence:
#
# PCOD9180735 Si02
#       7
#     8   8   8   8   8   8   8
#     4  10  19  33  56  81 105 136 170 210 261 312
#     4   8  16  31  52  76  99 128 169 210 247 297
#     4   9  17  32  53  75 101 135 175 215 257 310
#     4  10  19  32  51  73  99 133 174 219 261 306
#     4  10  20  33  50  73 102 137 176 220 269 317
#     4  10  20  36  58  83 110 138 170 209 251 303
#     4  10  20  33  48  68  96 132 176 222 265 311
#
# _framework density 22.010898999999998
#
# number of rings (size 3 to 8) (size 9 to 14) (size 15 to 20)
#    0.000    2.429    0.000    3.857    0.000    4.286 
#    0.000    3.571    0.000   15.429    0.000    0.000 
#    0.000    0.000    0.000    0.000    0.000    0.000 
#
# Total GULP energy -156286.099504 kJ/mol
# GULP energy per Si atom -5581.646411 kJ/mol
# Density = 2.196080 g / cm^3
# Si number density = 22.010899 Si / 1000 Ang^3
#
#
#
# Elastic Constant Matrix: (Units=GPa)
#
#
# Indices 1 2 3 4 5 6 
#
# 1 130.5483 -3.5263 28.7504 -0.0017 -34.5413 -0.0013
# 2 -3.5263 47.7661 -5.0811 -0.0026 -0.9234 -0.0037
# 3 28.7504 -5.0811 89.5601 -0.0003 -31.0829 -0.0002
# 4 -0.0017 -0.0026 -0.0003 17.4863 0.0003 2.4923
# 5 -34.5413 -0.9234 -31.0829 0.0003 34.8898 -0.0004
# 6 -0.0013 -0.0037 -0.0002 2.4923 -0.0004 11.2786
#
#
#
# Elastic Compliance Matrix: (Units=1/GPa)
#
#
# Indices 1 2 3 4 5 6 
#
# 1 0.010435 0.001025 0.000439 0.000001 0.010749 0.000002
# 2 0.001025 0.021297 0.002066 0.000002 0.003419 0.000007
# 3 0.000439 0.002066 0.016375 0.000000 0.015077 0.000002
# 4 0.000001 0.000002 0.000000 0.059047 0.000000 -0.013048
# 5 0.010749 0.003419 0.015077 0.000000 0.052826 0.000004
# 6 0.000002 0.000007 0.000002 -0.013048 0.000004 0.091547
#
#
# Mechanical properties :
#
#
# Convention : Reuss Voigt Hill
#
# Bulk Modulus (GPa) = 18.12728 34.24006 26.18367
# Shear Modulus (GPa) = 19.02177 29.24635 24.13406
#
# Velocity S-wave (km/s) = 2.94291 3.64912 3.31488
# Velocity P-wave (km/s) = 4.44984 5.77447 5.15488
#
# Compressibility (1/GPa) = 0.05516549
#
# Stress axis : x y z
#
# Youngs Moduli (GPa) = 95.83081 46.95534 61.06967
#
# Poissons Ratio (x) = -0.04812 -0.02680
# Poissons Ratio (y) = -0.09821 -0.12615
# Poissons Ratio (z) = -0.04206 -0.09700
#
# Static dielectric constant tensor:
#      x y z
#    x 1.871630 0.000000 -0.016750 
#    y 0.000000 1.877830 0.000000 
#    z -0.016750 0.000000 1.790170 
# 
# From -- ./inp_files/281695.got.cif
#   From: 2010.05.17/outbox.cif.g08.bks.cpg/sg12_141_cif.got.tgz:281695.got - 2010.06.03 13:09:07.
