data_PCOD9180694
_publ_section_title
;
Structure prediction by ZEFSAII (Michael W. Deem and Ramdas Pophale) SiO2 
 PCOD9180694
Probable space group: C 2/M
;
_chemical_formula_sum "Si O2"
_cell_formula_units_Z 56
_cell_length_a 20.123872
_cell_length_b 13.783914
_cell_length_c 11.808527
_cell_angle_alpha 90.000000
_cell_angle_beta 87.993030
_cell_angle_gamma 90.000000
_cell_volume 3273.507489
_symmetry_space_group_name_H-M "C 2/M"
_symmetry_group_IT_number 12
_symmetry_cell_setting 'monoclinic'
loop_
_space_group_symop_operation_xyz
x,y,z
-x,y,-z
-x,-y,-z
x,-y,z
1/2+x,1/2+y,z
1/2-x,1/2+y,-z
1/2-x,1/2-y,-z
1/2+x,1/2-y,z
loop_
_atom_site_type_symbol
_atom_site_label
_atom_site_fract_x
_atom_site_fract_y
_atom_site_fract_z
Si Si1 0.288693 0.610628 0.441443
Si Si2 0.639719 0.763315 0.001753
Si Si3 0.963345 0.608018 0.879648
Si Si4 0.719840 0.811148 0.669017
Si Si5 0.444070 0.611832 0.409139
Si Si6 0.576250 0.781285 0.761872
Si Si7 0.236572 0.884811 0.093776
O O1 0.276093 0.500000 0.405069
O O2 0.272227 0.695331 0.352471
O O3 0.247334 0.635602 0.556482
O O4 0.368141 0.619242 0.459976
O O5 0.600917 0.750372 0.885784
O O6 0.698902 0.839346 0.971673
O O7 0.592925 0.811894 0.098246
O O8 0.672902 0.664538 0.040753
O O9 0.937769 0.500000 0.856880
O O10 0.017648 0.642466 0.786103
O O11 0.000000 0.603480 0.000000
O O12 0.641220 0.825681 0.696617
O O13 0.757531 0.848923 0.777126
O O14 0.500000 0.631541 0.500000
O O15 0.452837 0.500000 0.370738
O O16 0.447803 0.689312 0.308338
O O17 0.236708 0.000000 0.087987
#
# Coordination Sequence:
#
# PCOD9180694 Si02
#       7
#     8   8   8   8   8   8   8
#     4   9  17  31  50  71  98 130 163 203 250 292
#     4   9  19  33  48  73 102 128 162 199 237 288
#     4   9  17  31  51  71  94 127 163 197 235 282
#     4   9  18  31  48  73  99 125 166 208 241 290
#     4   9  18  32  50  71  95 127 163 198 241 291
#     4   9  18  32  50  71  97 127 162 202 240 283
#     4  10  19  32  51  73 100 131 161 199 244 287
#
# _framework density 17.107033000000001
#
# number of rings (size 3 to 8) (size 9 to 14) (size 15 to 20)
#    0.000    2.857    0.000    0.857    0.000    5.714 
#    0.000   10.000    0.000    3.000    0.000    0.000 
#    0.000    0.000    0.000    0.000    0.000    0.000 
#
# Total GULP energy -155989.656425 kJ/mol
# GULP energy per Si atom -5571.059158 kJ/mol
# Density = 1.706810 g / cm^3
# Si number density = 17.107033 Si / 1000 Ang^3
#
#
#
# Elastic Constant Matrix: (Units=GPa)
#
#
# Indices 1 2 3 4 5 6 
#
# 1 40.9420 36.7231 29.4537 0.0000 -2.8726 0.0000
# 2 36.7231 119.2868 40.1587 0.0000 5.4036 0.0000
# 3 29.4537 40.1587 44.8725 0.0000 -12.7661 0.0000
# 4 0.0000 0.0000 0.0000 18.3256 0.0000 2.6432
# 5 -2.8726 5.4036 -12.7661 0.0000 30.7383 0.0000
# 6 0.0000 0.0000 0.0000 2.6432 0.0000 16.3938
#
#
#
# Elastic Compliance Matrix: (Units=1/GPa)
#
#
# Indices 1 2 3 4 5 6 
#
# 1 0.050432 -0.004804 -0.030869 0.000000 -0.007263 0.000000
# 2 -0.004804 0.014175 -0.011759 0.000000 -0.007824 0.000000
# 3 -0.030869 -0.011759 0.059918 0.000000 0.024067 0.000000
# 4 0.000000 0.000000 0.000000 0.055868 0.000000 -0.009008
# 5 -0.007263 -0.007824 0.024067 0.000000 0.043225 0.000000
# 6 0.000000 0.000000 0.000000 -0.009008 0.000000 0.062451
#
#
# Mechanical properties :
#
#
# Convention : Reuss Voigt Hill
#
# Bulk Modulus (GPa) = 33.71506 46.41914 40.06710
# Shear Modulus (GPa) = 12.79359 19.67594 16.23476
#
# Velocity S-wave (km/s) = 2.73766 3.39509 3.08394
# Velocity P-wave (km/s) = 5.45382 6.52398 6.01275
#
# Compressibility (1/GPa) = 0.02966034
#
# Stress axis : x y z
#
# Youngs Moduli (GPa) = 19.82867 70.54527 16.68944
#
# Poissons Ratio (x) = 0.33892 0.51519
# Poissons Ratio (y) = 0.09526 0.19625
# Poissons Ratio (z) = 0.61210 0.82952
#
# Static dielectric constant tensor:
#      x y z
#    x 1.592140 0.000000 -0.008980 
#    y 0.000000 1.567840 0.000000 
#    z -0.008980 0.000000 1.563200 
# 
# From -- ./inp_files/164969.got.cif
#   From: 2010.05.17/outbox.cif.g08.bks.cpg/sg12_83_cif.got.tgz:164969.got - 2010.06.03 13:09:07.
