data_PCOD9180900
_publ_section_title
;
Structure prediction by ZEFSAII (Michael W. Deem and Ramdas Pophale) SiO2 
 PCOD9180900
Probable space group: C 2/M
;
_chemical_formula_sum "Si O2"
_cell_formula_units_Z 60
_cell_length_a 21.553262
_cell_length_b 21.087808
_cell_length_c 15.913889
_cell_angle_alpha 90.000000
_cell_angle_beta 150.387773
_cell_angle_gamma 90.000000
_cell_volume 3574.042514
_symmetry_space_group_name_H-M "C 2/M"
_symmetry_group_IT_number 12
_symmetry_cell_setting 'monoclinic'
loop_
_space_group_symop_operation_xyz
x,y,z
-x,y,-z
-x,-y,-z
x,-y,z
1/2+x,1/2+y,z
1/2-x,1/2+y,-z
1/2-x,1/2-y,-z
1/2+x,1/2-y,z
loop_
_atom_site_type_symbol
_atom_site_label
_atom_site_fract_x
_atom_site_fract_y
_atom_site_fract_z
Si Si1 0.437225 0.662587 0.016373
Si Si2 0.462211 0.429393 0.616358
Si Si3 0.191645 0.733194 0.712402
Si Si4 0.625004 0.202690 0.450013
Si Si5 0.166437 0.837047 0.417902
Si Si6 0.000000 0.154872 0.500000
Si Si7 0.658170 0.193502 0.858457
Si Si8 0.696705 0.428242 0.017768
O O1 0.342114 0.722674 0.897602
O O2 0.500000 0.650371 0.000000
O O3 0.548005 0.670692 0.214970
O O4 0.351140 0.605492 0.952424
O O5 0.426566 0.500000 0.547310
O O6 0.355165 0.393963 0.543246
O O7 0.507354 0.387703 0.591366
O O8 0.575799 0.433195 0.815956
O O9 0.153422 0.697075 0.582336
O O10 0.123527 0.801382 0.631589
O O11 0.138212 0.705611 0.735992
O O12 0.710467 0.157429 0.494172
O O13 0.669157 0.273221 0.476141
O O14 0.477456 0.197254 0.259217
O O15 0.750000 0.250000 0.000000
O O16 0.716802 0.123377 0.928006
O O17 0.746211 0.500000 0.088582
#
# Coordination Sequence:
#
# PCOD9180900 Si02
#       8
#     8   8   8   8   8   4   8   8
#     4  10  19  32  51  77 105 140 177 211 260 324
#     4  10  20  35  53  76 105 142 183 220 261 321
#     4  11  19  30  52  80 111 133 170 220 268 316
#     4  11  19  32  53  79 106 139 167 223 276 317
#     4  10  20  34  52  76 110 134 176 218 270 317
#     4  12  19  32  52  82 109 140 168 228 278 314
#     4  11  20  34  54  80 107 140 180 218 268 325
#     4   9  20  35  52  73 105 141 178 222 262 312
#
# _framework density 16.787713
#
# number of rings (size 3 to 8) (size 9 to 14) (size 15 to 20)
#    0.000    1.600    4.000    3.400    0.000    0.267 
#    0.000    0.667    0.000    6.400    0.000    0.000 
#    0.000    8.000    0.000    0.000    0.000    0.000 
#
# Total GULP energy -167039.574878 kJ/mol
# GULP energy per Si atom -5567.985829 kJ/mol
# Density = 1.674950 g / cm^3
# Si number density = 16.787713 Si / 1000 Ang^3
#
#
#
# Elastic Constant Matrix: (Units=GPa)
#
#
# Indices 1 2 3 4 5 6 
#
# 1 115.4341 43.4352 32.1809 0.0000 11.9354 0.0000
# 2 43.4352 92.5281 17.1346 0.0000 6.8204 0.0000
# 3 32.1809 17.1346 50.6564 0.0000 11.9106 0.0000
# 4 0.0000 0.0000 0.0000 17.8961 0.0000 -1.4410
# 5 11.9354 6.8204 11.9106 0.0000 34.4696 0.0000
# 6 0.0000 0.0000 0.0000 -1.4410 0.0000 4.1097
#
#
#
# Elastic Compliance Matrix: (Units=1/GPa)
#
#
# Indices 1 2 3 4 5 6 
#
# 1 0.012132 -0.004512 -0.005881 0.000000 -0.001276 0.000000
# 2 -0.004512 0.013241 -0.001484 0.000000 -0.000545 0.000000
# 3 -0.005881 -0.001484 0.025503 0.000000 -0.006482 0.000000
# 4 0.000000 0.000000 0.000000 0.057501 0.000000 0.020162
# 5 -0.001276 -0.000545 -0.006482 0.000000 0.031800 0.000000
# 6 0.000000 0.000000 0.000000 0.020162 0.000000 0.250397
#
#
# Mechanical properties :
#
#
# Convention : Reuss Voigt Hill
#
# Bulk Modulus (GPa) = 36.87140 49.34666 43.10903
# Shear Modulus (GPa) = 11.81000 22.35295 17.08147
#
# Velocity S-wave (km/s) = 2.65522 3.65294 3.19329
# Velocity P-wave (km/s) = 5.60457 6.87388 6.27142
#
# Compressibility (1/GPa) = 0.02712129
#
# Stress axis : x y z
#
# Youngs Moduli (GPa) = 82.42530 75.52527 39.21086
#
# Poissons Ratio (x) = 0.34077 0.23060
# Poissons Ratio (y) = 0.37191 0.05820
# Poissons Ratio (z) = 0.48475 0.11209
#
# Static dielectric constant tensor:
#      x y z
#    x 1.580010 0.000000 0.014340 
#    y 0.000000 1.594740 0.000000 
#    z 0.014340 0.000000 1.597550 
# 
# From -- ./inp_files/235206.got.cif
#   From: 2010.05.17/outbox.cif.g08.bks.cpg/sg12_118_cif.got.tgz:235206.got - 2010.06.03 13:09:07.
