data_PCOD9180693
_publ_section_title
;
Structure prediction by ZEFSAII (Michael W. Deem and Ramdas Pophale) SiO2 
 PCOD9180693
Probable space group: C 2/M
;
_chemical_formula_sum "Si O2"
_cell_formula_units_Z 56
_cell_length_a 26.748591
_cell_length_b 7.699984
_cell_length_c 13.950133
_cell_angle_alpha 90.000000
_cell_angle_beta 117.552086
_cell_angle_gamma 90.000000
_cell_volume 2547.371317
_symmetry_space_group_name_H-M "C 2/M"
_symmetry_group_IT_number 12
_symmetry_cell_setting 'monoclinic'
loop_
_space_group_symop_operation_xyz
x,y,z
-x,y,-z
-x,-y,-z
x,-y,z
1/2+x,1/2+y,z
1/2-x,1/2+y,-z
1/2-x,1/2-y,-z
1/2+x,1/2-y,z
loop_
_atom_site_type_symbol
_atom_site_label
_atom_site_fract_x
_atom_site_fract_y
_atom_site_fract_z
Si Si1 0.134234 0.208541 0.443222
Si Si2 0.360306 0.206831 0.965866
Si Si3 0.435816 0.790078 0.429301
Si Si4 0.754467 0.207931 0.365929
Si Si5 0.614981 0.800384 0.813384
Si Si6 0.374165 0.303838 0.765515
Si Si7 0.268161 0.292926 0.159092
O O1 0.098944 0.241091 0.507194
O O2 0.198072 0.273826 0.519139
O O3 0.107528 0.277481 0.320229
O O4 0.138989 0.000000 0.436951
O O5 0.384421 0.230539 0.880448
O O6 0.295619 0.273592 0.911085
O O7 0.355811 0.000000 0.974845
O O8 0.393567 0.276685 0.087935
O O9 0.500000 0.733806 0.500000
O O10 0.411524 0.721343 0.306477
O O11 0.433997 0.000000 0.423352
O O12 0.693916 0.297208 0.308599
O O13 0.780301 0.231844 0.282566
O O14 0.745289 0.000000 0.368767
O O15 0.682524 0.795307 0.856506
O O16 0.595302 0.000000 0.798913
O O17 0.394957 0.500000 0.787615
O O18 0.269748 0.500000 0.141181
#
# Coordination Sequence:
#
# PCOD9180693 Si02
#       7
#     8   8   8   8   8   8   8
#     4  10  20  35  53  74 103 136 171 212 256 304
#     4   9  19  33  47  69 104 141 171 203 245 299
#     4  10  22  38  56  80 104 127 167 222 268 307
#     4   9  17  30  47  71 106 141 171 205 247 300
#     4  10  19  32  51  72  98 133 170 209 257 306
#     4  10  20  31  48  76 106 137 174 209 243 297
#     4   9  16  27  45  70 102 135 166 203 244 294
#
# _framework density 21.983447000000002
#
# number of rings (size 3 to 8) (size 9 to 14) (size 15 to 20)
#    0.000    2.429    1.429    2.143    0.000    4.857 
#    0.000    0.000    0.000    0.857    0.000    6.000 
#    0.000    0.000    0.000    0.000    0.000    0.000 
#
# Total GULP energy -156139.812323 kJ/mol
# GULP energy per Si atom -5576.421869 kJ/mol
# Density = 2.193341 g / cm^3
# Si number density = 21.983447 Si / 1000 Ang^3
#
#
#
# Elastic Constant Matrix: (Units=GPa)
#
#
# Indices 1 2 3 4 5 6 
#
# 1 45.7130 -4.4977 54.5590 0.0000 -16.9020 0.0000
# 2 -4.4977 33.9953 12.0310 0.0000 -6.8844 0.0000
# 3 54.5590 12.0310 183.8384 0.0000 -54.7594 0.0000
# 4 0.0000 0.0000 0.0000 12.9990 0.0000 -8.9178
# 5 -16.9020 -6.8844 -54.7594 0.0000 25.7194 0.0000
# 6 0.0000 0.0000 0.0000 -8.9178 0.0000 15.0794
#
#
#
# Elastic Compliance Matrix: (Units=1/GPa)
#
#
# Indices 1 2 3 4 5 6 
#
# 1 0.036592 0.009472 -0.009736 0.000000 0.005854 0.000000
# 2 0.009472 0.033653 -0.001302 0.000000 0.012462 0.000000
# 3 -0.009736 -0.001302 0.017508 0.000000 0.030530 0.000000
# 4 0.000000 0.000000 0.000000 0.129448 0.000000 0.076554
# 5 0.005854 0.012462 0.030530 0.000000 0.111065 0.000000
# 6 0.000000 0.000000 0.000000 0.076554 0.000000 0.111589
#
#
# Mechanical properties :
#
#
# Convention : Reuss Voigt Hill
#
# Bulk Modulus (GPa) = 11.81718 43.08127 27.44922
# Shear Modulus (GPa) = 10.61135 24.18985 17.40060
#
# Velocity S-wave (km/s) = 2.19942 3.32078 2.81647
# Velocity P-wave (km/s) = 3.44051 5.86030 4.80522
#
# Compressibility (1/GPa) = 0.08462259
#
# Stress axis : x y z
#
# Youngs Moduli (GPa) = 27.32853 29.71475 57.11690
#
# Poissons Ratio (x) = -0.28146 0.55608
# Poissons Ratio (y) = -0.25886 0.07434
# Poissons Ratio (z) = 0.26607 0.03868
#
# Static dielectric constant tensor:
#      x y z
#    x 1.795760 0.000000 -0.060450 
#    y 0.000000 1.796280 0.000000 
#    z -0.060450 0.000000 1.892660 
# 
# From -- ./inp_files/244308.got.cif
#   From: 2010.05.17/outbox.cif.g08.bks.cpg/sg12_123_cif.got.tgz:244308.got - 2010.06.03 13:09:07.
