data_PCOD9180660
_publ_section_title
;
Structure prediction by ZEFSAII (Michael W. Deem and Ramdas Pophale) SiO2 
 PCOD9180660
Probable space group: C 2/M
;
_chemical_formula_sum "Si O2"
_cell_formula_units_Z 56
_cell_length_a 16.844583
_cell_length_b 27.840132
_cell_length_c 18.507466
_cell_angle_alpha 90.000000
_cell_angle_beta 157.347640
_cell_angle_gamma 90.000000
_cell_volume 3342.687940
_symmetry_space_group_name_H-M "C 2/M"
_symmetry_group_IT_number 12
_symmetry_cell_setting 'monoclinic'
loop_
_space_group_symop_operation_xyz
x,y,z
-x,y,-z
-x,-y,-z
x,-y,z
1/2+x,1/2+y,z
1/2-x,1/2+y,-z
1/2-x,1/2-y,-z
1/2+x,1/2-y,z
loop_
_atom_site_type_symbol
_atom_site_label
_atom_site_fract_x
_atom_site_fract_y
_atom_site_fract_z
Si Si1 0.209822 0.642965 0.704989
Si Si2 0.306241 0.000000 0.229642
Si Si3 0.725070 0.500000 0.334663
Si Si4 0.928696 0.297512 0.016987
Si Si5 0.810966 0.226402 0.676966
Si Si6 0.209388 0.167843 0.965239
Si Si7 0.435576 0.580484 0.063350
Si Si8 0.112299 0.288897 0.749940
O O1 0.241640 0.690078 0.682482
O O2 0.406236 0.610893 0.853185
O O3 0.171408 0.663936 0.752206
O O4 0.000000 0.618050 0.500000
O O5 0.241047 0.000000 0.259499
O O6 0.553250 0.000000 0.442182
O O7 0.213603 0.953540 0.109906
O O8 0.587713 0.546108 0.236308
O O9 0.798627 0.331915 0.960048
O O10 0.112382 0.274370 0.219068
O O11 0.782791 0.251469 0.877979
O O12 0.000000 0.317405 0.000000
O O13 0.611153 0.230024 0.459254
O O14 0.998679 0.198949 0.794664
O O15 0.366880 0.196481 0.149570
O O16 0.173015 0.116987 0.972982
#
# Coordination Sequence:
#
# PCOD9180660 Si02
#       8
#     8   4   4   8   8   8   8   8
#     4   9  18  28  50  76 101 143 178 204 237 287
#     4  10  23  37  55  77 102 138 156 197 252 312
#     4  10  23  37  52  78 105 128 165 194 249 316
#     4  11  21  35  49  69 102 135 176 222 263 297
#     4   9  18  34  48  71  99 138 179 216 250 286
#     4  10  23  32  51  76  96 134 175 218 257 298
#     4  10  21  36  52  73 107 132 168 205 246 300
#     4  10  19  32  51  70 102 139 182 214 248 291
#
# _framework density 16.752984000000001
#
# number of rings (size 3 to 8) (size 9 to 14) (size 15 to 20)
#    0.000    2.143    1.429    2.571    6.000    4.571 
#    0.000    0.000    0.000    0.000    0.000    2.000 
#    0.000    1.143    0.000    0.000    0.000    0.000 
#
# Total GULP energy -156326.548779 kJ/mol
# GULP energy per Si atom -5583.091028 kJ/mol
# Density = 1.671485 g / cm^3
# Si number density = 16.752984 Si / 1000 Ang^3
#
#
#
# Elastic Constant Matrix: (Units=GPa)
#
#
# Indices 1 2 3 4 5 6 
#
# 1 117.1819 27.8469 33.1733 0.0004 9.9541 0.0000
# 2 27.8469 60.6710 29.4618 0.0002 1.4828 0.0000
# 3 33.1733 29.4618 121.0969 0.0012 -6.5451 0.0003
# 4 0.0004 0.0002 0.0012 8.8472 0.0002 7.6482
# 5 9.9541 1.4828 -6.5451 0.0002 12.1384 0.0001
# 6 0.0000 0.0000 0.0003 7.6482 0.0001 18.0470
#
#
#
# Elastic Compliance Matrix: (Units=1/GPa)
#
#
# Indices 1 2 3 4 5 6 
#
# 1 0.010979 -0.003481 -0.002703 0.000000 -0.010035 0.000000
# 2 -0.003481 0.020079 -0.004027 0.000000 -0.001769 0.000000
# 3 -0.002703 -0.004027 0.010428 -0.000002 0.008331 0.000001
# 4 0.000000 0.000000 -0.000002 0.178380 -0.000004 -0.075596
# 5 -0.010035 -0.001769 0.008331 -0.000004 0.095321 0.000001
# 6 0.000000 0.000000 0.000001 -0.075596 0.000001 0.087448
#
#
# Mechanical properties :
#
#
# Convention : Reuss Voigt Hill
#
# Bulk Modulus (GPa) = 47.47527 53.32374 50.39951
# Shear Modulus (GPa) = 11.62579 21.70438 16.66509
#
# Velocity S-wave (km/s) = 2.63716 3.60328 3.15739
# Velocity P-wave (km/s) = 6.13781 7.01499 6.59101
#
# Compressibility (1/GPa) = 0.02106360
#
# Stress axis : x y z
#
# Youngs Moduli (GPa) = 91.08604 49.80349 95.89266
#
# Poissons Ratio (x) = 0.17338 0.25919
# Poissons Ratio (y) = 0.31709 0.38616
# Poissons Ratio (z) = 0.24620 0.20056
#
# Static dielectric constant tensor:
#      x y z
#    x 1.571720 0.000000 -0.009550 
#    y 0.000000 1.583540 0.000000 
#    z -0.009550 0.000000 1.618720 
# 
# From -- ./inp_files/318553.got.cif
#   From: 2010.05.17/outbox.cif.g08.bks.cpg/sg12_160_cif.got.tgz:318553.got - 2010.06.03 13:09:07.
