data_PCOD9180245
_publ_section_title
;
Structure prediction by ZEFSAII (Michael W. Deem and Ramdas Pophale) SiO2 
 PCOD9180245
Probable space group: C 2/M
;
_chemical_formula_sum "Si O2"
_cell_formula_units_Z 58
_cell_length_a 13.508395
_cell_length_b 27.151753
_cell_length_c 11.738179
_cell_angle_alpha 90.000000
_cell_angle_beta 125.127963
_cell_angle_gamma 90.000000
_cell_volume 3521.162726
_symmetry_space_group_name_H-M "C 2/M"
_symmetry_group_IT_number 12
_symmetry_cell_setting 'monoclinic'
loop_
_space_group_symop_operation_xyz
x,y,z
-x,y,-z
-x,-y,-z
x,-y,z
1/2+x,1/2+y,z
1/2-x,1/2+y,-z
1/2-x,1/2-y,-z
1/2+x,1/2-y,z
loop_
_atom_site_type_symbol
_atom_site_label
_atom_site_fract_x
_atom_site_fract_y
_atom_site_fract_z
Si Si1 0.918275 0.728586 0.836550
Si Si2 0.480779 0.372651 0.618151
Si Si3 0.362628 0.872651 0.381849
Si Si4 0.632226 0.194371 0.834783
Si Si5 0.794424 0.798856 0.588847
Si Si6 0.702556 0.694371 0.834784
Si Si7 0.500000 0.500000 0.000000
Si Si8 0.355511 0.445847 0.711022
O O1 0.873699 0.778652 0.747398
O O2 0.806233 0.696919 0.807759
O O3 0.001525 0.696918 0.807760
O O4 0.000000 0.741483 0.000000
O O5 0.500000 0.387695 0.500000
O O6 0.377543 0.330768 0.560799
O O7 0.602379 0.346371 0.744089
O O8 0.432475 0.415418 0.669256
O O9 0.500000 0.887695 0.500000
O O10 0.358292 0.846371 0.255912
O O11 0.316743 0.830768 0.439201
O O12 0.263219 0.915418 0.330742
O O13 0.649693 0.250000 0.799388
O O14 0.732374 0.187163 1.000000
O O15 0.750000 0.750000 0.500000
O O16 0.437603 0.457871 0.875205
O O17 0.320739 0.500000 0.641478
#
# Coordination Sequence:
#
# PCOD9180245 Si02
#       8
#     8   8   8   8   8   8   2   8
#     4  10  19  32  44  71 111 157 205 247 271 322
#     4  11  23  35  56  87 116 156 195 237 307 360
#     4  11  23  35  56  87 116 156 195 237 307 360
#     4  10  20  32  50  77 114 163 206 241 284 341
#     4  11  21  32  49  73 115 161 196 232 263 340
#     4  10  20  32  50  77 114 163 206 241 284 341
#     4   8  20  48  72  88 112 130 202 276 324 340
#     4   9  23  44  66  89 109 143 195 264 313 346
#
# _framework density 16.471831000000002
#
# number of rings (size 3 to 8) (size 9 to 14) (size 15 to 20)
#    0.414    1.379    2.759    1.655    1.931    1.655 
#    2.483    0.000    0.000    0.000    0.000    0.000 
#    0.000    9.931    0.000    0.000    0.000    0.000 
#
# Total GULP energy -161457.459386 kJ/mol
# GULP energy per Si atom -5567.498600 kJ/mol
# Density = 1.643434 g / cm^3
# Si number density = 16.471831 Si / 1000 Ang^3
#
#
#
# Elastic Constant Matrix: (Units=GPa)
#
#
# Indices 1 2 3 4 5 6 
#
# 1 142.9547 66.1549 58.1510 0.0000 0.5749 0.0000
# 2 66.1549 111.6509 54.8132 0.0000 0.1220 0.0000
# 3 58.1510 54.8132 87.0882 0.0000 0.0255 0.0000
# 4 0.0000 0.0000 0.0000 30.5736 0.0000 -0.1643
# 5 0.5749 0.1220 0.0255 0.0000 15.6705 0.0000
# 6 0.0000 0.0000 0.0000 -0.1643 0.0000 15.2963
#
#
#
# Elastic Compliance Matrix: (Units=1/GPa)
#
#
# Indices 1 2 3 4 5 6 
#
# 1 0.010777 -0.004128 -0.004598 0.000000 -0.000356 0.000000
# 2 -0.004128 0.014543 -0.006397 0.000000 0.000049 0.000000
# 3 -0.004598 -0.006397 0.018579 0.000000 0.000188 0.000000
# 4 0.000000 0.000000 0.000000 0.032710 0.000000 0.000351
# 5 -0.000356 0.000049 0.000188 0.000000 0.063827 0.000000
# 6 0.000000 0.000000 0.000000 0.000351 0.000000 0.065379
#
#
# Mechanical properties :
#
#
# Convention : Reuss Voigt Hill
#
# Bulk Modulus (GPa) = 73.24247 77.77024 75.50636
# Shear Modulus (GPa) = 20.78040 23.14639 21.96340
#
# Velocity S-wave (km/s) = 3.55571 3.75268 3.65552
# Velocity P-wave (km/s) = 7.83705 8.12978 7.98476
#
# Compressibility (1/GPa) = 0.01365328
#
# Stress axis : x y z
#
# Youngs Moduli (GPa) = 92.78710 68.76256 53.82440
#
# Poissons Ratio (x) = 0.28385 0.24749
# Poissons Ratio (y) = 0.38303 0.34431
# Poissons Ratio (z) = 0.42664 0.43986
#
# Static dielectric constant tensor:
#      x y z
#    x 1.581160 0.000000 -0.000110 
#    y 0.000000 1.524160 0.000000 
#    z -0.000110 0.000000 1.591300 
# 
# From -- ./inp_files/150027.got.cif
#   From: 2010.05.17/outbox.cif.g08.bks.cpg/sg12_76_cif.got.tgz:150027.got - 2010.06.03 13:09:07.
