data_PCOD9180839
_publ_section_title
;
Structure prediction by ZEFSAII (Michael W. Deem and Ramdas Pophale) SiO2 
 PCOD9180839
Probable space group: C 2/M
;
_chemical_formula_sum "Si O2"
_cell_formula_units_Z 48
_cell_length_a 26.976772
_cell_length_b 9.574953
_cell_length_c 20.016918
_cell_angle_alpha 90.000000
_cell_angle_beta 32.193490
_cell_angle_gamma 90.000000
_cell_volume 2754.684464
_symmetry_space_group_name_H-M "C 2/M"
_symmetry_group_IT_number 12
_symmetry_cell_setting 'monoclinic'
loop_
_space_group_symop_operation_xyz
x,y,z
-x,y,-z
-x,-y,-z
x,-y,z
1/2+x,1/2+y,z
1/2-x,1/2+y,-z
1/2-x,1/2-y,-z
1/2+x,1/2-y,z
loop_
_atom_site_type_symbol
_atom_site_label
_atom_site_fract_x
_atom_site_fract_y
_atom_site_fract_z
Si Si1 0.521699 0.652775 0.253969
Si Si2 0.801939 0.837921 0.496951
Si Si3 0.314472 0.166868 0.979169
Si Si4 0.274875 0.158077 0.806827
Si Si5 0.813746 0.343793 0.610831
Si Si6 0.018453 0.754660 0.405411
O O1 0.555233 0.500000 0.192468
O O2 0.413557 0.668452 0.359524
O O3 0.582732 0.777220 0.154758
O O4 0.528977 0.655068 0.326518
O O5 0.750000 0.750000 0.500000
O O6 0.786034 0.768724 0.587509
O O7 0.774366 0.000000 0.527306
O O8 0.305985 0.000000 0.983147
O O9 0.250000 0.250000 0.000000
O O10 0.280285 0.225796 0.089210
O O11 0.267510 0.177730 0.735708
O O12 0.384826 0.172329 0.698348
O O13 0.245523 0.000000 0.857718
O O14 0.792563 0.500000 0.610845
O O15 0.925068 0.332930 0.497082
O O16 0.000000 0.821360 0.500000
#
# Coordination Sequence:
#
# PCOD9180839 Si02
#       6
#     8   8   8   8   8   8
#     4  10  21  36  53  77 108 140 179 222 265 315
#     4  10  21  37  59  84 109 137 173 223 274 324
#     4  12  24  35  51  74 107 149 188 223 260 309
#     4  10  19  32  51  75 108 146 182 217 259 313
#     4   9  18  32  52  79 108 140 176 218 267 321
#     4   9  17  28  48  76 107 142 177 213 257 312
#
# _framework density 17.424863999999999
#
# number of rings (size 3 to 8) (size 9 to 14) (size 15 to 20)
#    0.000    2.000    1.667    2.500    0.000    6.333 
#    0.000    3.333    0.000    1.000    0.000    7.000 
#    0.000    0.000    0.000    0.000    0.000    0.000 
#
# Total GULP energy -133798.369153 kJ/mol
# GULP energy per Si atom -5574.932048 kJ/mol
# Density = 1.738520 g / cm^3
# Si number density = 17.424864 Si / 1000 Ang^3
#
#
#
# Elastic Constant Matrix: (Units=GPa)
#
#
# Indices 1 2 3 4 5 6 
#
# 1 95.4703 63.3240 25.9250 0.0006 2.6916 -0.0002
# 2 63.3240 171.0056 54.3933 0.0014 13.1636 -0.0007
# 3 25.9250 54.3933 64.1545 0.0015 18.4157 -0.0008
# 4 0.0006 0.0014 0.0015 21.7750 -0.0006 7.1635
# 5 2.6916 13.1636 18.4157 -0.0006 16.2692 0.0002
# 6 -0.0002 -0.0007 -0.0008 7.1635 0.0002 18.3319
#
#
#
# Elastic Compliance Matrix: (Units=1/GPa)
#
#
# Indices 1 2 3 4 5 6 
#
# 1 0.014309 -0.004636 -0.003331 0.000000 0.005154 0.000000
# 2 -0.004636 0.009544 -0.006254 0.000000 0.000124 0.000000
# 3 -0.003331 -0.006254 0.030553 -0.000003 -0.028972 0.000003
# 4 0.000000 0.000000 -0.000003 0.052699 0.000006 -0.020593
# 5 0.005154 0.000124 -0.028972 0.000006 0.093308 -0.000005
# 6 0.000000 0.000000 0.000003 -0.020593 -0.000005 0.062597
#
#
# Mechanical properties :
#
#
# Convention : Reuss Voigt Hill
#
# Bulk Modulus (GPa) = 38.51661 68.65722 53.58691
# Shear Modulus (GPa) = 16.66078 23.74109 20.20094
#
# Velocity S-wave (km/s) = 3.09552 3.69519 3.40857
# Velocity P-wave (km/s) = 5.91005 7.59561 6.80522
#
# Compressibility (1/GPa) = 0.02596283
#
# Stress axis : x y z
#
# Youngs Moduli (GPa) = 69.88840 104.77579 32.73007
#
# Poissons Ratio (x) = 0.48570 0.10904
# Poissons Ratio (y) = 0.32398 0.20471
# Poissons Ratio (z) = 0.23282 0.65531
#
# Static dielectric constant tensor:
#      x y z
#    x 1.580190 0.000000 0.017200 
#    y 0.000000 1.603780 0.000000 
#    z 0.017200 0.000000 1.606540 
# 
# From -- ./inp_files/327170.got.cif
#   From: 2010.05.17/outbox.cif.g08.bks.cpg/sg12_164_cif.got.tgz:327170.got - 2010.06.03 13:09:07.
