data_PCOD9180876
_publ_section_title
;
Structure prediction by ZEFSAII (Michael W. Deem and Ramdas Pophale) SiO2 
 PCOD9180876
Probable space group: C 2/M
;
_chemical_formula_sum "Si O2"
_cell_formula_units_Z 64
_cell_length_a 31.254068
_cell_length_b 8.648744
_cell_length_c 23.752669
_cell_angle_alpha 90.000000
_cell_angle_beta 148.531641
_cell_angle_gamma 90.000000
_cell_volume 3351.702755
_symmetry_space_group_name_H-M "C 2/M"
_symmetry_group_IT_number 12
_symmetry_cell_setting 'monoclinic'
loop_
_space_group_symop_operation_xyz
x,y,z
-x,y,-z
-x,-y,-z
x,-y,z
1/2+x,1/2+y,z
1/2-x,1/2+y,-z
1/2-x,1/2-y,-z
1/2+x,1/2-y,z
loop_
_atom_site_type_symbol
_atom_site_label
_atom_site_fract_x
_atom_site_fract_y
_atom_site_fract_z
Si Si1 0.818980 0.686085 0.619357
Si Si2 0.506284 0.684767 0.222493
Si Si3 0.283808 0.326260 0.093359
Si Si4 0.032686 0.186318 0.378412
Si Si5 0.095864 0.319814 0.686949
Si Si6 0.134220 0.673550 0.011830
Si Si7 0.729102 0.312125 0.752158
Si Si8 0.783118 0.187736 0.390412
O O1 0.820524 0.500000 0.618266
O O2 0.750000 0.750000 0.500000
O O3 0.906703 0.751407 0.700612
O O4 0.788677 0.734188 0.647676
O O5 0.508701 0.500000 0.226338
O O6 0.494638 0.735957 0.275099
O O7 0.437153 0.737637 0.100782
O O8 0.318361 0.500000 0.123438
O O9 0.347405 0.215177 0.195211
O O10 0.250000 0.250000 0.000000
O O11 0.207211 0.340108 0.048764
O O12 0.127900 0.234937 0.486211
O O13 0.988785 0.247734 0.385632
O O14 0.028995 0.000000 0.376373
O O15 0.086154 0.500000 0.664862
O O16 0.148347 0.243665 0.695408
O O17 0.104511 0.500000 0.992843
O O18 0.185803 0.740640 0.122491
O O19 0.729302 0.500000 0.755771
O O20 0.726390 0.261623 0.684557
O O21 0.783530 0.000000 0.390025
#
# Coordination Sequence:
#
# PCOD9180876 Si02
#       8
#     8   8   8   8   8   8   8   8
#     4  11  21  38  62  89 117 144 181 229 285 344
#     4  11  22  36  57  86 117 149 185 229 283 339
#     4  10  19  32  51  76 107 145 191 236 284 334
#     4  10  20  36  56  81 112 146 193 238 281 338
#     4  11  22  34  50  78 115 152 190 230 281 337
#     4   9  19  34  53  79 108 143 186 231 278 328
#     4   9  19  39  62  80 107 150 197 238 277 327
#     4   9  19  38  63  85 106 143 193 237 280 339
#
# _framework density 19.094773
#
# number of rings (size 3 to 8) (size 9 to 14) (size 15 to 20)
#    0.000    2.000    1.250    3.750    0.000    6.000 
#    0.000    5.000    0.000    3.750    0.000    0.000 
#    0.000    0.000    0.000    0.000    0.000    0.000 
#
# Total GULP energy -178453.211725 kJ/mol
# GULP energy per Si atom -5576.662866 kJ/mol
# Density = 1.905131 g / cm^3
# Si number density = 19.094773 Si / 1000 Ang^3
#
#
#
# Elastic Constant Matrix: (Units=GPa)
#
#
# Indices 1 2 3 4 5 6 
#
# 1 120.6733 21.6798 43.1676 0.0000 -7.9254 0.0000
# 2 21.6798 44.4749 20.6729 0.0000 3.9119 0.0000
# 3 43.1676 20.6729 72.9914 0.0000 5.2719 0.0000
# 4 0.0000 0.0000 0.0000 25.7405 0.0000 4.4869
# 5 -7.9254 3.9119 5.2719 0.0000 30.6584 0.0000
# 6 0.0000 0.0000 0.0000 4.4869 0.0000 22.8001
#
#
#
# Elastic Compliance Matrix: (Units=1/GPa)
#
#
# Indices 1 2 3 4 5 6 
#
# 1 0.011320 -0.003045 -0.006148 0.000000 0.004372 0.000000
# 2 -0.003045 0.026843 -0.005567 0.000000 -0.003255 0.000000
# 3 -0.006148 -0.005567 0.019215 0.000000 -0.004183 0.000000
# 4 0.000000 0.000000 0.000000 0.040229 0.000000 -0.007917
# 5 0.004372 -0.003255 -0.004183 0.000000 0.034882 0.000000
# 6 0.000000 0.000000 0.000000 -0.007917 0.000000 0.045418
#
#
# Mechanical properties :
#
#
# Convention : Reuss Voigt Hill
#
# Bulk Modulus (GPa) = 35.89575 45.46448 40.68012
# Shear Modulus (GPa) = 23.07196 26.01443 24.54319
#
# Velocity S-wave (km/s) = 3.47981 3.69505 3.58905
# Velocity P-wave (km/s) = 5.91481 6.48584 6.20690
#
# Compressibility (1/GPa) = 0.02785845
#
# Stress axis : x y z
#
# Youngs Moduli (GPa) = 88.33571 37.25420 52.04223
#
# Poissons Ratio (x) = 0.11344 0.31998
# Poissons Ratio (y) = 0.26898 0.28970
# Poissons Ratio (z) = 0.54312 0.20738
#
# Static dielectric constant tensor:
#      x y z
#    x 1.654050 0.000000 0.014990 
#    y 0.000000 1.615260 0.000000 
#    z 0.014990 0.000000 1.648680 
# 
# From -- ./inp_files/353579.got.cif
#   From: 2010.05.17/outbox.cif.g08.bks.cpg/sg12_177_cif.got.tgz:353579.got - 2010.06.03 13:09:07.
