data_PCOD9180314
_publ_section_title
;
Structure prediction by ZEFSAII (Michael W. Deem and Ramdas Pophale) SiO2 
 PCOD9180314
Probable space group: C 2/M
;
_chemical_formula_sum "Si O2"
_cell_formula_units_Z 64
_cell_length_a 26.112576
_cell_length_b 9.108717
_cell_length_c 21.832246
_cell_angle_alpha 90.000000
_cell_angle_beta 52.993933
_cell_angle_gamma 90.000000
_cell_volume 4146.859309
_symmetry_space_group_name_H-M "C 2/M"
_symmetry_group_IT_number 12
_symmetry_cell_setting 'monoclinic'
loop_
_space_group_symop_operation_xyz
x,y,z
-x,y,-z
-x,-y,-z
x,-y,z
1/2+x,1/2+y,z
1/2-x,1/2+y,-z
1/2-x,1/2-y,-z
1/2+x,1/2-y,z
loop_
_atom_site_type_symbol
_atom_site_label
_atom_site_fract_x
_atom_site_fract_y
_atom_site_fract_z
Si Si1 0.195674 0.824643 0.997008
Si Si2 0.193116 0.823719 0.321080
Si Si3 0.242309 0.675103 0.407922
Si Si4 0.766605 0.824445 0.844080
Si Si5 0.105865 0.174829 0.167766
Si Si6 0.503957 0.175728 0.680166
Si Si7 0.455993 0.324221 0.590306
Si Si8 0.652252 0.824170 0.587325
O O1 0.130344 0.793725 0.081197
O O2 0.204286 0.000000 0.990354
O O3 0.250000 0.750000 0.000000
O O4 0.209718 0.758172 0.920446
O O5 0.224734 0.744560 0.355712
O O6 0.225616 0.786941 0.232633
O O7 0.117796 0.785280 0.370068
O O8 0.197060 0.000000 0.326273
O O9 0.247472 0.500000 0.399627
O O10 0.306618 0.742527 0.390733
O O11 0.186131 0.709674 0.497799
O O12 0.834144 0.790329 0.829947
O O13 0.757789 0.000000 0.856494
O O14 0.044250 0.262076 0.234173
O O15 0.094648 0.000000 0.181397
O O16 0.481432 0.242756 0.631824
O O17 0.577768 0.216996 0.639459
O O18 0.500065 0.000000 0.680481
O O19 0.500000 0.291308 0.500000
O O20 0.458249 0.500000 0.599854
O O21 0.657300 0.000000 0.592834
#
# Coordination Sequence:
#
# PCOD9180314 Si02
#       8
#     8   8   8   8   8   8   8   8
#     4   9  17  28  44  65  92 126 161 197 235 278
#     4  10  19  32  48  69  99 131 159 194 242 286
#     4  10  20  34  53  73  91 120 165 209 244 283
#     4   9  17  30  46  66  96 130 161 195 233 282
#     4   9  17  31  46  65  97 130 161 195 231 284
#     4  11  21  31  48  72  98 127 159 200 243 282
#     4  10  20  33  48  66  94 133 167 191 230 291
#     4   9  20  37  51  68  96 125 158 204 252 288
#
# _framework density 15.433365999999999
#
# number of rings (size 3 to 8) (size 9 to 14) (size 15 to 20)
#    0.000    2.375    1.250    2.625    0.000    5.250 
#    0.000    0.000    0.000    0.000    0.000    0.875 
#    0.000    7.000    0.000    0.000    0.000    0.000 
#
# Total GULP energy -178434.272155 kJ/mol
# GULP energy per Si atom -5576.071005 kJ/mol
# Density = 1.539824 g / cm^3
# Si number density = 15.433366 Si / 1000 Ang^3
#
#
#
# Elastic Constant Matrix: (Units=GPa)
#
#
# Indices 1 2 3 4 5 6 
#
# 1 99.0447 46.7440 78.1589 0.0001 7.4365 -0.0003
# 2 46.7440 40.1387 60.9390 0.0000 3.5171 -0.0004
# 3 78.1589 60.9390 142.5802 0.0001 7.9433 -0.0001
# 4 0.0001 0.0000 0.0001 30.2936 -0.0001 3.1110
# 5 7.4365 3.5171 7.9433 -0.0001 16.0592 0.0001
# 6 -0.0003 -0.0004 -0.0001 3.1110 0.0001 24.6757
#
#
#
# Elastic Compliance Matrix: (Units=1/GPa)
#
#
# Indices 1 2 3 4 5 6 
#
# 1 0.023250 -0.021967 -0.003110 0.000000 -0.004417 0.000000
# 2 -0.021967 0.091715 -0.027359 0.000000 0.003618 0.000001
# 3 -0.003110 -0.027359 0.020565 0.000000 -0.002740 0.000000
# 4 0.000000 0.000000 0.000000 0.033443 0.000000 -0.004216
# 5 -0.004417 0.003618 -0.002740 0.000000 0.064878 0.000000
# 6 0.000000 0.000001 0.000000 -0.004216 0.000000 0.041057
#
#
# Mechanical properties :
#
#
# Convention : Reuss Voigt Hill
#
# Bulk Modulus (GPa) = 32.61876 72.60527 52.61201
# Shear Modulus (GPa) = 12.82056 20.60047 16.71052
#
# Velocity S-wave (km/s) = 2.88532 3.65746 3.29409
# Velocity P-wave (km/s) = 5.68165 8.06117 6.97365
#
# Compressibility (1/GPa) = 0.03065720
#
# Stress axis : x y z
#
# Youngs Moduli (GPa) = 43.01167 10.90331 48.62735
#
# Poissons Ratio (x) = 0.23951 0.15124
# Poissons Ratio (y) = 0.94482 1.33041
# Poissons Ratio (z) = 0.13377 0.29831
#
# Static dielectric constant tensor:
#      x y z
#    x 1.479200 0.000000 0.000060 
#    y 0.000000 1.512820 0.000000 
#    z 0.000060 0.000000 1.534130 
# 
# From -- ./inp_files/319822.got.cif
#   From: 2010.05.17/outbox.cif.g08.bks.cpg/sg12_160_cif.got.tgz:319822.got - 2010.06.03 13:09:07.
