data_PCOD9180805
_publ_section_title
;
Structure prediction by ZEFSAII (Michael W. Deem and Ramdas Pophale) SiO2 
 PCOD9180805
Probable space group: C 2/M
;
_chemical_formula_sum "Si O2"
_cell_formula_units_Z 56
_cell_length_a 14.665313
_cell_length_b 9.483542
_cell_length_c 21.826933
_cell_angle_alpha 90.000000
_cell_angle_beta 121.927291
_cell_angle_gamma 90.000000
_cell_volume 2576.433884
_symmetry_space_group_name_H-M "C 2/M"
_symmetry_group_IT_number 12
_symmetry_cell_setting 'monoclinic'
loop_
_space_group_symop_operation_xyz
x,y,z
-x,y,-z
-x,-y,-z
x,-y,z
1/2+x,1/2+y,z
1/2-x,1/2+y,-z
1/2-x,1/2-y,-z
1/2+x,1/2-y,z
loop_
_atom_site_type_symbol
_atom_site_label
_atom_site_fract_x
_atom_site_fract_y
_atom_site_fract_z
Si Si1 0.542227 0.840328 0.080352
Si Si2 0.642270 0.339195 0.218000
Si Si3 0.266769 0.158762 0.646784
Si Si4 0.011349 0.341215 0.345193
Si Si5 0.411747 0.338234 0.209193
Si Si6 0.817889 0.340317 0.071970
Si Si7 0.902604 0.840549 0.512531
O O1 0.621991 0.744838 0.147991
O O2 0.436274 0.851593 0.084625
O O3 0.584344 0.000000 0.085053
O O4 0.500000 0.784069 0.000000
O O5 0.673683 0.500000 0.217970
O O6 0.724784 0.259597 0.292162
O O7 0.526886 0.341785 0.213487
O O8 0.387080 0.145665 0.664198
O O9 0.196102 0.211057 0.564406
O O10 0.227569 0.000000 0.648462
O O11 0.971873 0.500000 0.343930
O O12 0.058403 0.263278 0.421063
O O13 0.930388 0.241358 0.279656
O O14 0.377834 0.500000 0.204965
O O15 0.332265 0.247386 0.139026
O O16 0.776678 0.500000 0.065943
O O17 0.750000 0.250000 0.000000
O O18 0.000000 0.851933 0.500000
O O19 0.877643 0.000000 0.527039
#
# Coordination Sequence:
#
# PCOD9180805 Si02
#       7
#     8   8   8   8   8   8   8
#     4   9  18  33  52  73  99 133 169 203 243 293
#     4   9  17  29  49  76 101 126 160 206 253 291
#     4   9  18  33  53  75  98 127 165 206 246 292
#     4  10  19  32  53  78 100 125 162 208 252 293
#     4   9  17  31  51  74 100 129 164 206 249 293
#     4  10  19  32  51  75 103 133 167 206 248 295
#     4  10  21  36  52  72 101 136 168 199 242 296
#
# _framework density 21.735468999999998
#
# number of rings (size 3 to 8) (size 9 to 14) (size 15 to 20)
#    0.000    2.571    0.000    2.143    0.000    5.714 
#    0.000    1.429    0.000    3.429    0.000    0.000 
#    0.000    0.000    0.000    0.000    0.000    0.000 
#
# Total GULP energy -156368.910619 kJ/mol
# GULP energy per Si atom -5584.603951 kJ/mol
# Density = 2.168600 g / cm^3
# Si number density = 21.735469 Si / 1000 Ang^3
#
#
#
# Elastic Constant Matrix: (Units=GPa)
#
#
# Indices 1 2 3 4 5 6 
#
# 1 34.2988 4.1459 -7.6867 0.0000 -4.6462 0.0000
# 2 4.1459 200.4642 150.7252 0.0000 1.1292 0.0000
# 3 -7.6867 150.7252 221.7258 0.0000 2.4070 0.0000
# 4 0.0000 0.0000 0.0000 -11.3990 0.0000 16.9770
# 5 -4.6462 1.1292 2.4070 0.0000 18.1892 0.0000
# 6 0.0000 0.0000 0.0000 16.9770 0.0000 -0.3958
#
#
#
# Elastic Compliance Matrix: (Units=1/GPa)
#
#
# Indices 1 2 3 4 5 6 
#
# 1 0.031236 -0.002947 0.003002 0.000000 0.007765 0.000000
# 2 -0.002947 0.010483 -0.007224 0.000000 -0.000448 0.000000
# 3 0.003002 -0.007224 0.009525 0.000000 -0.000045 0.000000
# 4 0.000000 0.000000 0.000000 0.001395 0.000000 0.059840
# 5 0.007765 -0.000448 -0.000045 0.000000 0.056995 0.000000
# 6 0.000000 0.000000 0.000000 0.059840 0.000000 0.040179
#
#
# Mechanical properties :
#
#
# Convention : Reuss Voigt Hill
#
# Bulk Modulus (GPa) = 27.09486 83.42862 55.26174
# Shear Modulus (GPa) = 28.33622 21.89918 25.11770
#
# Velocity S-wave (km/s) = 3.61458 3.17761 3.40311
# Velocity P-wave (km/s) = 5.46928 7.20624 6.39699
#
# Compressibility (1/GPa) = 0.03690736
#
# Stress axis : x y z
#
# Youngs Moduli (GPa) = 32.01413 95.39152 104.98639
#
# Poissons Ratio (x) = 0.28108 -0.31513
# Poissons Ratio (y) = 0.09433 0.75837
# Poissons Ratio (z) = -0.09610 0.68906
#
# Static dielectric constant tensor:
#      x y z
#    x 1.851560 0.000000 0.015260 
#    y 0.000000 1.788230 0.000000 
#    z 0.015260 0.000000 1.767840 
# 
# From -- ./inp_files/320218.got.cif
#   From: 2010.05.17/outbox.cif.g08.bks.cpg/sg12_161_cif.got.tgz:320218.got - 2010.06.03 13:09:07.
