data_PCOD9180961
_publ_section_title
;
Structure prediction by ZEFSAII (Michael W. Deem and Ramdas Pophale) SiO2 
 PCOD9180961
Probable space group: C 2/M
;
_chemical_formula_sum "Si O2"
_cell_formula_units_Z 32
_cell_length_a 21.238386
_cell_length_b 8.646684
_cell_length_c 26.061077
_cell_angle_alpha 90.000000
_cell_angle_beta 157.569694
_cell_angle_gamma 90.000000
_cell_volume 1826.104216
_symmetry_space_group_name_H-M "C 2/M"
_symmetry_group_IT_number 12
_symmetry_cell_setting 'monoclinic'
loop_
_space_group_symop_operation_xyz
x,y,z
-x,y,-z
-x,-y,-z
x,-y,z
1/2+x,1/2+y,z
1/2-x,1/2+y,-z
1/2-x,1/2-y,-z
1/2+x,1/2-y,z
loop_
_atom_site_type_symbol
_atom_site_label
_atom_site_fract_x
_atom_site_fract_y
_atom_site_fract_z
Si Si1 0.165198 0.184323 0.857401
Si Si2 0.013557 0.186299 0.854229
Si Si3 0.139550 0.311238 0.565588
Si Si4 0.405874 0.185146 0.586134
O O1 0.067988 0.226497 0.836910
O O2 0.070507 0.260646 0.738911
O O3 0.158957 0.000000 0.847682
O O4 0.351656 0.240045 0.006810
O O5 0.825189 0.235852 0.720415
O O6 0.023290 0.000000 0.865857
O O7 0.138881 0.500000 0.565342
O O8 0.103302 0.262852 0.479891
O O9 0.000000 0.258466 0.500000
O O10 0.250000 0.250000 0.500000
O O11 0.396239 0.000000 0.579504
#
# Coordination Sequence:
#
# PCOD9180961 Si02
#       4
#     8   8   8   8
#     4  10  19  32  51  79 107 136 173 218 262 305
#     4   9  17  32  52  77 104 135 174 216 261 306
#     4   9  18  34  55  78 105 136 175 219 259 306
#     4  11  20  33  54  81 107 136 174 218 263 307
#
# _framework density 17.523644999999998
#
# number of rings (size 3 to 8) (size 9 to 14) (size 15 to 20)
#    0.000    2.250    2.500    1.500    0.000    1.000 
#    0.000    1.250    0.000   14.250    0.000    0.000 
#    0.000    0.000    0.000    0.000    0.000    0.000 
#
# Total GULP energy -89273.147880 kJ/mol
# GULP energy per Si atom -5579.571743 kJ/mol
# Density = 1.748376 g / cm^3
# Si number density = 17.523645 Si / 1000 Ang^3
#
#
#
# Elastic Constant Matrix: (Units=GPa)
#
#
# Indices 1 2 3 4 5 6 
#
# 1 116.7172 25.5944 90.4526 0.0000 4.2994 0.0000
# 2 25.5944 23.3718 33.8562 -0.0003 -3.0307 0.0000
# 3 90.4526 33.8562 181.5438 -0.0006 1.4561 0.0000
# 4 0.0000 -0.0003 -0.0006 31.0413 0.0000 -3.2361
# 5 4.2994 -3.0307 1.4561 0.0000 26.7234 0.0000
# 6 0.0000 0.0000 0.0000 -3.2361 0.0000 16.6658
#
#
#
# Elastic Compliance Matrix: (Units=1/GPa)
#
#
# Indices 1 2 3 4 5 6 
#
# 1 0.015123 -0.008327 -0.005958 0.000000 -0.003053 0.000000
# 2 -0.008327 0.064646 -0.007980 0.000000 0.009106 0.000000
# 3 -0.005958 -0.007980 0.009969 0.000000 -0.000490 0.000000
# 4 0.000000 0.000000 0.000000 0.032881 0.000000 0.006385
# 5 -0.003053 0.009106 -0.000490 0.000000 0.038971 0.000000
# 6 0.000000 0.000000 0.000000 0.006385 0.000000 0.061243
#
#
# Mechanical properties :
#
#
# Convention : Reuss Voigt Hill
#
# Bulk Modulus (GPa) = 22.11967 69.04881 45.58424
# Shear Modulus (GPa) = 17.70342 26.33474 22.01908
#
# Velocity S-wave (km/s) = 3.18191 3.88082 3.54861
# Velocity P-wave (km/s) = 5.11366 7.71814 6.54673
#
# Compressibility (1/GPa) = 0.04520864
#
# Stress axis : x y z
#
# Youngs Moduli (GPa) = 66.12385 15.46883 100.31348
#
# Poissons Ratio (x) = 0.12881 0.59762
# Poissons Ratio (y) = 0.55062 0.80051
# Poissons Ratio (z) = 0.39394 0.12344
#
# Static dielectric constant tensor:
#      x y z
#    x 1.579340 0.000000 0.002300 
#    y 0.000000 1.598160 0.000000 
#    z 0.002300 0.000000 1.594700 
# 
# From -- ./inp_files/81434.got.cif
#   From: 2010.05.17/outbox.cif.g08.bks.cpg/sg12_41_cif.got.tgz:81434.got - 2010.06.03 13:09:07.
