data_PCOD9180752
_publ_section_title
;
Structure prediction by ZEFSAII (Michael W. Deem and Ramdas Pophale) SiO2 
 PCOD9180752
Probable space group: C 2/M
;
_chemical_formula_sum "Si O2"
_cell_formula_units_Z 64
_cell_length_a 19.253007
_cell_length_b 8.811298
_cell_length_c 25.882099
_cell_angle_alpha 90.000000
_cell_angle_beta 124.180199
_cell_angle_gamma 90.000000
_cell_volume 3632.350388
_symmetry_space_group_name_H-M "C 2/M"
_symmetry_group_IT_number 12
_symmetry_cell_setting 'monoclinic'
loop_
_space_group_symop_operation_xyz
x,y,z
-x,y,-z
-x,-y,-z
x,-y,z
1/2+x,1/2+y,z
1/2-x,1/2+y,-z
1/2-x,1/2-y,-z
1/2+x,1/2-y,z
loop_
_atom_site_type_symbol
_atom_site_label
_atom_site_fract_x
_atom_site_fract_y
_atom_site_fract_z
Si Si1 0.501368 0.182119 0.941855
Si Si2 0.313356 0.683265 0.676712
Si Si3 0.030558 0.680951 0.319859
Si Si4 0.664243 0.182118 0.942722
Si Si5 0.521749 0.681787 0.429904
Si Si6 0.099173 0.174590 0.187386
Si Si7 0.430970 0.675927 0.188355
Si Si8 0.374842 0.817967 0.438426
O O1 0.587653 0.226447 0.949072
O O2 0.424526 0.236787 0.874099
O O3 0.499297 0.000000 0.942202
O O4 0.500000 0.239326 0.000000
O O5 0.327865 0.500000 0.680477
O O6 0.383047 0.764391 0.670967
O O7 0.329012 0.729257 0.743119
O O8 0.220263 0.714233 0.617901
O O9 0.028974 0.500000 0.323585
O O10 0.024021 0.758008 0.372794
O O11 0.956219 0.737659 0.250953
O O12 0.639847 0.246763 0.876295
O O13 0.668206 0.000000 0.942453
O O14 0.750000 0.250000 0.000000
O O15 0.522218 0.500000 0.431792
O O16 0.439498 0.746154 0.424526
O O17 0.599268 0.747434 0.495764
O O18 0.015430 0.180324 0.188273
O O19 0.115575 0.000000 0.180677
O O20 0.411678 0.500000 0.190545
O O21 0.386479 0.000000 0.444751
#
# Coordination Sequence:
#
# PCOD9180752 Si02
#       8
#     8   8   8   8   8   8   8   8
#     4   9  18  32  49  70  97 130 167 206 247 292
#     4   9  19  35  55  79 106 134 167 213 263 308
#     4  11  21  34  55  81 106 134 173 216 258 308
#     4  10  19  32  51  74 101 134 171 210 254 305
#     4  11  22  37  55  76 106 141 176 212 257 311
#     4   8  15  29  49  73  99 128 161 199 249 303
#     4   9  17  32  52  74 102 133 167 210 260 309
#     4  10  20  37  58  78 104 138 175 213 258 311
#
# _framework density 17.619444000000001
#
# number of rings (size 3 to 8) (size 9 to 14) (size 15 to 20)
#    0.000    2.375    0.000    4.875    0.000    5.250 
#    0.000    1.250    0.000    3.000    0.000    0.000 
#    0.000    0.000    0.000    0.000    0.000    0.000 
#
# Total GULP energy -178475.021167 kJ/mol
# GULP energy per Si atom -5577.344411 kJ/mol
# Density = 1.757934 g / cm^3
# Si number density = 17.619444 Si / 1000 Ang^3
#
#
#
# Elastic Constant Matrix: (Units=GPa)
#
#
# Indices 1 2 3 4 5 6 
#
# 1 40.3435 36.5708 69.2637 0.0000 -5.9125 0.0000
# 2 36.5708 95.2764 76.5576 0.0000 0.1664 0.0000
# 3 69.2637 76.5576 205.0727 0.0000 -4.5268 0.0000
# 4 0.0000 0.0000 0.0000 34.7430 0.0000 -2.8639
# 5 -5.9125 0.1664 -4.5268 0.0000 32.6203 0.0000
# 6 0.0000 0.0000 0.0000 -2.8639 0.0000 20.2984
#
#
#
# Elastic Compliance Matrix: (Units=1/GPa)
#
#
# Indices 1 2 3 4 5 6 
#
# 1 0.068712 -0.011313 -0.018765 0.000000 0.009908 0.000000
# 2 -0.011313 0.016880 -0.002536 0.000000 -0.002488 0.000000
# 3 -0.018765 -0.002536 0.012123 0.000000 -0.001706 0.000000
# 4 0.000000 0.000000 0.000000 0.029121 0.000000 0.004109
# 5 0.009908 -0.002488 -0.001706 0.000000 0.032227 0.000000
# 6 0.000000 0.000000 0.000000 0.004109 0.000000 0.049845
#
#
# Mechanical properties :
#
#
# Convention : Reuss Voigt Hill
#
# Bulk Modulus (GPa) = 30.78157 78.38629 54.58393
# Shear Modulus (GPa) = 17.54601 28.08571 22.81586
#
# Velocity S-wave (km/s) = 3.15910 3.99685 3.60241
# Velocity P-wave (km/s) = 5.55110 8.11695 6.95340
#
# Compressibility (1/GPa) = 0.03248697
#
# Stress axis : x y z
#
# Youngs Moduli (GPa) = 14.55358 59.24218 82.48583
#
# Poissons Ratio (x) = 0.67020 1.54788
# Poissons Ratio (y) = 0.16464 0.20915
# Poissons Ratio (z) = 0.27310 0.15021
#
# Static dielectric constant tensor:
#      x y z
#    x 1.583320 0.000000 -0.000160 
#    y 0.000000 1.591580 0.000000 
#    z -0.000160 0.000000 1.611300 
# 
# From -- ./inp_files/365203.got.cif
#   From: 2010.05.17/outbox.cif.g08.bks.cpg/sg12_183_cif.got.tgz:365203.got - 2010.06.03 13:09:07.
