data_PCOD9180125
_publ_section_title
;
Structure prediction by ZEFSAII (Michael W. Deem and Ramdas Pophale) SiO2 
 PCOD9180125
Probable space group: C 2/M
;
_chemical_formula_sum "Si O2"
_cell_formula_units_Z 64
_cell_length_a 11.038165
_cell_length_b 28.175056
_cell_length_c 13.538658
_cell_angle_alpha 90.000000
_cell_angle_beta 139.937544
_cell_angle_gamma 90.000000
_cell_volume 2709.994104
_symmetry_space_group_name_H-M "C 2/M"
_symmetry_group_IT_number 12
_symmetry_cell_setting 'monoclinic'
loop_
_space_group_symop_operation_xyz
x,y,z
-x,y,-z
-x,-y,-z
x,-y,z
1/2+x,1/2+y,z
1/2-x,1/2+y,-z
1/2-x,1/2-y,-z
1/2+x,1/2-y,z
loop_
_atom_site_type_symbol
_atom_site_label
_atom_site_fract_x
_atom_site_fract_y
_atom_site_fract_z
Si Si1 0.571598 0.103009 0.756792
Si Si2 0.938512 0.807243 0.174696
Si Si3 0.799813 0.636599 0.361839
Si Si4 0.610872 0.447803 0.964466
Si Si5 0.166966 0.845705 0.684108
Si Si6 0.161077 0.053043 0.392950
Si Si7 0.239862 0.946947 0.649624
Si Si8 0.476956 0.800660 0.180617
O O1 0.666722 0.101594 0.709459
O O2 0.423815 0.063022 0.695181
O O3 0.501361 0.156605 0.728321
O O4 0.739333 0.093773 0.939009
O O5 0.916263 0.836322 0.261116
O O6 0.992859 0.752588 0.229906
O O7 0.116418 0.831436 0.230591
O O8 0.734035 0.805078 0.995349
O O9 0.773311 0.601119 0.437821
O O10 0.000000 0.662955 0.500000
O O11 0.702132 0.500000 0.021459
O O12 0.493043 0.444968 0.790456
O O13 0.500000 0.445663 0.000000
O O14 0.238395 0.899660 0.713729
O O15 0.348410 0.811645 0.783270
O O16 0.000000 0.837543 0.500000
O O17 0.091486 0.054262 0.464004
O O18 0.247551 0.000000 0.434279
O O19 0.250354 0.000000 0.698119
#
# Coordination Sequence:
#
# PCOD9180125 Si02
#       8
#     8   8   8   8   8   8   8   8
#     4  11  22  38  63  99 138 177 229 285 346 422
#     4  11  26  48  73  98 140 182 233 297 351 431
#     4  12  24  39  66 105 142 183 228 288 358 423
#     4  10  19  31  53  93 140 181 221 276 344 409
#     4  11  25  46  73 103 141 183 238 296 349 414
#     4  10  20  35  58  93 137 183 226 276 339 408
#     4  10  22  42  68  97 138 189 237 283 344 418
#     4  10  26  47  72 102 130 185 235 287 363 419
#
# _framework density 23.616288000000001
#
# number of rings (size 3 to 8) (size 9 to 14) (size 15 to 20)
#    0.000    1.375    2.500    2.250    3.500    2.000 
#    0.000    0.625    0.000    6.750    0.000    0.000 
#    0.000    0.000    0.000    0.000    0.000    0.000 
#
# Total GULP energy -178574.097681 kJ/mol
# GULP energy per Si atom -5580.440553 kJ/mol
# Density = 2.356254 g / cm^3
# Si number density = 23.616288 Si / 1000 Ang^3
#
#
#
# Elastic Constant Matrix: (Units=GPa)
#
#
# Indices 1 2 3 4 5 6 
#
# 1 43.2458 36.3238 3.2807 0.0000 14.2502 0.0000
# 2 36.3238 146.4034 19.0808 0.0000 9.2513 0.0000
# 3 3.2807 19.0808 62.5286 0.0000 16.1600 0.0000
# 4 0.0000 0.0000 0.0000 30.8248 0.0000 10.8532
# 5 14.2502 9.2513 16.1600 0.0000 38.4706 0.0000
# 6 0.0000 0.0000 0.0000 10.8532 0.0000 23.6927
#
#
#
# Elastic Compliance Matrix: (Units=1/GPa)
#
#
# Indices 1 2 3 4 5 6 
#
# 1 0.033605 -0.008071 0.003831 0.000000 -0.012116 0.000000
# 2 -0.008071 0.009080 -0.002867 0.000000 0.002011 0.000000
# 3 0.003831 -0.002867 0.018908 0.000000 -0.008672 0.000000
# 4 0.000000 0.000000 0.000000 0.038680 0.000000 -0.017719
# 5 -0.012116 0.002011 -0.008672 0.000000 0.033641 0.000000
# 6 0.000000 0.000000 0.000000 -0.017719 0.000000 0.050324
#
#
# Mechanical properties :
#
#
# Convention : Reuss Voigt Hill
#
# Bulk Modulus (GPa) = 21.10671 41.06092 31.08382
# Shear Modulus (GPa) = 23.33791 31.49713 27.41752
#
# Velocity S-wave (km/s) = 3.14700 3.65595 3.41098
# Velocity P-wave (km/s) = 4.70760 5.93681 5.35758
#
# Compressibility (1/GPa) = 0.04737830
#
# Stress axis : x y z
#
# Youngs Moduli (GPa) = 29.75759 110.13730 52.88841
#
# Poissons Ratio (x) = 0.88895 -0.20262
# Poissons Ratio (y) = 0.24018 0.15162
# Poissons Ratio (z) = -0.11401 0.31574
#
# Static dielectric constant tensor:
#      x y z
#    x 1.976320 0.000000 0.095770 
#    y 0.000000 1.861240 0.000000 
#    z 0.095770 0.000000 2.056770 
# 
# From -- ./inp_files/209438.got.cif
#   From: 2010.05.17/outbox.cif.g08.bks.cpg/sg12_105_cif.got.tgz:209438.got - 2010.06.03 13:09:07.
