data_PCOD9180703
_publ_section_title
;
Structure prediction by ZEFSAII (Michael W. Deem and Ramdas Pophale) SiO2 
 PCOD9180703
Probable space group: C 2/M
;
_chemical_formula_sum "Si O2"
_cell_formula_units_Z 56
_cell_length_a 13.679348
_cell_length_b 13.869820
_cell_length_c 23.079239
_cell_angle_alpha 90.000000
_cell_angle_beta 150.099242
_cell_angle_gamma 90.000000
_cell_volume 2182.841392
_symmetry_space_group_name_H-M "C 2/M"
_symmetry_group_IT_number 12
_symmetry_cell_setting 'monoclinic'
loop_
_space_group_symop_operation_xyz
x,y,z
-x,y,-z
-x,-y,-z
x,-y,z
1/2+x,1/2+y,z
1/2-x,1/2+y,-z
1/2-x,1/2-y,-z
1/2+x,1/2-y,z
loop_
_atom_site_type_symbol
_atom_site_label
_atom_site_fract_x
_atom_site_fract_y
_atom_site_fract_z
Si Si1 0.916490 0.393583 0.016172
Si Si2 0.278262 0.771596 0.669819
Si Si3 0.328549 0.892212 0.585964
Si Si4 0.851905 0.886083 0.629951
Si Si5 0.774765 0.195255 0.236650
Si Si6 0.667020 0.884101 0.907059
Si Si7 0.300098 0.391306 0.851283
O O1 0.846963 0.500000 0.963293
O O2 0.122197 0.392190 0.156194
O O3 0.775763 0.360886 0.996514
O O4 0.000000 0.346125 0.000000
O O5 0.239956 0.827206 0.590778
O O6 0.274128 0.660614 0.648913
O O7 0.149270 0.793335 0.659433
O O8 0.491482 0.812637 0.798816
O O9 0.279804 0.866715 0.494674
O O10 0.562580 0.894237 0.716798
O O11 0.250804 0.000000 0.554419
O O12 0.054748 0.830278 0.720302
O O13 0.881109 0.000000 0.649799
O O14 0.656649 0.293429 0.161305
O O15 0.816344 0.876062 0.929590
O O16 0.618193 0.000000 0.881109
O O17 0.368676 0.500000 0.870202
#
# Coordination Sequence:
#
# PCOD9180703 Si02
#       7
#     8   8   8   8   8   8   8
#     4   9  18  33  53  79 107 130 161 212 268 317
#     4  10  19  32  51  73 105 138 171 214 267 309
#     4   9  18  34  53  71 101 139 176 219 263 300
#     4  11  22  35  51  77 111 141 175 223 269 308
#     4  11  21  33  55  79 102 136 182 213 259 320
#     4   8  14  29  53  72  93 128 168 206 249 299
#     4   9  17  32  53  73  98 137 180 212 247 306
#
# _framework density 25.654634000000001
#
# number of rings (size 3 to 8) (size 9 to 14) (size 15 to 20)
#    0.000    2.429    2.857    2.143    0.000    2.857 
#    0.000    2.143    0.000    3.000    0.000    0.000 
#    0.000    0.000    0.000    0.000    0.000    0.000 
#
# Total GULP energy -156181.179542 kJ/mol
# GULP energy per Si atom -5577.899269 kJ/mol
# Density = 2.559624 g / cm^3
# Si number density = 25.654634 Si / 1000 Ang^3
#
#
#
# Elastic Constant Matrix: (Units=GPa)
#
#
# Indices 1 2 3 4 5 6 
#
# 1 71.7042 21.3711 19.2666 0.0001 -30.9957 -0.0001
# 2 21.3711 141.2572 39.2127 0.0002 -18.0651 0.0000
# 3 19.2666 39.2127 68.2211 0.0006 -17.6820 0.0001
# 4 0.0001 0.0002 0.0006 33.6305 0.0002 0.1029
# 5 -30.9957 -18.0651 -17.6820 0.0002 35.1099 -0.0001
# 6 -0.0001 0.0000 0.0001 0.1029 -0.0001 8.4763
#
#
#
# Elastic Compliance Matrix: (Units=1/GPa)
#
#
# Indices 1 2 3 4 5 6 
#
# 1 0.022724 -0.000695 -0.001048 0.000000 0.019176 0.000000
# 2 -0.000695 0.008592 -0.004319 0.000000 0.001632 0.000000
# 3 -0.001048 -0.004319 0.019116 0.000000 0.006480 0.000000
# 4 0.000000 0.000000 0.000000 0.029736 0.000000 -0.000361
# 5 0.019176 0.001632 0.006480 0.000000 0.049514 0.000000
# 6 0.000000 0.000000 0.000000 -0.000361 0.000000 0.117980
#
#
# Mechanical properties :
#
#
# Convention : Reuss Voigt Hill
#
# Bulk Modulus (GPa) = 26.10405 48.98701 37.54553
# Shear Modulus (GPa) = 18.34479 28.86549 23.60514
#
# Velocity S-wave (km/s) = 2.67697 3.35797 3.03663
# Velocity P-wave (km/s) = 4.44434 5.84559 5.19245
#
# Compressibility (1/GPa) = 0.03830823
#
# Stress axis : x y z
#
# Youngs Moduli (GPa) = 44.00615 116.38462 52.31110
#
# Poissons Ratio (x) = 0.08084 0.05483
# Poissons Ratio (y) = 0.03057 0.22595
# Poissons Ratio (z) = 0.04613 0.50272
#
# Static dielectric constant tensor:
#      x y z
#    x 2.090560 0.000000 0.010760 
#    y 0.000000 2.047450 0.000000 
#    z 0.010760 0.000000 2.082870 
# 
# From -- ./inp_files/214209.got.cif
#   From: 2010.05.17/outbox.cif.g08.bks.cpg/sg12_108_cif.got.tgz:214209.got - 2010.06.03 13:09:07.
