data_PCOD9180619
_publ_section_title
;
Structure prediction by ZEFSAII (Michael W. Deem and Ramdas Pophale) SiO2 
 PCOD9180619
Probable space group: C 2/M
;
_chemical_formula_sum "Si O2"
_cell_formula_units_Z 56
_cell_length_a 29.734983
_cell_length_b 7.709713
_cell_length_c 12.213699
_cell_angle_alpha 90.000000
_cell_angle_beta 69.631574
_cell_angle_gamma 90.000000
_cell_volume 2624.897326
_symmetry_space_group_name_H-M "C 2/M"
_symmetry_group_IT_number 12
_symmetry_cell_setting 'monoclinic'
loop_
_space_group_symop_operation_xyz
x,y,z
-x,y,-z
-x,-y,-z
x,-y,z
1/2+x,1/2+y,z
1/2-x,1/2+y,-z
1/2-x,1/2-y,-z
1/2+x,1/2-y,z
loop_
_atom_site_type_symbol
_atom_site_label
_atom_site_fract_x
_atom_site_fract_y
_atom_site_fract_z
Si Si1 0.570815 0.800488 0.877083
Si Si2 0.268984 0.289977 0.279792
Si Si3 0.200176 0.208443 0.982034
Si Si4 0.840859 0.290774 0.608456
Si Si5 0.527734 0.300440 0.137199
Si Si6 0.887534 0.208083 0.795612
Si Si7 0.352609 0.205127 0.357228
O O1 0.521072 0.795922 0.851488
O O2 0.611869 0.722184 0.765344
O O3 0.582229 0.000000 0.895194
O O4 0.560254 0.705052 0.999597
O O5 0.268979 0.500000 0.280144
O O6 0.295357 0.228698 0.146495
O O7 0.213863 0.230851 0.324808
O O8 0.298805 0.228780 0.358934
O O9 0.195956 0.000000 0.981327
O O10 0.250000 0.250000 0.000000
O O11 0.155538 0.276046 0.090477
O O12 0.838976 0.500000 0.604625
O O13 0.873888 0.243760 0.682513
O O14 0.857628 0.225271 0.475598
O O15 0.514658 0.500000 0.170575
O O16 0.561167 0.227600 0.204846
O O17 0.889125 0.000000 0.808667
O O18 0.363424 0.000000 0.352691
#
# Coordination Sequence:
#
# PCOD9180619 Si02
#       7
#     8   8   8   8   8   8   8
#     4  10  20  36  57  83 110 136 174 220 267 319
#     4  10  20  34  54  79 106 141 182 222 265 314
#     4  10  19  32  50  76 107 136 169 212 259 309
#     4  10  21  37  54  75 107 145 184 221 260 312
#     4  10  20  36  59  84 109 137 171 217 271 321
#     4  10  21  35  53  79 110 141 176 217 266 319
#     4  10  22  37  54  78 107 141 181 223 265 313
#
# _framework density 21.334167000000001
#
# number of rings (size 3 to 8) (size 9 to 14) (size 15 to 20)
#    0.000    2.000    1.429    3.000    0.000    5.143 
#    0.000    0.714    0.000    4.286    0.000    0.000 
#    0.000    0.000    0.000    0.000    0.000    0.000 
#
# Total GULP energy -156438.031071 kJ/mol
# GULP energy per Si atom -5587.072538 kJ/mol
# Density = 2.128561 g / cm^3
# Si number density = 21.334167 Si / 1000 Ang^3
#
#
#
# Elastic Constant Matrix: (Units=GPa)
#
#
# Indices 1 2 3 4 5 6 
#
# 1 98.5664 -13.1437 29.5625 0.0000 26.9837 0.0000
# 2 -13.1437 37.3970 -5.3061 0.0000 -5.6216 0.0000
# 3 29.5625 -5.3061 67.0027 0.0000 17.0092 0.0000
# 4 0.0000 0.0000 0.0000 12.4070 0.0000 8.1903
# 5 26.9837 -5.6216 17.0092 0.0000 24.8871 0.0000
# 6 0.0000 0.0000 0.0000 8.1903 0.0000 17.0628
#
#
#
# Elastic Compliance Matrix: (Units=1/GPa)
#
#
# Indices 1 2 3 4 5 6 
#
# 1 0.015195 0.002844 -0.002976 0.000000 -0.013798 0.000000
# 2 0.002844 0.028242 0.000176 0.000000 0.003176 0.000000
# 3 -0.002976 0.000176 0.018660 0.000000 -0.009487 0.000000
# 4 0.000000 0.000000 0.000000 0.117985 0.000000 -0.056634
# 5 -0.013798 0.003176 -0.009487 0.000000 0.062343 0.000000
# 6 0.000000 0.000000 0.000000 -0.056634 0.000000 0.085792
#
#
# Mechanical properties :
#
#
# Convention : Reuss Voigt Hill
#
# Bulk Modulus (GPa) = 16.08143 25.02127 20.55135
# Shear Modulus (GPa) = 14.33246 23.66161 18.99704
#
# Velocity S-wave (km/s) = 2.59474 3.33392 2.98728
# Velocity P-wave (km/s) = 4.06585 5.15497 4.64246
#
# Compressibility (1/GPa) = 0.06218353
#
# Stress axis : x y z
#
# Youngs Moduli (GPa) = 65.81229 35.40834 53.59029
#
# Poissons Ratio (x) = -0.10070 0.15949
# Poissons Ratio (y) = -0.18717 -0.00941
# Poissons Ratio (z) = 0.19586 -0.00621
#
# Static dielectric constant tensor:
#      x y z
#    x 1.761800 0.000000 -0.006730 
#    y 0.000000 1.842670 0.000000 
#    z -0.006730 0.000000 1.778170 
# 
# From -- ./inp_files/180701.got.cif
#   From: 2010.05.17/outbox.cif.g08.bks.cpg/sg12_91_cif.got.tgz:180701.got - 2010.06.03 13:09:07.
