data_PCOD9180883
_publ_section_title
;
Structure prediction by ZEFSAII (Michael W. Deem and Ramdas Pophale) SiO2 
 PCOD9180883
Probable space group: C 2/M
;
_chemical_formula_sum "Si O2"
_cell_formula_units_Z 56
_cell_length_a 21.905769
_cell_length_b 17.376126
_cell_length_c 14.728604
_cell_angle_alpha 90.000000
_cell_angle_beta 27.987175
_cell_angle_gamma 90.000000
_cell_volume 2630.870427
_symmetry_space_group_name_H-M "C 2/M"
_symmetry_group_IT_number 12
_symmetry_cell_setting 'monoclinic'
loop_
_space_group_symop_operation_xyz
x,y,z
-x,y,-z
-x,-y,-z
x,-y,z
1/2+x,1/2+y,z
1/2-x,1/2+y,-z
1/2-x,1/2-y,-z
1/2+x,1/2-y,z
loop_
_atom_site_type_symbol
_atom_site_label
_atom_site_fract_x
_atom_site_fract_y
_atom_site_fract_z
Si Si1 0.213990 0.585821 0.439506
Si Si2 0.759751 0.410399 0.999552
Si Si3 0.045928 0.845919 0.789785
Si Si4 0.609853 0.263242 0.429013
Si Si5 0.990876 0.310709 0.769063
Si Si6 0.449383 0.589072 0.414073
Si Si7 0.761612 0.876349 0.183265
O O1 0.248440 0.500000 0.422973
O O2 0.334218 0.642546 0.300991
O O3 0.089571 0.618818 0.654679
O O4 0.189467 0.585483 0.363103
O O5 0.788773 0.500000 0.984381
O O6 0.777573 0.400648 0.866668
O O7 0.851454 0.348226 0.928870
O O8 0.605592 0.396640 0.219016
O O9 0.008104 0.757321 0.819337
O O10 0.083940 0.886153 0.644672
O O11 0.915183 0.889196 0.991670
O O12 0.500000 0.249618 0.500000
O O13 0.550035 0.230046 0.600954
O O14 0.627800 0.353646 0.419365
O O15 0.730717 0.213566 0.238211
O O16 0.424827 0.500000 0.462926
#
# Coordination Sequence:
#
# PCOD9180883 Si02
#       7
#     8   8   8   8   8   8   8
#     4  11  22  36  55  81 111 141 177 223 271 317
#     4  10  19  34  55  82 112 139 174 218 271 324
#     4  10  21  36  57  74 106 144 187 218 260 316
#     4  10  19  32  51  76 109 138 174 215 264 316
#     4  10  21  35  54  79 107 144 179 218 265 321
#     4   9  20  34  53  78 105 143 182 220 264 310
#     4  10  21  34  55  84 109 143 175 219 269 322
#
# _framework density 21.285730000000001
#
# number of rings (size 3 to 8) (size 9 to 14) (size 15 to 20)
#    0.000    2.000    1.429    2.143    2.000    4.286 
#    0.000    2.143    0.000    0.000    0.000    0.000 
#    0.000   10.286    0.000    0.000    0.000    0.000 
#
# Total GULP energy -156297.840262 kJ/mol
# GULP energy per Si atom -5582.065724 kJ/mol
# Density = 2.123728 g / cm^3
# Si number density = 21.285730 Si / 1000 Ang^3
#
#
#
# Elastic Constant Matrix: (Units=GPa)
#
#
# Indices 1 2 3 4 5 6 
#
# 1 52.7402 24.0723 1.0033 0.0000 -12.1557 0.0000
# 2 24.0723 122.0726 17.5487 0.0000 -3.1766 0.0000
# 3 1.0033 17.5487 9.5508 0.0001 1.2067 0.0000
# 4 0.0000 0.0000 0.0001 18.4457 0.0000 -11.9497
# 5 -12.1557 -3.1766 1.2067 0.0000 14.1776 0.0000
# 6 0.0000 0.0000 0.0000 -11.9497 0.0000 20.6793
#
#
#
# Elastic Compliance Matrix: (Units=1/GPa)
#
#
# Indices 1 2 3 4 5 6 
#
# 1 0.026051 -0.005197 0.004182 0.000000 0.020815 0.000000
# 2 -0.005197 0.012432 -0.022326 0.000000 0.000230 0.000000
# 3 0.004182 -0.022326 0.147045 -0.000001 -0.013932 0.000000
# 4 0.000000 0.000000 -0.000001 0.086652 0.000000 0.050073
# 5 0.020815 0.000230 -0.013932 0.000000 0.089618 0.000000
# 6 0.000000 0.000000 0.000000 0.050073 0.000000 0.077293
#
#
# Mechanical properties :
#
#
# Convention : Reuss Voigt Hill
#
# Bulk Modulus (GPa) = 7.20218 29.95691 18.57954
# Shear Modulus (GPa) = 9.39754 20.10981 14.75368
#
# Velocity S-wave (km/s) = 2.10346 3.07702 2.63558
# Velocity P-wave (km/s) = 3.04800 5.16995 4.24374
#
# Compressibility (1/GPa) = 0.13884691
#
# Stress axis : x y z
#
# Youngs Moduli (GPa) = 38.38659 80.43712 6.80062
#
# Poissons Ratio (x) = 0.41800 -0.02844
# Poissons Ratio (y) = 0.19948 0.15183
# Poissons Ratio (z) = -0.16053 1.79583
#
# Static dielectric constant tensor:
#      x y z
#    x 1.776200 0.000000 0.012050 
#    y 0.000000 1.814910 0.000000 
#    z 0.012050 0.000000 1.745340 
# 
# From -- ./inp_files/155948.got.cif
#   From: 2010.05.17/outbox.cif.g08.bks.cpg/sg12_78_cif.got.tgz:155948.got - 2010.06.03 13:09:07.
