data_PCOD9180311
_publ_section_title
;
Structure prediction by ZEFSAII (Michael W. Deem and Ramdas Pophale) SiO2 
 PCOD9180311
Probable space group: C 2/M
;
_chemical_formula_sum "Si O2"
_cell_formula_units_Z 48
_cell_length_a 23.616642
_cell_length_b 21.830096
_cell_length_c 8.745330
_cell_angle_alpha 90.000000
_cell_angle_beta 37.326698
_cell_angle_gamma 90.000000
_cell_volume 2733.882353
_symmetry_space_group_name_H-M "C 2/M"
_symmetry_group_IT_number 12
_symmetry_cell_setting 'monoclinic'
loop_
_space_group_symop_operation_xyz
x,y,z
-x,y,-z
-x,-y,-z
x,-y,z
1/2+x,1/2+y,z
1/2-x,1/2+y,-z
1/2-x,1/2-y,-z
1/2+x,1/2-y,z
loop_
_atom_site_type_symbol
_atom_site_label
_atom_site_fract_x
_atom_site_fract_y
_atom_site_fract_z
Si Si1 0.787998 0.300891 0.036954
Si Si2 0.427270 0.601421 0.797219
Si Si3 0.375639 0.297572 0.364816
Si Si4 0.233326 0.933642 0.068714
Si Si5 0.411041 0.434106 0.336717
Si Si6 0.074161 0.766466 0.069914
O O1 0.714910 0.296769 0.335392
O O2 0.786548 0.369088 0.968906
O O3 0.887814 0.283554 0.894685
O O4 0.750000 0.250000 0.000000
O O5 0.500000 0.607564 0.500000
O O6 0.335917 0.569459 0.927722
O O7 0.488147 0.569717 0.797797
O O8 0.399927 0.668705 0.910666
O O9 0.396662 0.369511 0.283916
O O10 0.376464 0.262820 0.202020
O O11 0.463754 0.271587 0.272282
O O12 0.164675 0.933390 0.363654
O O13 0.282948 0.000000 0.961497
O O14 0.400405 0.500000 0.280565
#
# Coordination Sequence:
#
# PCOD9180311 Si02
#       6
#     8   8   8   8   8   8
#     4  11  20  31  52  74  94 127 165 198 237 283
#     4   9  15  25  43  67  96 125 156 185 225 282
#     4   9  20  33  46  70 101 128 158 199 234 285
#     4   9  16  27  42  67  95 121 154 195 237 279
#     4   8  14  25  43  63  93 130 155 179 223 284
#     4  10  19  32  48  69 101 127 159 196 238 274
#
# _framework density 17.557448999999998
#
# number of rings (size 3 to 8) (size 9 to 14) (size 15 to 20)
#    0.000    2.667    1.667    2.000    0.000    2.000 
#    0.000    7.500    0.000    0.000    0.000    4.667 
#    0.000    0.000    0.000    0.000    0.000    0.000 
#
# Total GULP energy -133662.325427 kJ/mol
# GULP energy per Si atom -5569.263559 kJ/mol
# Density = 1.751749 g / cm^3
# Si number density = 17.557449 Si / 1000 Ang^3
#
#
#
# Elastic Constant Matrix: (Units=GPa)
#
#
# Indices 1 2 3 4 5 6 
#
# 1 62.4112 46.8062 -7.2891 0.0000 -6.7235 0.0000
# 2 46.8062 123.1184 -2.3719 0.0000 -8.9299 0.0000
# 3 -7.2891 -2.3719 17.6310 0.0000 -2.4348 0.0000
# 4 0.0000 0.0000 0.0000 18.2533 0.0000 -0.2473
# 5 -6.7235 -8.9299 -2.4348 0.0000 12.1295 0.0000
# 6 0.0000 0.0000 0.0000 -0.2473 0.0000 12.2976
#
#
#
# Elastic Compliance Matrix: (Units=1/GPa)
#
#
# Indices 1 2 3 4 5 6 
#
# 1 0.024601 -0.008466 0.010341 0.000000 0.009480 0.000000
# 2 -0.008466 0.011569 -0.001456 0.000000 0.003532 0.000000
# 3 0.010341 -0.001456 0.063193 0.000000 0.017345 0.000000
# 4 0.000000 0.000000 0.000000 0.054799 0.000000 0.001102
# 5 0.009480 0.003532 0.017345 0.000000 0.093780 0.000000
# 6 0.000000 0.000000 0.000000 0.001102 0.000000 0.081339
#
#
# Mechanical properties :
#
#
# Convention : Reuss Voigt Hill
#
# Bulk Modulus (GPa) = 9.97992 30.82788 20.40390
# Shear Modulus (GPa) = 13.81814 19.60377 16.71095
#
# Velocity S-wave (km/s) = 2.80844 3.34511 3.08845
# Velocity P-wave (km/s) = 4.02653 5.70229 4.93604
#
# Compressibility (1/GPa) = 0.10020123
#
# Stress axis : x y z
#
# Youngs Moduli (GPa) = 40.64925 86.43894 15.82451
#
# Poissons Ratio (x) = 0.73177 -0.16364
# Poissons Ratio (y) = 0.34413 0.02304
# Poissons Ratio (z) = -0.42035 0.12584
#
# Static dielectric constant tensor:
#      x y z
#    x 1.613440 0.000000 0.017230 
#    y 0.000000 1.632290 0.000000 
#    z 0.017230 0.000000 1.611500 
# 
# From -- ./inp_files/62765.got.cif
#   From: 2010.05.17/outbox.cif.g08.bks.cpg/sg12_32_cif.got.tgz:62765.got - 2010.06.03 13:09:07.
