data_PCOD9180078
_publ_section_title
;
Structure prediction by ZEFSAII (Michael W. Deem and Ramdas Pophale) SiO2 
 PCOD9180078
Probable space group: C 2/M
;
_chemical_formula_sum "Si O2"
_cell_formula_units_Z 40
_cell_length_a 9.715548
_cell_length_b 22.868491
_cell_length_c 11.439412
_cell_angle_alpha 90.000000
_cell_angle_beta 128.880635
_cell_angle_gamma 90.000000
_cell_volume 1978.528072
_symmetry_space_group_name_H-M "C 2/M"
_symmetry_group_IT_number 12
_symmetry_cell_setting 'monoclinic'
loop_
_space_group_symop_operation_xyz
x,y,z
-x,y,-z
-x,-y,-z
x,-y,z
1/2+x,1/2+y,z
1/2-x,1/2+y,-z
1/2-x,1/2-y,-z
1/2+x,1/2-y,z
loop_
_atom_site_type_symbol
_atom_site_label
_atom_site_fract_x
_atom_site_fract_y
_atom_site_fract_z
Si Si1 0.999929 0.236186 0.366235
Si Si2 0.813826 0.299282 0.946235
Si Si3 0.665719 0.619110 0.499937
Si Si4 0.451367 0.860468 0.223408
Si Si5 0.700105 0.934392 0.657845
O O1 0.826223 0.199423 0.233007
O O2 0.994963 0.293865 0.285888
O O3 0.000000 0.256245 0.500000
O O4 0.149538 0.186425 0.444524
O O5 0.750000 0.250000 0.000000
O O6 0.859679 0.356190 0.047954
O O7 0.000000 0.277813 0.000000
O O8 0.500000 0.609312 0.500000
O O9 0.675344 0.582556 0.384771
O O10 0.855089 0.609846 0.665007
O O11 0.316520 0.889006 0.244360
O O12 0.500000 0.933786 0.500000
O O13 0.739715 0.000000 0.719920
#
# Coordination Sequence:
#
# PCOD9180078 Si02
#       5
#     8   8   8   8   8
#     4  10  19  32  52  80 113 144 179 221 277 335
#     4  10  21  34  50  77 112 148 183 223 275 333
#     4  10  19  31  53  83 112 143 180 228 278 328
#     4  10  20  35  54  78 111 149 185 226 274 330
#     4   9  19  36  57  80 108 149 194 227 266 326
#
# _framework density 20.217048999999999
#
# number of rings (size 3 to 8) (size 9 to 14) (size 15 to 20)
#    0.000    2.200    0.000    4.800    0.000   10.000 
#    0.000    0.000    0.000    3.000    0.000    0.000 
#    0.000    0.000    0.000    0.000    0.000    0.000 
#
# Total GULP energy -111358.478048 kJ/mol
# GULP energy per Si atom -5567.923902 kJ/mol
# Density = 2.017103 g / cm^3
# Si number density = 20.217049 Si / 1000 Ang^3
#
#
#
# Elastic Constant Matrix: (Units=GPa)
#
#
# Indices 1 2 3 4 5 6 
#
# 1 136.3612 31.5270 34.4635 0.0000 -11.5092 0.0000
# 2 31.5270 46.2056 -2.6285 0.0000 0.3539 0.0000
# 3 34.4635 -2.6285 106.5235 0.0000 -0.5703 0.0000
# 4 0.0000 0.0000 0.0000 3.0663 0.0000 -4.4977
# 5 -11.5092 0.3539 -0.5703 0.0000 17.0600 0.0000
# 6 0.0000 0.0000 0.0000 -4.4977 0.0000 23.1496
#
#
#
# Elastic Compliance Matrix: (Units=1/GPa)
#
#
# Indices 1 2 3 4 5 6 
#
# 1 0.010565 -0.007466 -0.003564 0.000000 0.007163 0.000000
# 2 -0.007466 0.026952 0.003051 0.000000 -0.005494 0.000000
# 3 -0.003564 0.003051 0.010605 0.000000 -0.002113 0.000000
# 4 0.000000 0.000000 0.000000 0.456113 0.000000 0.088618
# 5 0.007163 -0.005494 -0.002113 0.000000 0.063493 0.000000
# 6 0.000000 0.000000 0.000000 0.088618 0.000000 0.060415
#
#
# Mechanical properties :
#
#
# Convention : Reuss Voigt Hill
#
# Bulk Modulus (GPa) = 31.09070 46.20157 38.64613
# Shear Modulus (GPa) = 7.63566 23.70373 15.66969
#
# Velocity S-wave (km/s) = 1.94552 3.42784 2.78703
# Velocity P-wave (km/s) = 4.52311 6.21041 5.43267
#
# Compressibility (1/GPa) = 0.03216396
#
# Stress axis : x y z
#
# Youngs Moduli (GPa) = 94.65182 37.10236 94.29844
#
# Poissons Ratio (x) = 0.27702 0.33608
# Poissons Ratio (y) = 0.70670 -0.28773
# Poissons Ratio (z) = 0.33734 -0.11321
#
# Static dielectric constant tensor:
#      x y z
#    x 1.729230 0.000000 0.009430 
#    y 0.000000 1.759650 0.000000 
#    z 0.009430 0.000000 1.794860 
# 
# From -- ./inp_files/123942.got.cif
#   From: 2010.05.17/outbox.cif.g08.bks.cpg/sg12_62_cif.got.tgz:123942.got - 2010.06.03 13:09:07.
