data_PCOD9180325
_publ_section_title
;
Structure prediction by ZEFSAII (Michael W. Deem and Ramdas Pophale) SiO2 
 PCOD9180325
Probable space group: C 2/M
;
_chemical_formula_sum "Si O2"
_cell_formula_units_Z 52
_cell_length_a 25.014168
_cell_length_b 23.226304
_cell_length_c 4.991429
_cell_angle_alpha 90.000000
_cell_angle_beta 105.787842
_cell_angle_gamma 90.000000
_cell_volume 2790.555133
_symmetry_space_group_name_H-M "C 2/M"
_symmetry_group_IT_number 12
_symmetry_cell_setting 'monoclinic'
loop_
_space_group_symop_operation_xyz
x,y,z
-x,y,-z
-x,-y,-z
x,-y,z
1/2+x,1/2+y,z
1/2-x,1/2+y,-z
1/2-x,1/2-y,-z
1/2+x,1/2-y,z
loop_
_atom_site_type_symbol
_atom_site_label
_atom_site_fract_x
_atom_site_fract_y
_atom_site_fract_z
Si Si1 0.588303 0.881178 0.560043
Si Si2 0.674350 0.248961 0.158976
Si Si3 0.959661 0.500000 0.692346
Si Si4 0.060740 0.309809 0.011410
Si Si5 0.268385 0.434866 0.493530
Si Si6 0.304005 0.064973 0.103433
Si Si7 0.788510 0.815958 0.288273
O O1 0.583102 0.835808 0.318416
O O2 0.649552 0.889849 0.759684
O O3 0.573548 0.941129 0.393691
O O4 0.553415 0.858953 0.770769
O O5 0.612227 0.230087 0.996464
O O6 0.722395 0.199757 0.205594
O O7 0.680566 0.272501 0.467943
O O8 0.692708 0.299823 0.983077
O O9 0.000000 0.500000 0.500000
O O10 0.000000 0.500000 0.000000
O O11 0.000000 0.284910 0.000000
O O12 0.292145 0.500000 0.500036
O O13 0.248510 0.426346 0.771329
O O14 0.299768 0.380013 0.414449
O O15 0.213797 0.434464 0.228801
O O16 0.324615 0.000000 0.187051
#
# Coordination Sequence:
#
# PCOD9180325 Si02
#       7
#     8   8   4   8   8   8   8
#     4  12  22  37  53  69  99 136 183 232 266 313
#     4  10  21  35  56  77 105 139 175 227 259 320
#     4  12  24  36  48  66  92 130 180 234 278 302
#     4  12  25  39  55  75 102 139 184 227 278 316
#     4  10  20  32  53  80 114 137 167 216 270 333
#     4  10  19  32  48  74 102 140 177 211 264 312
#     4  10  19  35  55  82 105 134 176 213 274 317
#
# _framework density 18.634284999999998
#
# number of rings (size 3 to 8) (size 9 to 14) (size 15 to 20)
#    0.000    1.231    0.769    7.385    0.000    2.462 
#    0.000    0.000    0.000    0.000    0.000    0.000 
#    0.000    3.692    0.000    0.000    0.000    0.000 
#
# Total GULP energy -145089.952884 kJ/mol
# GULP energy per Si atom -5580.382803 kJ/mol
# Density = 1.859187 g / cm^3
# Si number density = 18.634285 Si / 1000 Ang^3
#
#
#
# Elastic Constant Matrix: (Units=GPa)
#
#
# Indices 1 2 3 4 5 6 
#
# 1 50.9110 31.1593 7.2837 0.0000 6.9417 0.0000
# 2 31.1593 69.1879 -6.0402 0.0000 8.7554 0.0000
# 3 7.2837 -6.0402 74.7343 0.0000 -3.2533 0.0000
# 4 0.0000 0.0000 0.0000 21.3659 0.0000 2.9216
# 5 6.9417 8.7554 -3.2533 0.0000 27.2238 0.0000
# 6 0.0000 0.0000 0.0000 2.9216 0.0000 20.7965
#
#
#
# Elastic Compliance Matrix: (Units=1/GPa)
#
#
# Indices 1 2 3 4 5 6 
#
# 1 0.028488 -0.012714 -0.003963 0.000000 -0.003649 0.000000
# 2 -0.012714 0.020817 0.002786 0.000000 -0.003120 0.000000
# 3 -0.003963 0.002786 0.014070 0.000000 0.001796 0.000000
# 4 0.000000 0.000000 0.000000 0.047720 0.000000 -0.006704
# 5 -0.003649 -0.003120 0.001796 0.000000 0.038881 0.000000
# 6 0.000000 0.000000 0.000000 -0.006704 0.000000 0.049027
#
#
# Mechanical properties :
#
#
# Convention : Reuss Voigt Hill
#
# Bulk Modulus (GPa) = 28.09511 28.84875 28.47193
# Shear Modulus (GPa) = 20.95114 24.70594 22.82854
#
# Velocity S-wave (km/s) = 3.35674 3.64515 3.50392
# Velocity P-wave (km/s) = 5.48940 5.76466 5.62871
#
# Compressibility (1/GPa) = 0.03559338
#
# Stress axis : x y z
#
# Youngs Moduli (GPa) = 35.10249 48.03696 71.07169
#
# Poissons Ratio (x) = 0.61074 0.28165
# Poissons Ratio (y) = 0.44629 -0.19799
# Poissons Ratio (z) = 0.13911 -0.13382
#
# Static dielectric constant tensor:
#      x y z
#    x 1.663800 0.000000 -0.003570 
#    y 0.000000 1.562350 0.000000 
#    z -0.003570 0.000000 1.637740 
# 
# From -- ./inp_files/25468.got.cif
#   From: 2010.05.17/outbox.cif.g08.bks.cpg/sg12_13_cif.got.tgz:25468.got - 2010.06.03 13:09:07.
