data_PCOD9180327
_publ_section_title
;
Structure prediction by ZEFSAII (Michael W. Deem and Ramdas Pophale) SiO2 
 PCOD9180327
Probable space group: C 2/M
;
_chemical_formula_sum "Si O2"
_cell_formula_units_Z 56
_cell_length_a 20.998381
_cell_length_b 17.377117
_cell_length_c 9.322919
_cell_angle_alpha 90.000000
_cell_angle_beta 46.642973
_cell_angle_gamma 90.000000
_cell_volume 2473.452061
_symmetry_space_group_name_H-M "C 2/M"
_symmetry_group_IT_number 12
_symmetry_cell_setting 'monoclinic'
loop_
_space_group_symop_operation_xyz
x,y,z
-x,y,-z
-x,-y,-z
x,-y,z
1/2+x,1/2+y,z
1/2-x,1/2+y,-z
1/2-x,1/2-y,-z
1/2+x,1/2-y,z
loop_
_atom_site_type_symbol
_atom_site_label
_atom_site_fract_x
_atom_site_fract_y
_atom_site_fract_z
Si Si1 0.126521 0.731501 0.043600
Si Si2 0.897066 0.086218 0.179593
Si Si3 0.071468 0.754064 0.732056
Si Si4 0.538896 0.085715 0.289158
Si Si5 0.118408 0.414374 0.694679
Si Si6 0.257032 0.915648 0.754976
Si Si7 0.823728 0.260616 0.720797
O O1 0.103213 0.642991 0.111020
O O2 0.141454 0.769100 0.180393
O O3 0.034978 0.760714 0.113627
O O4 0.225406 0.733721 0.828320
O O5 0.885367 0.166807 0.279943
O O6 0.845723 0.095361 0.108566
O O7 0.871111 0.000000 0.276565
O O8 0.000000 0.081613 0.000000
O O9 0.100297 0.674615 0.771770
O O10 0.108522 0.746740 0.513058
O O11 0.500000 0.115626 0.500000
O O12 0.457400 0.079507 0.306948
O O13 0.572325 0.000000 0.261905
O O14 0.116462 0.500000 0.774871
O O15 0.206907 0.410821 0.464575
O O16 0.304878 0.851365 0.768834
O O17 0.274943 0.000000 0.781391
#
# Coordination Sequence:
#
# PCOD9180327 Si02
#       7
#     8   8   8   8   8   8   8
#     4  10  19  32  48  74 109 139 173 215 259 317
#     4  10  21  36  54  75  98 134 189 240 272 304
#     4  10  19  34  55  74 104 143 177 218 272 316
#     4   9  15  25  44  68  94 127 164 201 249 308
#     4   8  15  26  44  72  99 124 156 197 252 316
#     4   9  17  31  50  74 101 126 167 225 268 305
#     4  10  20  31  50  78 105 138 175 212 267 329
#
# _framework density 22.640422999999998
#
# number of rings (size 3 to 8) (size 9 to 14) (size 15 to 20)
#    0.000    2.571    0.000    3.857    0.000    4.000 
#    0.000    0.714    0.000    3.857    0.000    1.000 
#    0.000    0.000    0.000    0.000    0.000    0.000 
#
# Total GULP energy -155949.964370 kJ/mol
# GULP energy per Si atom -5569.641585 kJ/mol
# Density = 2.258889 g / cm^3
# Si number density = 22.640423 Si / 1000 Ang^3
#
#
#
# Elastic Constant Matrix: (Units=GPa)
#
#
# Indices 1 2 3 4 5 6 
#
# 1 83.8966 33.4855 3.7763 0.0000 -20.2213 0.0000
# 2 33.4855 156.9130 11.6604 0.0000 -0.2002 0.0000
# 3 3.7763 11.6604 71.2942 0.0000 -14.8177 0.0000
# 4 0.0000 0.0000 0.0000 18.3837 0.0000 4.7940
# 5 -20.2213 -0.2002 -14.8177 0.0000 32.4566 0.0000
# 6 0.0000 0.0000 0.0000 4.7940 0.0000 22.3488
#
#
#
# Elastic Compliance Matrix: (Units=1/GPa)
#
#
# Indices 1 2 3 4 5 6 
#
# 1 0.015817 -0.003508 0.001966 0.000000 0.010731 0.000000
# 2 -0.003508 0.007236 -0.001594 0.000000 -0.002869 0.000000
# 3 0.001966 -0.001594 0.015949 0.000000 0.008496 0.000000
# 4 0.000000 0.000000 0.000000 0.057619 0.000000 -0.012360
# 5 0.010731 -0.002869 0.008496 0.000000 0.041357 0.000000
# 6 0.000000 0.000000 0.000000 -0.012360 0.000000 0.047396
#
#
# Mechanical properties :
#
#
# Convention : Reuss Voigt Hill
#
# Bulk Modulus (GPa) = 30.55183 45.54978 38.05081
# Shear Modulus (GPa) = 24.68440 32.18325 28.43383
#
# Velocity S-wave (km/s) = 3.30552 3.77436 3.54770
# Velocity P-wave (km/s) = 5.30022 6.25755 5.79867
#
# Compressibility (1/GPa) = 0.03273126
#
# Stress axis : x y z
#
# Youngs Moduli (GPa) = 63.22151 138.19156 62.70065
#
# Poissons Ratio (x) = 0.48476 -0.12328
# Poissons Ratio (y) = 0.22177 0.09994
# Poissons Ratio (z) = -0.12430 0.22027
#
# Static dielectric constant tensor:
#      x y z
#    x 1.951290 0.000000 -0.068920 
#    y 0.000000 1.944820 0.000000 
#    z -0.068920 0.000000 1.925470 
# 
# From -- ./inp_files/177083.got.cif
#   From: 2010.05.17/outbox.cif.g08.bks.cpg/sg12_89_cif.got.tgz:177083.got - 2010.06.03 13:09:07.
