data_PCOD9180810
_publ_section_title
;
Structure prediction by ZEFSAII (Michael W. Deem and Ramdas Pophale) SiO2 
 PCOD9180810
Probable space group: C 2/M
;
_chemical_formula_sum "Si O2"
_cell_formula_units_Z 56
_cell_length_a 29.932080
_cell_length_b 7.651658
_cell_length_c 21.438263
_cell_angle_alpha 90.000000
_cell_angle_beta 148.097397
_cell_angle_gamma 90.000000
_cell_volume 2594.824884
_symmetry_space_group_name_H-M "C 2/M"
_symmetry_group_IT_number 12
_symmetry_cell_setting 'monoclinic'
loop_
_space_group_symop_operation_xyz
x,y,z
-x,y,-z
-x,-y,-z
x,-y,z
1/2+x,1/2+y,z
1/2-x,1/2+y,-z
1/2-x,1/2-y,-z
1/2+x,1/2-y,z
loop_
_atom_site_type_symbol
_atom_site_label
_atom_site_fract_x
_atom_site_fract_y
_atom_site_fract_z
Si Si1 0.629248 0.201132 0.558167
Si Si2 0.546567 0.211233 0.706700
Si Si3 0.833291 0.794195 0.263151
Si Si4 0.143612 0.713840 0.065696
Si Si5 0.163027 0.289732 0.362271
Si Si6 0.982333 0.286325 0.190348
Si Si7 0.318656 0.797739 0.754609
O O1 0.544672 0.273288 0.426750
O O2 0.621240 0.208016 0.623588
O O3 0.717342 0.291604 0.645043
O O4 0.638844 0.000000 0.549456
O O5 0.619015 0.264328 0.744662
O O6 0.556701 0.269376 0.789990
O O7 0.544106 0.000000 0.702994
O O8 0.735742 0.735612 0.148289
O O9 0.833337 0.000000 0.276678
O O10 0.141340 0.500000 0.064717
O O11 0.140715 0.776994 0.133907
O O12 0.070830 0.771640 0.932636
O O13 0.158319 0.500000 0.353105
O O14 0.250000 0.250000 0.500000
O O15 0.162283 0.220181 0.290420
O O16 0.079602 0.230081 0.299722
O O17 0.981069 0.500000 0.188684
O O18 0.345711 0.000000 0.784318
#
# Coordination Sequence:
#
# PCOD9180810 Si02
#       7
#     8   8   8   8   8   8   8
#     4  10  19  32  51  75 103 134 168 204 246 301
#     4  10  20  32  48  72 100 133 172 208 246 297
#     4  10  20  33  51  75 101 130 166 210 256 297
#     4   8  16  32  51  73 100 128 165 210 250 293
#     4  10  20  34  54  79 105 134 167 204 249 298
#     4   9  18  33  52  73 100 134 170 207 246 295
#     4   9  18  32  52  78 104 130 164 209 255 294
#
# _framework density 21.581416999999998
#
# number of rings (size 3 to 8) (size 9 to 14) (size 15 to 20)
#    0.000    2.571    0.000    3.000    0.000    5.714 
#    0.000    3.571    0.000    7.714    0.000    5.000 
#    0.000    0.000    0.000    0.000    0.000    0.000 
#
# Total GULP energy -156327.059518 kJ/mol
# GULP energy per Si atom -5583.109268 kJ/mol
# Density = 2.153230 g / cm^3
# Si number density = 21.581417 Si / 1000 Ang^3
#
#
#
# Elastic Constant Matrix: (Units=GPa)
#
#
# Indices 1 2 3 4 5 6 
#
# 1 90.4512 -8.1269 1.7987 0.0000 -21.8099 0.0000
# 2 -8.1269 41.1214 -3.2069 0.0000 -0.9259 0.0000
# 3 1.7987 -3.2069 82.3946 0.0000 -17.4540 0.0000
# 4 0.0000 0.0000 0.0000 14.6850 0.0000 1.6166
# 5 -21.8099 -0.9259 -17.4540 0.0000 19.3456 0.0000
# 6 0.0000 0.0000 0.0000 1.6166 0.0000 12.8838
#
#
#
# Elastic Compliance Matrix: (Units=1/GPa)
#
#
# Indices 1 2 3 4 5 6 
#
# 1 0.017096 0.004294 0.004847 0.000000 0.023852 0.000000
# 2 0.004294 0.025569 0.002703 0.000000 0.008503 0.000000
# 3 0.004847 0.002703 0.016468 0.000000 0.020452 0.000000
# 4 0.000000 0.000000 0.000000 0.069051 0.000000 -0.008664
# 5 0.023852 0.008503 0.020452 0.000000 0.097441 0.000000
# 6 0.000000 0.000000 0.000000 -0.008664 0.000000 0.078704
#
#
# Mechanical properties :
#
#
# Convention : Reuss Voigt Hill
#
# Bulk Modulus (GPa) = 12.07434 21.65524 16.86479
# Shear Modulus (GPa) = 16.22060 24.28302 20.25181
#
# Velocity S-wave (km/s) = 2.74451 3.35801 3.06664
# Velocity P-wave (km/s) = 3.95601 5.00909 4.51337
#
# Compressibility (1/GPa) = 0.08282026
#
# Stress axis : x y z
#
# Youngs Moduli (GPa) = 58.49162 39.10976 60.72212
#
# Poissons Ratio (x) = -0.16793 -0.29430
# Poissons Ratio (y) = -0.25115 -0.16411
# Poissons Ratio (z) = -0.28349 -0.10570
#
# Static dielectric constant tensor:
#      x y z
#    x 1.772920 0.000000 -0.015870 
#    y 0.000000 1.833870 0.000000 
#    z -0.015870 0.000000 1.757280 
# 
# From -- ./inp_files/329634.got.cif
#   From: 2010.05.17/outbox.cif.g08.bks.cpg/sg12_165_cif.got.tgz:329634.got - 2010.06.03 13:09:07.
