data_PCOD9180685
_publ_section_title
;
Structure prediction by ZEFSAII (Michael W. Deem and Ramdas Pophale) SiO2 
 PCOD9180685
Probable space group: C 2/M
;
_chemical_formula_sum "Si O2"
_cell_formula_units_Z 56
_cell_length_a 22.779407
_cell_length_b 14.985011
_cell_length_c 7.955031
_cell_angle_alpha 90.000000
_cell_angle_beta 65.272466
_cell_angle_gamma 90.000000
_cell_volume 2466.460380
_symmetry_space_group_name_H-M "C 2/M"
_symmetry_group_IT_number 12
_symmetry_cell_setting 'monoclinic'
loop_
_space_group_symop_operation_xyz
x,y,z
-x,y,-z
-x,-y,-z
x,-y,z
1/2+x,1/2+y,z
1/2-x,1/2+y,-z
1/2-x,1/2-y,-z
1/2+x,1/2-y,z
loop_
_atom_site_type_symbol
_atom_site_label
_atom_site_fract_x
_atom_site_fract_y
_atom_site_fract_z
Si Si1 0.110590 0.900667 0.465836
Si Si2 0.535629 0.102311 0.139977
Si Si3 0.644591 0.786122 0.847269
Si Si4 0.312788 0.102979 0.720525
Si Si5 0.575284 0.210874 0.566926
Si Si6 0.745588 0.396510 0.158601
Si Si7 0.321053 0.401433 0.251121
O O1 0.065862 0.813976 0.528708
O O2 0.169080 0.884885 0.265563
O O3 0.147658 0.902803 0.601947
O O4 0.082594 0.000000 0.473059
O O5 0.489459 0.155396 0.321852
O O6 0.547035 0.000000 0.177591
O O7 0.500000 0.099649 0.000000
O O8 0.600662 0.156104 0.024626
O O9 0.612725 0.792382 0.701875
O O10 0.715559 0.828437 0.771170
O O11 0.647971 0.681429 0.882931
O O12 0.373995 0.164512 0.617949
O O13 0.255981 0.113723 0.650677
O O14 0.334085 0.000000 0.689471
O O15 0.273843 0.118538 0.939379
O O16 0.759450 0.500000 0.188952
O O17 0.330664 0.500000 0.162615
#
# Coordination Sequence:
#
# PCOD9180685 Si02
#       7
#     8   8   8   8   8   8   8
#     4   9  18  32  49  71  99 128 159 197 240 286
#     4   9  18  32  50  72  96 123 159 201 240 281
#     4  10  19  32  51  72  95 128 166 199 236 284
#     4  10  20  32  48  73 102 129 158 196 243 290
#     4  10  19  32  51  72  95 128 166 199 236 284
#     4  10  20  32  48  73 102 129 158 196 243 290
#     4   9  18  32  49  71  99 128 159 197 240 286
#
# _framework density 22.704602000000001
#
# number of rings (size 3 to 8) (size 9 to 14) (size 15 to 20)
#    0.000    2.429    0.000    2.571    0.000    7.429 
#    0.000    1.429    0.000    6.857    0.000    0.000 
#    0.000    6.857    0.000    0.000    0.000    0.000 
#
# Total GULP energy -156518.802116 kJ/mol
# GULP energy per Si atom -5589.957218 kJ/mol
# Density = 2.265293 g / cm^3
# Si number density = 22.704602 Si / 1000 Ang^3
#
#
#
# Elastic Constant Matrix: (Units=GPa)
#
#
# Indices 1 2 3 4 5 6 
#
# 1 51.5900 27.3431 12.4308 0.0000 5.1532 0.0000
# 2 27.3431 179.2369 94.7805 0.0000 -23.6015 0.0000
# 3 12.4308 94.7805 74.8887 0.0000 -8.7757 0.0000
# 4 0.0000 0.0000 0.0000 27.8794 0.0000 -12.0036
# 5 5.1532 -23.6015 -8.7757 0.0000 22.4252 0.0000
# 6 0.0000 0.0000 0.0000 -12.0036 0.0000 5.5926
#
#
#
# Elastic Compliance Matrix: (Units=1/GPa)
#
#
# Indices 1 2 3 4 5 6 
#
# 1 0.023320 -0.006940 0.003593 0.000000 -0.011257 0.000000
# 2 -0.006940 0.021302 -0.024099 0.000000 0.014583 0.000000
# 3 0.003593 -0.024099 0.042119 0.000000 -0.009706 0.000000
# 4 0.000000 0.000000 0.000000 0.472637 0.000000 1.014433
# 5 -0.011257 0.014583 -0.009706 0.000000 0.058729 0.000000
# 6 0.000000 0.000000 0.000000 1.014433 0.000000 2.356113
#
#
# Mechanical properties :
#
#
# Convention : Reuss Voigt Hill
#
# Bulk Modulus (GPa) = 31.39696 63.86938 47.63317
# Shear Modulus (GPa) = 1.64488 22.59019 12.11754
#
# Velocity S-wave (km/s) = 0.85208 3.15772 2.31271
# Velocity P-wave (km/s) = 3.85052 6.44101 5.30628
#
# Compressibility (1/GPa) = 0.03185022
#
# Stress axis : x y z
#
# Youngs Moduli (GPa) = 42.88082 46.94451 23.74205
#
# Poissons Ratio (x) = 0.32580 -0.08531
# Poissons Ratio (y) = 0.29759 0.57216
# Poissons Ratio (z) = -0.15408 1.13131
#
# Static dielectric constant tensor:
#      x y z
#    x 1.846150 0.000000 0.045800 
#    y 0.000000 1.848450 0.000000 
#    z 0.045800 0.000000 1.833210 
# 
# From -- ./inp_files/96752.got.cif
#   From: 2010.05.17/outbox.cif.g08.bks.cpg/sg12_49_cif.got.tgz:96752.got - 2010.06.03 13:09:07.
