data_PCOD9180231
_publ_section_title
;
Structure prediction by ZEFSAII (Michael W. Deem and Ramdas Pophale) SiO2 
 PCOD9180231
Probable space group: C 2/M
;
_chemical_formula_sum "Si O2"
_cell_formula_units_Z 44
_cell_length_a 8.031483
_cell_length_b 24.596327
_cell_length_c 11.012727
_cell_angle_alpha 90.000000
_cell_angle_beta 105.130415
_cell_angle_gamma 90.000000
_cell_volume 2100.093218
_symmetry_space_group_name_H-M "C 2/M"
_symmetry_group_IT_number 12
_symmetry_cell_setting 'monoclinic'
loop_
_space_group_symop_operation_xyz
x,y,z
-x,y,-z
-x,-y,-z
x,-y,z
1/2+x,1/2+y,z
1/2-x,1/2+y,-z
1/2-x,1/2-y,-z
1/2+x,1/2-y,z
loop_
_atom_site_type_symbol
_atom_site_label
_atom_site_fract_x
_atom_site_fract_y
_atom_site_fract_z
Si Si1 0.171659 0.675162 0.792860
Si Si2 0.160361 0.405914 0.601946
Si Si3 0.636439 0.211648 0.138370
Si Si4 0.471197 0.000000 0.245440
Si Si5 0.805596 0.000000 0.023275
Si Si6 0.821810 0.120405 0.041189
Si Si7 0.702907 0.500000 0.543068
O O1 0.243817 0.643249 0.690610
O O2 0.279707 0.729499 0.834796
O O3 0.972285 0.693425 0.764494
O O4 0.187279 0.633284 0.908283
O O5 0.093556 0.447546 0.692208
O O6 0.249996 0.445787 0.524133
O O7 0.000000 0.381328 0.500000
O O8 0.779824 0.166695 0.130707
O O9 0.500000 0.215488 0.000000
O O10 0.678466 0.000000 0.312195
O O11 0.360234 0.000000 0.099997
O O12 0.801379 0.940942 0.085384
O O13 0.000000 0.000000 0.000000
O O14 0.000000 0.125832 0.000000
O O15 0.500000 0.500000 0.500000
#
# Coordination Sequence:
#
# PCOD9180231 Si02
#       7
#     8   8   8   4   4   8   4
#     4  11  19  36  59  78 112 150 212 242 305 353
#     4   9  19  36  63  84 112 156 194 247 312 360
#     4  10  21  35  55  80 110 162 205 247 292 363
#     4   9  16  37  59  86 119 159 187 238 308 355
#     4  10  19  31  58  90 124 153 196 242 294 363
#     4  10  19  34  55  82 119 154 201 244 294 360
#     4   9  19  38  67  93 121 152 206 249 298 376
#
# _framework density 20.951450000000001
#
# number of rings (size 3 to 8) (size 9 to 14) (size 15 to 20)
#    0.000    2.182    1.818    4.909    0.000    0.000 
#    0.000   14.091    4.000    0.000    0.000    0.000 
#    0.000    0.000    0.000    0.000    0.000    0.000 
#
# Total GULP energy -122482.491649 kJ/mol
# GULP energy per Si atom -5567.385984 kJ/mol
# Density = 2.090376 g / cm^3
# Si number density = 20.951450 Si / 1000 Ang^3
#
#
#
# Elastic Constant Matrix: (Units=GPa)
#
#
# Indices 1 2 3 4 5 6 
#
# 1 89.2511 38.8508 24.4999 0.0000 12.9343 0.0000
# 2 38.8508 170.1312 29.6892 0.0000 2.4454 0.0000
# 3 24.4999 29.6892 37.7499 0.0000 3.5133 0.0000
# 4 0.0000 0.0000 0.0000 27.0631 0.0000 -1.8351
# 5 12.9343 2.4454 3.5133 0.0000 16.0713 0.0000
# 6 0.0000 0.0000 0.0000 -1.8351 0.0000 7.0089
#
#
#
# Elastic Compliance Matrix: (Units=1/GPa)
#
#
# Indices 1 2 3 4 5 6 
#
# 1 0.015755 -0.002125 -0.007558 0.000000 -0.010704 0.000000
# 2 -0.002125 0.007100 -0.004352 0.000000 0.001581 0.000000
# 3 -0.007558 -0.004352 0.034900 0.000000 -0.000885 0.000000
# 4 0.000000 0.000000 0.000000 0.037619 0.000000 0.009850
# 5 -0.010704 0.001581 -0.000885 0.000000 0.070790 0.000000
# 6 0.000000 0.000000 0.000000 0.009850 0.000000 0.145255
#
#
# Mechanical properties :
#
#
# Convention : Reuss Voigt Hill
#
# Bulk Modulus (GPa) = 33.68594 53.69023 43.68809
# Shear Modulus (GPa) = 14.31092 23.63481 18.97286
#
# Velocity S-wave (km/s) = 2.61636 3.36233 3.01252
# Velocity P-wave (km/s) = 5.02396 6.38399 5.74436
#
# Compressibility (1/GPa) = 0.02968598
#
# Stress axis : x y z
#
# Youngs Moduli (GPa) = 63.47070 140.84930 28.65330
#
# Poissons Ratio (x) = 0.29932 0.21655
# Poissons Ratio (y) = 0.13488 0.12469
# Poissons Ratio (z) = 0.47969 0.61294
#
# Static dielectric constant tensor:
#      x y z
#    x 1.892470 0.000000 0.003910 
#    y 0.000000 5.122670 0.000000 
#    z 0.003910 0.000000 1.803280 
# 
# From -- ./inp_files/122692.got.cif
#   From: 2010.05.17/outbox.cif.g08.bks.cpg/sg12_62_cif.got.tgz:122692.got - 2010.06.03 13:09:07.
