data_PCOD9180490
_publ_section_title
;
Structure prediction by ZEFSAII (Michael W. Deem and Ramdas Pophale) SiO2 
 PCOD9180490
Probable space group: C 2/M
;
_chemical_formula_sum "Si O2"
_cell_formula_units_Z 64
_cell_length_a 14.982430
_cell_length_b 7.414496
_cell_length_c 26.713044
_cell_angle_alpha 90.000000
_cell_angle_beta 94.862857
_cell_angle_gamma 90.000000
_cell_volume 2956.794838
_symmetry_space_group_name_H-M "C 2/M"
_symmetry_group_IT_number 12
_symmetry_cell_setting 'monoclinic'
loop_
_space_group_symop_operation_xyz
x,y,z
-x,y,-z
-x,-y,-z
x,-y,z
1/2+x,1/2+y,z
1/2-x,1/2+y,-z
1/2-x,1/2-y,-z
1/2+x,1/2-y,z
loop_
_atom_site_type_symbol
_atom_site_label
_atom_site_fract_x
_atom_site_fract_y
_atom_site_fract_z
Si Si1 0.895093 0.282265 0.988956
Si Si2 0.343605 0.212592 0.358509
Si Si3 0.987344 0.717838 0.286630
Si Si4 0.354979 0.713034 0.629082
Si Si5 0.476917 0.220969 0.823467
Si Si6 0.500848 0.281815 0.442885
Si Si7 0.183589 0.717659 0.120200
Si Si8 0.127936 0.709846 0.904218
O O1 0.886625 0.500000 0.985482
O O2 0.856204 0.214880 0.934815
O O3 0.852297 0.216432 0.039205
O O4 0.000000 0.240575 0.000000
O O5 0.401818 0.285286 0.314394
O O6 0.244389 0.287166 0.364817
O O7 0.410720 0.232005 0.408696
O O8 0.331576 0.000000 0.348015
O O9 0.982295 0.500000 0.285738
O O10 0.077779 0.764792 0.320995
O O11 0.994479 0.781486 0.230029
O O12 0.343442 0.500000 0.619079
O O13 0.413165 0.784380 0.584867
O O14 0.378389 0.275045 0.836882
O O15 0.544165 0.284936 0.870078
O O16 0.479988 0.000000 0.823067
O O17 0.500000 0.219557 0.500000
O O18 0.504343 0.500000 0.443229
O O19 0.181962 0.500000 0.119278
O O20 0.285611 0.775983 0.126070
O O21 0.106166 0.500000 0.911721
#
# Coordination Sequence:
#
# PCOD9180490 Si02
#       8
#     8   8   8   8   8   8   8   8
#     4   9  15  28  51  71  90 124 162 189 225 287
#     4   9  18  32  50  71  96 127 163 201 240 282
#     4   9  18  33  51  70  92 122 163 204 237 279
#     4   9  18  33  51  72  99 130 161 197 244 286
#     4   9  18  33  51  69  93 126 160 193 235 291
#     4   9  18  32  49  72 103 134 163 196 235 282
#     4  10  19  32  50  71  95 123 156 194 236 284
#     4  10  19  32  51  73  95 123 159 195 235 286
#
# _framework density 21.645059
#
# number of rings (size 3 to 8) (size 9 to 14) (size 15 to 20)
#    0.000    2.750    1.250    0.375    0.000    2.250 
#    0.000    3.125    0.000    0.750    0.000    0.000 
#    0.000    0.000    0.000    0.000    0.000    0.000 
#
# Total GULP energy -178564.129531 kJ/mol
# GULP energy per Si atom -5580.129048 kJ/mol
# Density = 2.159579 g / cm^3
# Si number density = 21.645059 Si / 1000 Ang^3
#
#
#
# Elastic Constant Matrix: (Units=GPa)
#
#
# Indices 1 2 3 4 5 6 
#
# 1 149.7130 5.3250 43.7398 0.0000 -15.5764 0.0000
# 2 5.3250 64.2719 -1.2666 0.0000 -4.2086 0.0000
# 3 43.7398 -1.2666 90.5681 0.0000 -32.8027 0.0000
# 4 0.0000 0.0000 0.0000 -4.2723 0.0000 -6.7036
# 5 -15.5764 -4.2086 -32.8027 0.0000 20.6871 0.0000
# 6 0.0000 0.0000 0.0000 -6.7036 0.0000 -15.2895
#
#
#
# Elastic Compliance Matrix: (Units=1/GPa)
#
#
# Indices 1 2 3 4 5 6 
#
# 1 0.007814 -0.000769 -0.004017 0.000000 -0.000643 0.000000
# 2 -0.000769 0.016262 0.003729 0.000000 0.008642 0.000000
# 3 -0.004017 0.003729 0.028690 0.000000 0.043226 0.000000
# 4 0.000000 0.000000 0.000000 -0.750125 0.000000 0.328888
# 5 -0.000643 0.008642 0.043226 0.000000 0.118155 0.000000
# 6 0.000000 0.000000 0.000000 0.328888 0.000000 -0.209604
#
#
# Mechanical properties :
#
#
# Convention : Reuss Voigt Hill
#
# Bulk Modulus (GPa) = 19.74306 44.46105 32.10206
# Shear Modulus (GPa) = -6.49510 17.34204 5.42347
#
# Velocity S-wave (km/s) = -1.73414 2.83362 1.58464
# Velocity P-wave (km/s) = 2.26526 5.59387 4.26748
#
# Compressibility (1/GPa) = 0.05065070
#
# Stress axis : x y z
#
# Youngs Moduli (GPa) = 127.98303 61.49321 34.85588
#
# Poissons Ratio (x) = 0.04727 0.14002
# Poissons Ratio (y) = 0.09837 -0.12997
# Poissons Ratio (z) = 0.51414 -0.22929
#
# Static dielectric constant tensor:
#      x y z
#    x 1.786780 0.000000 -0.034540 
#    y 0.000000 1.819380 0.000000 
#    z -0.034540 0.000000 1.759880 
# 
# From -- ./inp_files/335280.got.cif
#   From: 2010.05.17/outbox.cif.g08.bks.cpg/sg12_168_cif.got.tgz:335280.got - 2010.06.03 13:09:07.
