data_PCOD9180746
_publ_section_title
;
Structure prediction by ZEFSAII (Michael W. Deem and Ramdas Pophale) SiO2 
 PCOD9180746
Probable space group: C 2/M
;
_chemical_formula_sum "Si O2"
_cell_formula_units_Z 56
_cell_length_a 14.692982
_cell_length_b 7.730262
_cell_length_c 28.851281
_cell_angle_alpha 90.000000
_cell_angle_beta 121.265607
_cell_angle_gamma 90.000000
_cell_volume 2801.036709
_symmetry_space_group_name_H-M "C 2/M"
_symmetry_group_IT_number 12
_symmetry_cell_setting 'monoclinic'
loop_
_space_group_symop_operation_xyz
x,y,z
-x,y,-z
-x,-y,-z
x,-y,z
1/2+x,1/2+y,z
1/2-x,1/2+y,-z
1/2-x,1/2-y,-z
1/2+x,1/2-y,z
loop_
_atom_site_type_symbol
_atom_site_label
_atom_site_fract_x
_atom_site_fract_y
_atom_site_fract_z
Si Si1 0.450639 0.205791 0.439674
Si Si2 0.917056 0.210141 0.050442
Si Si3 0.354368 0.298961 0.857475
Si Si4 0.230324 0.703258 0.069906
Si Si5 0.729089 0.206979 0.736446
Si Si6 0.504906 0.212410 0.352020
Si Si7 0.212481 0.292982 0.351324
O O1 0.500000 0.278425 0.500000
O O2 0.500732 0.270936 0.404560
O O3 0.323913 0.232487 0.402802
O O4 0.470145 0.000000 0.444879
O O5 0.828513 0.266310 0.064511
O O6 0.032036 0.275787 0.096656
O O7 0.918260 0.000000 0.049099
O O8 0.874367 0.268071 0.989216
O O9 0.375931 0.500000 0.852116
O O10 0.281079 0.289722 0.883483
O O11 0.296035 0.221970 0.797343
O O12 0.244475 0.500000 0.081291
O O13 0.607121 0.269993 0.700121
O O14 0.784503 0.239692 0.701718
O O15 0.721231 0.000000 0.740416
O O16 0.608726 0.270053 0.351503
O O17 0.504698 0.000000 0.352030
O O18 0.211910 0.500000 0.352832
#
# Coordination Sequence:
#
# PCOD9180746 Si02
#       7
#     8   8   8   8   8   8   8
#     4   9  18  34  54  75 102 136 170 200 235 289
#     4   9  19  35  51  70  99 131 162 199 246 298
#     4  10  20  34  53  73  95 128 165 202 246 294
#     4  10  20  33  50  73 100 128 160 202 249 297
#     4   9  19  36  53  70  96 131 169 202 239 296
#     4   8  16  32  51  71  99 132 162 198 245 289
#     4  10  19  32  51  74 101 131 162 203 250 285
#
# _framework density 19.992598999999998
#
# number of rings (size 3 to 8) (size 9 to 14) (size 15 to 20)
#    0.000    2.714    0.000    2.143    0.000    5.429 
#    0.000    5.714    0.000    0.000    0.000    0.000 
#    0.000    0.000    0.000    0.000    0.000    0.000 
#
# Total GULP energy -156203.636357 kJ/mol
# GULP energy per Si atom -5578.701298 kJ/mol
# Density = 1.994709 g / cm^3
# Si number density = 19.992599 Si / 1000 Ang^3
#
#
#
# Elastic Constant Matrix: (Units=GPa)
#
#
# Indices 1 2 3 4 5 6 
#
# 1 140.9015 -0.7892 94.3963 0.0000 27.3608 0.0000
# 2 -0.7892 36.1563 30.5575 0.0000 43.4681 0.0000
# 3 94.3963 30.5575 225.8776 0.0000 67.7059 0.0000
# 4 0.0000 0.0000 0.0000 13.6027 0.0000 -2.2086
# 5 27.3608 43.4681 67.7059 0.0000 126.5483 0.0000
# 6 0.0000 0.0000 0.0000 -2.2086 0.0000 21.1283
#
#
#
# Elastic Compliance Matrix: (Units=1/GPa)
#
#
# Indices 1 2 3 4 5 6 
#
# 1 0.010747 0.006803 -0.004781 0.000000 -0.002102 0.000000
# 2 0.006803 0.052052 -0.004865 0.000000 -0.016747 0.000000
# 3 -0.004781 -0.004865 0.007471 0.000000 -0.001292 0.000000
# 4 0.000000 0.000000 0.000000 0.074784 0.000000 0.007818
# 5 -0.002102 -0.016747 -0.001292 0.000000 0.014801 0.000000
# 6 0.000000 0.000000 0.000000 0.007818 0.000000 0.048147
#
#
# Mechanical properties :
#
#
# Convention : Reuss Voigt Hill
#
# Bulk Modulus (GPa) = 15.48406 72.36272 43.92339
# Shear Modulus (GPa) = 21.25715 50.84060 36.04887
#
# Velocity S-wave (km/s) = 3.26429 5.04826 4.25091
# Velocity P-wave (km/s) = 4.68713 8.38172 6.79052
#
# Compressibility (1/GPa) = 0.06458256
#
# Stress axis : x y z
#
# Youngs Moduli (GPa) = 93.05192 19.21166 133.85426
#
# Poissons Ratio (x) = -0.13069 0.64000
# Poissons Ratio (y) = -0.63300 0.65116
# Poissons Ratio (z) = 0.44491 0.09346
#
# Static dielectric constant tensor:
#      x y z
#    x 1.694230 0.000000 0.008060 
#    y 0.000000 1.748700 0.000000 
#    z 0.008060 0.000000 1.712860 
# 
# From -- ./inp_files/360041.got.cif
#   From: 2010.05.17/outbox.cif.g08.bks.cpg/sg12_181_cif.got.tgz:360041.got - 2010.06.03 13:09:07.
