data_PCOD9180416
_publ_section_title
;
Structure prediction by ZEFSAII (Michael W. Deem and Ramdas Pophale) SiO2 
 PCOD9180416
Probable space group: C 2/M
;
_chemical_formula_sum "Si O2"
_cell_formula_units_Z 56
_cell_length_a 16.722077
_cell_length_b 27.928217
_cell_length_c 17.851755
_cell_angle_alpha 90.000000
_cell_angle_beta 156.308506
_cell_angle_gamma 90.000000
_cell_volume 3349.940331
_symmetry_space_group_name_H-M "C 2/M"
_symmetry_group_IT_number 12
_symmetry_cell_setting 'monoclinic'
loop_
_space_group_symop_operation_xyz
x,y,z
-x,y,-z
-x,-y,-z
x,-y,z
1/2+x,1/2+y,z
1/2-x,1/2+y,-z
1/2-x,1/2-y,-z
1/2+x,1/2-y,z
loop_
_atom_site_type_symbol
_atom_site_label
_atom_site_fract_x
_atom_site_fract_y
_atom_site_fract_z
Si Si1 0.296713 0.661129 0.787247
Si Si2 0.273979 0.000000 0.201308
Si Si3 0.762888 0.500000 0.375489
Si Si4 0.909365 0.299081 0.001744
Si Si5 0.829109 0.230057 0.678209
Si Si6 0.193718 0.165146 0.949387
Si Si7 0.487678 0.579078 0.110962
Si Si8 0.093179 0.285977 0.733980
O O1 0.262838 0.695064 0.688829
O O2 0.132125 0.670436 0.708513
O O3 0.500000 0.678402 0.000000
O O4 0.359676 0.609323 0.810701
O O5 0.252687 0.000000 0.274138
O O6 0.514428 0.000000 0.401608
O O7 0.164359 0.045546 0.067394
O O8 0.631836 0.545879 0.283643
O O9 0.750243 0.256180 0.851080
O O10 0.791982 0.337539 0.952080
O O11 0.000000 0.314373 0.000000
O O12 0.079354 0.275677 0.200726
O O13 0.626954 0.234631 0.459115
O O14 0.003269 0.200711 0.785809
O O15 0.127230 0.117230 0.935715
O O16 0.348811 0.192241 0.136666
#
# Coordination Sequence:
#
# PCOD9180416 Si02
#       8
#     8   4   4   8   8   8   8   8
#     4  11  16  30  49  75 102 141 175 206 243 285
#     4  10  21  35  56  77 103 139 158 196 251 314
#     4  10  21  35  52  81 103 131 166 192 250 313
#     4  11  21  37  49  68 101 134 176 223 264 294
#     4  10  19  32  49  72  98 136 179 215 251 292
#     4  10  23  34  50  74  99 133 173 219 257 296
#     4  10  20  36  50  72 110 132 167 207 245 299
#     4  11  19  32  51  71 100 139 180 214 251 291
#
# _framework density 16.716716000000002
#
# number of rings (size 3 to 8) (size 9 to 14) (size 15 to 20)
#    0.000    1.571    5.714    3.857    0.000    4.571 
#    7.714    0.000    0.000    0.000    0.000    2.000 
#    0.000    1.143    0.000    0.000    0.000    0.000 
#
# Total GULP energy -156050.364548 kJ/mol
# GULP energy per Si atom -5573.227305 kJ/mol
# Density = 1.667867 g / cm^3
# Si number density = 16.716716 Si / 1000 Ang^3
#
#
#
# Elastic Constant Matrix: (Units=GPa)
#
#
# Indices 1 2 3 4 5 6 
#
# 1 106.7709 32.1261 18.4201 0.0003 18.8083 0.0000
# 2 32.1261 66.1877 20.3013 0.0001 -2.1829 0.0000
# 3 18.4201 20.3013 117.6935 0.0012 -0.8700 0.0003
# 4 0.0003 0.0001 0.0012 5.9075 0.0003 0.3398
# 5 18.8083 -2.1829 -0.8700 0.0003 9.8052 0.0000
# 6 0.0000 0.0000 0.0003 0.3398 0.0000 19.0128
#
#
#
# Elastic Compliance Matrix: (Units=1/GPa)
#
#
# Indices 1 2 3 4 5 6 
#
# 1 0.020040 -0.010582 -0.001614 0.000001 -0.040940 0.000000
# 2 -0.010582 0.021649 -0.001894 -0.000001 0.024950 0.000000
# 3 -0.001614 -0.001894 0.009102 -0.000002 0.003481 0.000000
# 4 0.000001 -0.000001 -0.000002 0.169450 -0.000008 -0.003029
# 5 -0.040940 0.024950 0.003481 -0.000008 0.186380 0.000000
# 6 0.000000 0.000000 0.000000 -0.003029 0.000000 0.052650
#
#
# Mechanical properties :
#
#
# Convention : Reuss Voigt Hill
#
# Bulk Modulus (GPa) = 44.22599 48.03857 46.13228
# Shear Modulus (GPa) = 10.10128 21.59875 15.85002
#
# Velocity S-wave (km/s) = 2.46084 3.59840 3.08255
# Velocity P-wave (km/s) = 5.88115 6.78704 6.35027
#
# Compressibility (1/GPa) = 0.02261114
#
# Stress axis : x y z
#
# Youngs Moduli (GPa) = 49.90001 46.19225 109.87119
#
# Poissons Ratio (x) = 0.48882 0.17730
# Poissons Ratio (y) = 0.52806 0.20805
# Poissons Ratio (z) = 0.08052 0.08747
#
# Static dielectric constant tensor:
#      x y z
#    x 1.618420 0.000000 -0.004920 
#    y 0.000000 1.597410 0.000000 
#    z -0.004920 0.000000 1.603960 
# 
# From -- ./inp_files/318552.got.cif
#   From: 2010.05.17/outbox.cif.g08.bks.cpg/sg12_160_cif.got.tgz:318552.got - 2010.06.03 13:09:07.
