data_PCOD9180044
_publ_section_title
;
Structure prediction by ZEFSAII (Michael W. Deem and Ramdas Pophale) SiO2 
 PCOD9180044
Probable space group: C 2/M
;
_chemical_formula_sum "Si O2"
_cell_formula_units_Z 64
_cell_length_a 20.929050
_cell_length_b 9.022297
_cell_length_c 33.171564
_cell_angle_alpha 90.000000
_cell_angle_beta 143.524838
_cell_angle_gamma 90.000000
_cell_volume 3723.622403
_symmetry_space_group_name_H-M "C 2/M"
_symmetry_group_IT_number 12
_symmetry_cell_setting 'monoclinic'
loop_
_space_group_symop_operation_xyz
x,y,z
-x,y,-z
-x,-y,-z
x,-y,z
1/2+x,1/2+y,z
1/2-x,1/2+y,-z
1/2-x,1/2-y,-z
1/2+x,1/2-y,z
loop_
_atom_site_type_symbol
_atom_site_label
_atom_site_fract_x
_atom_site_fract_y
_atom_site_fract_z
Si Si1 0.133978 0.677993 0.211271
Si Si2 0.879446 0.322122 0.701869
Si Si3 0.621940 0.822414 0.797260
Si Si4 0.917194 0.176130 0.073735
Si Si5 0.913875 0.177179 0.572613
Si Si6 0.241147 0.823662 0.931159
Si Si7 0.644717 0.321926 0.721733
Si Si8 0.242721 0.823564 0.431855
O O1 0.116954 0.500000 0.200875
O O2 0.135213 0.720769 0.259010
O O3 0.247008 0.711852 0.247574
O O4 0.034998 0.757670 0.139355
O O5 0.868138 0.500000 0.693181
O O6 0.795715 0.246605 0.629319
O O7 0.000204 0.283295 0.748988
O O8 0.702268 0.751538 0.870450
O O9 0.642241 0.758870 0.763282
O O10 0.631420 0.000000 0.802564
O O11 0.850065 0.204663 0.080951
O O12 0.920125 0.000000 0.068875
O O13 0.849804 0.254221 0.004215
O O14 0.847885 0.212570 0.580148
O O15 0.852837 0.258104 0.505477
O O16 0.037380 0.218542 0.642454
O O17 0.906743 0.000000 0.562915
O O18 0.251853 0.000000 0.931804
O O19 0.640007 0.500000 0.726026
O O20 0.249190 0.000000 0.431871
#
# Coordination Sequence:
#
# PCOD9180044 Si02
#       8
#     8   8   8   8   8   8   8   8
#     4  10  21  38  58  80 111 149 185 221 269 331
#     4  10  20  34  54  81 110 142 181 224 269 321
#     4  11  21  34  56  84 113 142 180 230 275 319
#     4  10  20  34  55  83 114 145 180 226 276 321
#     4   9  18  33  52  77 108 140 179 224 271 324
#     4  10  20  34  56  83 112 145 183 226 271 323
#     4  10  21  38  58  80 110 148 185 223 271 330
#     4  10  19  31  53  81 107 138 179 229 275 317
#
# _framework density 17.187563999999998
#
# number of rings (size 3 to 8) (size 9 to 14) (size 15 to 20)
#    0.000    2.000    2.500    1.500    0.000    3.500 
#    0.000    1.250    0.000    7.500    0.000    0.000 
#    0.000    0.000    0.000    0.000    0.000    0.000 
#
# Total GULP energy -178656.071002 kJ/mol
# GULP energy per Si atom -5583.002219 kJ/mol
# Density = 1.714844 g / cm^3
# Si number density = 17.187564 Si / 1000 Ang^3
#
#
#
# Elastic Constant Matrix: (Units=GPa)
#
#
# Indices 1 2 3 4 5 6 
#
# 1 98.5351 47.5396 77.9701 0.0000 1.1819 0.0001
# 2 47.5396 39.5028 68.2052 -0.0001 1.8105 0.0002
# 3 77.9701 68.2052 192.8123 0.0000 0.1353 0.0000
# 4 0.0000 -0.0001 0.0000 33.9005 0.0000 -2.9525
# 5 1.1819 1.8105 0.1353 0.0000 24.8736 0.0000
# 6 0.0001 0.0002 0.0000 -2.9525 0.0000 22.3111
#
#
#
# Elastic Compliance Matrix: (Units=1/GPa)
#
#
# Indices 1 2 3 4 5 6 
#
# 1 0.024364 -0.031757 0.001380 0.000000 0.001146 0.000000
# 2 -0.031757 0.106962 -0.024990 0.000000 -0.006141 -0.000001
# 3 0.001380 -0.024990 0.013467 0.000000 0.001680 0.000000
# 4 0.000000 0.000000 0.000000 0.029842 0.000000 0.003949
# 5 0.001146 -0.006141 0.001680 0.000000 0.040587 0.000000
# 6 0.000000 -0.000001 0.000000 0.003949 0.000000 0.045343
#
#
# Mechanical properties :
#
#
# Convention : Reuss Voigt Hill
#
# Bulk Modulus (GPa) = 29.36040 79.80889 54.58464
# Shear Modulus (GPa) = 13.06667 25.35937 19.21302
#
# Velocity S-wave (km/s) = 2.76024 3.84532 3.34705
# Velocity P-wave (km/s) = 5.22283 8.13943 6.83843
#
# Compressibility (1/GPa) = 0.03405948
#
# Stress axis : x y z
#
# Youngs Moduli (GPa) = 41.04370 9.34909 74.25532
#
# Poissons Ratio (x) = 0.29690 -0.10250
# Poissons Ratio (y) = 1.30343 1.85567
# Poissons Ratio (z) = -0.05666 0.23364
#
# Static dielectric constant tensor:
#      x y z
#    x 1.564000 0.000000 0.006530 
#    y 0.000000 1.570000 0.000000 
#    z 0.006530 0.000000 1.560240 
# 
# From -- ./inp_files/378270.got.cif
#   From: 2010.05.17/outbox.cif.g08.bks.cpg/sg12_190_cif.got.tgz:378270.got - 2010.06.03 13:09:07.
