data_PCOD9180026
_publ_section_title
;
Structure prediction by ZEFSAII (Michael W. Deem and Ramdas Pophale) SiO2 
 PCOD9180026
Probable space group: C 2/M
;
_chemical_formula_sum "Si O2"
_cell_formula_units_Z 64
_cell_length_a 32.631731
_cell_length_b 7.423374
_cell_length_c 15.564906
_cell_angle_alpha 90.000000
_cell_angle_beta 133.884408
_cell_angle_gamma 90.000000
_cell_volume 2717.480584
_symmetry_space_group_name_H-M "C 2/M"
_symmetry_group_IT_number 12
_symmetry_cell_setting 'monoclinic'
loop_
_space_group_symop_operation_xyz
x,y,z
-x,y,-z
-x,-y,-z
x,-y,z
1/2+x,1/2+y,z
1/2-x,1/2+y,-z
1/2-x,1/2-y,-z
1/2+x,1/2-y,z
loop_
_atom_site_type_symbol
_atom_site_label
_atom_site_fract_x
_atom_site_fract_y
_atom_site_fract_z
Si Si1 0.438432 0.780613 0.878306
Si Si2 0.694160 0.716380 0.089950
Si Si3 0.362197 0.219499 0.443974
Si Si4 0.395275 0.214197 0.170230
Si Si5 0.010801 0.719607 0.416750
Si Si6 0.144299 0.289565 0.379065
Si Si7 0.683849 0.296563 0.258572
Si Si8 0.307410 0.780250 0.184823
O O1 0.415664 0.724079 0.750222
O O2 0.384924 0.711094 0.855638
O O3 0.437514 0.000000 0.880100
O O4 0.500000 0.721740 0.000000
O O5 0.698589 0.500000 0.102639
O O6 0.706391 0.787543 0.203645
O O7 0.741932 0.779692 0.091898
O O8 0.632528 0.756775 0.962529
O O9 0.427930 0.273991 0.528993
O O10 0.340378 0.284098 0.505427
O O11 0.330714 0.275382 0.311975
O O12 0.358726 0.000000 0.436686
O O13 0.458099 0.281645 0.282197
O O14 0.350151 0.286932 0.174385
O O15 0.398255 0.000000 0.187624
O O16 0.011934 0.500000 0.418794
O O17 0.000000 0.773869 0.500000
O O18 0.135909 0.500000 0.380688
O O19 0.312549 0.226631 0.638737
O O20 0.705336 0.500000 0.294249
O O21 0.308022 0.000000 0.180991
#
# Coordination Sequence:
#
# PCOD9180026 Si02
#       8
#     8   8   8   8   8   8   8   8
#     4   8  15  28  47  69  94 121 155 203 252 289
#     4  10  21  35  50  71 102 138 173 205 248 298
#     4   9  15  27  50  76 103 130 162 203 254 302
#     4  10  19  31  53  80 102 129 167 209 254 297
#     4   9  15  26  47  79 109 125 152 207 256 294
#     4   8  16  29  46  69  95 124 159 203 246 289
#     4   9  18  32  47  64  95 133 166 203 241 289
#     4   9  17  31  51  75 101 132 169 209 249 300
#
# _framework density 23.551227000000001
#
# number of rings (size 3 to 8) (size 9 to 14) (size 15 to 20)
#    0.750    2.250    1.250    0.375    0.000    2.250 
#    0.000    3.125    0.000    1.875    0.000    0.000 
#    0.000    0.000    0.000    0.000    0.000    0.000 
#
# Total GULP energy -178279.235748 kJ/mol
# GULP energy per Si atom -5571.226117 kJ/mol
# Density = 2.349762 g / cm^3
# Si number density = 23.551227 Si / 1000 Ang^3
#
#
#
# Elastic Constant Matrix: (Units=GPa)
#
#
# Indices 1 2 3 4 5 6 
#
# 1 65.4070 -12.2421 17.0488 0.0000 -17.0987 0.0000
# 2 -12.2421 68.4364 -5.9730 0.0000 -0.2532 0.0000
# 3 17.0488 -5.9730 103.2878 0.0000 -8.5602 0.0000
# 4 0.0000 0.0000 0.0000 -36.2975 0.0000 13.0907
# 5 -17.0987 -0.2532 -8.5602 0.0000 39.0306 0.0000
# 6 0.0000 0.0000 0.0000 13.0907 0.0000 0.6050
#
#
#
# Elastic Compliance Matrix: (Units=1/GPa)
#
#
# Indices 1 2 3 4 5 6 
#
# 1 0.018447 0.003133 -0.002233 0.000000 0.007612 0.000000
# 2 0.003133 0.015222 0.000494 0.000000 0.001580 0.000000
# 3 -0.002233 0.000494 0.010183 0.000000 0.001258 0.000000
# 4 0.000000 0.000000 0.000000 -0.003129 0.000000 0.067713
# 5 0.007612 0.001580 0.001258 0.000000 0.029242 0.000000
# 6 0.000000 0.000000 0.000000 0.067713 0.000000 0.187752
#
#
# Mechanical properties :
#
#
# Convention : Reuss Voigt Hill
#
# Bulk Modulus (GPa) = 21.44058 26.08875 23.76467
# Shear Modulus (GPa) = 18.48603 16.55413 17.52008
#
# Velocity S-wave (km/s) = 2.80470 2.65410 2.73044
# Velocity P-wave (km/s) = 4.42854 4.52701 4.47805
#
# Compressibility (1/GPa) = 0.04664052
#
# Stress axis : x y z
#
# Youngs Moduli (GPa) = 54.20853 65.69637 98.20189
#
# Poissons Ratio (x) = -0.20584 0.21927
# Poissons Ratio (y) = -0.16985 -0.04851
# Poissons Ratio (z) = 0.12104 -0.03245
#
# Static dielectric constant tensor:
#      x y z
#    x 1.897600 0.000000 -0.019380 
#    y 0.000000 1.915300 0.000000 
#    z -0.019380 0.000000 1.905080 
# 
# From -- ./inp_files/250863.got.cif
#   From: 2010.05.17/outbox.cif.g08.bks.cpg/sg12_126_cif.got.tgz:250863.got - 2010.06.03 13:09:07.
