data_PCOD9180052
_publ_section_title
;
Structure prediction by ZEFSAII (Michael W. Deem and Ramdas Pophale) SiO2 
 PCOD9180052
Probable space group: C 2/M
;
_chemical_formula_sum "Si O2"
_cell_formula_units_Z 64
_cell_length_a 7.612166
_cell_length_b 26.990541
_cell_length_c 15.249986
_cell_angle_alpha 90.000000
_cell_angle_beta 91.431862
_cell_angle_gamma 90.000000
_cell_volume 3132.230072
_symmetry_space_group_name_H-M "C 2/M"
_symmetry_group_IT_number 12
_symmetry_cell_setting 'monoclinic'
loop_
_space_group_symop_operation_xyz
x,y,z
-x,y,-z
-x,-y,-z
x,-y,z
1/2+x,1/2+y,z
1/2-x,1/2+y,-z
1/2-x,1/2-y,-z
1/2+x,1/2-y,z
loop_
_atom_site_type_symbol
_atom_site_label
_atom_site_fract_x
_atom_site_fract_y
_atom_site_fract_z
Si Si1 0.646533 0.813395 0.155974
Si Si2 0.514439 0.695398 0.630067
Si Si3 0.329427 0.444267 0.433599
Si Si4 0.958591 0.897554 0.719652
Si Si5 0.785830 0.373873 0.426651
Si Si6 0.911315 0.309064 0.646037
Si Si7 0.731023 0.216951 0.911289
Si Si8 0.016309 0.871413 0.903916
O O1 0.597769 0.827671 0.254150
O O2 0.462109 0.805958 0.102915
O O3 0.735825 0.758787 0.161932
O O4 0.787823 0.849711 0.112756
O O5 0.492585 0.662089 0.717329
O O6 0.625159 0.665779 0.430414
O O7 0.471613 0.752191 0.642395
O O8 0.715565 0.690177 0.606762
O O9 0.500000 0.445887 0.500000
O O10 0.262685 0.500000 0.421994
O O11 0.394448 0.422395 0.341341
O O12 0.206225 0.408855 0.489139
O O13 0.965273 0.907357 0.822364
O O14 0.779710 0.904537 0.661345
O O15 0.952717 0.342130 0.404172
O O16 0.879432 0.174968 0.907964
O O17 0.750000 0.250000 0.000000
O O18 0.000000 0.894881 0.000000
#
# Coordination Sequence:
#
# PCOD9180052 Si02
#       8
#     8   8   8   8   8   8   8   8
#     4  12  21  30  47  68 103 152 204 242 287 317
#     4  10  19  31  53  81 119 161 203 237 275 344
#     4   9  18  39  74  94 111 145 184 246 317 363
#     4   9  19  38  55  83 117 141 198 240 290 349
#     4   9  20  35  59  87 115 147 198 244 290 353
#     4  12  19  33  53  79 118 169 200 237 281 339
#     4  12  22  31  44  70 104 148 211 255 272 320
#     4  12  22  33  49  74 109 152 191 240 283 331
#
# _framework density 20.432727
#
# number of rings (size 3 to 8) (size 9 to 14) (size 15 to 20)
#    0.750    0.625    5.000    2.625    0.000    0.000 
#    0.000    1.250    2.750    2.625    0.000    0.000 
#    0.000    0.000    0.000    8.750    0.000    0.000 
#
# Total GULP energy -178598.835239 kJ/mol
# GULP energy per Si atom -5581.213601 kJ/mol
# Density = 2.038622 g / cm^3
# Si number density = 20.432727 Si / 1000 Ang^3
#
#
#
# Elastic Constant Matrix: (Units=GPa)
#
#
# Indices 1 2 3 4 5 6 
#
# 1 128.9113 21.3351 40.2610 0.0000 -7.6121 0.0000
# 2 21.3351 69.7848 41.7154 0.0000 -14.8682 0.0000
# 3 40.2610 41.7154 169.7438 0.0000 -11.7271 0.0000
# 4 0.0000 0.0000 0.0000 0.7750 0.0000 24.1124
# 5 -7.6121 -14.8682 -11.7271 0.0000 28.8361 0.0000
# 6 0.0000 0.0000 0.0000 24.1124 0.0000 -39.4886
#
#
#
# Elastic Compliance Matrix: (Units=1/GPa)
#
#
# Indices 1 2 3 4 5 6 
#
# 1 0.008553 -0.001474 -0.001608 0.000000 0.000844 0.000000
# 2 -0.001474 0.018634 -0.003697 0.000000 0.007715 0.000000
# 3 -0.001608 -0.003697 0.007223 0.000000 0.000607 0.000000
# 4 0.000000 0.000000 0.000000 0.064523 0.000000 0.039399
# 5 0.000844 0.007715 0.000607 0.000000 0.039126 0.000000
# 6 0.000000 0.000000 0.000000 0.039399 0.000000 -0.001266
#
#
# Mechanical properties :
#
#
# Convention : Reuss Voigt Hill
#
# Bulk Modulus (GPa) = 47.95527 63.89588 55.92558
# Shear Modulus (GPa) = 31.78602 15.69973 23.74287
#
# Velocity S-wave (km/s) = 3.94844 2.77494 3.41251
# Velocity P-wave (km/s) = 6.65640 6.45029 6.55416
#
# Compressibility (1/GPa) = 0.02085276
#
# Stress axis : x y z
#
# Youngs Moduli (GPa) = 116.91391 53.66523 138.44445
#
# Poissons Ratio (x) = 0.07909 0.22265
# Poissons Ratio (y) = 0.17231 0.51180
# Poissons Ratio (z) = 0.18802 0.19839
#
# Static dielectric constant tensor:
#      x y z
#    x 1.772350 0.000000 0.031800 
#    y 0.000000 1.713650 0.000000 
#    z 0.031800 0.000000 1.856630 
# 
# From -- ./inp_files/200606.got.cif
#   From: 2010.05.17/outbox.cif.g08.bks.cpg/sg12_101_cif.got.tgz:200606.got - 2010.06.03 13:09:07.
