data_PCOD9180751
_publ_section_title
;
Structure prediction by ZEFSAII (Michael W. Deem and Ramdas Pophale) SiO2 
 PCOD9180751
Probable space group: C 2/M
;
_chemical_formula_sum "Si O2"
_cell_formula_units_Z 48
_cell_length_a 16.624703
_cell_length_b 7.859176
_cell_length_c 15.145261
_cell_angle_alpha 90.000000
_cell_angle_beta 78.122550
_cell_angle_gamma 90.000000
_cell_volume 1936.459750
_symmetry_space_group_name_H-M "C 2/M"
_symmetry_group_IT_number 12
_symmetry_cell_setting 'monoclinic'
loop_
_space_group_symop_operation_xyz
x,y,z
-x,y,-z
-x,-y,-z
x,-y,z
1/2+x,1/2+y,z
1/2-x,1/2+y,-z
1/2-x,1/2-y,-z
1/2+x,1/2-y,z
loop_
_atom_site_type_symbol
_atom_site_label
_atom_site_fract_x
_atom_site_fract_y
_atom_site_fract_z
Si Si1 0.402507 0.299212 0.614653
Si Si2 0.342550 0.798370 0.447596
Si Si3 0.659436 0.795499 0.052510
Si Si4 0.538675 0.795701 0.219949
Si Si5 0.775660 0.708096 0.284048
Si Si6 0.101022 0.292158 0.883226
O O1 0.398567 0.500000 0.620166
O O2 0.404497 0.259420 0.510139
O O3 0.466161 0.246033 0.675624
O O4 0.314438 0.227255 0.669632
O O5 0.250000 0.750000 0.500000
O O6 0.339264 0.737905 0.347219
O O7 0.349929 0.000000 0.443257
O O8 0.623039 0.732345 0.153687
O O9 0.656069 0.000000 0.057070
O O10 0.750000 0.750000 0.000000
O O11 0.600840 0.738216 0.984586
O O12 0.468631 0.734121 0.168750
O O13 0.536253 0.000000 0.217601
O O14 0.772862 0.500000 0.286129
O O15 0.813063 0.759042 0.182333
O O16 0.097232 0.500000 0.885327
#
# Coordination Sequence:
#
# PCOD9180751 Si02
#       6
#     8   8   8   8   8   8
#     4  10  19  32  51  74 101 134 170 209 255 302
#     4   9  16  28  48  75 103 131 169 213 254 297
#     4  10  20  34  54  79 103 130 165 204 248 298
#     4  10  20  33  51  75 101 131 168 208 249 295
#     4   8  15  28  49  74  96 126 168 208 247 291
#     4   9  17  32  52  73 100 132 166 205 248 298
#
# _framework density 24.787500999999999
#
# number of rings (size 3 to 8) (size 9 to 14) (size 15 to 20)
#    0.000    2.667    0.000    3.500    0.000    4.000 
#    0.000    1.667    0.000   14.000    0.000    0.000 
#    0.000    0.000    0.000    0.000    0.000    0.000 
#
# Total GULP energy -133980.049232 kJ/mol
# GULP energy per Si atom -5582.502051 kJ/mol
# Density = 2.473108 g / cm^3
# Si number density = 24.787501 Si / 1000 Ang^3
#
#
#
# Elastic Constant Matrix: (Units=GPa)
#
#
# Indices 1 2 3 4 5 6 
#
# 1 72.0080 -5.1380 15.8997 0.0000 19.6283 0.0000
# 2 -5.1380 29.8336 1.6017 0.0000 3.3493 0.0000
# 3 15.8997 1.6017 148.6211 0.0000 18.0001 0.0000
# 4 0.0000 0.0000 0.0000 15.3563 0.0000 3.4759
# 5 19.6283 3.3493 18.0001 0.0000 42.8082 0.0000
# 6 0.0000 0.0000 0.0000 3.4759 0.0000 7.2342
#
#
#
# Elastic Compliance Matrix: (Units=1/GPa)
#
#
# Indices 1 2 3 4 5 6 
#
# 1 0.016371 0.003700 -0.000893 0.000000 -0.007421 0.000000
# 2 0.003700 0.034653 -0.000248 0.000000 -0.004304 0.000000
# 3 -0.000893 -0.000248 0.007138 0.000000 -0.002573 0.000000
# 4 0.000000 0.000000 0.000000 0.073067 0.000000 -0.035107
# 5 -0.007421 -0.004304 -0.002573 0.000000 0.028181 0.000000
# 6 0.000000 0.000000 0.000000 -0.035107 0.000000 0.155101
#
#
# Mechanical properties :
#
#
# Convention : Reuss Voigt Hill
#
# Bulk Modulus (GPa) = 15.80223 30.57662 23.18942
# Shear Modulus (GPa) = 15.12925 28.95302 22.04114
#
# Velocity S-wave (km/s) = 2.47322 3.42138 2.98519
# Velocity P-wave (km/s) = 3.81375 5.28867 4.61057
#
# Compressibility (1/GPa) = 0.06328221
#
# Stress axis : x y z
#
# Youngs Moduli (GPa) = 61.08275 28.85749 140.08958
#
# Poissons Ratio (x) = -0.10679 0.12504
# Poissons Ratio (y) = -0.22604 0.03476
# Poissons Ratio (z) = 0.05452 0.00716
#
# Static dielectric constant tensor:
#      x y z
#    x 2.070180 0.000000 0.021730 
#    y 0.000000 1.883350 0.000000 
#    z 0.021730 0.000000 1.994050 
# 
# From -- ./inp_files/221609.got.cif
#   From: 2010.05.17/outbox.cif.g08.bks.cpg/sg12_111_cif.got.tgz:221609.got - 2010.06.03 13:09:07.
