data_PCOD9180645
_publ_section_title
;
Structure prediction by ZEFSAII (Michael W. Deem and Ramdas Pophale) SiO2 
 PCOD9180645
Probable space group: C 2/M
;
_chemical_formula_sum "Si O2"
_cell_formula_units_Z 60
_cell_length_a 28.368040
_cell_length_b 17.249714
_cell_length_c 16.858048
_cell_angle_alpha 90.000000
_cell_angle_beta 160.040427
_cell_angle_gamma 90.000000
_cell_volume 2815.965707
_symmetry_space_group_name_H-M "C 2/M"
_symmetry_group_IT_number 12
_symmetry_cell_setting 'monoclinic'
loop_
_space_group_symop_operation_xyz
x,y,z
-x,y,-z
-x,-y,-z
x,-y,z
1/2+x,1/2+y,z
1/2-x,1/2+y,-z
1/2-x,1/2-y,-z
1/2+x,1/2-y,z
loop_
_atom_site_type_symbol
_atom_site_label
_atom_site_fract_x
_atom_site_fract_y
_atom_site_fract_z
Si Si1 0.229456 0.742072 0.561444
Si Si2 0.100389 0.413002 0.318705
Si Si3 0.660653 0.845685 0.675723
Si Si4 0.551913 0.674302 0.491694
Si Si5 0.936504 0.804784 0.149925
Si Si6 0.617295 0.085297 0.771519
Si Si7 0.000000 0.671197 0.000000
Si Si8 0.827627 0.628151 0.972985
O O1 0.250000 0.750000 0.500000
O O2 0.193009 0.650902 0.511748
O O3 0.370034 0.775264 0.822428
O O4 0.092405 0.791311 0.366336
O O5 0.157363 0.500000 0.404407
O O6 0.955099 0.413262 0.134436
O O7 0.060294 0.379690 0.167796
O O8 0.602985 0.762717 0.557805
O O9 0.545510 0.905502 0.464127
O O10 0.647456 0.852957 0.750788
O O11 0.824022 0.851146 0.919620
O O12 0.500000 0.669976 0.500000
O O13 0.448878 0.658670 0.257103
O O14 0.688761 0.622771 0.703280
O O15 0.870239 0.718656 0.049586
O O16 0.697894 0.097791 0.979383
O O17 0.643054 0.000000 0.779364
#
# Coordination Sequence:
#
# PCOD9180645 Si02
#       8
#     8   8   8   8   8   8   4   8
#     4   9  20  37  58  87 112 144 186 240 294 345
#     4  10  20  36  58  84 113 146 186 231 288 353
#     4  10  19  32  50  78 104 143 192 229 271 323
#     4  11  18  30  52  79 112 138 184 238 283 321
#     4  10  19  33  55  81 112 140 183 244 286 327
#     4  11  20  35  52  73 112 157 193 228 274 337
#     4  10  19  38  63  86 110 146 188 236 291 354
#     4  10  20  32  51  80 109 146 182 230 280 332
#
# _framework density 21.307077
#
# number of rings (size 3 to 8) (size 9 to 14) (size 15 to 20)
#    0.000    1.867    2.667    3.000    0.000    3.200 
#    0.000    0.333    0.000   21.600    0.000    0.000 
#    0.000    0.000    0.000    0.000    0.000    0.000 
#
# Total GULP energy -167320.892095 kJ/mol
# GULP energy per Si atom -5577.363070 kJ/mol
# Density = 2.125858 g / cm^3
# Si number density = 21.307077 Si / 1000 Ang^3
#
#
#
# Elastic Constant Matrix: (Units=GPa)
#
#
# Indices 1 2 3 4 5 6 
#
# 1 52.9273 -6.3428 1.3185 0.0000 3.1355 0.0000
# 2 -6.3428 54.7344 16.1731 0.0000 6.7027 0.0000
# 3 1.3185 16.1731 112.0665 0.0000 10.2806 0.0000
# 4 0.0000 0.0000 0.0000 11.3151 0.0000 -0.9299
# 5 3.1355 6.7027 10.2806 0.0000 32.0096 0.0000
# 6 0.0000 0.0000 0.0000 -0.9299 0.0000 10.5705
#
#
#
# Elastic Compliance Matrix: (Units=1/GPa)
#
#
# Indices 1 2 3 4 5 6 
#
# 1 0.019358 0.002645 -0.000396 0.000000 -0.002323 0.000000
# 2 0.002645 0.019770 -0.002556 0.000000 -0.003578 0.000000
# 3 -0.000396 -0.002556 0.009525 0.000000 -0.002485 0.000000
# 4 0.000000 0.000000 0.000000 0.089021 0.000000 0.007831
# 5 -0.002323 -0.003578 -0.002485 0.000000 0.033015 0.000000
# 6 0.000000 0.000000 0.000000 0.007831 0.000000 0.095292
#
#
# Mechanical properties :
#
#
# Convention : Reuss Voigt Hill
#
# Bulk Modulus (GPa) = 20.81690 26.89177 23.85433
# Shear Modulus (GPa) = 17.69229 24.68434 21.18832
#
# Velocity S-wave (km/s) = 2.88470 3.40737 3.15687
# Velocity P-wave (km/s) = 4.57017 5.30365 4.95052
#
# Compressibility (1/GPa) = 0.04803790
#
# Stress axis : x y z
#
# Youngs Moduli (GPa) = 51.65752 50.58185 104.98922
#
# Poissons Ratio (x) = -0.13378 0.04162
# Poissons Ratio (y) = -0.13663 0.26836
# Poissons Ratio (z) = 0.02048 0.12929
#
# Static dielectric constant tensor:
#      x y z
#    x 1.806540 0.000000 0.019790 
#    y 0.000000 1.783690 0.000000 
#    z 0.019790 0.000000 1.816240 
# 
# From -- ./inp_files/297006.got.cif
#   From: 2010.05.17/outbox.cif.g08.bks.cpg/sg12_149_cif.got.tgz:297006.got - 2010.06.03 13:09:07.
