data_PCOD9180573
_publ_section_title
;
Structure prediction by ZEFSAII (Michael W. Deem and Ramdas Pophale) SiO2 
 PCOD9180573
Probable space group: C 2/M
;
_chemical_formula_sum "Si O2"
_cell_formula_units_Z 48
_cell_length_a 24.790632
_cell_length_b 8.869597
_cell_length_c 9.445146
_cell_angle_alpha 90.000000
_cell_angle_beta 110.196584
_cell_angle_gamma 90.000000
_cell_volume 1949.129685
_symmetry_space_group_name_H-M "C 2/M"
_symmetry_group_IT_number 12
_symmetry_cell_setting 'monoclinic'
loop_
_space_group_symop_operation_xyz
x,y,z
-x,y,-z
-x,-y,-z
x,-y,z
1/2+x,1/2+y,z
1/2-x,1/2+y,-z
1/2-x,1/2-y,-z
1/2+x,1/2-y,z
loop_
_atom_site_type_symbol
_atom_site_label
_atom_site_fract_x
_atom_site_fract_y
_atom_site_fract_z
Si Si1 0.052832 0.818330 0.853859
Si Si2 0.673103 0.673514 0.062029
Si Si3 0.067712 0.329909 0.569951
Si Si4 0.288593 0.329499 0.232459
Si Si5 0.188605 0.675927 0.471763
Si Si6 0.077175 0.824912 0.288181
O O1 0.104851 0.792491 0.011838
O O2 0.074446 0.732466 0.733961
O O3 0.986286 0.774514 0.824553
O O4 0.051726 0.000000 0.829322
O O5 0.683517 0.500000 0.118741
O O6 0.688214 0.675844 0.906644
O O7 0.721627 0.782785 0.167266
O O8 0.091627 0.500000 0.563187
O O9 0.073225 0.202085 0.454340
O O10 0.000000 0.354100 0.500000
O O11 0.295685 0.500000 0.291246
O O12 0.320641 0.219027 0.369957
O O13 0.193115 0.500000 0.456313
O O14 0.250000 0.750000 0.500000
O O15 0.137911 0.739717 0.326595
O O16 0.083336 0.000000 0.259115
#
# Coordination Sequence:
#
# PCOD9180573 Si02
#       6
#     8   8   8   8   8   8
#     4   9  17  29  48  74 107 145 180 217 266 325
#     4   9  18  33  54  82 116 152 185 219 264 321
#     4   9  16  25  40  67 103 140 176 214 259 312
#     4  10  20  35  56  83 114 148 187 227 268 318
#     4  12  25  41  60  80 105 140 183 231 280 328
#     4  10  19  32  50  74 104 138 178 223 272 324
#
# _framework density 24.626374999999999
#
# number of rings (size 3 to 8) (size 9 to 14) (size 15 to 20)
#    0.000    2.167    0.000    4.000    0.000    5.333 
#    0.000    0.000    0.000    1.000    0.000    7.000 
#    0.000    0.000    0.000    0.000    0.000    0.000 
#
# Total GULP energy -134007.863546 kJ/mol
# GULP energy per Si atom -5583.660981 kJ/mol
# Density = 2.457032 g / cm^3
# Si number density = 24.626375 Si / 1000 Ang^3
#
#
#
# Elastic Constant Matrix: (Units=GPa)
#
#
# Indices 1 2 3 4 5 6 
#
# 1 132.9837 33.2033 21.1412 0.0000 34.2428 0.0000
# 2 33.2033 96.4810 47.3924 0.0000 27.8573 0.0000
# 3 21.1412 47.3924 113.3528 0.0000 27.0513 0.0000
# 4 0.0000 0.0000 0.0000 35.8425 0.0000 16.4894
# 5 34.2428 27.8573 27.0513 0.0000 55.4666 0.0000
# 6 0.0000 0.0000 0.0000 16.4894 0.0000 38.6537
#
#
#
# Elastic Compliance Matrix: (Units=1/GPa)
#
#
# Indices 1 2 3 4 5 6 
#
# 1 0.009201 -0.001878 0.000226 0.000000 -0.004847 0.000000
# 2 -0.001878 0.014452 -0.004795 0.000000 -0.003761 0.000000
# 3 0.000226 -0.004795 0.011592 0.000000 -0.003385 0.000000
# 4 0.000000 0.000000 0.000000 0.034712 0.000000 -0.014808
# 5 -0.004847 -0.003761 -0.003385 0.000000 0.024561 0.000000
# 6 0.000000 0.000000 0.000000 -0.014808 0.000000 0.032188
#
#
# Mechanical properties :
#
#
# Convention : Reuss Voigt Hill
#
# Bulk Modulus (GPa) = 44.73867 60.69902 52.71885
# Shear Modulus (GPa) = 34.00204 42.06459 38.03331
#
# Velocity S-wave (km/s) = 3.71983 4.13741 3.93417
# Velocity P-wave (km/s) = 6.05441 6.89389 6.48774
#
# Compressibility (1/GPa) = 0.02235203
#
# Stress axis : x y z
#
# Youngs Moduli (GPa) = 108.68615 69.19481 86.26389
#
# Poissons Ratio (x) = 0.12993 -0.01948
# Poissons Ratio (y) = 0.20409 0.41360
# Poissons Ratio (z) = -0.02455 0.33176
#
# Static dielectric constant tensor:
#      x y z
#    x 2.282380 0.000000 -0.078730 
#    y 0.000000 1.861270 0.000000 
#    z -0.078730 0.000000 1.984970 
# 
# From -- ./inp_files/180253.got.cif
#   From: 2010.05.17/outbox.cif.g08.bks.cpg/sg12_91_cif.got.tgz:180253.got - 2010.06.03 13:09:07.
