data_PCOD9180335
_publ_section_title
;
Structure prediction by ZEFSAII (Michael W. Deem and Ramdas Pophale) SiO2 
 PCOD9180335
Probable space group: C 2/M
;
_chemical_formula_sum "Si O2"
_cell_formula_units_Z 64
_cell_length_a 29.138193
_cell_length_b 7.582598
_cell_length_c 20.450306
_cell_angle_alpha 90.000000
_cell_angle_beta 48.279641
_cell_angle_gamma 90.000000
_cell_volume 3372.508958
_symmetry_space_group_name_H-M "C 2/M"
_symmetry_group_IT_number 12
_symmetry_cell_setting 'monoclinic'
loop_
_space_group_symop_operation_xyz
x,y,z
-x,y,-z
-x,-y,-z
x,-y,z
1/2+x,1/2+y,z
1/2-x,1/2+y,-z
1/2-x,1/2-y,-z
1/2+x,1/2-y,z
loop_
_atom_site_type_symbol
_atom_site_label
_atom_site_fract_x
_atom_site_fract_y
_atom_site_fract_z
Si Si1 0.556267 0.288017 0.903205
Si Si2 0.969551 0.708458 0.354669
Si Si3 0.206125 0.797519 0.615150
Si Si4 0.048700 0.205863 0.400820
Si Si5 0.335520 0.215236 0.525704
Si Si6 0.573024 0.712622 0.739220
Si Si7 0.819793 0.796176 0.692706
Si Si8 0.807596 0.289244 0.220331
O O1 0.551165 0.500000 0.905162
O O2 0.556008 0.224198 0.827984
O O3 0.623482 0.246217 0.868491
O O4 0.500000 0.220658 0.000000
O O5 0.969939 0.500000 0.365267
O O6 0.901668 0.776544 0.438454
O O7 0.974329 0.743167 0.273099
O O8 0.019041 0.784447 0.357524
O O9 0.275353 0.724747 0.541807
O O10 0.141225 0.714000 0.655384
O O11 0.197807 0.794655 0.702449
O O12 0.207559 0.000000 0.593193
O O13 0.117355 0.284347 0.338640
O O14 0.000000 0.281761 0.500000
O O15 0.056070 0.000000 0.412530
O O16 0.328722 0.283636 0.605900
O O17 0.334195 0.000000 0.528124
O O18 0.578576 0.500000 0.736834
O O19 0.750492 0.724263 0.767160
O O20 0.817352 0.000000 0.716751
O O21 0.800708 0.500000 0.235436
#
# Coordination Sequence:
#
# PCOD9180335 Si02
#       8
#     8   8   8   8   8   8   8   8
#     4   9  18  34  55  76  97 122 152 183 221 280
#     4  11  22  31  42  64  94 124 158 200 242 277
#     4   8  15  29  45  60  84 122 162 192 222 267
#     4  10  19  32  49  65  86 123 170 209 238 272
#     4   9  17  28  42  61  87 121 159 197 234 269
#     4   9  18  32  48  65  89 121 154 187 225 275
#     4   9  17  29  45  66  91 121 159 201 237 271
#     4   9  16  26  44  72 100 120 145 186 235 279
#
# _framework density 18.976969
#
# number of rings (size 3 to 8) (size 9 to 14) (size 15 to 20)
#    0.000    2.750    1.250    1.500    0.000    4.500 
#    0.000    0.000    0.000    0.000    0.000    0.875 
#    0.000    0.000    0.000    0.000    0.000    0.000 
#
# Total GULP energy -178352.907235 kJ/mol
# GULP energy per Si atom -5573.528351 kJ/mol
# Density = 1.893378 g / cm^3
# Si number density = 18.976969 Si / 1000 Ang^3
#
#
#
# Elastic Constant Matrix: (Units=GPa)
#
#
# Indices 1 2 3 4 5 6 
#
# 1 156.0575 -5.2950 51.5721 -0.0058 -22.4598 0.0019
# 2 -5.2950 53.7857 5.5302 -0.0140 -1.9832 0.0118
# 3 51.5721 5.5302 93.3585 -0.0078 -23.8820 0.0090
# 4 -0.0058 -0.0140 -0.0078 10.5780 0.0093 0.2621
# 5 -22.4598 -1.9832 -23.8820 0.0093 24.3158 0.0017
# 6 0.0019 0.0118 0.0090 0.2621 0.0017 10.9380
#
#
#
# Elastic Compliance Matrix: (Units=1/GPa)
#
#
# Indices 1 2 3 4 5 6 
#
# 1 0.008234 0.001331 -0.003544 0.000000 0.004232 -0.000001
# 2 0.001331 0.018928 -0.001532 0.000024 0.001269 -0.000020
# 3 -0.003544 -0.001532 0.015881 -0.000003 0.012198 -0.000013
# 4 0.000000 0.000024 -0.000003 0.094592 -0.000037 -0.002267
# 5 0.004232 0.001269 0.012198 -0.000037 0.057119 -0.000020
# 6 -0.000001 -0.000020 -0.000013 -0.002267 -0.000020 0.091479
#
#
# Mechanical properties :
#
#
# Convention : Reuss Voigt Hill
#
# Bulk Modulus (GPa) = 28.12852 45.20179 36.66516
# Shear Modulus (GPa) = 16.36270 25.92597 21.14434
#
# Velocity S-wave (km/s) = 2.93958 3.70020 3.34160
# Velocity P-wave (km/s) = 5.13577 6.49048 5.85245
#
# Compressibility (1/GPa) = 0.03555110
#
# Stress axis : x y z
#
# Youngs Moduli (GPa) = 121.45488 52.83275 62.96996
#
# Poissons Ratio (x) = -0.07032 0.22319
# Poissons Ratio (y) = -0.16166 0.09647
# Poissons Ratio (z) = 0.43049 0.08094
#
# Static dielectric constant tensor:
#      x y z
#    x 1.712540 -0.000010 -0.034680 
#    y -0.000010 1.713940 0.000000 
#    z -0.034680 0.000000 1.677050 
# 
# From -- ./inp_files/326881.got.cif
#   From: 2010.05.17/outbox.cif.g08.bks.cpg/sg12_164_cif.got.tgz:326881.got - 2010.06.03 13:09:07.
