data_PCOD9180152
_publ_section_title
;
Structure prediction by ZEFSAII (Michael W. Deem and Ramdas Pophale) SiO2 
 PCOD9180152
Probable space group: C 2/M
;
_chemical_formula_sum "Si O2"
_cell_formula_units_Z 44
_cell_length_a 20.562478
_cell_length_b 14.032919
_cell_length_c 9.420980
_cell_angle_alpha 90.000000
_cell_angle_beta 40.790921
_cell_angle_gamma 90.000000
_cell_volume 1775.957779
_symmetry_space_group_name_H-M "C 2/M"
_symmetry_group_IT_number 12
_symmetry_cell_setting 'monoclinic'
loop_
_space_group_symop_operation_xyz
x,y,z
-x,y,-z
-x,-y,-z
x,-y,z
1/2+x,1/2+y,z
1/2-x,1/2+y,-z
1/2-x,1/2-y,-z
1/2+x,1/2-y,z
loop_
_atom_site_type_symbol
_atom_site_label
_atom_site_fract_x
_atom_site_fract_y
_atom_site_fract_z
Si Si1 0.232148 0.789226 0.373264
Si Si2 0.500000 0.829066 0.000000
Si Si3 0.441235 0.289819 0.884531
Si Si4 0.855676 0.714238 0.756107
Si Si5 0.605945 0.000000 0.948334
Si Si6 0.370966 0.500000 0.031949
Si Si7 0.316852 0.000000 0.867951
Si Si8 0.217560 0.000000 0.503786
O O1 0.250000 0.750000 0.500000
O O2 0.341092 0.758853 0.123174
O O3 0.157108 0.746219 0.383389
O O4 0.201549 0.900383 0.446906
O O5 0.468830 0.750890 0.170182
O O6 0.542561 0.905725 0.042645
O O7 0.432080 0.402886 0.915752
O O8 0.434620 0.260258 0.732264
O O9 0.865109 0.600237 0.745593
O O10 0.750000 0.750000 0.000000
O O11 0.662558 0.000000 0.702606
O O12 0.675562 0.000000 0.972354
O O13 0.288355 0.500000 0.042289
O O14 0.322810 0.500000 0.269933
#
# Coordination Sequence:
#
# PCOD9180152 Si02
#       8
#     8   4   8   8   4   4   4   4
#     4  11  20  34  56  88 121 149 184 248 308 350
#     4  11  22  39  56  84 120 161 206 225 268 364
#     4  11  22  37  55  86 117 158 195 236 288 344
#     4  10  19  31  54  84 119 146 186 245 300 342
#     4  11  22  34  66  88 112 156 196 242 291 351
#     4  12  24  35  62  90 122 144 191 259 305 342
#     4  12  17  36  58  91 116 141 192 251 305 341
#     4  12  21  36  58  94 114 149 190 241 320 339
#
# _framework density 24.775362000000001
#
# number of rings (size 3 to 8) (size 9 to 14) (size 15 to 20)
#    0.000    0.909    9.091    1.091    0.000    0.364 
#    0.000    0.000    0.000    5.455    0.000    1.273 
#    0.000    0.000    0.000    0.000    0.000    0.000 
#
# Total GULP energy -122548.925962 kJ/mol
# GULP energy per Si atom -5570.405726 kJ/mol
# Density = 2.471897 g / cm^3
# Si number density = 24.775362 Si / 1000 Ang^3
#
#
#
# Elastic Constant Matrix: (Units=GPa)
#
#
# Indices 1 2 3 4 5 6 
#
# 1 163.2296 69.9783 63.3164 0.0000 45.3808 0.0000
# 2 69.9783 272.5726 46.9024 0.0000 39.6729 0.0000
# 3 63.3164 46.9024 121.4104 0.0000 49.3306 0.0000
# 4 0.0000 0.0000 0.0000 16.5578 0.0000 48.4134
# 5 45.3808 39.6729 49.3306 0.0000 49.1558 0.0000
# 6 0.0000 0.0000 0.0000 48.4134 0.0000 87.7376
#
#
#
# Elastic Compliance Matrix: (Units=1/GPa)
#
#
# Indices 1 2 3 4 5 6 
#
# 1 0.008867 -0.001168 -0.002077 0.000000 -0.005159 0.000000
# 2 -0.001168 0.004323 -0.000137 0.000000 -0.002273 0.000000
# 3 -0.002077 -0.000137 0.014434 0.000000 -0.012457 0.000000
# 4 0.000000 0.000000 0.000000 -0.098458 0.000000 0.054329
# 5 -0.005159 -0.002273 -0.012457 0.000000 0.039442 0.000000
# 6 0.000000 0.000000 0.000000 0.054329 0.000000 -0.018581
#
#
# Mechanical properties :
#
#
# Convention : Reuss Voigt Hill
#
# Bulk Modulus (GPa) = 47.93923 101.95633 74.94778
# Shear Modulus (GPa) = -137.91594 55.82460 -41.04567
#
# Velocity S-wave (km/s) = -7.46910 4.75197 -4.07469
# Velocity P-wave (km/s) = 7.41564 8.44689 2.85992
#
# Compressibility (1/GPa) = 0.02085974
#
# Stress axis : x y z
#
# Youngs Moduli (GPa) = 112.77711 231.31535 69.27975
#
# Poissons Ratio (x) = 0.27022 0.14387
# Poissons Ratio (y) = 0.13175 0.00952
# Poissons Ratio (z) = 0.23421 0.03178
#
# Static dielectric constant tensor:
#      x y z
#    x 2.001570 0.000000 -0.199300 
#    y 0.000000 1.879440 0.000000 
#    z -0.199300 0.000000 2.070360 
# 
# From -- ./inp_files/96184.got.cif
#   From: 2010.05.17/outbox.cif.g08.bks.cpg/sg12_49_cif.got.tgz:96184.got - 2010.06.03 13:09:07.
