data_PCOD9180761
_publ_section_title
;
Structure prediction by ZEFSAII (Michael W. Deem and Ramdas Pophale) SiO2 
 PCOD9180761
Probable space group: C 2/M
;
_chemical_formula_sum "Si O2"
_cell_formula_units_Z 64
_cell_length_a 31.801874
_cell_length_b 8.889656
_cell_length_c 15.936860
_cell_angle_alpha 90.000000
_cell_angle_beta 56.517734
_cell_angle_gamma 90.000000
_cell_volume 3757.819859
_symmetry_space_group_name_H-M "C 2/M"
_symmetry_group_IT_number 12
_symmetry_cell_setting 'monoclinic'
loop_
_space_group_symop_operation_xyz
x,y,z
-x,y,-z
-x,-y,-z
x,-y,z
1/2+x,1/2+y,z
1/2-x,1/2+y,-z
1/2-x,1/2-y,-z
1/2+x,1/2-y,z
loop_
_atom_site_type_symbol
_atom_site_label
_atom_site_fract_x
_atom_site_fract_y
_atom_site_fract_z
Si Si1 0.815853 0.680183 0.303177
Si Si2 0.911113 0.820967 0.116338
Si Si3 0.536282 0.679430 0.763817
Si Si4 0.277669 0.681250 0.845735
Si Si5 0.795279 0.181426 0.635157
Si Si6 0.826105 0.318858 0.954658
Si Si7 0.567031 0.819682 0.084902
Si Si8 0.632131 0.820680 0.577393
O O1 0.820953 0.500000 0.284447
O O2 0.854972 0.763048 0.199095
O O3 0.758422 0.721967 0.347763
O O4 0.833191 0.714569 0.378946
O O5 0.943640 0.786511 0.163825
O O6 0.911737 0.000000 0.103012
O O7 0.931796 0.739930 0.011556
O O8 0.534184 0.500000 0.757287
O O9 0.481450 0.751304 0.816003
O O10 0.578085 0.747411 0.655924
O O11 0.280369 0.500000 0.846904
O O12 0.292434 0.726853 0.735711
O O13 0.312542 0.750210 0.879531
O O14 0.220017 0.724127 0.932597
O O15 0.840110 0.255828 0.534099
O O16 0.799987 0.000000 0.625888
O O17 0.825846 0.500000 0.948778
O O18 0.880238 0.272556 0.930460
O O19 0.564264 0.000000 0.088031
O O20 0.627228 0.000000 0.577755
#
# Coordination Sequence:
#
# PCOD9180761 Si02
#       8
#     8   8   8   8   8   8   8   8
#     4   9  18  32  49  71 103 138 169 204 246 293
#     4  10  20  32  48  73 104 135 168 206 246 291
#     4  10  21  36  51  70 100 135 170 209 250 290
#     4   9  18  33  53  76 102 132 163 196 242 298
#     4  10  19  32  51  74 102 135 168 205 250 295
#     4   9  19  35  53  75 103 131 160 199 246 294
#     4  11  21  33  52  75 100 132 168 205 249 299
#     4  10  20  33  50  73 100 134 174 209 245 291
#
# _framework density 17.031151000000001
#
# number of rings (size 3 to 8) (size 9 to 14) (size 15 to 20)
#    0.000    2.250    0.000    3.000    0.000    7.500 
#    0.000    2.500    0.000    0.750    0.000    5.250 
#    0.000    0.000    0.000    0.000    0.000    0.000 
#
# Total GULP energy -178650.016833 kJ/mol
# GULP energy per Si atom -5582.813026 kJ/mol
# Density = 1.699239 g / cm^3
# Si number density = 17.031151 Si / 1000 Ang^3
#
#
#
# Elastic Constant Matrix: (Units=GPa)
#
#
# Indices 1 2 3 4 5 6 
#
# 1 84.1086 36.0828 65.3447 0.0000 -20.4322 0.0000
# 2 36.0828 28.4922 45.1441 0.0000 -6.6522 0.0000
# 3 65.3447 45.1441 142.5851 0.0000 -13.1025 0.0000
# 4 0.0000 0.0000 0.0000 33.3762 0.0000 -3.1363
# 5 -20.4322 -6.6522 -13.1025 0.0000 20.1619 0.0000
# 6 0.0000 0.0000 0.0000 -3.1363 0.0000 23.1349
#
#
#
# Elastic Compliance Matrix: (Units=1/GPa)
#
#
# Indices 1 2 3 4 5 6 
#
# 1 0.033263 -0.032352 -0.003067 0.000000 0.021041 0.000000
# 2 -0.032352 0.103572 -0.018971 0.000000 -0.010942 0.000000
# 3 -0.003067 -0.018971 0.014426 0.000000 0.000007 0.000000
# 4 0.000000 0.000000 0.000000 0.030348 0.000000 0.004114
# 5 0.021041 -0.010942 0.000007 0.000000 0.067316 0.000000
# 6 0.000000 0.000000 0.000000 0.004114 0.000000 0.043782
#
#
# Mechanical properties :
#
#
# Convention : Reuss Voigt Hill
#
# Bulk Modulus (GPa) = 23.54025 60.92546 42.23286
# Shear Modulus (GPa) = 12.02938 22.57556 17.30247
#
# Velocity S-wave (km/s) = 2.66054 3.64475 3.19082
# Velocity P-wave (km/s) = 4.82596 7.31867 6.19890
#
# Compressibility (1/GPa) = 0.04248044
#
# Stress axis : x y z
#
# Youngs Moduli (GPa) = 30.06352 9.65512 69.31765
#
# Poissons Ratio (x) = 0.31236 0.21263
# Poissons Ratio (y) = 0.97260 1.31504
# Poissons Ratio (z) = 0.09222 0.18317
#
# Static dielectric constant tensor:
#      x y z
#    x 1.566220 0.000000 -0.005080 
#    y 0.000000 1.566920 0.000000 
#    z -0.005080 0.000000 1.557870 
# 
# From -- ./inp_files/244181.got.cif
#   From: 2010.05.17/outbox.cif.g08.bks.cpg/sg12_123_cif.got.tgz:244181.got - 2010.06.03 13:09:07.
