data_PCOD9180593
_publ_section_title
;
Structure prediction by ZEFSAII (Michael W. Deem and Ramdas Pophale) SiO2 
 PCOD9180593
Probable space group: C 2/M
;
_chemical_formula_sum "Si O2"
_cell_formula_units_Z 60
_cell_length_a 11.944968
_cell_length_b 23.605732
_cell_length_c 16.799178
_cell_angle_alpha 90.000000
_cell_angle_beta 132.718805
_cell_angle_gamma 90.000000
_cell_volume 3480.132603
_symmetry_space_group_name_H-M "C 2/M"
_symmetry_group_IT_number 12
_symmetry_cell_setting 'monoclinic'
loop_
_space_group_symop_operation_xyz
x,y,z
-x,y,-z
-x,-y,-z
x,-y,z
1/2+x,1/2+y,z
1/2-x,1/2+y,-z
1/2-x,1/2-y,-z
1/2+x,1/2-y,z
loop_
_atom_site_type_symbol
_atom_site_label
_atom_site_fract_x
_atom_site_fract_y
_atom_site_fract_z
Si Si1 0.390398 0.431423 0.019069
Si Si2 0.742303 0.363697 0.382776
Si Si3 0.219777 0.932739 0.701059
Si Si4 0.451229 0.066572 0.200548
Si Si5 0.500000 0.644901 0.500000
Si Si6 0.479912 0.848826 0.360377
Si Si7 0.036896 0.932941 0.768722
Si Si8 0.585824 0.726635 0.395453
O O1 0.407777 0.500000 0.028871
O O2 0.212987 0.420189 0.916128
O O3 0.500000 0.411015 0.000000
O O4 0.432862 0.410031 0.127775
O O5 0.834306 0.358871 0.345922
O O6 0.636563 0.418407 0.337179
O O7 0.622868 0.312297 0.337795
O O8 0.870100 0.360517 0.513210
O O9 0.401828 0.926274 0.785145
O O10 0.139117 0.895718 0.593303
O O11 0.147201 0.913831 0.750269
O O12 0.186251 0.000000 0.673422
O O13 0.476469 0.107914 0.286577
O O14 0.448324 0.000000 0.223377
O O15 0.531858 0.685742 0.440555
O O16 0.485628 0.782816 0.337583
O O17 0.058568 0.000000 0.783333
O O18 0.750000 0.750000 0.500000
#
# Coordination Sequence:
#
# PCOD9180593 Si02
#       8
#     8   8   8   8   4   8   8   8
#     4   9  18  34  56  78 103 140 182 223 270 325
#     4  10  19  34  50  77 107 139 176 217 271 324
#     4  10  21  33  51  81 112 148 182 219 270 323
#     4  10  21  36  54  79 108 141 181 225 273 322
#     4  12  19  34  54  76 113 150 180 220 260 318
#     4  10  21  34  52  78 109 138 179 223 271 323
#     4  10  20  34  53  80 110 142 180 220 268 323
#     4  10  19  32  50  75 103 142 182 221 260 313
#
# _framework density 17.240721000000001
#
# number of rings (size 3 to 8) (size 9 to 14) (size 15 to 20)
#    0.000    2.000    1.333    4.200    0.000    2.667 
#    0.000    4.000    0.000    0.800    0.000    0.000 
#    0.000    0.000    0.000    0.000    0.000    0.000 
#
# Total GULP energy -167141.680912 kJ/mol
# GULP energy per Si atom -5571.389364 kJ/mol
# Density = 1.720148 g / cm^3
# Si number density = 17.240721 Si / 1000 Ang^3
#
#
#
# Elastic Constant Matrix: (Units=GPa)
#
#
# Indices 1 2 3 4 5 6 
#
# 1 129.8442 36.9317 47.9323 0.0000 -1.5781 0.0000
# 2 36.9317 44.4624 26.7178 0.0000 -5.8071 0.0000
# 3 47.9323 26.7178 51.9436 0.0001 -2.3198 0.0000
# 4 0.0000 0.0000 0.0001 4.0957 0.0000 -5.0149
# 5 -1.5781 -5.8071 -2.3198 0.0000 23.2998 0.0000
# 6 0.0000 0.0000 0.0000 -5.0149 0.0000 23.0170
#
#
#
# Elastic Compliance Matrix: (Units=1/GPa)
#
#
# Indices 1 2 3 4 5 6 
#
# 1 0.012430 -0.005167 -0.008872 0.000000 -0.001329 0.000000
# 2 -0.005167 0.035703 -0.013273 0.000000 0.007227 0.000000
# 3 -0.008872 -0.013273 0.034243 -0.000001 -0.000500 0.000000
# 4 0.000000 0.000000 -0.000001 0.332997 -0.000001 0.072553
# 5 -0.001329 0.007227 -0.000500 -0.000001 0.044580 0.000000
# 6 0.000000 0.000000 0.000000 0.072553 0.000000 0.059254
#
#
# Mechanical properties :
#
#
# Convention : Reuss Voigt Hill
#
# Bulk Modulus (GPa) = 36.03373 49.93484 42.98428
# Shear Modulus (GPa) = 8.57512 17.72705 13.15109
#
# Velocity S-wave (km/s) = 2.23261 3.21005 2.76487
# Velocity P-wave (km/s) = 5.25279 6.53953 5.93116
#
# Compressibility (1/GPa) = 0.02775178
#
# Stress axis : x y z
#
# Youngs Moduli (GPa) = 80.44958 28.00894 29.20296
#
# Poissons Ratio (x) = 0.14473 0.25908
# Poissons Ratio (y) = 0.41571 0.38761
# Poissons Ratio (z) = 0.71373 0.37177
#
# Static dielectric constant tensor:
#      x y z
#    x 1.605610 0.000000 -0.009080 
#    y 0.000000 1.627130 0.000000 
#    z -0.009080 0.000000 1.569020 
# 
# From -- ./inp_files/135388.got.cif
#   From: 2010.05.17/outbox.cif.g08.bks.cpg/sg12_68_cif.got.tgz:135388.got - 2010.06.03 13:09:07.
