data_PCOD9180928
_publ_section_title
;
Structure prediction by ZEFSAII (Michael W. Deem and Ramdas Pophale) SiO2 
 PCOD9180928
Probable space group: C 2/M
;
_chemical_formula_sum "Si O2"
_cell_formula_units_Z 64
_cell_length_a 29.370601
_cell_length_b 7.578231
_cell_length_c 15.745484
_cell_angle_alpha 90.000000
_cell_angle_beta 130.398112
_cell_angle_gamma 90.000000
_cell_volume 2668.951127
_symmetry_space_group_name_H-M "C 2/M"
_symmetry_group_IT_number 12
_symmetry_cell_setting 'monoclinic'
loop_
_space_group_symop_operation_xyz
x,y,z
-x,y,-z
-x,-y,-z
x,-y,z
1/2+x,1/2+y,z
1/2-x,1/2+y,-z
1/2-x,1/2-y,-z
1/2+x,1/2-y,z
loop_
_atom_site_type_symbol
_atom_site_label
_atom_site_fract_x
_atom_site_fract_y
_atom_site_fract_z
Si Si1 0.721624 0.701147 0.581039
Si Si2 0.139420 0.297749 0.636452
Si Si3 0.966108 0.791442 0.598064
Si Si4 0.605348 0.787467 0.774477
Si Si5 0.187830 0.289049 0.181778
Si Si6 0.702249 0.211262 0.015136
Si Si7 0.934195 0.212113 0.896641
Si Si8 0.116228 0.215627 0.343945
O O1 0.734564 0.500000 0.572232
O O2 0.676919 0.700985 0.609063
O O3 0.780185 0.785699 0.694722
O O4 0.681119 0.778912 0.456450
O O5 0.160061 0.500000 0.661533
O O6 0.070337 0.294745 0.522721
O O7 0.139194 0.221234 0.730691
O O8 0.932198 0.734773 0.642943
O O9 0.035991 0.756998 0.687525
O O10 0.957285 0.000000 0.577455
O O11 0.639419 0.725414 0.899652
O O12 0.610076 0.000000 0.776630
O O13 0.197554 0.500000 0.197561
O O14 0.117353 0.255521 0.098573
O O15 0.213671 0.220157 0.123824
O O16 0.699079 0.000000 0.019884
O O17 0.750000 0.250000 0.000000
O O18 0.907995 0.278838 0.775367
O O19 0.938356 0.000000 0.894924
O O20 0.000000 0.278479 0.000000
O O21 0.118917 0.000000 0.345722
#
# Coordination Sequence:
#
# PCOD9180928 Si02
#       8
#     8   8   8   8   8   8   8   8
#     4   9  18  35  58  80 110 146 183 230 281 336
#     4  10  19  32  51  77 111 146 182 226 278 329
#     4  10  20  33  53  78 107 143 185 230 277 332
#     4  10  21  34  49  73 108 146 182 230 281 330
#     4  10  22  39  59  86 116 149 188 236 291 338
#     4  10  22  39  57  81 114 148 188 235 282 336
#     4  10  22  39  60  83 112 149 190 236 284 340
#     4   8  17  35  55  79 109 141 180 231 280 325
#
# _framework density 23.979455999999999
#
# number of rings (size 3 to 8) (size 9 to 14) (size 15 to 20)
#    0.000    2.375    0.000    2.625    1.750    4.750 
#    0.000    3.125    0.000    0.000    0.000    0.000 
#    0.000    0.000    0.000    0.000    0.000    0.000 
#
# Total GULP energy -178842.286656 kJ/mol
# GULP energy per Si atom -5588.821458 kJ/mol
# Density = 2.392488 g / cm^3
# Si number density = 23.979456 Si / 1000 Ang^3
#
#
#
# Elastic Constant Matrix: (Units=GPa)
#
#
# Indices 1 2 3 4 5 6 
#
# 1 92.5930 -0.4157 57.6781 0.0000 8.3830 0.0000
# 2 -0.4157 66.8093 10.6563 0.0000 -4.6457 0.0000
# 3 57.6781 10.6563 166.6093 0.0000 2.4846 0.0000
# 4 0.0000 0.0000 0.0000 5.8800 0.0000 3.1765
# 5 8.3830 -4.6457 2.4846 0.0000 47.3109 0.0000
# 6 0.0000 0.0000 0.0000 3.1765 0.0000 20.7166
#
#
#
# Elastic Compliance Matrix: (Units=1/GPa)
#
#
# Indices 1 2 3 4 5 6 
#
# 1 0.014033 0.000714 -0.004872 0.000000 -0.002161 0.000000
# 2 0.000714 0.015271 -0.001245 0.000000 0.001438 0.000000
# 3 -0.004872 -0.001245 0.007763 0.000000 0.000333 0.000000
# 4 0.000000 0.000000 0.000000 0.185426 0.000000 -0.028431
# 5 -0.002161 0.001438 0.000333 0.000000 0.021643 0.000000
# 6 0.000000 0.000000 0.000000 -0.028431 0.000000 0.052630
#
#
# Mechanical properties :
#
#
# Convention : Reuss Voigt Hill
#
# Bulk Modulus (GPa) = 38.07801 51.31656 44.69729
# Shear Modulus (GPa) = 15.80644 31.98772 23.89708
#
# Velocity S-wave (km/s) = 2.57021 3.65631 3.16027
# Velocity P-wave (km/s) = 4.97211 6.26670 5.65656
#
# Compressibility (1/GPa) = 0.02626188
#
# Stress axis : x y z
#
# Youngs Moduli (GPa) = 71.25845 65.48328 128.81190
#
# Poissons Ratio (x) = -0.04676 0.62753
# Poissons Ratio (y) = -0.05089 0.16042
# Poissons Ratio (z) = 0.34715 0.08155
#
# Static dielectric constant tensor:
#      x y z
#    x 1.922070 0.000000 -0.005420 
#    y 0.000000 1.896270 0.000000 
#    z -0.005420 0.000000 1.964340 
# 
# From -- ./inp_files/250080.got.cif
#   From: 2010.05.17/outbox.cif.g08.bks.cpg/sg12_126_cif.got.tgz:250080.got - 2010.06.03 13:09:07.
