data_PCOD9180671
_publ_section_title
;
Structure prediction by ZEFSAII (Michael W. Deem and Ramdas Pophale) SiO2 
 PCOD9180671
Probable space group: C 2/M
;
_chemical_formula_sum "Si O2"
_cell_formula_units_Z 56
_cell_length_a 9.482505
_cell_length_b 12.914527
_cell_length_c 24.316024
_cell_angle_alpha 90.000000
_cell_angle_beta 56.550824
_cell_angle_gamma 90.000000
_cell_volume 2484.594256
_symmetry_space_group_name_H-M "C 2/M"
_symmetry_group_IT_number 12
_symmetry_cell_setting 'monoclinic'
loop_
_space_group_symop_operation_xyz
x,y,z
-x,y,-z
-x,-y,-z
x,-y,z
1/2+x,1/2+y,z
1/2-x,1/2+y,-z
1/2-x,1/2-y,-z
1/2+x,1/2-y,z
loop_
_atom_site_type_symbol
_atom_site_label
_atom_site_fract_x
_atom_site_fract_y
_atom_site_fract_z
Si Si1 0.034172 0.386127 0.717720
Si Si2 0.818666 0.113454 0.928700
Si Si3 0.139364 0.878997 0.543811
Si Si4 0.813795 0.840820 0.172565
Si Si5 0.888518 0.615940 0.168944
Si Si6 0.739041 0.342531 0.939121
Si Si7 0.213344 0.784963 0.414268
O O1 0.096532 0.500000 0.688178
O O2 0.069898 0.373299 0.775064
O O3 0.134960 0.305060 0.660125
O O4 0.831555 0.382494 0.757126
O O5 0.712747 0.218243 0.944008
O O6 0.991743 0.132642 0.857628
O O7 0.747914 0.000000 0.931158
O O8 0.852376 0.115904 0.987449
O O9 0.219319 0.860881 0.466175
O O10 0.259633 0.827044 0.563664
O O11 0.963554 0.813409 0.577323
O O12 0.106526 0.000000 0.560204
O O13 0.782499 0.717240 0.177947
O O14 0.794141 0.882062 0.114753
O O15 0.821745 0.500000 0.175045
O O16 0.061764 0.631249 0.097438
#
# Coordination Sequence:
#
# PCOD9180671 Si02
#       7
#     8   8   8   8   8   8   8
#     4  10  20  35  55  78 108 147 185 230 285 347
#     4  10  19  32  51  71  97 133 170 219 275 329
#     4  10  21  41  65  95 129 165 208 260 310 364
#     4  10  20  33  50  76 103 132 178 225 271 338
#     4   9  19  34  52  73 101 139 179 222 276 339
#     4   9  19  33  48  72 101 128 171 223 272 330
#     4  10  21  38  65  94 126 164 209 255 304 370
#
# _framework density 22.538892000000001
#
# number of rings (size 3 to 8) (size 9 to 14) (size 15 to 20)
#    0.000    2.286    0.000    3.000    2.000    2.857 
#    0.000    7.143    0.000    6.000    0.000    0.000 
#    0.000    0.000    0.000    0.000    0.000    0.000 
#
# Total GULP energy -156219.256065 kJ/mol
# GULP energy per Si atom -5579.259145 kJ/mol
# Density = 2.248759 g / cm^3
# Si number density = 22.538892 Si / 1000 Ang^3
#
#
#
# Elastic Constant Matrix: (Units=GPa)
#
#
# Indices 1 2 3 4 5 6 
#
# 1 42.5805 26.2939 13.4256 0.0000 -2.5816 0.0000
# 2 26.2939 155.3942 8.4359 0.0000 3.1981 0.0000
# 3 13.4256 8.4359 109.5081 0.0000 -17.2892 0.0000
# 4 0.0000 0.0000 0.0000 13.4893 0.0000 -1.7523
# 5 -2.5816 3.1981 -17.2892 0.0000 19.5209 0.0000
# 6 0.0000 0.0000 0.0000 -1.7523 0.0000 11.7283
#
#
#
# Elastic Compliance Matrix: (Units=1/GPa)
#
#
# Indices 1 2 3 4 5 6 
#
# 1 0.027230 -0.004502 -0.002681 0.000000 0.001964 0.000000
# 2 -0.004502 0.007258 -0.000336 0.000000 -0.002082 0.000000
# 3 -0.002681 -0.000336 0.010974 0.000000 0.009419 0.000000
# 4 0.000000 0.000000 0.000000 0.075600 0.000000 0.011295
# 5 0.001964 -0.002082 0.009419 0.000000 0.060171 0.000000
# 6 0.000000 0.000000 0.000000 0.011295 0.000000 0.086952
#
#
# Mechanical properties :
#
#
# Convention : Reuss Voigt Hill
#
# Bulk Modulus (GPa) = 32.87086 44.86595 38.86840
# Shear Modulus (GPa) = 17.04370 26.23619 21.63994
#
# Velocity S-wave (km/s) = 2.75288 3.41551 3.10193
# Velocity P-wave (km/s) = 4.97194 5.95848 5.48742
#
# Compressibility (1/GPa) = 0.03042208
#
# Stress axis : x y z
#
# Youngs Moduli (GPa) = 36.72464 137.77600 91.12862
#
# Poissons Ratio (x) = 0.62031 0.24436
# Poissons Ratio (y) = 0.16535 0.03061
# Poissons Ratio (z) = 0.09848 0.04627
#
# Static dielectric constant tensor:
#      x y z
#    x 1.926770 0.000000 -0.003530 
#    y 0.000000 1.866410 0.000000 
#    z -0.003530 0.000000 1.797620 
# 
# From -- ./inp_files/357759.got.cif
#   From: 2010.05.17/outbox.cif.g08.bks.cpg/sg12_179_cif.got.tgz:357759.got - 2010.06.03 13:09:07.
