data_PCOD9180595
_publ_section_title
;
Structure prediction by ZEFSAII (Michael W. Deem and Ramdas Pophale) SiO2 
 PCOD9180595
Probable space group: C 2/M
;
_chemical_formula_sum "Si O2"
_cell_formula_units_Z 48
_cell_length_a 14.266904
_cell_length_b 19.017752
_cell_length_c 14.655231
_cell_angle_alpha 90.000000
_cell_angle_beta 148.636878
_cell_angle_gamma 90.000000
_cell_volume 2069.517309
_symmetry_space_group_name_H-M "C 2/M"
_symmetry_group_IT_number 12
_symmetry_cell_setting 'monoclinic'
loop_
_space_group_symop_operation_xyz
x,y,z
-x,y,-z
-x,-y,-z
x,-y,z
1/2+x,1/2+y,z
1/2-x,1/2+y,-z
1/2-x,1/2-y,-z
1/2+x,1/2-y,z
loop_
_atom_site_type_symbol
_atom_site_label
_atom_site_fract_x
_atom_site_fract_y
_atom_site_fract_z
Si Si1 0.226936 0.581978 0.242811
Si Si2 0.458858 0.364444 0.604753
Si Si3 0.503105 0.781255 0.713067
Si Si4 0.480452 0.920297 0.191556
Si Si5 0.051278 0.077970 0.872189
Si Si6 0.416934 0.720189 0.020600
O O1 0.243795 0.500000 0.229241
O O2 0.334256 0.629383 0.259966
O O3 0.342286 0.597436 0.431382
O O4 0.030812 0.592242 0.126328
O O5 0.408650 0.282391 0.580304
O O6 0.456573 0.404705 0.698054
O O7 0.439047 0.861075 0.673863
O O8 0.702378 0.783821 0.835839
O O9 0.532753 0.756935 0.842520
O O10 0.538733 0.000000 0.260225
O O11 0.265613 0.917348 0.027825
O O12 0.009630 0.000000 0.870177
O O13 0.008990 0.141054 0.905091
O O14 0.500000 0.753408 0.000000
#
# Coordination Sequence:
#
# PCOD9180595 Si02
#       6
#     8   8   8   8   8   8
#     4  10  20  33  51  77 105 137 168 207 265 305
#     4  10  19  32  50  75 105 136 167 213 255 305
#     4   9  19  33  49  76 101 135 175 203 258 306
#     4   9  19  34  51  74 102 132 169 213 254 301
#     4   9  17  32  51  74 103 134 172 209 248 303
#     4   9  18  31  49  74 106 135 163 216 259 295
#
# _framework density 23.193814
#
# number of rings (size 3 to 8) (size 9 to 14) (size 15 to 20)
#    0.000    2.667    0.000    3.000    2.333    1.667 
#    0.000    2.500    0.000    0.000    0.000    2.333 
#    0.000    1.500    0.000    0.000    0.000    0.000 
#
# Total GULP energy -134021.501541 kJ/mol
# GULP energy per Si atom -5584.229231 kJ/mol
# Density = 2.314102 g / cm^3
# Si number density = 23.193814 Si / 1000 Ang^3
#
#
#
# Elastic Constant Matrix: (Units=GPa)
#
#
# Indices 1 2 3 4 5 6 
#
# 1 91.5445 10.5928 -8.6594 0.0000 -1.3920 0.0000
# 2 10.5928 152.6598 1.1574 0.0000 2.6832 0.0000
# 3 -8.6594 1.1574 30.4301 0.0000 6.8120 -0.0001
# 4 0.0000 0.0000 0.0000 23.4589 0.0000 2.9750
# 5 -1.3920 2.6832 6.8120 0.0000 21.6358 -0.0001
# 6 0.0000 0.0000 -0.0001 2.9750 -0.0001 33.1277
#
#
#
# Elastic Compliance Matrix: (Units=1/GPa)
#
#
# Indices 1 2 3 4 5 6 
#
# 1 0.011326 -0.000807 0.003301 0.000000 -0.000210 0.000000
# 2 -0.000807 0.006623 -0.000308 0.000000 -0.000776 0.000000
# 3 0.003301 -0.000308 0.036317 0.000000 -0.011184 0.000000
# 4 0.000000 0.000000 0.000000 0.043119 0.000000 -0.003872
# 5 -0.000210 -0.000776 -0.011184 0.000000 0.049824 0.000000
# 6 0.000000 0.000000 0.000000 -0.003872 0.000000 0.030534
#
#
# Mechanical properties :
#
#
# Convention : Reuss Voigt Hill
#
# Bulk Modulus (GPa) = 17.05406 31.20178 24.12792
# Shear Modulus (GPa) = 25.91804 33.74738 29.83271
#
# Velocity S-wave (km/s) = 3.34646 3.81861 3.59030
# Velocity P-wave (km/s) = 4.72235 5.73796 5.25475
#
# Compressibility (1/GPa) = 0.05863705
#
# Stress axis : x y z
#
# Youngs Moduli (GPa) = 88.29174 151.00025 27.53545
#
# Poissons Ratio (x) = 0.12189 -0.09089
# Poissons Ratio (y) = 0.07127 0.00848
# Poissons Ratio (z) = -0.29144 0.04648
#
# Static dielectric constant tensor:
#      x y z
#    x 1.872290 0.000000 0.093940 
#    y 0.000000 1.912370 0.000000 
#    z 0.093940 0.000000 1.969400 
# 
# From -- ./inp_files/106599.got.cif
#   From: 2010.05.17/outbox.cif.g08.bks.cpg/sg12_54_cif.got.tgz:106599.got - 2010.06.03 13:09:07.
