data_PCOD9180041
_publ_section_title
;
Structure prediction by ZEFSAII (Michael W. Deem and Ramdas Pophale) SiO2 
 PCOD9180041
Probable space group: C 2/M
;
_chemical_formula_sum "Si O2"
_cell_formula_units_Z 64
_cell_length_a 34.488158
_cell_length_b 7.433265
_cell_length_c 16.876916
_cell_angle_alpha 90.000000
_cell_angle_beta 137.822050
_cell_angle_gamma 90.000000
_cell_volume 2905.005559
_symmetry_space_group_name_H-M "C 2/M"
_symmetry_group_IT_number 12
_symmetry_cell_setting 'monoclinic'
loop_
_space_group_symop_operation_xyz
x,y,z
-x,y,-z
-x,-y,-z
x,-y,z
1/2+x,1/2+y,z
1/2-x,1/2+y,-z
1/2-x,1/2-y,-z
1/2+x,1/2-y,z
loop_
_atom_site_type_symbol
_atom_site_label
_atom_site_fract_x
_atom_site_fract_y
_atom_site_fract_z
Si Si1 0.703736 0.285184 0.998017
Si Si2 0.424148 0.717455 0.188670
Si Si3 0.263068 0.279403 0.775309
Si Si4 0.973199 0.707898 0.538812
Si Si5 0.097413 0.216638 0.296717
Si Si6 0.365362 0.719564 0.813332
Si Si7 0.636599 0.786408 0.534409
Si Si8 0.965846 0.781499 0.078433
O O1 0.698753 0.500000 0.997838
O O2 0.723009 0.220215 0.114049
O O3 0.750000 0.250000 0.000000
O O4 0.639131 0.220106 0.880434
O O5 0.427060 0.500000 0.198437
O O6 0.476704 0.788486 0.319895
O O7 0.433809 0.765463 0.111627
O O8 0.263662 0.500000 0.776099
O O9 0.312501 0.222180 0.788470
O O10 0.199844 0.217771 0.652433
O O11 0.959355 0.500000 0.498318
O O12 0.000000 0.791192 0.500000
O O13 0.915363 0.787645 0.489846
O O14 0.135269 0.276940 0.278993
O O15 0.120808 0.263509 0.418450
O O16 0.031675 0.281456 0.183809
O O17 0.095307 0.000000 0.291191
O O18 0.364703 0.500000 0.813398
O O19 0.425862 0.776122 0.945188
O O20 0.638365 0.000000 0.550967
O O21 0.968138 0.000000 0.077928
#
# Coordination Sequence:
#
# PCOD9180041 Si02
#       8
#     8   8   8   8   8   8   8   8
#     4  10  21  36  57  82 107 137 175 216 261 312
#     4  10  19  34  57  83 108 134 167 216 272 310
#     4   9  18  34  53  73 102 140 177 213 252 306
#     4  10  22  37  54  77 103 138 182 218 253 310
#     4  10  19  31  53  81 105 132 169 215 261 304
#     4   9  16  29  52  80 103 130 173 216 255 304
#     4  10  21  36  52  72 103 141 176 211 256 307
#     4   9  15  28  50  79 108 129 161 210 259 305
#
# _framework density 22.030939
#
# number of rings (size 3 to 8) (size 9 to 14) (size 15 to 20)
#    0.000    2.375    2.500    0.375    1.750    2.750 
#    0.000    0.625    0.000    3.000    0.000    0.000 
#    0.000    0.000    0.000    0.000    0.000    0.000 
#
# Total GULP energy -178755.299353 kJ/mol
# GULP energy per Si atom -5586.103105 kJ/mol
# Density = 2.198080 g / cm^3
# Si number density = 22.030939 Si / 1000 Ang^3
#
#
#
# Elastic Constant Matrix: (Units=GPa)
#
#
# Indices 1 2 3 4 5 6 
#
# 1 136.6818 4.1298 37.1826 0.0000 13.5329 -0.0001
# 2 4.1298 67.3792 -2.5375 -0.0002 1.9352 -0.0007
# 3 37.1826 -2.5375 77.7342 0.0000 22.5384 0.0000
# 4 0.0000 -0.0002 0.0000 16.5506 0.0000 -7.1723
# 5 13.5329 1.9352 22.5384 0.0000 38.8074 0.0000
# 6 -0.0001 -0.0007 0.0000 -7.1723 0.0000 4.3120
#
#
#
# Elastic Compliance Matrix: (Units=1/GPa)
#
#
# Indices 1 2 3 4 5 6 
#
# 1 0.008455 -0.000645 -0.003872 0.000000 -0.000668 0.000000
# 2 -0.000645 0.014958 0.001140 0.000004 -0.001183 0.000009
# 3 -0.003872 0.001140 0.017290 0.000000 -0.008748 0.000001
# 4 0.000000 0.000004 0.000000 0.216424 -0.000001 0.359989
# 5 -0.000668 -0.001183 -0.008748 -0.000001 0.031141 -0.000001
# 6 0.000000 0.000009 0.000001 0.359989 -0.000001 0.830697
#
#
# Mechanical properties :
#
#
# Convention : Reuss Voigt Hill
#
# Bulk Modulus (GPa) = 29.45587 39.92721 34.69154
# Shear Modulus (GPa) = 4.39740 28.13536 16.26638
#
# Velocity S-wave (km/s) = 1.41434 3.57751 2.72019
# Velocity P-wave (km/s) = 4.00829 5.93526 5.06427
#
# Compressibility (1/GPa) = 0.03394909
#
# Stress axis : x y z
#
# Youngs Moduli (GPa) = 118.27138 66.85471 57.83669
#
# Poissons Ratio (x) = 0.04311 0.22393
# Poissons Ratio (y) = 0.07627 -0.06592
# Poissons Ratio (z) = 0.45792 -0.07620
#
# Static dielectric constant tensor:
#      x y z
#    x 1.802120 0.000000 0.008430 
#    y 0.000000 1.881360 0.000000 
#    z 0.008430 0.000000 1.758350 
# 
# From -- ./inp_files/249953.got.cif
#   From: 2010.05.17/outbox.cif.g08.bks.cpg/sg12_125_cif.got.tgz:249953.got - 2010.06.03 13:09:07.
