data_PCOD9180257
_publ_section_title
;
Structure prediction by ZEFSAII (Michael W. Deem and Ramdas Pophale) SiO2 
 PCOD9180257
Probable space group: C 2/M
;
_chemical_formula_sum "Si O2"
_cell_formula_units_Z 56
_cell_length_a 24.459663
_cell_length_b 13.977477
_cell_length_c 19.803666
_cell_angle_alpha 90.000000
_cell_angle_beta 150.393577
_cell_angle_gamma 90.000000
_cell_volume 3344.924950
_symmetry_space_group_name_H-M "C 2/M"
_symmetry_group_IT_number 12
_symmetry_cell_setting 'monoclinic'
loop_
_space_group_symop_operation_xyz
x,y,z
-x,y,-z
-x,-y,-z
x,-y,z
1/2+x,1/2+y,z
1/2-x,1/2+y,-z
1/2-x,1/2-y,-z
1/2+x,1/2-y,z
loop_
_atom_site_type_symbol
_atom_site_label
_atom_site_fract_x
_atom_site_fract_y
_atom_site_fract_z
Si Si1 0.927883 0.806514 0.059086
Si Si2 0.320949 0.301153 0.668648
Si Si3 0.167464 0.608532 0.393831
Si Si4 0.589532 0.890720 0.904390
Si Si5 0.782507 0.615215 0.092018
Si Si6 0.407028 0.110230 0.352706
Si Si7 0.325540 0.390578 0.818180
O O1 0.909894 0.691896 0.039147
O O2 0.052742 0.825487 0.216828
O O3 0.836443 0.847753 0.012039
O O4 0.907632 0.851843 0.963968
O O5 0.232902 0.362077 0.531549
O O6 0.303864 0.190127 0.630279
O O7 0.316627 0.325647 0.742680
O O8 0.195782 0.500000 0.404492
O O9 0.034461 0.611704 0.260111
O O10 0.677024 0.864958 0.939871
O O11 0.608984 0.000000 0.948077
O O12 0.780200 0.500000 0.096756
O O13 0.872858 0.652469 0.243635
O O14 0.500000 0.156062 0.500000
O O15 0.293546 0.107969 0.272873
O O16 0.443651 0.000000 0.378901
O O17 0.353484 0.500000 0.829287
#
# Coordination Sequence:
#
# PCOD9180257 Si02
#       7
#     8   8   8   8   8   8   8
#     4  10  19  32  46  69 101 124 155 196 233 283
#     4  10  20  32  49  72  96 126 159 190 233 287
#     4   9  19  34  50  70  95 123 159 200 234 270
#     4   9  18  32  50  68  91 125 163 200 234 271
#     4   9  17  28  45  69  96 124 154 190 234 279
#     4   8  15  26  41  66  95 119 147 185 228 276
#     4  10  20  31  47  71  97 124 153 190 238 286
#
# _framework density 16.741779999999999
#
# number of rings (size 3 to 8) (size 9 to 14) (size 15 to 20)
#    0.000    2.714    0.000    2.571    2.000    2.857 
#    0.000    0.714    0.000    3.429    0.000    0.000 
#    0.000    3.429    0.000    0.000    0.000    0.000 
#
# Total GULP energy -155910.459175 kJ/mol
# GULP energy per Si atom -5568.230685 kJ/mol
# Density = 1.670368 g / cm^3
# Si number density = 16.741780 Si / 1000 Ang^3
#
#
#
# Elastic Constant Matrix: (Units=GPa)
#
#
# Indices 1 2 3 4 5 6 
#
# 1 32.2253 24.5996 -3.4561 0.0000 -6.7233 0.0000
# 2 24.5996 64.0549 18.8738 0.0000 -8.1109 0.0000
# 3 -3.4561 18.8738 48.0831 0.0000 -1.8651 0.0000
# 4 0.0000 0.0000 0.0000 19.6361 0.0000 2.3545
# 5 -6.7233 -8.1109 -1.8651 0.0000 11.0266 0.0000
# 6 0.0000 0.0000 0.0000 2.3545 0.0000 18.6236
#
#
#
# Elastic Compliance Matrix: (Units=1/GPa)
#
#
# Indices 1 2 3 4 5 6 
#
# 1 0.052983 -0.021877 0.013110 0.000000 0.018431 0.000000
# 2 -0.021877 0.028384 -0.012503 0.000000 0.005425 0.000000
# 3 0.013110 -0.012503 0.026777 0.000000 0.003326 0.000000
# 4 0.000000 0.000000 0.000000 0.051710 0.000000 -0.006538
# 5 0.018431 0.005425 0.003326 0.000000 0.106481 0.000000
# 6 0.000000 0.000000 0.000000 -0.006538 0.000000 0.054522
#
#
# Mechanical properties :
#
#
# Convention : Reuss Voigt Hill
#
# Bulk Modulus (GPa) = 15.24301 24.93311 20.08806
# Shear Modulus (GPa) = 12.97812 16.81367 14.89589
#
# Velocity S-wave (km/s) = 2.78725 3.17250 2.98609
# Velocity P-wave (km/s) = 4.41394 5.32398 4.89018
#
# Compressibility (1/GPa) = 0.06560382
#
# Stress axis : x y z
#
# Youngs Moduli (GPa) = 18.87407 35.23097 37.34613
#
# Poissons Ratio (x) = 0.77073 -0.48962
# Poissons Ratio (y) = 0.41290 0.46696
# Poissons Ratio (z) = -0.24744 0.44051
#
# Static dielectric constant tensor:
#      x y z
#    x 1.562510 0.000000 0.010010 
#    y 0.000000 1.583820 0.000000 
#    z 0.010010 0.000000 1.582120 
# 
# From -- ./inp_files/327631.got.cif
#   From: 2010.05.17/outbox.cif.g08.bks.cpg/sg12_164_cif.got.tgz:327631.got - 2010.06.03 13:09:07.
