data_PCOD9180499
_publ_section_title
;
Structure prediction by ZEFSAII (Michael W. Deem and Ramdas Pophale) SiO2 
 PCOD9180499
Probable space group: C 2/M
;
_chemical_formula_sum "Si O2"
_cell_formula_units_Z 64
_cell_length_a 20.850831
_cell_length_b 29.453181
_cell_length_c 7.422331
_cell_angle_alpha 90.000000
_cell_angle_beta 135.118092
_cell_angle_gamma 90.000000
_cell_volume 3216.502737
_symmetry_space_group_name_H-M "C 2/M"
_symmetry_group_IT_number 12
_symmetry_cell_setting 'monoclinic'
loop_
_space_group_symop_operation_xyz
x,y,z
-x,y,-z
-x,-y,-z
x,-y,z
1/2+x,1/2+y,z
1/2-x,1/2+y,-z
1/2-x,1/2-y,-z
1/2+x,1/2-y,z
loop_
_atom_site_type_symbol
_atom_site_label
_atom_site_fract_x
_atom_site_fract_y
_atom_site_fract_z
Si Si1 0.770086 0.630065 0.524284
Si Si2 0.901720 0.175044 0.279070
Si Si3 0.715387 0.864288 0.866410
Si Si4 0.605103 0.315221 0.165538
Si Si5 0.897509 0.285172 0.865738
Si Si6 0.393791 0.050138 0.330507
Si Si7 0.352956 0.769438 0.194228
Si Si8 0.897118 0.448394 0.769077
O O1 0.762259 0.622917 0.293926
O O2 0.670494 0.647272 0.382213
O O3 0.835093 0.673050 0.686850
O O4 0.821325 0.585384 0.695600
O O5 0.906061 0.225585 0.375502
O O6 0.000000 0.152672 0.500000
O O7 0.809810 0.149135 0.151492
O O8 0.887695 0.182664 0.037237
O O9 0.662975 0.906574 0.847317
O O10 0.653002 0.818984 0.729944
O O11 0.633356 0.263860 0.273296
O O12 0.500000 0.321755 0.000000
O O13 0.888629 0.279851 0.064063
O O14 0.000000 0.292270 0.000000
O O15 0.500000 0.056179 0.500000
O O16 0.385553 0.049247 0.530694
O O17 0.365739 0.000000 0.208048
O O18 0.250000 0.750000 0.000000
O O19 0.893026 0.500000 0.832154
O O20 0.000000 0.430762 0.000000
#
# Coordination Sequence:
#
# PCOD9180499 Si02
#       8
#     8   8   8   8   8   8   8   8
#     4  10  19  32  50  71  98 128 162 203 247 293
#     4   9  18  32  47  65  92 125 161 197 234 279
#     4   9  19  32  48  71  95 125 164 201 241 292
#     4   9  19  32  46  67  93 125 162 198 235 281
#     4  10  20  32  48  73 102 132 166 203 248 293
#     4   9  18  32  50  71  95 123 154 194 243 292
#     4   9  19  33  47  69  99 131 168 202 239 289
#     4   9  18  33  51  71  96 125 157 194 241 297
#
# _framework density 19.897387999999999
#
# number of rings (size 3 to 8) (size 9 to 14) (size 15 to 20)
#    0.000    2.750    0.000    1.500    0.000    8.500 
#    0.000    0.000    0.000    0.750    0.000    0.000 
#    0.000    0.000    0.000    0.000    0.000    1.625 
#
# Total GULP energy -178378.501494 kJ/mol
# GULP energy per Si atom -5574.328172 kJ/mol
# Density = 1.985210 g / cm^3
# Si number density = 19.897388 Si / 1000 Ang^3
#
#
#
# Elastic Constant Matrix: (Units=GPa)
#
#
# Indices 1 2 3 4 5 6 
#
# 1 58.3501 23.4370 7.5178 0.0000 9.0561 0.0000
# 2 23.4370 129.5263 34.3532 0.0000 37.5734 0.0000
# 3 7.5178 34.3532 45.7501 0.0000 13.7191 0.0000
# 4 0.0000 0.0000 0.0000 21.4799 0.0000 11.4551
# 5 9.0561 37.5734 13.7191 0.0000 45.0112 0.0000
# 6 0.0000 0.0000 0.0000 11.4551 0.0000 18.1393
#
#
#
# Elastic Compliance Matrix: (Units=1/GPa)
#
#
# Indices 1 2 3 4 5 6 
#
# 1 0.018543 -0.002873 -0.000539 0.000000 -0.001168 0.000000
# 2 -0.002873 0.012135 -0.006357 0.000000 -0.007614 0.000000
# 3 -0.000539 -0.006357 0.027620 0.000000 -0.003004 0.000000
# 4 0.000000 0.000000 0.000000 0.070196 0.000000 -0.044329
# 5 -0.001168 -0.007614 -0.003004 0.000000 0.029723 0.000000
# 6 0.000000 0.000000 0.000000 -0.044329 0.000000 0.083123
#
#
# Mechanical properties :
#
#
# Convention : Reuss Voigt Hill
#
# Bulk Modulus (GPa) = 25.80001 40.47139 33.13570
# Shear Modulus (GPa) = 18.26159 28.14732 23.20445
#
# Velocity S-wave (km/s) = 3.03279 3.76523 3.41868
# Velocity P-wave (km/s) = 5.02578 6.26792 5.68090
#
# Compressibility (1/GPa) = 0.03875967
#
# Stress axis : x y z
#
# Youngs Moduli (GPa) = 53.92925 82.40592 36.20523
#
# Poissons Ratio (x) = 0.23679 0.01952
# Poissons Ratio (y) = 0.15496 0.23014
# Poissons Ratio (z) = 0.02908 0.52382
#
# Static dielectric constant tensor:
#      x y z
#    x 1.777800 0.000000 -0.049030 
#    y 0.000000 1.729190 0.000000 
#    z -0.049030 0.000000 1.760290 
# 
# From -- ./inp_files/91111.got.cif
#   From: 2010.05.17/outbox.cif.g08.bks.cpg/sg12_46_cif.got.tgz:91111.got - 2010.06.03 13:09:07.
