data_PCOD9180787
_publ_section_title
;
Structure prediction by ZEFSAII (Michael W. Deem and Ramdas Pophale) SiO2 
 PCOD9180787
Probable space group: C 2/M
;
_chemical_formula_sum "Si O2"
_cell_formula_units_Z 64
_cell_length_a 32.517003
_cell_length_b 8.791024
_cell_length_c 16.116646
_cell_angle_alpha 90.000000
_cell_angle_beta 125.545195
_cell_angle_gamma 90.000000
_cell_volume 3748.574258
_symmetry_space_group_name_H-M "C 2/M"
_symmetry_group_IT_number 12
_symmetry_cell_setting 'monoclinic'
loop_
_space_group_symop_operation_xyz
x,y,z
-x,y,-z
-x,-y,-z
x,-y,z
1/2+x,1/2+y,z
1/2-x,1/2+y,-z
1/2-x,1/2-y,-z
1/2+x,1/2-y,z
loop_
_atom_site_type_symbol
_atom_site_label
_atom_site_fract_x
_atom_site_fract_y
_atom_site_fract_z
Si Si1 0.927994 0.683274 0.586425
Si Si2 0.305306 0.680359 0.169206
Si Si3 0.707213 0.318815 0.142502
Si Si4 0.324253 0.816684 0.543906
Si Si5 0.271840 0.818182 0.655298
Si Si6 0.357565 0.182439 0.071067
Si Si7 0.088725 0.179378 0.613996
Si Si8 0.459736 0.183375 0.281368
O O1 0.927503 0.500000 0.584808
O O2 0.880867 0.732393 0.587563
O O3 0.919186 0.741501 0.483012
O O4 0.984184 0.731288 0.679630
O O5 0.297058 0.500000 0.148031
O O6 0.256836 0.755555 0.153787
O O7 0.320545 0.756102 0.099963
O O8 0.353945 0.701042 0.285981
O O9 0.707363 0.500000 0.140956
O O10 0.709554 0.258647 0.238907
O O11 0.660005 0.253953 0.035593
O O12 0.306950 0.780139 0.617155
O O13 0.283871 0.740483 0.434933
O O14 0.320449 0.000000 0.530133
O O15 0.270729 0.000000 0.664401
O O16 0.414065 0.226675 0.166468
O O17 0.354195 0.000000 0.063565
O O18 0.053251 0.248206 0.643947
O O19 0.079284 0.000000 0.595413
O O20 0.458578 0.000000 0.287123
#
# Coordination Sequence:
#
# PCOD9180787 Si02
#       8
#     8   8   8   8   8   8   8   8
#     4  10  19  32  51  74  99 129 166 203 243 291
#     4  10  20  34  50  72 103 135 167 203 244 292
#     4  12  23  34  51  74  99 130 168 206 247 294
#     4   9  19  35  55  78 104 131 159 198 246 295
#     4  10  20  35  54  77 104 131 161 198 244 297
#     4  10  20  35  52  71  98 132 169 207 247 289
#     4  10  20  31  46  72 104 135 166 200 239 286
#     4   9  19  34  51  70  96 132 169 205 243 286
#
# _framework density 17.073157999999999
#
# number of rings (size 3 to 8) (size 9 to 14) (size 15 to 20)
#    0.000    2.000    0.000    4.125    0.000    7.000 
#    0.000    0.000    0.000    0.750    0.000    5.250 
#    0.000    0.000    0.000    0.000    0.000    0.000 
#
# Total GULP energy -178710.667547 kJ/mol
# GULP energy per Si atom -5584.708361 kJ/mol
# Density = 1.703430 g / cm^3
# Si number density = 17.073158 Si / 1000 Ang^3
#
#
#
# Elastic Constant Matrix: (Units=GPa)
#
#
# Indices 1 2 3 4 5 6 
#
# 1 118.8672 34.4972 66.0105 0.0000 15.5976 0.0000
# 2 34.4972 50.1954 44.6720 0.0000 0.9388 0.0000
# 3 66.0105 44.6720 117.2272 0.0000 -6.7671 0.0000
# 4 0.0000 0.0000 0.0000 29.0869 0.0000 -0.7864
# 5 15.5976 0.9388 -6.7671 0.0000 13.6431 0.0000
# 6 0.0000 0.0000 0.0000 -0.7864 0.0000 18.7777
#
#
#
# Elastic Compliance Matrix: (Units=1/GPa)
#
#
# Indices 1 2 3 4 5 6 
#
# 1 0.018965 -0.002465 -0.011305 0.000000 -0.027120 0.000000
# 2 -0.002465 0.031339 -0.010826 0.000000 -0.004708 0.000000
# 3 -0.011305 -0.010826 0.020395 0.000000 0.023786 0.000000
# 4 0.000000 0.000000 0.000000 0.034419 0.000000 0.001441
# 5 -0.027120 -0.004708 0.023786 0.000000 0.116424 0.000000
# 6 0.000000 0.000000 0.000000 0.001441 0.000000 0.053315
#
#
# Mechanical properties :
#
#
# Convention : Reuss Voigt Hill
#
# Bulk Modulus (GPa) = 46.49868 64.07213 55.28540
# Shear Modulus (GPa) = 15.09577 21.70890 18.40233
#
# Velocity S-wave (km/s) = 2.97674 3.56971 3.28663
# Velocity P-wave (km/s) = 6.25370 7.38917 6.84502
#
# Compressibility (1/GPa) = 0.02150599
#
# Stress axis : x y z
#
# Youngs Moduli (GPa) = 52.72871 31.90882 49.03180
#
# Poissons Ratio (x) = 0.07867 0.55431
# Poissons Ratio (y) = 0.13000 0.53082
# Poissons Ratio (z) = 0.59611 0.34544
#
# Static dielectric constant tensor:
#      x y z
#    x 1.577140 0.000000 0.025350 
#    y 0.000000 1.569000 0.000000 
#    z 0.025350 0.000000 1.570780 
# 
# From -- ./inp_files/249172.got.cif
#   From: 2010.05.17/outbox.cif.g08.bks.cpg/sg12_125_cif.got.tgz:249172.got - 2010.06.03 13:09:07.
