data_PCOD9180950
_publ_section_title
;
Structure prediction by ZEFSAII (Michael W. Deem and Ramdas Pophale) SiO2 
 PCOD9180950
Probable space group: C 2/M
;
_chemical_formula_sum "Si O2"
_cell_formula_units_Z 64
_cell_length_a 21.261633
_cell_length_b 17.474145
_cell_length_c 15.211247
_cell_angle_alpha 90.000000
_cell_angle_beta 148.788201
_cell_angle_gamma 90.000000
_cell_volume 2928.582179
_symmetry_space_group_name_H-M "C 2/M"
_symmetry_group_IT_number 12
_symmetry_cell_setting 'monoclinic'
loop_
_space_group_symop_operation_xyz
x,y,z
-x,y,-z
-x,-y,-z
x,-y,z
1/2+x,1/2+y,z
1/2-x,1/2+y,-z
1/2-x,1/2-y,-z
1/2+x,1/2-y,z
loop_
_atom_site_type_symbol
_atom_site_label
_atom_site_fract_x
_atom_site_fract_y
_atom_site_fract_z
Si Si1 0.000907 0.630317 0.229187
Si Si2 0.123264 0.585881 0.677562
Si Si3 0.276008 0.878842 0.379943
Si Si4 0.101324 0.205770 0.896198
Si Si5 0.103146 0.916048 0.328177
Si Si6 0.640824 0.241393 0.138348
Si Si7 0.251366 0.911238 0.992443
Si Si8 0.826269 0.409694 0.725836
O O1 0.095722 0.606967 0.418226
O O2 0.070487 0.614977 0.221424
O O3 0.971421 0.718109 0.215718
O O4 0.869865 0.590938 0.073361
O O5 0.086929 0.500000 0.660485
O O6 0.211735 0.585290 0.700870
O O7 0.194033 0.611386 0.846847
O O8 0.000000 0.627417 0.500000
O O9 0.178449 0.913817 0.328429
O O10 0.230664 0.792126 0.306801
O O11 0.003797 0.142910 0.807057
O O12 0.160484 0.233899 0.060280
O O13 0.163550 0.163224 0.885665
O O14 0.199792 0.900016 0.521359
O O15 0.052499 0.000000 0.282649
O O16 0.666089 0.151946 0.187337
O O17 0.500000 0.256296 0.000000
O O18 0.205598 0.000000 0.937382
O O19 0.839692 0.500000 0.763994
#
# Coordination Sequence:
#
# PCOD9180950 Si02
#       8
#     8   8   8   8   8   8   8   8
#     4  11  22  38  61  84 114 152 201 241 284 341
#     4  10  19  32  51  78 112 145 181 226 279 338
#     4  11  20  35  58  85 115 151 190 234 286 346
#     4  12  23  39  56  86 121 155 191 235 296 350
#     4  10  21  37  59  86 118 155 194 234 288 353
#     4  12  22  38  56  85 122 154 186 238 295 353
#     4  11  23  38  58  84 116 152 191 239 290 344
#     4  10  22  40  62  87 113 153 201 245 288 337
#
# _framework density 21.853577999999999
#
# number of rings (size 3 to 8) (size 9 to 14) (size 15 to 20)
#    0.000    1.125    5.000    2.250    0.000    3.250 
#    0.000    0.625    0.000    0.000    0.000    0.000 
#    0.000    7.500    0.000    0.000    0.000    0.000 
#
# Total GULP energy -178395.876960 kJ/mol
# GULP energy per Si atom -5574.871155 kJ/mol
# Density = 2.180384 g / cm^3
# Si number density = 21.853578 Si / 1000 Ang^3
#
#
#
# Elastic Constant Matrix: (Units=GPa)
#
#
# Indices 1 2 3 4 5 6 
#
# 1 55.5230 25.2109 15.9554 0.0000 5.3044 0.0000
# 2 25.2109 142.1476 26.2345 0.0000 2.4392 0.0000
# 3 15.9554 26.2345 28.9267 0.0000 1.5779 0.0000
# 4 0.0000 0.0000 0.0000 6.3341 0.0000 9.6042
# 5 5.3044 2.4392 1.5779 0.0000 16.9168 0.0000
# 6 0.0000 0.0000 0.0000 9.6042 0.0000 13.8953
#
#
#
# Elastic Compliance Matrix: (Units=1/GPa)
#
#
# Indices 1 2 3 4 5 6 
#
# 1 0.022408 -0.001984 -0.010245 0.000000 -0.005785 0.000000
# 2 -0.001984 0.008629 -0.006732 0.000000 0.000006 0.000000
# 3 -0.010245 -0.006732 0.046334 0.000000 -0.000139 0.000000
# 4 0.000000 0.000000 0.000000 -3.287604 0.000000 2.272332
# 5 -0.005785 0.000006 -0.000139 0.000000 0.060939 0.000000
# 6 0.000000 0.000000 0.000000 2.272332 0.000000 -1.498628
#
#
# Mechanical properties :
#
#
# Convention : Reuss Voigt Hill
#
# Bulk Modulus (GPa) = 25.34897 40.15544 32.75221
# Shear Modulus (GPa) = -1.08770 18.04234 8.47732
#
# Velocity S-wave (km/s) = -0.70626 2.87644 1.97169
# Velocity P-wave (km/s) = 3.31052 5.42647 4.49478
#
# Compressibility (1/GPa) = 0.03944934
#
# Stress axis : x y z
#
# Youngs Moduli (GPa) = 44.62664 115.88567 21.58242
#
# Poissons Ratio (x) = 0.22994 0.22111
# Poissons Ratio (y) = 0.08855 0.14529
# Poissons Ratio (z) = 0.45719 0.78014
#
# Static dielectric constant tensor:
#      x y z
#    x 2.392420 0.000000 0.556750 
#    y 0.000000 1.838190 0.000000 
#    z 0.556750 0.000000 2.433970 
# 
# From -- ./inp_files/290119.got.cif
#   From: 2010.05.17/outbox.cif.g08.bks.cpg/sg12_146_cif.got.tgz:290119.got - 2010.06.03 13:09:07.
