data_PCOD9180819
_publ_section_title
;
Structure prediction by ZEFSAII (Michael W. Deem and Ramdas Pophale) SiO2 
 PCOD9180819
Probable space group: C 2/M
;
_chemical_formula_sum "Si O2"
_cell_formula_units_Z 56
_cell_length_a 16.729442
_cell_length_b 7.518358
_cell_length_c 28.005786
_cell_angle_alpha 90.000000
_cell_angle_beta 135.380614
_cell_angle_gamma 90.000000
_cell_volume 2474.189564
_symmetry_space_group_name_H-M "C 2/M"
_symmetry_group_IT_number 12
_symmetry_cell_setting 'monoclinic'
loop_
_space_group_symop_operation_xyz
x,y,z
-x,y,-z
-x,-y,-z
x,-y,z
1/2+x,1/2+y,z
1/2-x,1/2+y,-z
1/2-x,1/2-y,-z
1/2+x,1/2-y,z
loop_
_atom_site_type_symbol
_atom_site_label
_atom_site_fract_x
_atom_site_fract_y
_atom_site_fract_z
Si Si1 0.661610 0.786647 0.505758
Si Si2 0.483010 0.217455 0.358947
Si Si3 0.660105 0.706414 0.348622
Si Si4 0.939680 0.200308 0.928255
Si Si5 0.379003 0.794307 0.067480
Si Si6 0.955590 0.785863 0.206496
Si Si7 0.781297 0.702909 0.214795
O O1 0.750000 0.750000 0.500000
O O2 0.540107 0.726304 0.433251
O O3 0.723884 0.715515 0.579773
O O4 0.653963 0.000000 0.507982
O O5 0.569198 0.282406 0.353982
O O6 0.356218 0.277309 0.290545
O O7 0.483539 0.000000 0.357328
O O8 0.684050 0.500000 0.347954
O O9 0.584604 0.777340 0.272778
O O10 0.831443 0.286699 0.855992
O O11 0.036403 0.188221 0.930004
O O12 0.902116 0.000000 0.927775
O O13 0.000000 0.284849 0.000000
O O14 0.409802 0.758574 0.135198
O O15 0.398720 0.000000 0.065294
O O16 0.250000 0.750000 0.000000
O O17 0.871495 0.703830 0.209838
O O18 0.953419 0.000000 0.211760
O O19 0.749933 0.500000 0.214993
#
# Coordination Sequence:
#
# PCOD9180819 Si02
#       7
#     8   8   8   8   8   8   8
#     4   8  12  19  32  54  87 124 161 198 238 282
#     4   8  13  21  36  60  91 127 163 200 241 286
#     4   8  14  23  37  60  91 127 162 199 241 283
#     4  10  21  37  56  77 102 131 162 199 244 293
#     4  12  25  40  58  78 101 128 161 200 242 291
#     4  10  19  32  51  75 104 135 168 205 246 292
#     4   9  17  30  49  74 104 136 169 206 250 296
#
# _framework density 22.633675
#
# number of rings (size 3 to 8) (size 9 to 14) (size 15 to 20)
#    0.000    2.714    0.000    2.571    0.000    2.571 
#    0.000    0.000    0.000    0.000    0.000    1.000 
#    0.000    8.000    0.000    0.000    0.000    0.000 
#
# Total GULP energy -156000.242596 kJ/mol
# GULP energy per Si atom -5571.437236 kJ/mol
# Density = 2.258216 g / cm^3
# Si number density = 22.633675 Si / 1000 Ang^3
#
#
#
# Elastic Constant Matrix: (Units=GPa)
#
#
# Indices 1 2 3 4 5 6 
#
# 1 19.5999 -7.9173 36.9443 0.0000 6.8300 0.0000
# 2 -7.9173 86.1316 3.1613 0.0000 1.3370 0.0000
# 3 36.9443 3.1613 308.7401 0.0000 19.2092 0.0000
# 4 0.0000 0.0000 0.0000 9.5415 0.0000 5.3870
# 5 6.8300 1.3370 19.2092 0.0000 20.1833 0.0000
# 6 0.0000 0.0000 0.0000 5.3870 0.0000 7.7658
#
#
#
# Elastic Compliance Matrix: (Units=1/GPa)
#
#
# Indices 1 2 3 4 5 6 
#
# 1 0.075504 0.007519 -0.007963 0.000000 -0.018470 0.000000
# 2 0.007519 0.012373 -0.000869 0.000000 -0.002537 0.000000
# 3 -0.007963 -0.000869 0.004283 0.000000 -0.001324 0.000000
# 4 0.000000 0.000000 0.000000 0.172274 0.000000 -0.119503
# 5 -0.018470 -0.002537 -0.001324 0.000000 0.057225 0.000000
# 6 0.000000 0.000000 0.000000 -0.119503 0.000000 0.211667
#
#
# Mechanical properties :
#
#
# Convention : Reuss Voigt Hill
#
# Bulk Modulus (GPa) = 11.16879 53.20535 32.18707
# Shear Modulus (GPa) = 8.83714 32.98368 20.91041
#
# Velocity S-wave (km/s) = 1.97810 3.82158 3.04281
# Velocity P-wave (km/s) = 3.18787 6.55979 5.15720
#
# Compressibility (1/GPa) = 0.08953525
#
# Stress axis : x y z
#
# Youngs Moduli (GPa) = 13.24442 80.82384 233.47642
#
# Poissons Ratio (x) = -0.60774 1.85910
# Poissons Ratio (y) = -0.09959 0.20279
# Poissons Ratio (z) = 0.10546 0.07020
#
# Static dielectric constant tensor:
#      x y z
#    x 1.844770 0.000000 0.019530 
#    y 0.000000 0.688120 0.000000 
#    z 0.019530 0.000000 1.969490 
# 
# From -- ./inp_files/314350.got.cif
#   From: 2010.05.17/outbox.cif.g08.bks.cpg/sg12_158_cif.got.tgz:314350.got - 2010.06.03 13:09:07.
