data_PCOD9180169
_publ_section_title
;
Structure prediction by ZEFSAII (Michael W. Deem and Ramdas Pophale) SiO2 
 PCOD9180169
Probable space group: C 2/M
;
_chemical_formula_sum "Si O2"
_cell_formula_units_Z 60
_cell_length_a 16.697533
_cell_length_b 18.659715
_cell_length_c 28.777115
_cell_angle_alpha 90.000000
_cell_angle_beta 22.688516
_cell_angle_gamma 90.000000
_cell_volume 3458.422086
_symmetry_space_group_name_H-M "C 2/M"
_symmetry_group_IT_number 12
_symmetry_cell_setting 'monoclinic'
loop_
_space_group_symop_operation_xyz
x,y,z
-x,y,-z
-x,-y,-z
x,-y,z
1/2+x,1/2+y,z
1/2-x,1/2+y,-z
1/2-x,1/2-y,-z
1/2+x,1/2-y,z
loop_
_atom_site_type_symbol
_atom_site_label
_atom_site_fract_x
_atom_site_fract_y
_atom_site_fract_z
Si Si1 0.605491 0.826644 0.188071
Si Si2 0.000000 0.733643 0.000000
Si Si3 0.799696 0.688842 0.199309
Si Si4 0.031365 0.416240 0.321338
Si Si5 0.180633 0.827710 0.556814
Si Si6 0.301349 0.163340 0.963441
Si Si7 0.839865 0.846457 0.227043
Si Si8 0.236980 0.289250 0.381569
O O1 0.585260 0.874006 0.244954
O O2 0.640298 0.861176 0.119571
O O3 0.405689 0.774673 0.291434
O O4 0.816698 0.781162 0.077593
O O5 0.118085 0.692288 0.896959
O O6 0.562734 0.663864 0.324116
O O7 0.803085 0.768063 0.221953
O O8 0.986146 0.646980 0.123867
O O9 0.021408 0.500000 0.317512
O O10 0.200102 0.398272 0.270787
O O11 0.817537 0.385421 0.456514
O O12 0.250000 0.750000 0.500000
O O13 0.232746 0.826284 0.584176
O O14 0.250000 0.250000 0.000000
O O15 0.080520 0.131595 0.095666
O O16 0.781656 0.837725 0.312265
O O17 0.000000 0.263750 0.500000
#
# Coordination Sequence:
#
# PCOD9180169 Si02
#       8
#     8   4   8   8   8   8   8   8
#     4  12  20  33  57  86 124 155 198 250 307 364
#     4  12  16  30  53  92 123 144 192 248 308 370
#     4  11  19  30  58  89 123 150 189 264 309 351
#     4  12  26  42  59  85 129 173 208 247 307 383
#     4  12  21  37  58  88 120 161 211 258 306 358
#     4  10  19  31  54  89 121 152 190 251 308 360
#     4  11  19  36  55  88 122 153 197 247 316 359
#     4  12  20  31  59  93 113 148 200 262 307 354
#
# _framework density 17.348952000000001
#
# number of rings (size 3 to 8) (size 9 to 14) (size 15 to 20)
#    0.000    0.533   12.000    0.000    0.000    0.000 
#    0.000    4.333    0.000    4.400    0.000    0.467 
#    0.000    0.000    0.000    0.000    0.000    0.000 
#
# Total GULP energy -167129.419634 kJ/mol
# GULP energy per Si atom -5570.980654 kJ/mol
# Density = 1.730947 g / cm^3
# Si number density = 17.348952 Si / 1000 Ang^3
#
#
#
# Elastic Constant Matrix: (Units=GPa)
#
#
# Indices 1 2 3 4 5 6 
#
# 1 122.3986 10.9614 62.3024 0.0146 -1.1736 0.0127
# 2 10.9614 27.1415 22.9792 -0.0049 -2.8978 0.0092
# 3 62.3024 22.9792 160.7597 -0.0479 -23.0647 -0.0419
# 4 0.0146 -0.0049 -0.0479 7.7593 -0.0131 -0.9146
# 5 -1.1736 -2.8978 -23.0647 -0.0131 57.3215 0.0045
# 6 0.0127 0.0092 -0.0419 -0.9146 0.0045 10.5997
#
#
#
# Elastic Compliance Matrix: (Units=1/GPa)
#
#
# Indices 1 2 3 4 5 6 
#
# 1 0.010313 -0.000864 -0.004085 -0.000051 -0.001476 -0.000032
# 2 -0.000864 0.041994 -0.005695 -0.000014 -0.000186 -0.000059
# 3 -0.004085 -0.005695 0.009089 0.000072 0.003286 0.000051
# 4 -0.000051 -0.000014 0.000072 0.130203 0.000056 0.011235
# 5 -0.001476 -0.000186 0.003286 0.000056 0.018728 0.000012
# 6 -0.000032 -0.000059 0.000051 0.011235 0.000012 0.095312
#
#
# Mechanical properties :
#
#
# Convention : Reuss Voigt Hill
#
# Bulk Modulus (GPa) = 24.93216 55.86508 40.39862
# Shear Modulus (GPa) = 14.69314 29.40655 22.04985
#
# Velocity S-wave (km/s) = 2.91334 4.12151 3.56892
# Velocity P-wave (km/s) = 5.07138 7.41079 6.34976
#
# Compressibility (1/GPa) = 0.04010883
#
# Stress axis : x y z
#
# Youngs Moduli (GPa) = 96.96927 23.81277 110.02275
#
# Poissons Ratio (x) = 0.02057 0.44944
# Poissons Ratio (y) = 0.08378 0.62654
# Poissons Ratio (z) = 0.39612 0.13560
#
# Static dielectric constant tensor:
#      x y z
#    x 1.534340 0.001040 0.040590 
#    y 0.001040 1.638110 0.000040 
#    z 0.040590 0.000040 1.607470 
# 
# From -- ./inp_files/379734.got.cif
#   From: 2010.05.17/outbox.cif.g08.bks.cpg/sg12_190_cif.got.tgz:379734.got - 2010.06.03 13:09:07.
