data_PCOD9180835
_publ_section_title
;
Structure prediction by ZEFSAII (Michael W. Deem and Ramdas Pophale) SiO2 
 PCOD9180835
Probable space group: C 2/M
;
_chemical_formula_sum "Si O2"
_cell_formula_units_Z 64
_cell_length_a 9.178039
_cell_length_b 29.764331
_cell_length_c 12.137564
_cell_angle_alpha 90.000000
_cell_angle_beta 102.857813
_cell_angle_gamma 90.000000
_cell_volume 3232.577176
_symmetry_space_group_name_H-M "C 2/M"
_symmetry_group_IT_number 12
_symmetry_cell_setting 'monoclinic'
loop_
_space_group_symop_operation_xyz
x,y,z
-x,y,-z
-x,-y,-z
x,-y,z
1/2+x,1/2+y,z
1/2-x,1/2+y,-z
1/2-x,1/2-y,-z
1/2+x,1/2-y,z
loop_
_atom_site_type_symbol
_atom_site_label
_atom_site_fract_x
_atom_site_fract_y
_atom_site_fract_z
Si Si1 0.153638 0.385748 0.276910
Si Si2 0.348763 0.295938 0.623957
Si Si3 0.104668 0.360066 0.601611
Si Si4 0.594062 0.447547 0.693206
Si Si5 0.355838 0.554525 0.043994
Si Si6 0.261564 0.949606 0.373835
Si Si7 0.589100 0.052289 0.846764
Si Si8 0.307141 0.702513 0.354114
O O1 0.289319 0.415775 0.349409
O O2 0.229264 0.337285 0.272536
O O3 0.012575 0.371683 0.325895
O O4 0.062946 0.419151 0.180656
O O5 0.252033 0.334786 0.664975
O O6 0.525516 0.293883 0.663518
O O7 0.319434 0.306803 0.488572
O O8 0.280027 0.249501 0.656100
O O9 0.157601 0.407241 0.558798
O O10 0.000000 0.331951 0.500000
O O11 0.631426 0.500000 0.682463
O O12 0.416847 0.443400 0.644090
O O13 0.621392 0.434093 0.825083
O O14 0.354955 0.500000 0.038536
O O15 0.205082 0.569007 0.958037
O O16 0.500000 0.570124 0.000000
O O17 0.318076 0.947638 0.254802
O O18 0.299160 0.000000 0.420311
O O19 0.550071 0.000000 0.859893
#
# Coordination Sequence:
#
# PCOD9180835 Si02
#       8
#     8   8   8   8   8   8   8   8
#     4  11  21  32  47  75 109 140 170 216 268 314
#     4  10  20  35  56  78  98 128 170 214 268 317
#     4  11  21  35  52  71 101 141 182 219 263 314
#     4  10  19  32  51  75 107 142 180 225 269 312
#     4   9  15  28  52  77 102 140 185 221 265 316
#     4   9  18  32  49  70 101 142 181 220 258 299
#     4   9  17  30  49  74 105 142 179 216 257 309
#     4  10  20  34  56  78 103 128 161 213 273 324
#
# _framework density 19.798445000000001
#
# number of rings (size 3 to 8) (size 9 to 14) (size 15 to 20)
#    0.000    2.125    2.500    1.875    1.750    1.250 
#    0.000    1.875    0.000    1.500    0.000    0.000 
#    0.000   38.000    0.000    0.000    0.000    0.000 
#
# Total GULP energy -178247.339079 kJ/mol
# GULP energy per Si atom -5570.229346 kJ/mol
# Density = 1.975338 g / cm^3
# Si number density = 19.798445 Si / 1000 Ang^3
#
#
#
# Elastic Constant Matrix: (Units=GPa)
#
#
# Indices 1 2 3 4 5 6 
#
# 1 166.9168 71.1092 18.1645 0.0000 8.3942 0.0000
# 2 71.1092 96.9107 9.8459 0.0000 12.7222 0.0000
# 3 18.1645 9.8459 22.9831 0.0000 3.5881 0.0000
# 4 0.0000 0.0000 0.0000 -2.2669 0.0000 0.3733
# 5 8.3942 12.7222 3.5881 0.0000 29.1618 0.0000
# 6 0.0000 0.0000 0.0000 0.3733 0.0000 39.0636
#
#
#
# Elastic Compliance Matrix: (Units=1/GPa)
#
#
# Indices 1 2 3 4 5 6 
#
# 1 0.009163 -0.006345 -0.004633 0.000000 0.000700 0.000000
# 2 -0.006345 0.015716 -0.000951 0.000000 -0.004913 0.000000
# 3 -0.004633 -0.000951 0.048233 0.000000 -0.004186 0.000000
# 4 0.000000 0.000000 0.000000 -0.440443 0.000000 0.004209
# 5 0.000700 -0.004913 -0.004186 0.000000 0.036748 0.000000
# 6 0.000000 0.000000 0.000000 0.004209 0.000000 0.025559
#
#
# Mechanical properties :
#
#
# Convention : Reuss Voigt Hill
#
# Bulk Modulus (GPa) = 20.30299 53.89442 37.09870
# Shear Modulus (GPa) = -18.88584 25.70442 3.40929
#
# Velocity S-wave (km/s) = -3.09189 3.60711 1.31367
# Velocity P-wave (km/s) = 1.57138 6.68049 4.59128
#
# Compressibility (1/GPa) = 0.04925384
#
# Stress axis : x y z
#
# Youngs Moduli (GPa) = 109.13603 63.63031 20.73265
#
# Poissons Ratio (x) = 0.40371 0.09606
# Poissons Ratio (y) = 0.69242 0.01972
# Poissons Ratio (z) = 0.50564 0.06053
#
# Static dielectric constant tensor:
#      x y z
#    x 1.727930 0.000000 -0.035080 
#    y 0.000000 1.741380 0.000000 
#    z -0.035080 0.000000 1.746840 
# 
# From -- ./inp_files/200613.got.cif
#   From: 2010.05.17/outbox.cif.g08.bks.cpg/sg12_101_cif.got.tgz:200613.got - 2010.06.03 13:09:07.
