data_PCOD9180898
_publ_section_title
;
Structure prediction by ZEFSAII (Michael W. Deem and Ramdas Pophale) SiO2 
 PCOD9180898
Probable space group: C 2/M
;
_chemical_formula_sum "Si O2"
_cell_formula_units_Z 48
_cell_length_a 29.355244
_cell_length_b 7.425764
_cell_length_c 10.287015
_cell_angle_alpha 90.000000
_cell_angle_beta 100.010545
_cell_angle_gamma 90.000000
_cell_volume 2208.277096
_symmetry_space_group_name_H-M "C 2/M"
_symmetry_group_IT_number 12
_symmetry_cell_setting 'monoclinic'
loop_
_space_group_symop_operation_xyz
x,y,z
-x,y,-z
-x,-y,-z
x,-y,z
1/2+x,1/2+y,z
1/2-x,1/2+y,-z
1/2-x,1/2-y,-z
1/2+x,1/2-y,z
loop_
_atom_site_type_symbol
_atom_site_label
_atom_site_fract_x
_atom_site_fract_y
_atom_site_fract_z
Si Si1 0.135506 0.721200 0.242139
Si Si2 0.791971 0.214157 0.121116
Si Si3 0.061619 0.719033 0.415106
Si Si4 0.109478 0.707251 0.948069
Si Si5 0.739515 0.215131 0.344513
Si Si6 0.457756 0.220150 0.305477
O O1 0.136172 0.500000 0.240756
O O2 0.103499 0.778271 0.345681
O O3 0.188240 0.781589 0.284487
O O4 0.115173 0.784630 0.094705
O O5 0.839931 0.291590 0.092734
O O6 0.776125 0.281969 0.255478
O O7 0.798814 0.000000 0.130395
O O8 0.750000 0.250000 0.000000
O O9 0.062048 0.500000 0.415700
O O10 0.063436 0.776282 0.566126
O O11 0.011568 0.772768 0.333711
O O12 0.095216 0.500000 0.960579
O O13 0.072325 0.786300 0.830051
O O14 0.750000 0.250000 0.500000
O O15 0.738666 0.000000 0.327447
O O16 0.456685 0.000000 0.304206
#
# Coordination Sequence:
#
# PCOD9180898 Si02
#       6
#     8   8   8   8   8   8
#     4   9  17  30  46  69 104 134 164 211 258 300
#     4  11  22  38  56  76 106 139 174 216 259 308
#     4   8  14  26  43  69 104 134 165 209 256 302
#     4  10  19  32  51  77 105 135 172 210 256 310
#     4  10  22  37  52  76 105 136 172 215 260 309
#     4   8  15  26  44  72 102 133 168 206 254 308
#
# _framework density 21.736402999999999
#
# number of rings (size 3 to 8) (size 9 to 14) (size 15 to 20)
#    0.000    2.667    1.667    1.500    2.333    2.000 
#    0.000    3.333    0.000    0.000    0.000    5.833 
#    0.000    0.000    0.000    0.000    0.000    0.000 
#
# Total GULP energy -134032.569956 kJ/mol
# GULP energy per Si atom -5584.690415 kJ/mol
# Density = 2.168693 g / cm^3
# Si number density = 21.736403 Si / 1000 Ang^3
#
#
#
# Elastic Constant Matrix: (Units=GPa)
#
#
# Indices 1 2 3 4 5 6 
#
# 1 16.3675 -3.0530 -3.6564 0.0000 -2.9604 0.0000
# 2 -3.0530 71.4470 -0.4502 0.0000 0.5745 0.0000
# 3 -3.6564 -0.4502 84.5840 0.0000 9.1998 0.0000
# 4 0.0000 0.0000 0.0000 6.4834 0.0000 -2.7139
# 5 -2.9604 0.5745 9.1998 0.0000 47.4161 0.0000
# 6 0.0000 0.0000 0.0000 -2.7139 0.0000 3.9904
#
#
#
# Elastic Compliance Matrix: (Units=1/GPa)
#
#
# Indices 1 2 3 4 5 6 
#
# 1 0.062740 0.002668 0.002354 0.000000 0.003428 0.000000
# 2 0.002668 0.014112 0.000195 0.000000 -0.000042 0.000000
# 3 0.002354 0.000195 0.012166 0.000000 -0.002216 0.000000
# 4 0.000000 0.000000 0.000000 0.215628 0.000000 0.146650
# 5 0.003428 -0.000042 -0.002216 0.000000 0.021734 0.000000
# 6 0.000000 0.000000 0.000000 0.146650 0.000000 0.350340
#
#
# Mechanical properties :
#
#
# Convention : Reuss Voigt Hill
#
# Bulk Modulus (GPa) = 10.05510 17.56436 13.80973
# Shear Modulus (GPa) = 7.14860 23.54850 15.34855
#
# Velocity S-wave (km/s) = 1.81546 3.29503 2.66018
# Velocity P-wave (km/s) = 3.00508 4.75125 3.97523
#
# Compressibility (1/GPa) = 0.09945205
#
# Stress axis : x y z
#
# Youngs Moduli (GPa) = 15.93875 70.86185 82.19378
#
# Poissons Ratio (x) = -0.18908 -0.19344
# Poissons Ratio (y) = -0.04253 -0.01603
# Poissons Ratio (z) = -0.03751 -0.01382
#
# Static dielectric constant tensor:
#      x y z
#    x 1.919260 0.000000 -0.225370 
#    y 0.000000 1.935890 0.000000 
#    z -0.225370 0.000000 2.056420 
# 
# From -- ./inp_files/108587.got.cif
#   From: 2010.05.17/outbox.cif.g08.bks.cpg/sg12_55_cif.got.tgz:108587.got - 2010.06.03 13:09:07.
