data_PCOD9180305
_publ_section_title
;
Structure prediction by ZEFSAII (Michael W. Deem and Ramdas Pophale) SiO2 
 PCOD9180305
Probable space group: C 2/M
;
_chemical_formula_sum "Si O2"
_cell_formula_units_Z 56
_cell_length_a 17.199877
_cell_length_b 26.523898
_cell_length_c 8.183058
_cell_angle_alpha 90.000000
_cell_angle_beta 127.536654
_cell_angle_gamma 90.000000
_cell_volume 2960.272186
_symmetry_space_group_name_H-M "C 2/M"
_symmetry_group_IT_number 12
_symmetry_cell_setting 'monoclinic'
loop_
_space_group_symop_operation_xyz
x,y,z
-x,y,-z
-x,-y,-z
x,-y,z
1/2+x,1/2+y,z
1/2-x,1/2+y,-z
1/2-x,1/2-y,-z
1/2+x,1/2-y,z
loop_
_atom_site_type_symbol
_atom_site_label
_atom_site_fract_x
_atom_site_fract_y
_atom_site_fract_z
Si Si1 0.320728 0.190515 0.742688
Si Si2 0.319054 0.607336 0.472846
Si Si3 0.616206 0.755840 0.495474
Si Si4 0.666904 0.611827 0.895441
Si Si5 0.012029 0.174085 0.196285
Si Si6 0.390160 0.500000 0.563350
Si Si7 0.881588 0.000000 0.156176
Si Si8 0.678768 0.799151 0.899552
O O1 0.286589 0.133318 0.664810
O O2 0.376257 0.211342 0.658424
O O3 0.217647 0.222358 0.625615
O O4 0.369147 0.196510 0.982445
O O5 0.353157 0.611756 0.326264
O O6 0.390218 0.640509 0.675384
O O7 0.333913 0.550139 0.543892
O O8 0.528796 0.716891 0.351913
O O9 0.615926 0.788480 0.658469
O O10 0.576648 0.638510 0.868396
O O11 0.670389 0.553131 0.953032
O O12 0.758103 0.649444 0.040014
O O13 0.000000 0.195532 0.000000
O O14 0.388692 0.500000 0.363251
O O15 0.505085 0.500000 0.759798
O O16 0.750000 0.750000 0.000000
#
# Coordination Sequence:
#
# PCOD9180305 Si02
#       8
#     8   8   8   8   8   4   4   8
#     4   8  16  29  46  62  81 114 160 192 233 272
#     4   9  17  30  45  63  86 125 159 198 224 267
#     4   9  18  32  45  61  88 116 155 199 237 279
#     4  10  19  32  48  68  92 126 168 196 232 281
#     4  11  22  29  42  65  92 124 156 194 238 278
#     4   9  14  26  44  64  90 122 159 191 229 263
#     4   9  16  28  46  64  94 128 156 197 230 269
#     4   9  18  30  50  66  85 122 163 198 237 280
#
# _framework density 18.917179000000001
#
# number of rings (size 3 to 8) (size 9 to 14) (size 15 to 20)
#    0.000    2.714    1.429    1.286    8.000    0.000 
#    0.000    1.429    0.000    0.000    0.000    0.000 
#    0.000    0.000    0.000    6.429    0.000    0.929 
#
# Total GULP energy -156123.950547 kJ/mol
# GULP energy per Si atom -5575.855377 kJ/mol
# Density = 1.887412 g / cm^3
# Si number density = 18.917179 Si / 1000 Ang^3
#
#
#
# Elastic Constant Matrix: (Units=GPa)
#
#
# Indices 1 2 3 4 5 6 
#
# 1 23.1404 30.7799 24.6733 0.0000 -7.2793 0.0000
# 2 30.7799 146.8166 58.4096 0.0000 -5.8945 0.0000
# 3 24.6733 58.4096 104.7117 0.0000 -18.2605 0.0000
# 4 0.0000 0.0000 0.0000 18.2305 0.0000 4.0208
# 5 -7.2793 -5.8945 -18.2605 0.0000 14.9218 0.0000
# 6 0.0000 0.0000 0.0000 4.0208 0.0000 23.0310
#
#
#
# Elastic Compliance Matrix: (Units=1/GPa)
#
#
# Indices 1 2 3 4 5 6 
#
# 1 0.073194 -0.011762 -0.006699 0.000000 0.022862 0.000000
# 2 -0.011762 0.010766 -0.004440 0.000000 -0.006919 0.000000
# 3 -0.006699 -0.004440 0.016183 0.000000 0.014782 0.000000
# 4 0.000000 0.000000 0.000000 0.057050 0.000000 -0.009960
# 5 0.022862 -0.006919 0.014782 0.000000 0.093525 0.000000
# 6 0.000000 0.000000 0.000000 -0.009960 0.000000 0.045159
#
#
# Mechanical properties :
#
#
# Convention : Reuss Voigt Hill
#
# Bulk Modulus (GPa) = 18.40251 55.82158 37.11205
# Shear Modulus (GPa) = 13.89688 21.95705 17.92697
#
# Velocity S-wave (km/s) = 2.71332 3.41059 3.08174
# Velocity P-wave (km/s) = 4.42326 6.71431 5.68538
#
# Compressibility (1/GPa) = 0.05434042
#
# Stress axis : x y z
#
# Youngs Moduli (GPa) = 13.66233 92.88562 61.79210
#
# Poissons Ratio (x) = 1.09253 0.41393
# Poissons Ratio (y) = 0.16070 0.27439
# Poissons Ratio (z) = 0.09152 0.41246
#
# Static dielectric constant tensor:
#      x y z
#    x 1.662270 0.000000 -0.006570 
#    y 0.000000 1.706910 0.000000 
#    z -0.006570 0.000000 1.686840 
# 
# From -- ./inp_files/99562.got.cif
#   From: 2010.05.17/outbox.cif.g08.bks.cpg/sg12_50_cif.got.tgz:99562.got - 2010.06.03 13:09:07.
