data_PCOD9180722
_publ_section_title
;
Structure prediction by ZEFSAII (Michael W. Deem and Ramdas Pophale) SiO2 
 PCOD9180722
Probable space group: C 2/M
;
_chemical_formula_sum "Si O2"
_cell_formula_units_Z 44
_cell_length_a 10.543667
_cell_length_b 15.769559
_cell_length_c 20.930133
_cell_angle_alpha 90.000000
_cell_angle_beta 150.812229
_cell_angle_gamma 90.000000
_cell_volume 1697.118733
_symmetry_space_group_name_H-M "C 2/M"
_symmetry_group_IT_number 12
_symmetry_cell_setting 'monoclinic'
loop_
_space_group_symop_operation_xyz
x,y,z
-x,y,-z
-x,-y,-z
x,-y,z
1/2+x,1/2+y,z
1/2-x,1/2+y,-z
1/2-x,1/2-y,-z
1/2+x,1/2-y,z
loop_
_atom_site_type_symbol
_atom_site_label
_atom_site_fract_x
_atom_site_fract_y
_atom_site_fract_z
Si Si1 0.888800 0.593018 0.550785
Si Si2 0.060020 0.320065 0.741399
Si Si3 0.282881 0.600604 0.101652
Si Si4 0.000000 0.261730 0.500000
Si Si5 0.285233 0.902152 0.062997
Si Si6 0.642657 0.639017 0.729477
O O1 0.942705 0.500000 0.547941
O O2 0.026345 0.601663 0.679174
O O3 0.969995 0.674092 0.545627
O O4 0.577855 0.607925 0.415751
O O5 0.762000 0.291632 0.624998
O O6 0.210359 0.345712 0.871513
O O7 0.170221 0.239418 0.751452
O O8 0.256731 0.500000 0.080935
O O9 0.358025 0.632571 0.064249
O O10 0.448800 0.612504 0.238615
O O11 0.000000 0.634879 0.000000
O O12 0.585690 0.901043 0.171056
O O13 0.212427 0.000000 0.043989
#
# Coordination Sequence:
#
# PCOD9180722 Si02
#       6
#     8   8   8   4   8   8
#     4  11  21  34  52  73  98 130 166 199 238 290
#     4  11  21  33  50  74 103 128 158 201 247 289
#     4   8  15  29  49  72  97 125 160 200 238 281
#     4  10  21  36  49  70 102 132 162 200 241 282
#     4  10  19  33  52  74 100 128 159 199 245 288
#     4  10  19  32  51  73  98 128 165 201 238 284
#
# _framework density 25.926293999999999
#
# number of rings (size 3 to 8) (size 9 to 14) (size 15 to 20)
#    0.000    2.000    0.000    7.909    0.000    0.727 
#    0.000    2.727    0.000    0.000    0.000    0.000 
#    0.000   36.364    0.000    0.000    0.000    0.000 
#
# Total GULP energy -123053.704624 kJ/mol
# GULP energy per Si atom -5593.350210 kJ/mol
# Density = 2.586728 g / cm^3
# Si number density = 25.926294 Si / 1000 Ang^3
#
#
#
# Elastic Constant Matrix: (Units=GPa)
#
#
# Indices 1 2 3 4 5 6 
#
# 1 60.9430 23.3652 45.0020 0.0047 -0.0363 0.0020
# 2 23.3652 117.0349 33.9896 0.0031 -14.3418 0.0009
# 3 45.0020 33.9896 126.7892 0.0132 -26.9461 0.0053
# 4 0.0047 0.0031 0.0132 36.6641 0.0056 -14.4314
# 5 -0.0363 -14.3418 -26.9461 0.0056 53.0112 0.0022
# 6 0.0020 0.0009 0.0053 -14.4314 0.0022 10.8790
#
#
#
# Elastic Compliance Matrix: (Units=1/GPa)
#
#
# Indices 1 2 3 4 5 6 
#
# 1 0.024078 -0.002870 -0.008900 0.000003 -0.005284 0.000006
# 2 -0.002870 0.009701 -0.001149 -0.000001 0.002039 -0.000001
# 3 -0.008900 -0.001149 0.012653 -0.000014 0.006115 -0.000024
# 4 0.000003 -0.000001 -0.000014 0.057077 -0.000016 0.075715
# 5 -0.005284 0.002039 0.006115 -0.000016 0.022520 -0.000028
# 6 0.000006 -0.000001 -0.000024 0.075715 -0.000028 0.192358
#
#
# Mechanical properties :
#
#
# Convention : Reuss Voigt Hill
#
# Bulk Modulus (GPa) = 48.55391 56.60894 52.58142
# Shear Modulus (GPa) = 14.24143 33.60488 23.92316
#
# Velocity S-wave (km/s) = 2.34627 3.60414 3.04095
# Velocity P-wave (km/s) = 5.10963 6.26113 5.71446
#
# Compressibility (1/GPa) = 0.02059566
#
# Stress axis : x y z
#
# Youngs Moduli (GPa) = 41.53245 103.08400 79.02982
#
# Poissons Ratio (x) = 0.29583 0.70333
# Poissons Ratio (y) = 0.11919 0.09079
# Poissons Ratio (z) = 0.36962 0.11842
#
# Static dielectric constant tensor:
#      x y z
#    x 2.072070 0.000000 -0.043770 
#    y 0.000000 1.956570 0.000000 
#    z -0.043770 0.000000 2.096650 
# 
# From -- ./inp_files/177006.got.cif
#   From: 2010.05.17/outbox.cif.g08.bks.cpg/sg12_89_cif.got.tgz:177006.got - 2010.06.03 13:09:07.
