data_PCOD9180684
_publ_section_title
;
Structure prediction by ZEFSAII (Michael W. Deem and Ramdas Pophale) SiO2 
 PCOD9180684
Probable space group: C 2/M
;
_chemical_formula_sum "Si O2"
_cell_formula_units_Z 56
_cell_length_a 19.599500
_cell_length_b 7.470341
_cell_length_c 25.421985
_cell_angle_alpha 90.000000
_cell_angle_beta 40.768313
_cell_angle_gamma 90.000000
_cell_volume 2430.576480
_symmetry_space_group_name_H-M "C 2/M"
_symmetry_group_IT_number 12
_symmetry_cell_setting 'monoclinic'
loop_
_space_group_symop_operation_xyz
x,y,z
-x,y,-z
-x,-y,-z
x,-y,z
1/2+x,1/2+y,z
1/2-x,1/2+y,-z
1/2-x,1/2-y,-z
1/2+x,1/2-y,z
loop_
_atom_site_type_symbol
_atom_site_label
_atom_site_fract_x
_atom_site_fract_y
_atom_site_fract_z
Si Si1 0.811093 0.784878 0.733031
Si Si2 0.834091 0.780898 0.330913
Si Si3 0.579689 0.204121 0.993610
Si Si4 0.413412 0.291101 0.169772
Si Si5 0.884894 0.291338 0.572362
Si Si6 0.785376 0.214669 0.920300
Si Si7 0.458464 0.718354 0.742816
O O1 0.689480 0.729562 0.806757
O O2 0.851745 0.719200 0.652753
O O3 0.888673 0.723606 0.733974
O O4 0.812079 0.000000 0.732515
O O5 0.878187 0.726865 0.247755
O O6 0.714089 0.717666 0.402643
O O7 0.921069 0.724411 0.322311
O O8 0.830634 0.000000 0.332751
O O9 0.513862 0.199966 0.085998
O O10 0.597856 0.000000 0.964240
O O11 0.500000 0.293784 0.000000
O O12 0.691729 0.285935 0.938507
O O13 0.439695 0.500000 0.159240
O O14 0.893633 0.500000 0.551884
O O15 0.000000 0.209893 0.500000
O O16 0.895207 0.274129 0.832357
O O17 0.785887 0.000000 0.915094
O O18 0.750000 0.250000 0.000000
O O19 0.460276 0.500000 0.740252
#
# Coordination Sequence:
#
# PCOD9180684 Si02
#       7
#     8   8   8   8   8   8   8
#     4  10  19  32  53  77 101 130 164 205 251 299
#     4   8  15  29  50  72  93 125 167 201 235 290
#     4  10  20  33  48  67  94 129 169 213 259 302
#     4  10  19  32  51  72  95 127 168 210 250 297
#     4   9  18  34  55  78 105 135 165 200 244 294
#     4  10  20  33  49  70  98 132 170 214 262 305
#     4   9  17  31  50  71  97 131 169 206 248 300
#
# _framework density 23.039802999999999
#
# number of rings (size 3 to 8) (size 9 to 14) (size 15 to 20)
#    0.000    2.571    0.000    3.429    0.000    4.571 
#    0.000    3.571    0.000    8.571    0.000    0.000 
#    0.000    0.000    0.000    0.000    0.000    0.000 
#
# Total GULP energy -156295.880363 kJ/mol
# GULP energy per Si atom -5581.995727 kJ/mol
# Density = 2.298736 g / cm^3
# Si number density = 23.039803 Si / 1000 Ang^3
#
#
#
# Elastic Constant Matrix: (Units=GPa)
#
#
# Indices 1 2 3 4 5 6 
#
# 1 111.4017 -9.4547 23.6579 0.0000 -44.2152 0.0000
# 2 -9.4547 72.0416 -7.7725 0.0005 -5.0082 0.0003
# 3 23.6579 -7.7725 94.1949 -0.0006 -47.8798 0.0010
# 4 0.0000 0.0005 -0.0006 9.2282 0.0001 9.4000
# 5 -44.2152 -5.0082 -47.8798 0.0001 39.1070 -0.0003
# 6 0.0000 0.0003 0.0010 9.4000 -0.0003 -10.0873
#
#
#
# Elastic Compliance Matrix: (Units=1/GPa)
#
#
# Indices 1 2 3 4 5 6 
#
# 1 0.041275 0.016912 0.041970 -0.000001 0.100217 0.000001
# 2 0.016912 0.022089 0.023122 -0.000001 0.050258 0.000001
# 3 0.041970 0.023122 0.073102 -0.000001 0.139914 0.000003
# 4 -0.000001 -0.000001 -0.000001 0.055593 -0.000002 0.051806
# 5 0.100217 0.050258 0.139914 -0.000002 0.316616 0.000005
# 6 0.000001 0.000001 0.000003 0.051806 0.000005 -0.050859
#
#
# Mechanical properties :
#
#
# Convention : Reuss Voigt Hill
#
# Bulk Modulus (GPa) = 3.32809 32.27773 17.80291
# Shear Modulus (GPa) = 12.69140 25.73009 19.21074
#
# Velocity S-wave (km/s) = 2.34956 3.34543 2.89070
# Velocity P-wave (km/s) = 2.96786 5.38168 4.34573
#
# Compressibility (1/GPa) = 0.30047264
#
# Stress axis : x y z
#
# Youngs Moduli (GPa) = 24.22780 45.27183 13.67944
#
# Poissons Ratio (x) = -0.76563 -0.57412
# Poissons Ratio (y) = -0.40974 -0.31629
# Poissons Ratio (z) = -1.01684 -1.04676
#
# Static dielectric constant tensor:
#      x y z
#    x 1.911400 0.000000 -0.022270 
#    y 0.000000 1.878130 0.000000 
#    z -0.022270 0.000000 1.846370 
# 
# From -- ./inp_files/377639.got.cif
#   From: 2010.05.17/outbox.cif.g08.bks.cpg/sg12_189_cif.got.tgz:377639.got - 2010.06.03 13:09:07.
