data_PCOD9180840
_publ_section_title
;
Structure prediction by ZEFSAII (Michael W. Deem and Ramdas Pophale) SiO2 
 PCOD9180840
Probable space group: C 2/M
;
_chemical_formula_sum "Si O2"
_cell_formula_units_Z 64
_cell_length_a 31.161728
_cell_length_b 8.592331
_cell_length_c 12.652320
_cell_angle_alpha 90.000000
_cell_angle_beta 78.532481
_cell_angle_gamma 90.000000
_cell_volume 3320.056107
_symmetry_space_group_name_H-M "C 2/M"
_symmetry_group_IT_number 12
_symmetry_cell_setting 'monoclinic'
loop_
_space_group_symop_operation_xyz
x,y,z
-x,y,-z
-x,-y,-z
x,-y,z
1/2+x,1/2+y,z
1/2-x,1/2+y,-z
1/2-x,1/2-y,-z
1/2+x,1/2-y,z
loop_
_atom_site_type_symbol
_atom_site_label
_atom_site_fract_x
_atom_site_fract_y
_atom_site_fract_z
Si Si1 0.413342 0.688588 0.267570
Si Si2 0.008911 0.680315 0.181310
Si Si3 0.249226 0.688703 0.119732
Si Si4 0.159021 0.685368 0.268661
Si Si5 0.899504 0.186185 0.890659
Si Si6 0.958564 0.671137 0.595330
Si Si7 0.154689 0.189131 0.877181
Si Si8 0.884563 0.821220 0.514928
O O1 0.415703 0.500000 0.269338
O O2 0.460531 0.747517 0.203948
O O3 0.375751 0.738870 0.204558
O O4 0.399372 0.741617 0.392739
O O5 0.006956 0.500000 0.149866
O O6 0.050698 0.762618 0.107240
O O7 0.023618 0.689538 0.296502
O O8 0.248625 0.500000 0.117442
O O9 0.205501 0.743478 0.200547
O O10 0.294874 0.738771 0.151000
O O11 0.250000 0.750000 0.000000
O O12 0.159416 0.500000 0.263150
O O13 0.120918 0.744028 0.207194
O O14 0.150776 0.737358 0.393305
O O15 0.898672 0.000000 0.881756
O O16 0.867801 0.236998 0.001642
O O17 0.936192 0.500000 0.598474
O O18 0.927454 0.803830 0.567058
O O19 0.000000 0.667338 0.500000
O O20 0.154340 0.000000 0.876863
O O21 0.871727 0.000000 0.507228
#
# Coordination Sequence:
#
# PCOD9180840 Si02
#       8
#     8   8   8   8   8   8   8   8
#     4  10  22  40  59  80 111 156 202 236 273 332
#     4  11  22  35  54  83 119 154 189 234 287 338
#     4  10  20  37  63  91 115 145 185 233 289 344
#     4  11  22  35  56  88 122 148 178 233 297 346
#     4  11  21  35  59  86 114 149 191 237 282 340
#     4  10  19  32  51  75 108 147 185 231 285 335
#     4   9  20  40  62  83 112 150 191 235 286 341
#     4  11  22  34  55  83 113 149 193 240 277 329
#
# _framework density 19.276783999999999
#
# number of rings (size 3 to 8) (size 9 to 14) (size 15 to 20)
#    0.000    1.625    3.750    1.500    0.000    2.250 
#    0.000    5.000    0.000    0.000    0.000    0.000 
#    0.000    0.000    0.000    0.000    0.000    0.000 
#
# Total GULP energy -178507.429588 kJ/mol
# GULP energy per Si atom -5578.357175 kJ/mol
# Density = 1.923291 g / cm^3
# Si number density = 19.276784 Si / 1000 Ang^3
#
#
#
# Elastic Constant Matrix: (Units=GPa)
#
#
# Indices 1 2 3 4 5 6 
#
# 1 157.9821 20.8726 45.7594 0.0000 -14.1280 0.0000
# 2 20.8726 37.4783 11.0139 0.0000 -1.2815 0.0000
# 3 45.7594 11.0139 51.6857 0.0000 -5.6800 0.0000
# 4 0.0000 0.0000 0.0000 16.3457 0.0000 -5.3731
# 5 -14.1280 -1.2815 -5.6800 0.0000 33.1344 0.0000
# 6 0.0000 0.0000 0.0000 -5.3731 0.0000 15.9257
#
#
#
# Elastic Compliance Matrix: (Units=1/GPa)
#
#
# Indices 1 2 3 4 5 6 
#
# 1 0.008975 -0.002836 -0.007067 0.000000 0.002506 0.000000
# 2 -0.002836 0.029361 -0.003826 0.000000 -0.000730 0.000000
# 3 -0.007067 -0.003826 0.026573 0.000000 0.001394 0.000000
# 4 0.000000 0.000000 0.000000 0.068810 0.000000 0.023215
# 5 0.002506 -0.000730 0.001394 0.000000 0.031459 0.000000
# 6 0.000000 0.000000 0.000000 0.023215 0.000000 0.070624
#
#
# Mechanical properties :
#
#
# Convention : Reuss Voigt Hill
#
# Bulk Modulus (GPa) = 26.70097 44.71532 35.70814
# Shear Modulus (GPa) = 18.13279 24.38116 21.25698
#
# Velocity S-wave (km/s) = 3.07034 3.56025 3.32433
# Velocity P-wave (km/s) = 5.14303 6.33619 5.77053
#
# Compressibility (1/GPa) = 0.03745183
#
# Stress axis : x y z
#
# Youngs Moduli (GPa) = 111.41449 34.05870 37.63289
#
# Poissons Ratio (x) = 0.09660 0.26594
# Poissons Ratio (y) = 0.31601 0.14397
# Poissons Ratio (z) = 0.78732 0.13030
#
# Static dielectric constant tensor:
#      x y z
#    x 1.685460 0.000000 -0.029790 
#    y 0.000000 1.696890 0.000000 
#    z -0.029790 0.000000 1.685210 
# 
# From -- ./inp_files/187614.got.cif
#   From: 2010.05.17/outbox.cif.g08.bks.cpg/sg12_94_cif.got.tgz:187614.got - 2010.06.03 13:09:07.
