data_PCOD9180599
_publ_section_title
;
Structure prediction by ZEFSAII (Michael W. Deem and Ramdas Pophale) SiO2 
 PCOD9180599
Probable space group: C 2/M
;
_chemical_formula_sum "Si O2"
_cell_formula_units_Z 56
_cell_length_a 19.827141
_cell_length_b 8.688893
_cell_length_c 24.997726
_cell_angle_alpha 90.000000
_cell_angle_beta 47.280393
_cell_angle_gamma 90.000000
_cell_volume 3163.914448
_symmetry_space_group_name_H-M "C 2/M"
_symmetry_group_IT_number 12
_symmetry_cell_setting 'monoclinic'
loop_
_space_group_symop_operation_xyz
x,y,z
-x,y,-z
-x,-y,-z
x,-y,z
1/2+x,1/2+y,z
1/2-x,1/2+y,-z
1/2-x,1/2-y,-z
1/2+x,1/2-y,z
loop_
_atom_site_type_symbol
_atom_site_label
_atom_site_fract_x
_atom_site_fract_y
_atom_site_fract_z
Si Si1 0.889910 0.816235 0.397429
Si Si2 0.059202 0.314117 0.800106
Si Si3 0.705684 0.316184 0.442944
Si Si4 0.736170 0.816993 0.316315
Si Si5 0.564295 0.186876 0.917760
Si Si6 0.225377 0.184214 0.206735
Si Si7 0.054660 0.316336 0.241772
O O1 0.800764 0.757694 0.412909
O O2 0.868882 0.782052 0.470961
O O3 0.979150 0.735823 0.325764
O O4 0.897725 0.000000 0.386852
O O5 0.071927 0.500000 0.791154
O O6 0.986882 0.271055 0.793527
O O7 0.157799 0.238391 0.736010
O O8 0.031572 0.272161 0.875514
O O9 0.717849 0.500000 0.433741
O O10 0.685413 0.251327 0.395312
O O11 0.702913 0.752742 0.277260
O O12 0.731732 0.000000 0.319135
O O13 0.670954 0.234297 0.863995
O O14 0.563653 0.000000 0.920721
O O15 0.500000 0.244944 0.000000
O O16 0.150559 0.239495 0.204887
O O17 0.225040 0.000000 0.211110
O O18 0.064182 0.500000 0.237811
#
# Coordination Sequence:
#
# PCOD9180599 Si02
#       7
#     8   8   8   8   8   8   8
#     4  10  20  32  50  76 105 140 180 223 267 311
#     4   9  18  32  53  79 106 140 177 217 263 310
#     4  10  19  32  50  75 106 138 178 225 270 311
#     4  11  20  32  53  78 104 137 182 226 265 316
#     4   8  15  32  58  83 104 134 177 217 258 314
#     4  10  21  36  55  77 107 141 176 219 269 320
#     4  11  21  34  52  76 110 144 178 221 267 317
#
# _framework density 17.699593
#
# number of rings (size 3 to 8) (size 9 to 14) (size 15 to 20)
#    0.000    2.143    1.429    3.857    0.000    2.286 
#    0.000    1.429    0.000   15.000    0.000    0.000 
#    0.000    0.000    0.000    0.000    0.000    0.000 
#
# Total GULP energy -156250.343989 kJ/mol
# GULP energy per Si atom -5580.369428 kJ/mol
# Density = 1.765931 g / cm^3
# Si number density = 17.699593 Si / 1000 Ang^3
#
#
#
# Elastic Constant Matrix: (Units=GPa)
#
#
# Indices 1 2 3 4 5 6 
#
# 1 102.0513 20.2975 39.9390 0.0000 10.1273 0.0002
# 2 20.2975 33.3509 15.2657 0.0000 10.4509 0.0002
# 3 39.9390 15.2657 102.0386 0.0000 19.5789 0.0000
# 4 0.0000 0.0000 0.0000 14.0035 0.0000 -1.7270
# 5 10.1273 10.4509 19.5789 0.0000 18.6106 0.0000
# 6 0.0002 0.0002 0.0000 -1.7270 0.0000 28.3517
#
#
#
# Elastic Compliance Matrix: (Units=1/GPa)
#
#
# Indices 1 2 3 4 5 6 
#
# 1 0.012541 -0.006015 -0.004194 0.000000 0.000966 0.000000
# 2 -0.006015 0.039572 0.000088 0.000000 -0.019041 0.000000
# 3 -0.004194 0.000088 0.013782 0.000000 -0.012267 0.000000
# 4 0.000000 0.000000 0.000000 0.071951 0.000000 0.004383
# 5 0.000966 -0.019041 -0.012267 0.000000 0.076804 0.000000
# 6 0.000000 0.000000 0.000000 0.004383 0.000000 0.035538
#
#
# Mechanical properties :
#
#
# Convention : Reuss Voigt Hill
#
# Bulk Modulus (GPa) = 21.90507 43.16056 32.53281
# Shear Modulus (GPa) = 17.50399 22.98907 20.24653
#
# Velocity S-wave (km/s) = 3.14817 3.60786 3.38583
# Velocity P-wave (km/s) = 5.06137 6.46479 5.80565
#
# Compressibility (1/GPa) = 0.04565154
#
# Stress axis : x y z
#
# Youngs Moduli (GPa) = 79.73859 25.27063 72.55655
#
# Poissons Ratio (x) = 0.15201 0.30431
# Poissons Ratio (y) = 0.47966 -0.00637
# Poissons Ratio (z) = 0.33443 -0.00222
#
# Static dielectric constant tensor:
#      x y z
#    x 1.597930 0.000000 0.019430 
#    y 0.000000 1.593440 0.000000 
#    z 0.019430 0.000000 1.606480 
# 
# From -- ./inp_files/342275.got.cif
#   From: 2010.05.17/outbox.cif.g08.bks.cpg/sg12_172_cif.got.tgz:342275.got - 2010.06.03 13:09:07.
