data_PCOD9180261
_publ_section_title
;
Structure prediction by ZEFSAII (Michael W. Deem and Ramdas Pophale) SiO2 
 PCOD9180261
Probable space group: C 2/M
;
_chemical_formula_sum "Si O2"
_cell_formula_units_Z 56
_cell_length_a 29.267679
_cell_length_b 8.904787
_cell_length_c 18.109563
_cell_angle_alpha 90.000000
_cell_angle_beta 51.352202
_cell_angle_gamma 90.000000
_cell_volume 3686.130264
_symmetry_space_group_name_H-M "C 2/M"
_symmetry_group_IT_number 12
_symmetry_cell_setting 'monoclinic'
loop_
_space_group_symop_operation_xyz
x,y,z
-x,y,-z
-x,-y,-z
x,-y,z
1/2+x,1/2+y,z
1/2-x,1/2+y,-z
1/2-x,1/2-y,-z
1/2+x,1/2-y,z
loop_
_atom_site_type_symbol
_atom_site_label
_atom_site_fract_x
_atom_site_fract_y
_atom_site_fract_z
Si Si1 0.566821 0.172650 0.901975
Si Si2 0.098740 0.318939 0.028917
Si Si3 0.026495 0.178179 0.800557
Si Si4 0.567047 0.673243 0.462396
Si Si5 0.969962 0.677924 0.356070
Si Si6 0.093609 0.180179 0.277205
Si Si7 0.186229 0.820320 0.056728
O O1 0.566138 0.273717 0.830149
O O2 0.580422 0.000000 0.868580
O O3 0.500000 0.174025 0.000000
O O4 0.603568 0.218915 0.936853
O O5 0.095637 0.500000 0.037828
O O6 0.037653 0.250445 0.120136
O O7 0.150731 0.253009 0.025025
O O8 0.048946 0.243848 0.700717
O O9 0.020386 0.000000 0.802611
O O10 0.500000 0.677515 0.500000
O O11 0.580233 0.500000 0.467595
O O12 0.567865 0.771758 0.534885
O O13 0.603316 0.720533 0.353395
O O14 0.970118 0.500000 0.347784
O O15 0.035987 0.735984 0.306030
O O16 0.147536 0.210103 0.169087
O O17 0.081375 0.000000 0.287906
O O18 0.189443 0.000000 0.044187
O O19 0.250000 0.750000 0.000000
#
# Coordination Sequence:
#
# PCOD9180261 Si02
#       7
#     8   8   8   8   8   8   8
#     4   8  16  29  43  61  86 114 145 181 222 266
#     4  10  19  32  47  63  86 116 149 188 230 267
#     4  11  19  27  42  64  90 120 152 181 217 266
#     4   8  15  28  43  59  83 113 146 180 219 267
#     4  11  19  26  41  64  90 118 149 182 220 264
#     4   9  18  32  46  60  83 117 150 185 227 268
#     4  11  22  34  49  67  89 119 157 194 228 265
#
# _framework density 15.192083999999999
#
# number of rings (size 3 to 8) (size 9 to 14) (size 15 to 20)
#    0.000    2.286    1.429    5.143    0.000    6.286 
#    0.000    0.000    0.000    0.000    0.000    0.000 
#    0.000    1.143    0.000    3.429    0.000    4.571 
#
# Total GULP energy -156059.192193 kJ/mol
# GULP energy per Si atom -5573.542578 kJ/mol
# Density = 1.515751 g / cm^3
# Si number density = 15.192084 Si / 1000 Ang^3
#
#
#
# Elastic Constant Matrix: (Units=GPa)
#
#
# Indices 1 2 3 4 5 6 
#
# 1 81.4780 43.9060 58.4884 0.0000 22.0617 0.0000
# 2 43.9060 87.4883 57.3499 -0.0003 22.1354 0.0002
# 3 58.4884 57.3499 92.5395 -0.0002 30.6660 0.0001
# 4 0.0000 -0.0003 -0.0002 11.1460 0.0001 16.3850
# 5 22.0617 22.1354 30.6660 0.0001 25.9213 0.0000
# 6 0.0000 0.0002 0.0001 16.3850 0.0000 13.6090
#
#
#
# Elastic Compliance Matrix: (Units=1/GPa)
#
#
# Indices 1 2 3 4 5 6 
#
# 1 0.023220 -0.003224 -0.011582 0.000001 -0.003308 -0.000001
# 2 -0.003224 0.019931 -0.009184 -0.000001 -0.003411 0.000001
# 3 -0.011582 -0.009184 0.029529 -0.000001 -0.017234 0.000001
# 4 0.000001 -0.000001 -0.000001 -0.116531 0.000001 0.140302
# 5 -0.003308 -0.003411 -0.017234 0.000001 0.064695 -0.000001
# 6 -0.000001 0.000001 0.000001 0.140302 -0.000001 -0.095441
#
#
# Mechanical properties :
#
#
# Convention : Reuss Voigt Hill
#
# Bulk Modulus (GPa) = 40.48442 64.55496 52.51969
# Shear Modulus (GPa) = -271.99495 16.91936 -127.53779
#
# Velocity S-wave (km/s) = -13.39500 3.34083 -9.17237
# Velocity P-wave (km/s) = 14.57835 7.58065 8.80517
#
# Compressibility (1/GPa) = 0.02470086
#
# Stress axis : x y z
#
# Youngs Moduli (GPa) = 43.06603 50.17192 33.86499
#
# Poissons Ratio (x) = 0.16176 0.39222
# Poissons Ratio (y) = 0.13885 0.31102
# Poissons Ratio (z) = 0.49878 0.46078
#
# Static dielectric constant tensor:
#      x y z
#    x 1.490790 0.000000 0.037470 
#    y 0.000000 1.505620 0.000000 
#    z 0.037470 0.000000 1.525520 
# 
# From -- ./inp_files/291436.got.cif
#   From: 2010.05.17/outbox.cif.g08.bks.cpg/sg12_146_cif.got.tgz:291436.got - 2010.06.03 13:09:07.
