data_PCOD9180565
_publ_section_title
;
Structure prediction by ZEFSAII (Michael W. Deem and Ramdas Pophale) SiO2 
 PCOD9180565
Probable space group: C 2/M
;
_chemical_formula_sum "Si O2"
_cell_formula_units_Z 64
_cell_length_a 11.583046
_cell_length_b 26.535629
_cell_length_c 22.934574
_cell_angle_alpha 90.000000
_cell_angle_beta 32.728719
_cell_angle_gamma 90.000000
_cell_volume 3811.261379
_symmetry_space_group_name_H-M "C 2/M"
_symmetry_group_IT_number 12
_symmetry_cell_setting 'monoclinic'
loop_
_space_group_symop_operation_xyz
x,y,z
-x,y,-z
-x,-y,-z
x,-y,z
1/2+x,1/2+y,z
1/2-x,1/2+y,-z
1/2-x,1/2-y,-z
1/2+x,1/2-y,z
loop_
_atom_site_type_symbol
_atom_site_label
_atom_site_fract_x
_atom_site_fract_y
_atom_site_fract_z
Si Si1 0.215318 0.940531 0.249586
Si Si2 0.118913 0.607709 0.132482
Si Si3 0.613942 0.438869 0.511918
Si Si4 0.342762 0.227840 0.871433
Si Si5 0.578793 0.726914 0.874268
Si Si6 0.755682 0.942730 0.895368
Si Si7 0.494696 0.609343 0.890991
Si Si8 0.431200 0.940064 0.719984
O O1 0.428799 0.909078 0.170776
O O2 0.155041 0.937136 0.207696
O O3 0.029056 0.923369 0.372475
O O4 0.262216 0.000000 0.241528
O O5 0.129764 0.667592 0.136405
O O6 0.067314 0.581751 0.215450
O O7 0.346207 0.592296 0.008193
O O8 0.500000 0.423634 0.500000
O O9 0.614868 0.500000 0.512624
O O10 0.859645 0.422167 0.403968
O O11 0.537180 0.250883 0.827121
O O12 0.281808 0.240212 0.829665
O O13 0.129023 0.241829 0.998851
O O14 0.564386 0.666499 0.873320
O O15 0.845736 0.899879 0.898739
O O16 0.805726 0.000000 0.895632
O O17 0.500000 0.939867 0.000000
O O18 0.706105 0.577327 0.790750
O O19 0.441371 0.000000 0.718952
#
# Coordination Sequence:
#
# PCOD9180565 Si02
#       8
#     8   8   8   8   8   8   8   8
#     4  10  19  32  50  73 104 139 178 217 249 299
#     4  11  19  30  50  75 106 131 167 215 264 312
#     4   9  17  31  49  70  98 135 178 217 252 294
#     4   9  18  32  48  71  99 135 171 215 266 318
#     4   9  18  33  49  68 103 136 171 216 263 315
#     4  10  20  33  47  69 106 144 173 202 247 311
#     4  11  21  33  48  74 107 139 171 209 258 320
#     4  11  21  31  49  76 107 139 170 210 260 307
#
# _framework density 16.792339999999999
#
# number of rings (size 3 to 8) (size 9 to 14) (size 15 to 20)
#    0.000    2.000    3.750    1.125    0.000    3.000 
#    2.250    0.625    0.000    3.000    0.000    0.875 
#    3.750    0.000    0.000    0.000    0.000    0.000 
#
# Total GULP energy -178218.095438 kJ/mol
# GULP energy per Si atom -5569.315482 kJ/mol
# Density = 1.675412 g / cm^3
# Si number density = 16.792340 Si / 1000 Ang^3
#
#
#
# Elastic Constant Matrix: (Units=GPa)
#
#
# Indices 1 2 3 4 5 6 
#
# 1 93.8346 23.2732 22.3549 -0.0047 3.4218 0.0020
# 2 23.2732 17.9649 13.9524 -0.0009 -1.9728 0.0011
# 3 22.3549 13.9524 99.7367 -0.0087 0.8350 0.0041
# 4 -0.0047 -0.0009 -0.0087 -1.5800 0.0047 1.8875
# 5 3.4218 -1.9728 0.8350 0.0047 19.7021 -0.0024
# 6 0.0020 0.0011 0.0041 1.8875 -0.0024 19.1725
#
#
#
# Elastic Compliance Matrix: (Units=1/GPa)
#
#
# Indices 1 2 3 4 5 6 
#
# 1 0.016205 -0.021026 -0.000650 -0.000043 -0.004892 0.000003
# 2 -0.021026 0.090607 -0.008072 0.000084 0.013067 -0.000008
# 3 -0.000650 -0.008072 0.011311 -0.000055 -0.001175 0.000003
# 4 -0.000043 0.000084 -0.000055 -0.566314 0.000160 0.055754
# 5 -0.004892 0.013067 -0.001175 0.000160 0.052964 -0.000009
# 6 0.000003 -0.000008 0.000003 0.055754 -0.000009 0.046669
#
#
# Mechanical properties :
#
#
# Convention : Reuss Voigt Hill
#
# Bulk Modulus (GPa) = 17.05677 36.74414 26.90046
# Shear Modulus (GPa) = -18.55158 17.58930 -0.48114
#
# Velocity S-wave (km/s) = -3.32741 3.23996 -0.53586
# Velocity P-wave (km/s) = 2.14071 5.99378 3.95871
#
# Compressibility (1/GPa) = 0.05862774
#
# Stress axis : x y z
#
# Youngs Moduli (GPa) = 61.70838 11.03665 88.40889
#
# Poissons Ratio (x) = 0.23206 0.05745
# Poissons Ratio (y) = 1.29749 0.71362
# Poissons Ratio (z) = 0.04010 0.08909
#
# Static dielectric constant tensor:
#      x y z
#    x 1.628770 0.000000 -0.007970 
#    y 0.000000 1.566740 0.000000 
#    z -0.007970 0.000000 1.556890 
# 
# From -- ./inp_files/136649.got.cif
#   From: 2010.05.17/outbox.cif.g08.bks.cpg/sg12_69_cif.got.tgz:136649.got - 2010.06.03 13:09:07.
