data_PCOD9180899
_publ_section_title
;
Structure prediction by ZEFSAII (Michael W. Deem and Ramdas Pophale) SiO2 
 PCOD9180899
Probable space group: C 2/M
;
_chemical_formula_sum "Si O2"
_cell_formula_units_Z 64
_cell_length_a 21.345028
_cell_length_b 9.559647
_cell_length_c 15.826908
_cell_angle_alpha 90.000000
_cell_angle_beta 81.987081
_cell_angle_gamma 90.000000
_cell_volume 3197.964691
_symmetry_space_group_name_H-M "C 2/M"
_symmetry_group_IT_number 12
_symmetry_cell_setting 'monoclinic'
loop_
_space_group_symop_operation_xyz
x,y,z
-x,y,-z
-x,-y,-z
x,-y,z
1/2+x,1/2+y,z
1/2-x,1/2+y,-z
1/2-x,1/2-y,-z
1/2+x,1/2-y,z
loop_
_atom_site_type_symbol
_atom_site_label
_atom_site_fract_x
_atom_site_fract_y
_atom_site_fract_z
Si Si1 0.066515 0.168034 0.385388
Si Si2 0.186096 0.666119 0.287423
Si Si3 0.859684 0.844929 0.838230
Si Si4 0.596397 0.840938 0.924656
Si Si5 0.802926 0.846280 0.030530
Si Si6 0.785038 0.831553 0.417236
Si Si7 0.073019 0.834157 0.586983
Si Si8 0.035216 0.659459 0.125819
O O1 0.124195 0.256057 0.336669
O O2 0.072351 0.183277 0.485685
O O3 0.996143 0.218967 0.371269
O O4 0.070977 0.000000 0.369320
O O5 0.176712 0.500000 0.280324
O O6 0.190960 0.743113 0.196314
O O7 0.244339 0.689663 0.339896
O O8 0.927226 0.768257 0.824235
O O9 0.857830 0.000000 0.801248
O O10 0.846328 0.862130 0.939319
O O11 0.653928 0.733959 0.910606
O O12 0.538197 0.806853 0.874318
O O13 0.617857 0.000000 0.905241
O O14 0.566451 0.840879 0.025454
O O15 0.781094 0.000000 0.061853
O O16 0.750000 0.750000 0.000000
O O17 0.750000 0.750000 0.500000
O O18 0.858256 0.783109 0.395012
O O19 0.785192 0.000000 0.435247
O O20 0.071872 0.000000 0.605374
O O21 0.041777 0.500000 0.155940
#
# Coordination Sequence:
#
# PCOD9180899 Si02
#       8
#     8   8   8   8   8   8   8   8
#     4   9  16  30  53  75  98 134 172 211 259 314
#     4  11  22  33  50  77 107 138 174 220 272 322
#     4  10  21  35  52  74 101 136 175 213 255 309
#     4   8  14  26  47  74 100 125 151 189 244 297
#     4  10  20  33  52  77 102 133 175 218 258 307
#     4  10  19  32  51  77 105 135 176 222 265 315
#     4   8  15  29  51  76 100 130 171 214 260 309
#     4   8  14  27  48  73  99 124 153 192 242 296
#
# _framework density 20.012730000000001
#
# number of rings (size 3 to 8) (size 9 to 14) (size 15 to 20)
#    0.000    2.750    1.250    2.625    0.000    2.500 
#    0.000    4.375    2.750    0.000    0.000    0.000 
#    0.000    0.000    0.000    0.000    0.000    0.000 
#
# Total GULP energy -178224.921988 kJ/mol
# GULP energy per Si atom -5569.528812 kJ/mol
# Density = 1.996718 g / cm^3
# Si number density = 20.012730 Si / 1000 Ang^3
#
#
#
# Elastic Constant Matrix: (Units=GPa)
#
#
# Indices 1 2 3 4 5 6 
#
# 1 138.1083 65.4028 6.5936 0.0000 27.8116 0.0000
# 2 65.4028 111.9490 4.7419 0.0000 29.9852 0.0000
# 3 6.5936 4.7419 23.1986 0.0000 12.9527 0.0000
# 4 0.0000 0.0000 0.0000 18.9228 0.0000 3.2079
# 5 27.8116 29.9852 12.9527 0.0000 29.2373 0.0000
# 6 0.0000 0.0000 0.0000 3.2079 0.0000 27.6634
#
#
#
# Elastic Compliance Matrix: (Units=1/GPa)
#
#
# Indices 1 2 3 4 5 6 
#
# 1 0.010560 -0.004672 0.001178 0.000000 -0.005775 0.000000
# 2 -0.004672 0.015051 0.005831 0.000000 -0.013575 0.000000
# 3 0.001178 0.005831 0.060512 0.000000 -0.033909 0.000000
# 4 0.000000 0.000000 0.000000 0.053906 0.000000 -0.006251
# 5 -0.005775 -0.013575 -0.033909 0.000000 0.068641 0.000000
# 6 0.000000 0.000000 0.000000 -0.006251 0.000000 0.036874
#
#
# Mechanical properties :
#
#
# Convention : Reuss Voigt Hill
#
# Bulk Modulus (GPa) = 11.01361 47.41472 29.21416
# Shear Modulus (GPa) = 18.44088 28.26588 23.35338
#
# Velocity S-wave (km/s) = 3.03885 3.76226 3.41974
# Velocity P-wave (km/s) = 4.22232 6.52813 5.49748
#
# Compressibility (1/GPa) = 0.09079675
#
# Stress axis : x y z
#
# Youngs Moduli (GPa) = 94.69599 66.43865 16.52564
#
# Poissons Ratio (x) = 0.31043 -0.01947
# Poissons Ratio (y) = 0.44247 -0.09636
# Poissons Ratio (z) = -0.11156 -0.38740
#
# Static dielectric constant tensor:
#      x y z
#    x 1.733660 0.000000 -0.035860 
#    y 0.000000 1.710830 0.000000 
#    z -0.035860 0.000000 1.778380 
# 
# From -- ./inp_files/281247.got.cif
#   From: 2010.05.17/outbox.cif.g08.bks.cpg/sg12_141_cif.got.tgz:281247.got - 2010.06.03 13:09:07.
