data_PCOD9180775
_publ_section_title
;
Structure prediction by ZEFSAII (Michael W. Deem and Ramdas Pophale) SiO2 
 PCOD9180775
Probable space group: C 2/M
;
_chemical_formula_sum "Si O2"
_cell_formula_units_Z 48
_cell_length_a 14.732675
_cell_length_b 10.921912
_cell_length_c 29.642389
_cell_angle_alpha 90.000000
_cell_angle_beta 30.926178
_cell_angle_gamma 90.000000
_cell_volume 2451.321041
_symmetry_space_group_name_H-M "C 2/M"
_symmetry_group_IT_number 12
_symmetry_cell_setting 'monoclinic'
loop_
_space_group_symop_operation_xyz
x,y,z
-x,y,-z
-x,-y,-z
x,-y,z
1/2+x,1/2+y,z
1/2-x,1/2+y,-z
1/2-x,1/2-y,-z
1/2+x,1/2-y,z
loop_
_atom_site_type_symbol
_atom_site_label
_atom_site_fract_x
_atom_site_fract_y
_atom_site_fract_z
Si Si1 0.960131 0.683454 0.617972
Si Si2 0.370356 0.352779 0.094053
Si Si3 0.504803 0.860608 0.789025
Si Si4 0.169633 0.866864 0.574792
Si Si5 0.685032 0.711495 0.405524
Si Si6 0.396407 0.640938 0.185452
O O1 0.881791 0.683839 0.601061
O O2 0.812914 0.633141 0.713736
O O3 0.005483 0.820450 0.615527
O O4 0.155509 0.628555 0.531166
O O5 0.388556 0.500000 0.086818
O O6 0.169147 0.329060 0.165748
O O7 0.416686 0.316657 0.125172
O O8 0.500000 0.303699 0.000000
O O9 0.673421 0.861262 0.683950
O O10 0.531918 0.749334 0.812844
O O11 0.483048 0.000000 0.816931
O O12 0.217135 0.771312 0.593718
O O13 0.137298 0.000000 0.608088
O O14 0.500000 0.651495 0.500000
O O15 0.465288 0.500000 0.162234
#
# Coordination Sequence:
#
# PCOD9180775 Si02
#       6
#     8   8   8   8   8   8
#     4   9  19  32  48  76 107 140 181 227 275 319
#     4   9  19  37  60  84 111 144 180 221 276 337
#     4  10  21  37  57  83 113 145 183 227 274 322
#     4  10  19  32  51  74 104 145 192 234 268 312
#     4   9  19  33  50  76 109 146 184 221 267 321
#     4  10  20  36  58  81 108 144 183 222 270 331
#
# _framework density 19.581278999999999
#
# number of rings (size 3 to 8) (size 9 to 14) (size 15 to 20)
#    0.000    2.500    0.000    1.500    0.000    9.333 
#    0.000    9.167    0.000    1.000    0.000    0.000 
#    0.000    0.000    0.000    0.000    0.000    0.000 
#
# Total GULP energy -133612.570923 kJ/mol
# GULP energy per Si atom -5567.190455 kJ/mol
# Density = 1.953671 g / cm^3
# Si number density = 19.581279 Si / 1000 Ang^3
#
#
#
# Elastic Constant Matrix: (Units=GPa)
#
#
# Indices 1 2 3 4 5 6 
#
# 1 93.5821 42.5241 19.4610 0.0000 19.1404 0.0000
# 2 42.5241 91.7672 -0.3844 0.0000 5.5325 0.0000
# 3 19.4610 -0.3844 53.6449 -0.0001 14.8636 -0.0001
# 4 0.0000 0.0000 -0.0001 14.7605 0.0000 -1.6393
# 5 19.1404 5.5325 14.8636 0.0000 29.4269 0.0000
# 6 0.0000 0.0000 -0.0001 -1.6393 0.0000 15.8797
#
#
#
# Elastic Compliance Matrix: (Units=1/GPa)
#
#
# Indices 1 2 3 4 5 6 
#
# 1 0.016200 -0.007088 -0.003927 0.000000 -0.007221 0.000000
# 2 -0.007088 0.014150 0.002479 0.000000 0.000698 0.000000
# 3 -0.003927 0.002479 0.022679 0.000000 -0.009367 0.000000
# 4 0.000000 0.000000 0.000000 0.068534 0.000000 0.007075
# 5 -0.007221 0.000698 -0.009367 0.000000 0.043280 0.000000
# 6 0.000000 0.000000 0.000000 0.007075 0.000000 0.063704
#
#
# Mechanical properties :
#
#
# Convention : Reuss Voigt Hill
#
# Bulk Modulus (GPa) = 27.81044 40.24396 34.02720
# Shear Modulus (GPa) = 19.40962 23.83965 21.62463
#
# Velocity S-wave (km/s) = 3.15180 3.49301 3.32679
# Velocity P-wave (km/s) = 5.24200 6.07166 5.67202
#
# Compressibility (1/GPa) = 0.03595771
#
# Stress axis : x y z
#
# Youngs Moduli (GPa) = 61.72729 70.67110 44.09390
#
# Poissons Ratio (x) = 0.50093 0.17316
# Poissons Ratio (y) = 0.43753 -0.10933
# Poissons Ratio (z) = 0.24241 -0.17523
#
# Static dielectric constant tensor:
#      x y z
#    x 1.672410 0.000000 0.012650 
#    y 0.000000 1.729380 0.000000 
#    z 0.012650 0.000000 1.709160 
# 
# From -- ./inp_files/361077.got.cif
#   From: 2010.05.17/outbox.cif.g08.bks.cpg/sg12_181_cif.got.tgz:361077.got - 2010.06.03 13:09:07.
