data_PCOD9180478
_publ_section_title
;
Structure prediction by ZEFSAII (Michael W. Deem and Ramdas Pophale) SiO2 
 PCOD9180478
Probable space group: C 2/M
;
_chemical_formula_sum "Si O2"
_cell_formula_units_Z 48
_cell_length_a 17.277708
_cell_length_b 13.531850
_cell_length_c 11.771348
_cell_angle_alpha 90.000000
_cell_angle_beta 88.933463
_cell_angle_gamma 90.000000
_cell_volume 2751.656749
_symmetry_space_group_name_H-M "C 2/M"
_symmetry_group_IT_number 12
_symmetry_cell_setting 'monoclinic'
loop_
_space_group_symop_operation_xyz
x,y,z
-x,y,-z
-x,-y,-z
x,-y,z
1/2+x,1/2+y,z
1/2-x,1/2+y,-z
1/2-x,1/2-y,-z
1/2+x,1/2-y,z
loop_
_atom_site_type_symbol
_atom_site_label
_atom_site_fract_x
_atom_site_fract_y
_atom_site_fract_z
Si Si1 0.471916 0.118399 0.231297
Si Si2 0.160095 0.694184 0.912727
Si Si3 0.635558 0.194703 0.304004
Si Si4 0.860173 0.616551 0.446437
Si Si5 0.245816 0.615367 0.123293
Si Si6 0.776952 0.113930 0.719952
O O1 0.424467 0.168498 0.130532
O O2 0.557890 0.156883 0.247155
O O3 0.423571 0.140175 0.348250
O O4 0.471301 0.000000 0.215531
O O5 0.183209 0.809512 0.901267
O O6 0.220244 0.637972 0.826914
O O7 0.180726 0.652582 0.035602
O O8 0.630413 0.174813 0.437913
O O9 0.708580 0.136553 0.247406
O O10 0.653621 0.309115 0.280585
O O11 0.868393 0.500000 0.472305
O O12 0.776983 0.631673 0.389123
O O13 0.262756 0.500000 0.107590
O O14 0.799802 0.000000 0.722665
#
# Coordination Sequence:
#
# PCOD9180478 Si02
#       6
#     8   8   8   8   8   8
#     4  10  19  32  50  70  96 127 156 190 235 285
#     4   9  19  34  51  70  93 128 162 187 228 282
#     4  11  20  29  47  76 100 119 152 199 244 276
#     4   9  17  31  50  69  92 124 158 192 233 280
#     4  10  19  32  51  73  97 122 155 198 235 272
#     4   9  18  33  51  67  90 128 166 194 224 275
#
# _framework density 17.444037000000002
#
# number of rings (size 3 to 8) (size 9 to 14) (size 15 to 20)
#    0.000    2.333    0.000    5.000    0.000    2.000 
#    0.000    2.500    0.000    2.000    0.000    7.000 
#    0.000    0.000    0.000    0.000    0.000    0.000 
#
# Total GULP energy -133910.911122 kJ/mol
# GULP energy per Si atom -5579.621297 kJ/mol
# Density = 1.740433 g / cm^3
# Si number density = 17.444037 Si / 1000 Ang^3
#
#
#
# Elastic Constant Matrix: (Units=GPa)
#
#
# Indices 1 2 3 4 5 6 
#
# 1 36.4024 35.9345 8.3146 0.0000 -0.5464 0.0000
# 2 35.9345 119.7466 17.1563 0.0000 7.3307 0.0000
# 3 8.3146 17.1563 40.1583 0.0000 6.9878 0.0000
# 4 0.0000 0.0000 0.0000 14.6808 0.0000 2.0381
# 5 -0.5464 7.3307 6.9878 0.0000 8.5489 0.0000
# 6 0.0000 0.0000 0.0000 2.0381 0.0000 22.5024
#
#
#
# Elastic Compliance Matrix: (Units=1/GPa)
#
#
# Indices 1 2 3 4 5 6 
#
# 1 0.041870 -0.012794 -0.006503 0.000000 0.018962 0.000000
# 2 -0.012794 0.013013 -0.000964 0.000000 -0.011189 0.000000
# 3 -0.006503 -0.000964 0.030997 0.000000 -0.024926 0.000000
# 4 0.000000 0.000000 0.000000 0.068983 0.000000 -0.006248
# 5 0.018962 -0.011189 -0.024926 0.000000 0.148156 0.000000
# 6 0.000000 0.000000 0.000000 -0.006248 0.000000 0.045006
#
#
# Mechanical properties :
#
#
# Convention : Reuss Voigt Hill
#
# Bulk Modulus (GPa) = 22.04607 35.45756 28.75181
# Shear Modulus (GPa) = 12.38649 18.13987 15.26318
#
# Velocity S-wave (km/s) = 2.66760 3.22823 2.96121
# Velocity P-wave (km/s) = 4.70678 5.85371 5.31129
#
# Compressibility (1/GPa) = 0.04535957
#
# Stress axis : x y z
#
# Youngs Moduli (GPa) = 23.88337 76.84435 32.26141
#
# Poissons Ratio (x) = 0.98314 0.20979
# Poissons Ratio (y) = 0.30556 0.03109
# Poissons Ratio (z) = 0.15531 0.07405
#
# Static dielectric constant tensor:
#      x y z
#    x 1.581510 0.000000 0.001410 
#    y 0.000000 1.580400 0.000000 
#    z 0.001410 0.000000 1.626800 
# 
# From -- ./inp_files/143013.got.cif
#   From: 2010.05.17/outbox.cif.g08.bks.cpg/sg12_72_cif.got.tgz:143013.got - 2010.06.03 13:09:07.
