data_PCOD9180815
_publ_section_title
;
Structure prediction by ZEFSAII (Michael W. Deem and Ramdas Pophale) SiO2 
 PCOD9180815
Probable space group: C 2/M
;
_chemical_formula_sum "Si O2"
_cell_formula_units_Z 64
_cell_length_a 17.293292
_cell_length_b 11.206489
_cell_length_c 28.294547
_cell_angle_alpha 90.000000
_cell_angle_beta 36.969891
_cell_angle_gamma 90.000000
_cell_volume 3297.691213
_symmetry_space_group_name_H-M "C 2/M"
_symmetry_group_IT_number 12
_symmetry_cell_setting 'monoclinic'
loop_
_space_group_symop_operation_xyz
x,y,z
-x,y,-z
-x,-y,-z
x,-y,z
1/2+x,1/2+y,z
1/2-x,1/2+y,-z
1/2-x,1/2-y,-z
1/2+x,1/2-y,z
loop_
_atom_site_type_symbol
_atom_site_label
_atom_site_fract_x
_atom_site_fract_y
_atom_site_fract_z
Si Si1 0.736483 0.634835 0.754419
Si Si2 0.399664 0.302047 0.085920
Si Si3 0.683380 0.861008 0.634932
Si Si4 0.787466 0.136780 0.884275
Si Si5 0.473378 0.771888 0.205124
Si Si6 0.475233 0.142003 0.380445
Si Si7 0.916956 0.634498 0.941607
Si Si8 0.865780 0.362273 0.537411
O O1 0.743923 0.500000 0.731493
O O2 0.678677 0.629161 0.835614
O O3 0.640590 0.709641 0.768619
O O4 0.879412 0.690137 0.686858
O O5 0.296675 0.224306 0.106990
O O6 0.492478 0.217328 0.071247
O O7 0.500000 0.361762 0.000000
O O8 0.587135 0.856661 0.726187
O O9 0.605602 0.822778 0.625825
O O10 0.783162 0.751917 0.594316
O O11 0.730325 0.000000 0.606510
O O12 0.934483 0.176103 0.814832
O O13 0.773072 0.000000 0.875586
O O14 0.725536 0.144437 0.967233
O O15 0.562632 0.837192 0.122997
O O16 0.398878 0.160210 0.466199
O O17 0.492925 0.000000 0.366193
O O18 0.959866 0.500000 0.929377
O O19 0.813006 0.500000 0.567840
O O20 0.000000 0.362643 0.500000
#
# Coordination Sequence:
#
# PCOD9180815 Si02
#       8
#     8   8   8   8   8   8   8   8
#     4  10  20  35  54  76 107 146 184 227 278 331
#     4   9  18  32  51  75 103 139 183 229 280 337
#     4  11  23  38  59  86 116 149 184 227 278 330
#     4  10  19  32  51  75 103 138 184 236 285 332
#     4  11  21  33  51  77 109 142 182 228 278 335
#     4   9  19  37  58  80 109 146 187 228 275 330
#     4   9  18  33  51  70  99 141 185 230 279 333
#     4  10  21  39  64  90 116 148 185 225 273 332
#
# _framework density 19.407516999999999
#
# number of rings (size 3 to 8) (size 9 to 14) (size 15 to 20)
#    0.000    2.125    0.000    3.375    0.000    4.000 
#    0.000    0.625    0.000    3.750    0.000    0.000 
#    0.000    0.000    0.000    0.000    0.000    0.000 
#
# Total GULP energy -178327.657316 kJ/mol
# GULP energy per Si atom -5572.739291 kJ/mol
# Density = 1.936334 g / cm^3
# Si number density = 19.407517 Si / 1000 Ang^3
#
#
#
# Elastic Constant Matrix: (Units=GPa)
#
#
# Indices 1 2 3 4 5 6 
#
# 1 61.0563 18.8742 27.2662 0.0000 8.6420 0.0000
# 2 18.8742 87.8863 31.8393 0.0000 -7.8580 0.0000
# 3 27.2662 31.8393 54.6924 0.0000 -0.9123 0.0000
# 4 0.0000 0.0000 0.0000 25.0003 0.0000 2.9139
# 5 8.6420 -7.8580 -0.9123 0.0000 32.7010 0.0000
# 6 0.0000 0.0000 0.0000 2.9139 0.0000 14.0764
#
#
#
# Elastic Compliance Matrix: (Units=1/GPa)
#
#
# Indices 1 2 3 4 5 6 
#
# 1 0.022444 -0.001671 -0.010327 0.000000 -0.006621 0.000000
# 2 -0.001671 0.014894 -0.007774 0.000000 0.003804 0.000000
# 3 -0.010327 -0.007774 0.027985 0.000000 0.001642 0.000000
# 4 0.000000 0.000000 0.000000 0.040988 0.000000 -0.008485
# 5 -0.006621 0.003804 0.001642 0.000000 0.033290 0.000000
# 6 0.000000 0.000000 0.000000 -0.008485 0.000000 0.072798
#
#
# Mechanical properties :
#
#
# Convention : Reuss Voigt Hill
#
# Bulk Modulus (GPa) = 38.79035 39.95491 39.37263
# Shear Modulus (GPa) = 19.19134 22.73256 20.96195
#
# Velocity S-wave (km/s) = 3.14803 3.42618 3.29004
# Velocity P-wave (km/s) = 5.76577 6.02359 5.89609
#
# Compressibility (1/GPa) = 0.02577961
#
# Stress axis : x y z
#
# Youngs Moduli (GPa) = 44.55613 67.14323 35.73292
#
# Poissons Ratio (x) = 0.11218 0.36901
# Poissons Ratio (y) = 0.07444 0.27779
# Poissons Ratio (z) = 0.46012 0.52197
#
# Static dielectric constant tensor:
#      x y z
#    x 1.670830 0.000000 0.011590 
#    y 0.000000 1.692650 0.000000 
#    z 0.011590 0.000000 1.722570 
# 
# From -- ./inp_files/361033.got.cif
#   From: 2010.05.17/outbox.cif.g08.bks.cpg/sg12_181_cif.got.tgz:361033.got - 2010.06.03 13:09:07.
