data_PCOD9180806
_publ_section_title
;
Structure prediction by ZEFSAII (Michael W. Deem and Ramdas Pophale) SiO2 
 PCOD9180806
Probable space group: C 2/M
;
_chemical_formula_sum "Si O2"
_cell_formula_units_Z 56
_cell_length_a 19.901758
_cell_length_b 8.466679
_cell_length_c 24.058528
_cell_angle_alpha 90.000000
_cell_angle_beta 51.404020
_cell_angle_gamma 90.000000
_cell_volume 3168.387342
_symmetry_space_group_name_H-M "C 2/M"
_symmetry_group_IT_number 12
_symmetry_cell_setting 'monoclinic'
loop_
_space_group_symop_operation_xyz
x,y,z
-x,y,-z
-x,-y,-z
x,-y,z
1/2+x,1/2+y,z
1/2-x,1/2+y,-z
1/2-x,1/2-y,-z
1/2+x,1/2-y,z
loop_
_atom_site_type_symbol
_atom_site_label
_atom_site_fract_x
_atom_site_fract_y
_atom_site_fract_z
Si Si1 0.943617 0.189734 0.342184
Si Si2 0.781097 0.691080 0.222257
Si Si3 0.250782 0.689156 0.937147
Si Si4 0.287206 0.808322 0.346344
Si Si5 0.595581 0.192396 0.937695
Si Si6 0.867328 0.687553 0.781335
Si Si7 0.328026 0.690229 0.498004
O O1 0.870054 0.245950 0.337087
O O2 0.912385 0.241254 0.420424
O O3 0.036027 0.256416 0.278997
O O4 0.946928 0.000000 0.339269
O O5 0.779619 0.500000 0.223233
O O6 0.785419 0.745469 0.283573
O O7 0.862826 0.741087 0.142586
O O8 0.696630 0.747109 0.233159
O O9 0.253387 0.500000 0.935544
O O10 0.164094 0.739591 0.949393
O O11 0.329540 0.751127 0.859355
O O12 0.250000 0.750000 0.000000
O O13 0.201324 0.760256 0.425202
O O14 0.291533 0.000000 0.344510
O O15 0.592899 0.000000 0.938818
O O16 0.500000 0.249850 0.000000
O O17 0.863701 0.500000 0.782933
O O18 0.328991 0.500000 0.497449
O O19 0.250000 0.750000 0.500000
#
# Coordination Sequence:
#
# PCOD9180806 Si02
#       7
#     8   8   8   8   8   8   8
#     4  10  19  32  51  75 103 133 169 214 261 306
#     4   9  18  33  52  73 101 135 168 208 256 306
#     4  10  20  35  55  78 104 133 166 206 253 303
#     4   9  17  31  52  77 102 131 171 212 256 313
#     4   8  15  29  49  72  97 127 162 198 239 289
#     4  11  22  36  53  72 100 138 176 213 255 302
#     4   8  15  28  47  71  99 131 165 207 257 307
#
# _framework density 17.674607000000002
#
# number of rings (size 3 to 8) (size 9 to 14) (size 15 to 20)
#    0.000    2.714    0.000    3.000    0.000    2.286 
#    0.000    3.571    0.000   15.000    0.000    0.000 
#    0.000    0.000    0.000    0.000    0.000    0.000 
#
# Total GULP energy -156005.269203 kJ/mol
# GULP energy per Si atom -5571.616757 kJ/mol
# Density = 1.763438 g / cm^3
# Si number density = 17.674607 Si / 1000 Ang^3
#
#
#
# Elastic Constant Matrix: (Units=GPa)
#
#
# Indices 1 2 3 4 5 6 
#
# 1 71.4740 17.7184 105.4177 0.0001 -1.5054 0.0004
# 2 17.7184 27.0618 35.4007 0.0001 1.1472 0.0007
# 3 105.4177 35.4007 219.9548 0.0000 2.2816 0.0000
# 4 0.0001 0.0001 0.0000 17.8737 0.0000 1.6848
# 5 -1.5054 1.1472 2.2816 0.0000 36.0225 0.0001
# 6 0.0004 0.0007 0.0000 1.6848 0.0001 22.2587
#
#
#
# Elastic Compliance Matrix: (Units=1/GPa)
#
#
# Indices 1 2 3 4 5 6 
#
# 1 0.048234 -0.001826 -0.022860 0.000000 0.003522 -0.000001
# 2 -0.001826 0.046913 -0.006663 0.000000 -0.001148 -0.000001
# 3 -0.022860 -0.006663 0.016593 0.000000 -0.001794 0.000001
# 4 0.000000 0.000000 0.000000 0.056350 0.000000 -0.004265
# 5 0.003522 -0.001148 -0.001794 0.000000 0.028058 0.000000
# 6 -0.000001 -0.000001 0.000001 -0.004265 0.000000 0.045249
#
#
# Mechanical properties :
#
#
# Convention : Reuss Voigt Hill
#
# Bulk Modulus (GPa) = 20.39050 70.61825 45.50437
# Shear Modulus (GPa) = 15.60332 25.89454 20.74893
#
# Velocity S-wave (km/s) = 2.97444 3.83178 3.43000
# Velocity P-wave (km/s) = 4.83301 7.72127 6.44112
#
# Compressibility (1/GPa) = 0.04904245
#
# Stress axis : x y z
#
# Youngs Moduli (GPa) = 20.73217 21.31585 60.26467
#
# Poissons Ratio (x) = 0.03893 1.37764
# Poissons Ratio (y) = 0.03786 0.40157
# Poissons Ratio (z) = 0.47393 0.14204
#
# Static dielectric constant tensor:
#      x y z
#    x 1.569890 0.000000 0.008340 
#    y 0.000000 1.599170 0.000000 
#    z 0.008340 0.000000 1.640950 
# 
# From -- ./inp_files/341922.got.cif
#   From: 2010.05.17/outbox.cif.g08.bks.cpg/sg12_171_cif.got.tgz:341922.got - 2010.06.03 13:09:07.
