data_PCOD9180563
_publ_section_title
;
Structure prediction by ZEFSAII (Michael W. Deem and Ramdas Pophale) SiO2 
 PCOD9180563
Probable space group: C 2/M
;
_chemical_formula_sum "Si O2"
_cell_formula_units_Z 64
_cell_length_a 29.129223
_cell_length_b 8.943599
_cell_length_c 16.208437
_cell_angle_alpha 90.000000
_cell_angle_beta 116.933854
_cell_angle_gamma 90.000000
_cell_volume 3764.595691
_symmetry_space_group_name_H-M "C 2/M"
_symmetry_group_IT_number 12
_symmetry_cell_setting 'monoclinic'
loop_
_space_group_symop_operation_xyz
x,y,z
-x,y,-z
-x,-y,-z
x,-y,z
1/2+x,1/2+y,z
1/2-x,1/2+y,-z
1/2-x,1/2-y,-z
1/2+x,1/2-y,z
loop_
_atom_site_type_symbol
_atom_site_label
_atom_site_fract_x
_atom_site_fract_y
_atom_site_fract_z
Si Si1 0.194543 0.323797 0.056241
Si Si2 0.278450 0.820732 0.404006
Si Si3 0.792536 0.679240 0.224728
Si Si4 0.357013 0.321266 0.142662
Si Si5 0.170216 0.821498 0.397770
Si Si6 0.584106 0.175647 0.051202
Si Si7 0.535141 0.677676 0.854746
Si Si8 0.071781 0.321042 0.232379
O O1 0.204738 0.500000 0.052087
O O2 0.242083 0.245845 0.139430
O O3 0.143354 0.308850 0.070829
O O4 0.180187 0.246738 0.958087
O O5 0.290704 0.781520 0.319848
O O6 0.219233 0.783793 0.379128
O O7 0.314070 0.738852 0.499517
O O8 0.284185 0.000000 0.418590
O O9 0.792501 0.500000 0.217209
O O10 0.840624 0.748633 0.215250
O O11 0.351069 0.500000 0.140092
O O12 0.415128 0.286305 0.161030
O O13 0.118845 0.747170 0.321443
O O14 0.164725 0.000000 0.394676
O O15 0.577938 0.221557 0.140736
O O16 0.570125 0.000000 0.032375
O O17 0.550111 0.267069 0.958750
O O18 0.527854 0.500000 0.848796
O O19 0.483372 0.758905 0.784856
O O20 0.073064 0.500000 0.238483
#
# Coordination Sequence:
#
# PCOD9180563 Si02
#       8
#     8   8   8   8   8   8   8   8
#     4  10  19  32  50  73 104 138 172 208 248 297
#     4   9  20  37  55  78 107 135 163 201 250 302
#     4  11  21  33  52  76 102 133 170 209 251 300
#     4  10  21  36  51  70 100 136 174 214 254 296
#     4  10  20  35  56  80 106 134 165 202 246 299
#     4   9  19  33  49  73 104 138 172 206 248 299
#     4  10  21  35  51  72 100 135 174 215 254 294
#     4  11  21  33  52  76 104 136 170 208 251 301
#
# _framework density 17.000496999999999
#
# number of rings (size 3 to 8) (size 9 to 14) (size 15 to 20)
#    0.000    2.000    0.000    3.750    0.000    6.000 
#    0.000    0.000    0.000    0.750    0.000    5.250 
#    0.000    0.000    0.000    0.000    0.000    0.000 
#
# Total GULP energy -178756.261803 kJ/mol
# GULP energy per Si atom -5586.133181 kJ/mol
# Density = 1.696180 g / cm^3
# Si number density = 17.000497 Si / 1000 Ang^3
#
#
#
# Elastic Constant Matrix: (Units=GPa)
#
#
# Indices 1 2 3 4 5 6 
#
# 1 106.1421 62.7105 94.6523 0.0000 1.0564 0.0000
# 2 62.7105 69.7417 66.0352 0.0000 1.9800 0.0000
# 3 94.6523 66.0352 122.3277 0.0000 2.5522 0.0000
# 4 0.0000 0.0000 0.0000 29.9921 0.0000 4.4285
# 5 1.0564 1.9800 2.5522 0.0000 32.2514 0.0000
# 6 0.0000 0.0000 0.0000 4.4285 0.0000 26.2253
#
#
#
# Elastic Compliance Matrix: (Units=1/GPa)
#
#
# Indices 1 2 3 4 5 6 
#
# 1 0.034593 -0.011806 -0.020418 0.000000 0.001208 0.000000
# 2 -0.011806 0.033369 -0.008858 0.000000 -0.000961 0.000000
# 3 -0.020418 -0.008858 0.028778 0.000000 -0.001065 0.000000
# 4 0.000000 0.000000 0.000000 0.034195 0.000000 -0.005774
# 5 0.001208 -0.000961 -0.001065 0.000000 0.031110 0.000000
# 6 0.000000 0.000000 0.000000 -0.005774 0.000000 0.039106
#
#
# Mechanical properties :
#
#
# Convention : Reuss Voigt Hill
#
# Bulk Modulus (GPa) = 68.61498 82.77862 75.69680
# Shear Modulus (GPa) = 17.35057 22.68133 20.01595
#
# Velocity S-wave (km/s) = 3.19814 3.65657 3.43501
# Velocity P-wave (km/s) = 7.35429 8.16241 7.76887
#
# Compressibility (1/GPa) = 0.01457408
#
# Stress axis : x y z
#
# Youngs Moduli (GPa) = 28.90772 29.96764 34.74896
#
# Poissons Ratio (x) = 0.35381 0.70952
# Poissons Ratio (y) = 0.34129 0.30781
# Poissons Ratio (z) = 0.59025 0.26546
#
# Static dielectric constant tensor:
#      x y z
#    x 1.590500 0.000000 -0.008850 
#    y 0.000000 1.564310 0.000000 
#    z -0.008850 0.000000 1.535090 
# 
# From -- ./inp_files/249179.got.cif
#   From: 2010.05.17/outbox.cif.g08.bks.cpg/sg12_125_cif.got.tgz:249179.got - 2010.06.03 13:09:07.
