data_PCOD9180283
_publ_section_title
;
Structure prediction by ZEFSAII (Michael W. Deem and Ramdas Pophale) SiO2 
 PCOD9180283
Probable space group: C 2/M
;
_chemical_formula_sum "Si O2"
_cell_formula_units_Z 56
_cell_length_a 10.390051
_cell_length_b 26.300460
_cell_length_c 20.338391
_cell_angle_alpha 90.000000
_cell_angle_beta 39.244004
_cell_angle_gamma 90.000000
_cell_volume 3515.956356
_symmetry_space_group_name_H-M "C 2/M"
_symmetry_group_IT_number 12
_symmetry_cell_setting 'monoclinic'
loop_
_space_group_symop_operation_xyz
x,y,z
-x,y,-z
-x,-y,-z
x,-y,z
1/2+x,1/2+y,z
1/2-x,1/2+y,-z
1/2-x,1/2-y,-z
1/2+x,1/2-y,z
loop_
_atom_site_type_symbol
_atom_site_label
_atom_site_fract_x
_atom_site_fract_y
_atom_site_fract_z
Si Si1 0.564744 0.177860 0.290302
Si Si2 0.582345 0.718402 0.607098
Si Si3 0.718763 0.149207 0.717785
Si Si4 0.955708 0.685368 0.942128
Si Si5 0.854324 0.626675 0.499826
Si Si6 0.505701 0.559190 0.576927
Si Si7 0.490321 0.307513 0.926351
O O1 0.518030 0.238627 0.308141
O O2 0.439772 0.155323 0.278703
O O3 0.480033 0.152913 0.390646
O O4 0.805590 0.171773 0.187587
O O5 0.750000 0.750000 0.500000
O O6 0.401571 0.690979 0.637889
O O7 0.708056 0.671332 0.587125
O O8 0.605700 0.159590 0.830813
O O9 0.823974 0.094487 0.674710
O O10 0.985133 0.746185 0.921375
O O11 0.721806 0.673044 0.018375
O O12 0.000000 0.672891 0.000000
O O13 0.710761 0.583949 0.525021
O O14 0.000000 0.608326 0.500000
O O15 0.500000 0.564208 0.500000
O O16 0.488221 0.500000 0.600563
O O17 0.500000 0.318589 0.000000
#
# Coordination Sequence:
#
# PCOD9180283 Si02
#       7
#     8   8   8   8   8   8   8
#     4  11  20  32  52  74 111 154 179 216 253 325
#     4   9  21  29  46  73 113 147 180 213 253 312
#     4  11  20  35  55  77 103 149 188 215 268 326
#     4  10  21  32  49  75 108 140 186 225 258 306
#     4  10  22  35  51  81 109 139 178 219 272 318
#     4  10  21  40  61  81 104 133 181 232 269 324
#     4  10  19  32  47  73 106 150 184 216 256 304
#
# _framework density 15.927387
#
# number of rings (size 3 to 8) (size 9 to 14) (size 15 to 20)
#    0.000    1.857    4.286    0.000    4.000    2.571 
#    0.000    0.000    0.000    0.429    0.000    3.000 
#    0.000    0.000    0.000    0.000    0.000    0.000 
#
# Total GULP energy -156117.411795 kJ/mol
# GULP energy per Si atom -5575.621850 kJ/mol
# Density = 1.589114 g / cm^3
# Si number density = 15.927387 Si / 1000 Ang^3
#
#
#
# Elastic Constant Matrix: (Units=GPa)
#
#
# Indices 1 2 3 4 5 6 
#
# 1 134.8038 48.2240 51.2445 0.0000 -12.0941 0.0000
# 2 48.2240 88.7069 40.6159 0.0000 -2.9045 0.0001
# 3 51.2445 40.6159 101.7348 0.0004 -12.3865 -0.0001
# 4 0.0000 0.0000 0.0004 14.7432 -0.0002 1.7098
# 5 -12.0941 -2.9045 -12.3865 -0.0002 28.9630 0.0001
# 6 0.0000 0.0001 -0.0001 1.7098 0.0001 10.4824
#
#
#
# Elastic Compliance Matrix: (Units=1/GPa)
#
#
# Indices 1 2 3 4 5 6 
#
# 1 0.010336 -0.004029 -0.003293 0.000000 0.002504 0.000000
# 2 -0.004029 0.015394 -0.004360 0.000000 -0.002003 0.000000
# 3 -0.003293 -0.004360 0.013723 0.000000 0.004056 0.000000
# 4 0.000000 0.000000 0.000000 0.069136 0.000000 -0.011277
# 5 0.002504 -0.002003 0.004056 0.000000 0.037106 0.000000
# 6 0.000000 0.000000 0.000000 -0.011277 0.000000 0.097238
#
#
# Mechanical properties :
#
#
# Convention : Reuss Voigt Hill
#
# Bulk Modulus (GPa) = 62.15713 67.26823 64.71268
# Shear Modulus (GPa) = 18.40536 23.18180 20.79358
#
# Velocity S-wave (km/s) = 3.40307 3.81920 3.61712
# Velocity P-wave (km/s) = 7.38588 7.85967 7.62645
#
# Compressibility (1/GPa) = 0.01608826
#
# Stress axis : x y z
#
# Youngs Moduli (GPa) = 96.74941 64.95877 72.87167
#
# Poissons Ratio (x) = 0.26174 0.23995
# Poissons Ratio (y) = 0.38984 0.31774
# Poissons Ratio (z) = 0.31858 0.28324
#
# Static dielectric constant tensor:
#      x y z
#    x 1.541370 0.000000 -0.015100 
#    y 0.000000 1.509060 0.000000 
#    z -0.015100 0.000000 1.541130 
# 
# From -- ./inp_files/199298.got.cif
#   From: 2010.05.17/outbox.cif.g08.bks.cpg/sg12_100_cif.got.tgz:199298.got - 2010.06.03 13:09:07.
