data_PCOD9180148
_publ_section_title
;
Structure prediction by ZEFSAII (Michael W. Deem and Ramdas Pophale) SiO2 
 PCOD9180148
Probable space group: C 2/M
;
_chemical_formula_sum "Si O2"
_cell_formula_units_Z 50
_cell_length_a 29.558922
_cell_length_b 9.365083
_cell_length_c 29.005237
_cell_angle_alpha 90.000000
_cell_angle_beta 16.226519
_cell_angle_gamma 90.000000
_cell_volume 2243.666404
_symmetry_space_group_name_H-M "C 2/M"
_symmetry_group_IT_number 12
_symmetry_cell_setting 'monoclinic'
loop_
_space_group_symop_operation_xyz
x,y,z
-x,y,-z
-x,-y,-z
x,-y,z
1/2+x,1/2+y,z
1/2-x,1/2+y,-z
1/2-x,1/2-y,-z
1/2+x,1/2-y,z
loop_
_atom_site_type_symbol
_atom_site_label
_atom_site_fract_x
_atom_site_fract_y
_atom_site_fract_z
Si Si1 0.122097 0.168232 0.737774
Si Si2 0.566508 0.829785 0.632516
Si Si3 0.837551 0.734127 0.607614
Si Si4 0.636827 0.836583 0.252255
Si Si5 0.849595 0.837010 0.122372
Si Si6 0.908156 0.172137 0.865532
Si Si7 0.000000 0.000000 0.500000
O O1 0.269059 0.183075 0.557327
O O2 0.182957 0.245591 0.724420
O O3 0.962250 0.208495 0.865116
O O4 0.110233 0.000000 0.761024
O O5 0.425076 0.778613 0.735532
O O6 0.548587 0.732400 0.694562
O O7 0.544704 0.000000 0.664103
O O8 0.782190 0.656089 0.708193
O O9 0.914996 0.877743 0.550631
O O10 0.976437 0.660442 0.441320
O O11 0.773777 0.768981 0.150772
O O12 0.684574 0.000000 0.196331
O O13 0.897172 0.000000 0.063883
O O14 0.000000 0.762343 0.000000
O O15 0.894575 0.000000 0.876172
O O16 0.750000 0.250000 0.000000
#
# Coordination Sequence:
#
# PCOD9180148 Si02
#       7
#     8   8   8   8   8   8   2
#     4   9  20  39  65  88 110 147 203 253 294 347
#     4   9  18  36  60  87 113 147 197 250 299 348
#     4  11  20  38  56  81 116 152 194 238 290 347
#     4   9  17  33  59  82 106 145 192 243 290 342
#     4  10  19  31  54  84 110 141 188 241 289 337
#     4  11  23  40  60  88 123 161 198 242 298 356
#     4  12  24  36  56  84 124 156 194 238 296 360
#
# _framework density 22.284953000000002
#
# number of rings (size 3 to 8) (size 9 to 14) (size 15 to 20)
#    0.000    2.080    1.600    3.360    0.000    2.560 
#    8.640    3.600    0.000    0.000    0.000    0.000 
#    0.000    0.000    0.000    0.000    0.000    0.000 
#
# Total GULP energy -139175.736818 kJ/mol
# GULP energy per Si atom -5567.029473 kJ/mol
# Density = 2.223423 g / cm^3
# Si number density = 22.284953 Si / 1000 Ang^3
#
#
#
# Elastic Constant Matrix: (Units=GPa)
#
#
# Indices 1 2 3 4 5 6 
#
# 1 210.9859 46.7596 30.1790 -0.0004 -39.7301 -0.0004
# 2 46.7596 70.0240 11.7568 -0.0184 -11.3765 0.0031
# 3 30.1790 11.7568 55.2796 -0.0287 -10.7826 0.0069
# 4 -0.0004 -0.0184 -0.0287 8.7696 0.0126 -4.9696
# 5 -39.7301 -11.3765 -10.7826 0.0126 51.8842 -0.0014
# 6 -0.0004 0.0031 0.0069 -4.9696 -0.0014 27.2450
#
#
#
# Elastic Compliance Matrix: (Units=1/GPa)
#
#
# Indices 1 2 3 4 5 6 
#
# 1 0.006503 -0.003373 -0.002090 -0.000020 0.003805 -0.000003
# 2 -0.003373 0.016932 -0.001604 0.000031 0.000796 0.000004
# 3 -0.002090 -0.001604 0.020002 0.000062 0.002204 0.000007
# 4 -0.000020 0.000031 0.000062 0.127175 -0.000026 0.023197
# 5 0.003805 0.000796 0.002204 -0.000026 0.022820 -0.000004
# 6 -0.000003 0.000004 0.000007 0.023197 -0.000004 0.040935
#
#
# Mechanical properties :
#
#
# Convention : Reuss Voigt Hill
#
# Bulk Modulus (GPa) = 34.12798 57.07560 45.60179
# Shear Modulus (GPa) = 19.35951 34.08604 26.72278
#
# Velocity S-wave (km/s) = 2.95061 3.91519 3.46662
# Velocity P-wave (km/s) = 5.19189 6.79011 6.04406
#
# Compressibility (1/GPa) = 0.02930147
#
# Stress axis : x y z
#
# Youngs Moduli (GPa) = 153.77916 59.05977 49.99421
#
# Poissons Ratio (x) = 0.19922 0.10451
# Poissons Ratio (y) = 0.51872 0.08020
# Poissons Ratio (z) = 0.32147 0.09475
#
# Static dielectric constant tensor:
#      x y z
#    x 1.863070 0.000000 -0.050640 
#    y 0.000000 1.731380 0.000010 
#    z -0.050640 0.000010 1.964250 
# 
# From -- ./inp_files/384769.got.cif
#   From: 2010.05.17/outbox.cif.g08.bks.cpg/sg12_193_cif.got.tgz:384769.got - 2010.06.03 13:09:07.
