data_PCOD9180566
_publ_section_title
;
Structure prediction by ZEFSAII (Michael W. Deem and Ramdas Pophale) SiO2 
 PCOD9180566
Probable space group: C 2/M
;
_chemical_formula_sum "Si O2"
_cell_formula_units_Z 48
_cell_length_a 27.423757
_cell_length_b 9.411747
_cell_length_c 8.997478
_cell_angle_alpha 90.000000
_cell_angle_beta 100.794156
_cell_angle_gamma 90.000000
_cell_volume 2281.208309
_symmetry_space_group_name_H-M "C 2/M"
_symmetry_group_IT_number 12
_symmetry_cell_setting 'monoclinic'
loop_
_space_group_symop_operation_xyz
x,y,z
-x,y,-z
-x,-y,-z
x,-y,z
1/2+x,1/2+y,z
1/2-x,1/2+y,-z
1/2-x,1/2-y,-z
1/2+x,1/2-y,z
loop_
_atom_site_type_symbol
_atom_site_label
_atom_site_fract_x
_atom_site_fract_y
_atom_site_fract_z
Si Si1 0.225141 0.839467 0.617101
Si Si2 0.185883 0.664107 0.853737
Si Si3 0.953385 0.333238 0.081564
Si Si4 0.618895 0.342354 0.405250
Si Si5 0.422858 0.839822 0.373455
Si Si6 0.140072 0.170120 0.087601
O O1 0.250000 0.750000 0.500000
O O2 0.222586 0.748726 0.765915
O O3 0.168135 0.853900 0.532699
O O4 0.245510 0.000000 0.644562
O O5 0.200448 0.500000 0.881664
O O6 0.131454 0.663677 0.740351
O O7 0.177929 0.746951 0.002849
O O8 0.935638 0.500000 0.062672
O O9 0.960597 0.304684 0.261352
O O10 0.913161 0.220293 0.004088
O O11 0.000000 0.323225 0.000000
O O12 0.599165 0.500000 0.362906
O O13 0.580739 0.255790 0.483438
O O14 0.637902 0.283408 0.258468
O O15 0.431934 0.000000 0.427683
O O16 0.147750 0.000000 0.082786
#
# Coordination Sequence:
#
# PCOD9180566 Si02
#       6
#     8   8   8   8   8   8
#     4  10  19  33  52  74  99 128 162 201 243 286
#     4   9  17  31  50  72  96 126 163 199 237 285
#     4   9  18  33  51  72  98 127 161 201 242 285
#     4   9  19  33  49  70  98 128 158 196 240 287
#     4   8  15  28  48  70  91 121 161 197 232 281
#     4  10  19  32  50  73  98 126 161 198 239 287
#
# _framework density 21.041481999999998
#
# number of rings (size 3 to 8) (size 9 to 14) (size 15 to 20)
#    0.000    2.833    0.000    2.500    0.000    6.333 
#    0.000    1.667    0.000    5.000    0.000    0.000 
#    0.000    0.000    0.000    0.000    0.000    0.000 
#
# Total GULP energy -133811.157915 kJ/mol
# GULP energy per Si atom -5575.464913 kJ/mol
# Density = 2.099359 g / cm^3
# Si number density = 21.041482 Si / 1000 Ang^3
#
#
#
# Elastic Constant Matrix: (Units=GPa)
#
#
# Indices 1 2 3 4 5 6 
#
# 1 46.3219 35.5504 35.2199 0.0000 -30.3544 0.0000
# 2 35.5504 125.6102 89.0124 0.0000 -41.7502 0.0000
# 3 35.2199 89.0124 156.6016 0.0000 -60.9485 0.0000
# 4 0.0000 0.0000 0.0000 31.6089 0.0000 -12.3667
# 5 -30.3544 -41.7502 -60.9485 0.0000 48.9641 0.0000
# 6 0.0000 0.0000 0.0000 -12.3667 0.0000 9.6641
#
#
#
# Elastic Compliance Matrix: (Units=1/GPa)
#
#
# Indices 1 2 3 4 5 6 
#
# 1 0.038741 -0.005754 0.003871 0.000000 0.023929 0.000000
# 2 -0.005754 0.014551 -0.006859 0.000000 0.000302 0.000000
# 3 0.003871 -0.006859 0.015656 0.000000 0.016039 0.000000
# 4 0.000000 0.000000 0.000000 0.063356 0.000000 0.081074
# 5 0.023929 0.000302 0.016039 0.000000 0.055480 0.000000
# 6 0.000000 0.000000 0.000000 0.081074 0.000000 0.207223
#
#
# Mechanical properties :
#
#
# Convention : Reuss Voigt Hill
#
# Bulk Modulus (GPa) = 19.43139 72.01100 45.72120
# Shear Modulus (GPa) = 11.63747 29.29749 20.46748
#
# Velocity S-wave (km/s) = 2.35430 3.73549 3.12223
# Velocity P-wave (km/s) = 4.07985 7.27344 5.89695
#
# Compressibility (1/GPa) = 0.05146312
#
# Stress axis : x y z
#
# Youngs Moduli (GPa) = 25.81212 68.72598 63.87283
#
# Poissons Ratio (x) = 0.39546 -0.24722
# Poissons Ratio (y) = 0.14853 0.43810
# Poissons Ratio (z) = -0.09991 0.47138
#
# Static dielectric constant tensor:
#      x y z
#    x 1.804120 0.000000 0.014380 
#    y 0.000000 1.750090 0.000000 
#    z 0.014380 0.000000 1.783660 
# 
# From -- ./inp_files/108618.got.cif
#   From: 2010.05.17/outbox.cif.g08.bks.cpg/sg12_55_cif.got.tgz:108618.got - 2010.06.03 13:09:07.
