data_PCOD9180488
_publ_section_title
;
Structure prediction by ZEFSAII (Michael W. Deem and Ramdas Pophale) SiO2 
 PCOD9180488
Probable space group: C 2/M
;
_chemical_formula_sum "Si O2"
_cell_formula_units_Z 48
_cell_length_a 26.809120
_cell_length_b 9.530588
_cell_length_c 8.883138
_cell_angle_alpha 90.000000
_cell_angle_beta 79.645865
_cell_angle_gamma 90.000000
_cell_volume 2232.740492
_symmetry_space_group_name_H-M "C 2/M"
_symmetry_group_IT_number 12
_symmetry_cell_setting 'monoclinic'
loop_
_space_group_symop_operation_xyz
x,y,z
-x,y,-z
-x,-y,-z
x,-y,z
1/2+x,1/2+y,z
1/2-x,1/2+y,-z
1/2-x,1/2-y,-z
1/2+x,1/2-y,z
loop_
_atom_site_type_symbol
_atom_site_label
_atom_site_fract_x
_atom_site_fract_y
_atom_site_fract_z
Si Si1 0.072199 0.160404 0.860582
Si Si2 0.722945 0.159367 0.886105
Si Si3 0.887067 0.341397 0.906335
Si Si4 0.856092 0.659992 0.591856
Si Si5 0.966121 0.340276 0.379703
Si Si6 0.684933 0.661050 0.644084
O O1 0.036388 0.243452 0.764588
O O2 0.128739 0.158924 0.753201
O O3 0.056901 0.000000 0.888503
O O4 0.077510 0.241720 0.015067
O O5 0.720204 0.247237 0.734226
O O6 0.743145 0.000000 0.860384
O O7 0.750000 0.250000 0.000000
O O8 0.664891 0.147197 0.972016
O O9 0.907637 0.500000 0.877763
O O10 0.870579 0.289109 0.750667
O O11 0.835720 0.500000 0.615616
O O12 0.909047 0.651565 0.473671
O O13 0.821902 0.761965 0.511346
O O14 0.982396 0.500000 0.335675
O O15 0.000000 0.287290 0.500000
O O16 0.701594 0.500000 0.621521
#
# Coordination Sequence:
#
# PCOD9180488 Si02
#       6
#     8   8   8   8   8   8
#     4   9  17  29  47  69  93 123 157 191 228 273
#     4  10  19  32  50  71  94 121 154 191 231 274
#     4   9  18  32  50  70  93 122 155 191 230 274
#     4   9  17  31  50  71  94 121 155 193 231 271
#     4   9  17  30  49  71  94 122 156 192 230 273
#     4   9  17  30  48  70  94 122 156 190 227 274
#
# _framework density 21.498244
#
# number of rings (size 3 to 8) (size 9 to 14) (size 15 to 20)
#    0.000    2.833    0.000    1.500    0.000    5.667 
#    0.000    1.667    0.000    5.000    0.000    0.000 
#    0.000    0.000    0.000    0.000    0.000    0.000 
#
# Total GULP energy -134023.216852 kJ/mol
# GULP energy per Si atom -5584.300702 kJ/mol
# Density = 2.144931 g / cm^3
# Si number density = 21.498244 Si / 1000 Ang^3
#
#
#
# Elastic Constant Matrix: (Units=GPa)
#
#
# Indices 1 2 3 4 5 6 
#
# 1 58.8261 44.4953 38.6964 0.0000 14.8591 0.0000
# 2 44.4953 177.9094 115.9758 0.0000 65.8948 0.0000
# 3 38.6964 115.9758 173.2545 0.0000 65.1143 0.0000
# 4 0.0000 0.0000 0.0000 22.6631 0.0000 9.4311
# 5 14.8591 65.8948 65.1143 0.0000 61.5206 0.0000
# 6 0.0000 0.0000 0.0000 9.4311 0.0000 9.4145
#
#
#
# Elastic Compliance Matrix: (Units=1/GPa)
#
#
# Indices 1 2 3 4 5 6 
#
# 1 0.021607 -0.004578 -0.002728 0.000000 0.002573 0.000000
# 2 -0.004578 0.012485 -0.004524 0.000000 -0.007478 0.000000
# 3 -0.002728 -0.004524 0.012190 0.000000 -0.007397 0.000000
# 4 0.000000 0.000000 0.000000 0.075670 0.000000 -0.075803
# 5 0.002573 -0.007478 -0.007397 0.000000 0.031472 0.000000
# 6 0.000000 0.000000 0.000000 -0.075803 0.000000 0.182155
#
#
# Mechanical properties :
#
#
# Convention : Reuss Voigt Hill
#
# Bulk Modulus (GPa) = 44.20792 89.81389 67.01090
# Shear Modulus (GPa) = 13.63213 32.77446 23.20329
#
# Velocity S-wave (km/s) = 2.52087 3.90874 3.28885
# Velocity P-wave (km/s) = 5.39270 7.88917 6.75723
#
# Compressibility (1/GPa) = 0.02262038
#
# Stress axis : x y z
#
# Youngs Moduli (GPa) = 46.28123 80.09575 82.03689
#
# Poissons Ratio (x) = 0.36671 0.22380
# Poissons Ratio (y) = 0.21190 0.37115
# Poissons Ratio (z) = 0.12626 0.36237
#
# Static dielectric constant tensor:
#      x y z
#    x 1.812370 0.000000 -0.036640 
#    y 0.000000 1.755050 0.000000 
#    z -0.036640 0.000000 1.763850 
# 
# From -- ./inp_files/108563.got.cif
#   From: 2010.05.17/outbox.cif.g08.bks.cpg/sg12_55_cif.got.tgz:108563.got - 2010.06.03 13:09:07.
