data_PCOD9180559
_publ_section_title
;
Structure prediction by ZEFSAII (Michael W. Deem and Ramdas Pophale) SiO2 
 PCOD9180559
Probable space group: C 2/M
;
_chemical_formula_sum "Si O2"
_cell_formula_units_Z 56
_cell_length_a 15.977077
_cell_length_b 8.169013
_cell_length_c 17.531382
_cell_angle_alpha 90.000000
_cell_angle_beta 74.000451
_cell_angle_gamma 90.000000
_cell_volume 2199.508707
_symmetry_space_group_name_H-M "C 2/M"
_symmetry_group_IT_number 12
_symmetry_cell_setting 'monoclinic'
loop_
_space_group_symop_operation_xyz
x,y,z
-x,y,-z
-x,-y,-z
x,-y,z
1/2+x,1/2+y,z
1/2-x,1/2+y,-z
1/2-x,1/2-y,-z
1/2+x,1/2-y,z
loop_
_atom_site_type_symbol
_atom_site_label
_atom_site_fract_x
_atom_site_fract_y
_atom_site_fract_z
Si Si1 0.654146 0.696480 0.552077
Si Si2 0.909394 0.194065 0.588139
Si Si3 0.499909 0.194558 0.882916
Si Si4 0.644276 0.197988 0.971249
Si Si5 0.281607 0.185787 0.827367
Si Si6 0.208532 0.689618 0.696493
Si Si7 0.464046 0.688582 0.732993
O O1 0.650370 0.500000 0.553421
O O2 0.750000 0.750000 0.500000
O O3 0.590747 0.755190 0.499242
O O4 0.648503 0.756082 0.640600
O O5 0.807494 0.203348 0.638375
O O6 0.960157 0.263893 0.648888
O O7 0.930499 0.000000 0.580401
O O8 0.575056 0.243774 0.922007
O O9 0.514193 0.237178 0.791848
O O10 0.495914 0.000000 0.889804
O O11 0.407478 0.253996 0.940447
O O12 0.732567 0.276708 0.918463
O O13 0.655044 0.000000 0.969567
O O14 0.215085 0.209817 0.773020
O O15 0.363214 0.299379 0.786632
O O16 0.314466 0.000000 0.820033
O O17 0.191709 0.500000 0.719427
O O18 0.489363 0.500000 0.719701
#
# Coordination Sequence:
#
# PCOD9180559 Si02
#       7
#     8   8   8   8   8   8   8
#     4   9  14  22  37  58  87 124 163 198 235 283
#     4   7  13  24  38  59  89 124 157 190 232 280
#     4   9  19  36  56  75  95 125 164 202 243 294
#     4   9  19  37  56  72  96 128 161 201 248 294
#     4  11  21  32  49  74 101 129 165 204 243 293
#     4   9  16  27  41  61  92 126 159 197 244 290
#     4  10  19  32  50  73 103 134 162 199 247 291
#
# _framework density 25.460232000000001
#
# number of rings (size 3 to 8) (size 9 to 14) (size 15 to 20)
#    0.000    2.857    0.000    5.143    0.000    1.714 
#    0.000    3.571    0.000    0.000    0.000    1.000 
#    0.000    8.000    0.000    0.000    0.000    0.000 
#
# Total GULP energy -156515.627604 kJ/mol
# GULP energy per Si atom -5589.843843 kJ/mol
# Density = 2.540228 g / cm^3
# Si number density = 25.460232 Si / 1000 Ang^3
#
#
#
# Elastic Constant Matrix: (Units=GPa)
#
#
# Indices 1 2 3 4 5 6 
#
# 1 88.6479 -3.7909 28.9077 0.0000 9.5113 0.0000
# 2 -3.7909 35.5653 0.7613 0.0000 -4.1251 0.0000
# 3 28.9077 0.7613 184.3320 0.0000 -3.6717 0.0000
# 4 0.0000 0.0000 0.0000 32.3679 0.0000 11.8723
# 5 9.5113 -4.1251 -3.6717 0.0000 60.8260 0.0000
# 6 0.0000 0.0000 0.0000 11.8723 0.0000 7.1883
#
#
#
# Elastic Compliance Matrix: (Units=1/GPa)
#
#
# Indices 1 2 3 4 5 6 
#
# 1 0.012174 0.001114 -0.001952 0.000000 -0.001946 0.000000
# 2 0.001114 0.028443 -0.000257 0.000000 0.001739 0.000000
# 3 -0.001952 -0.000257 0.005745 0.000000 0.000635 0.000000
# 4 0.000000 0.000000 0.000000 0.078373 0.000000 -0.129441
# 5 -0.001946 0.001739 0.000635 0.000000 0.016901 0.000000
# 6 0.000000 0.000000 0.000000 -0.129441 0.000000 0.352900
#
#
# Mechanical properties :
#
#
# Convention : Reuss Voigt Hill
#
# Bulk Modulus (GPa) = 22.64020 40.03349 31.33685
# Shear Modulus (GPa) = 9.77609 38.92094 24.34852
#
# Velocity S-wave (km/s) = 1.96165 3.91410 3.09582
# Velocity P-wave (km/s) = 3.74733 6.01539 5.01136
#
# Compressibility (1/GPa) = 0.04416922
#
# Stress axis : x y z
#
# Youngs Moduli (GPa) = 82.14436 35.15778 174.06761
#
# Poissons Ratio (x) = -0.03915 0.33986
# Poissons Ratio (y) = -0.09148 0.04482
# Poissons Ratio (z) = 0.16039 0.00905
#
# Static dielectric constant tensor:
#      x y z
#    x 2.169990 0.000000 0.004510 
#    y 0.000000 1.870270 0.000000 
#    z 0.004510 0.000000 2.047010 
# 
# From -- ./inp_files/280301.got.cif
#   From: 2010.05.17/outbox.cif.g08.bks.cpg/sg12_141_cif.got.tgz:280301.got - 2010.06.03 13:09:07.
