data_PCOD9180208
_publ_section_title
;
Structure prediction by ZEFSAII (Michael W. Deem and Ramdas Pophale) SiO2 
 PCOD9180208
Probable space group: C 2/M
;
_chemical_formula_sum "Si O2"
_cell_formula_units_Z 48
_cell_length_a 19.809006
_cell_length_b 9.437533
_cell_length_c 15.014613
_cell_angle_alpha 90.000000
_cell_angle_beta 113.518550
_cell_angle_gamma 90.000000
_cell_volume 2573.783019
_symmetry_space_group_name_H-M "C 2/M"
_symmetry_group_IT_number 12
_symmetry_cell_setting 'monoclinic'
loop_
_space_group_symop_operation_xyz
x,y,z
-x,y,-z
-x,-y,-z
x,-y,z
1/2+x,1/2+y,z
1/2-x,1/2+y,-z
1/2-x,1/2-y,-z
1/2+x,1/2-y,z
loop_
_atom_site_type_symbol
_atom_site_label
_atom_site_fract_x
_atom_site_fract_y
_atom_site_fract_z
Si Si1 0.819806 0.834125 0.416720
Si Si2 0.161939 0.331811 0.246322
Si Si3 0.811158 0.167733 0.910960
Si Si4 0.161808 0.833139 0.873521
Si Si5 0.051006 0.164851 0.660230
Si Si6 0.904776 0.668149 0.602402
O O1 0.743726 0.799434 0.327360
O O2 0.886492 0.817308 0.381632
O O3 0.839588 0.738174 0.511004
O O4 0.816101 0.000000 0.440713
O O5 0.159754 0.500000 0.225575
O O6 0.149687 0.242746 0.151056
O O7 0.107712 0.301471 0.299702
O O8 0.730541 0.238753 0.878635
O O9 0.804481 0.000000 0.892713
O O10 0.849192 0.190272 0.027141
O O11 0.091477 0.805705 0.775253
O O12 0.181325 0.000000 0.870878
O O13 0.981100 0.263641 0.611452
O O14 0.027254 0.000000 0.645391
O O15 0.903998 0.500000 0.589694
#
# Coordination Sequence:
#
# PCOD9180208 Si02
#       6
#     8   8   8   8   8   8
#     4  10  20  37  60  79 101 145 192 222 264 326
#     4  10  21  39  57  77 111 150 181 218 274 329
#     4  10  19  31  56  88 110 135 179 230 270 311
#     4   9  18  35  56  81 112 144 177 218 271 325
#     4  10  20  37  59  79 107 148 184 216 265 330
#     4  11  24  37  53  80 114 145 178 229 279 316
#
# _framework density 18.64959
#
# number of rings (size 3 to 8) (size 9 to 14) (size 15 to 20)
#    0.000    2.000    1.667    2.000    0.000    6.000 
#    0.000    0.833    0.000    5.000    0.000    0.000 
#    0.000    0.000    0.000    0.000    0.000    0.000 
#
# Total GULP energy -134039.777320 kJ/mol
# GULP energy per Si atom -5584.990722 kJ/mol
# Density = 1.860714 g / cm^3
# Si number density = 18.649590 Si / 1000 Ang^3
#
#
#
# Elastic Constant Matrix: (Units=GPa)
#
#
# Indices 1 2 3 4 5 6 
#
# 1 31.7776 10.9192 -7.3417 0.0000 -4.1399 0.0000
# 2 10.9192 40.3638 32.8511 0.0000 -7.6962 0.0000
# 3 -7.3417 32.8511 70.5853 0.0000 -8.3759 0.0000
# 4 0.0000 0.0000 0.0000 32.5652 0.0000 -7.2524
# 5 -4.1399 -7.6962 -8.3759 0.0000 18.4855 0.0000
# 6 0.0000 0.0000 0.0000 -7.2524 0.0000 19.6478
#
#
#
# Elastic Compliance Matrix: (Units=1/GPa)
#
#
# Indices 1 2 3 4 5 6 
#
# 1 0.044761 -0.024454 0.016928 0.000000 0.007514 0.000000
# 2 -0.024454 0.054597 -0.027378 0.000000 0.004849 0.000000
# 3 0.016928 -0.027378 0.029345 0.000000 0.005689 0.000000
# 4 0.000000 0.000000 0.000000 0.033458 0.000000 0.012350
# 5 0.007514 0.004849 0.005689 0.000000 0.060376 0.000000
# 6 0.000000 0.000000 0.000000 0.012350 0.000000 0.055455
#
#
# Mechanical properties :
#
#
# Convention : Reuss Voigt Hill
#
# Bulk Modulus (GPa) = 16.97897 23.95376 20.46637
# Shear Modulus (GPa) = 13.60803 21.22626 17.41715
#
# Velocity S-wave (km/s) = 2.70417 3.37733 3.05932
# Velocity P-wave (km/s) = 4.34442 5.29910 4.84533
#
# Compressibility (1/GPa) = 0.05889639
#
# Stress axis : x y z
#
# Youngs Moduli (GPa) = 22.34080 18.31616 34.07730
#
# Poissons Ratio (x) = 0.44790 -0.57687
# Poissons Ratio (y) = 0.54631 0.93296
# Poissons Ratio (z) = -0.37819 0.50146
#
# Static dielectric constant tensor:
#      x y z
#    x 1.629730 0.000000 -0.020830 
#    y 0.000000 1.618300 0.000000 
#    z -0.020830 0.000000 1.656770 
# 
# From -- ./inp_files/229849.got.cif
#   From: 2010.05.17/outbox.cif.g08.bks.cpg/sg12_115_cif.got.tgz:229849.got - 2010.06.03 13:09:07.
