data_PCOD9180780
_publ_section_title
;
Structure prediction by ZEFSAII (Michael W. Deem and Ramdas Pophale) SiO2 
 PCOD9180780
Probable space group: C 2/M
;
_chemical_formula_sum "Si O2"
_cell_formula_units_Z 42
_cell_length_a 28.613548
_cell_length_b 7.951571
_cell_length_c 9.501659
_cell_angle_alpha 90.000000
_cell_angle_beta 48.271140
_cell_angle_gamma 90.000000
_cell_volume 1613.389725
_symmetry_space_group_name_H-M "C 2/M"
_symmetry_group_IT_number 12
_symmetry_cell_setting 'monoclinic'
loop_
_space_group_symop_operation_xyz
x,y,z
-x,y,-z
-x,-y,-z
x,-y,z
1/2+x,1/2+y,z
1/2-x,1/2+y,-z
1/2-x,1/2-y,-z
1/2+x,1/2-y,z
loop_
_atom_site_type_symbol
_atom_site_label
_atom_site_fract_x
_atom_site_fract_y
_atom_site_fract_z
Si Si1 0.500000 0.000000 0.000000
Si Si2 0.369969 0.800445 0.219497
Si Si3 0.513125 0.693516 0.177631
Si Si4 0.412694 0.308101 0.700788
Si Si5 0.295110 0.810395 0.099642
Si Si6 0.159110 0.304422 0.411018
O O1 0.482585 0.152702 0.154035
O O2 0.420862 0.689204 0.039580
O O3 0.310427 0.801113 0.235429
O O4 0.353556 0.739594 0.406920
O O5 0.395892 0.000000 0.164016
O O6 0.488289 0.500000 0.224624
O O7 0.535192 0.747325 0.290713
O O8 0.426555 0.500000 0.641500
O O9 0.397468 0.221590 0.583545
O O10 0.346496 0.298455 0.916931
O O11 0.222870 0.772428 0.222276
O O12 0.309273 0.000000 0.023725
O O13 0.171705 0.500000 0.404420
#
# Coordination Sequence:
#
# PCOD9180780 Si02
#       6
#     2   8   8   8   8   8
#     4  12  22  40  72  88 120 132 194 234 304 346
#     4   9  19  36  54  79 114 153 191 236 286 336
#     4  10  22  39  64  91 112 144 182 235 291 350
#     4  10  21  36  53  78 113 148 192 234 282 335
#     4  10  19  32  51  74 110 154 200 240 276 318
#     4  11  21  31  51  79 114 156 196 230 278 333
#
# _framework density 26.032146999999998
#
# number of rings (size 3 to 8) (size 9 to 14) (size 15 to 20)
#    0.000    1.905    0.952    3.143    2.667    2.286 
#    0.000    0.000    0.000    2.286    0.000    4.000 
#    0.000    0.000    0.000    0.000    0.000    0.000 
#
# Total GULP energy -117346.177427 kJ/mol
# GULP energy per Si atom -5587.913211 kJ/mol
# Density = 2.597290 g / cm^3
# Si number density = 26.032147 Si / 1000 Ang^3
#
#
#
# Elastic Constant Matrix: (Units=GPa)
#
#
# Indices 1 2 3 4 5 6 
#
# 1 136.9590 43.3780 48.5525 0.0000 16.4355 0.0000
# 2 43.3780 92.3848 17.8601 0.0000 9.7646 0.0000
# 3 48.5525 17.8601 133.5134 0.0000 29.2750 0.0000
# 4 0.0000 0.0000 0.0000 24.1213 0.0000 3.2014
# 5 16.4355 9.7646 29.2750 0.0000 57.5663 0.0000
# 6 0.0000 0.0000 0.0000 3.2014 0.0000 35.3984
#
#
#
# Elastic Compliance Matrix: (Units=1/GPa)
#
#
# Indices 1 2 3 4 5 6 
#
# 1 0.009619 -0.003900 -0.002835 0.000000 -0.000643 0.000000
# 2 -0.003900 0.012776 -0.000067 0.000000 -0.001019 0.000000
# 3 -0.002835 -0.000067 0.009398 0.000000 -0.003958 0.000000
# 4 0.000000 0.000000 0.000000 0.041961 0.000000 -0.003795
# 5 -0.000643 -0.001019 -0.003958 0.000000 0.019741 0.000000
# 6 0.000000 0.000000 0.000000 -0.003795 0.000000 0.028593
#
#
# Mechanical properties :
#
#
# Convention : Reuss Voigt Hill
#
# Bulk Modulus (GPa) = 54.98262 64.71536 59.84899
# Shear Modulus (GPa) = 35.27181 40.28831 37.78006
#
# Velocity S-wave (km/s) = 3.68493 3.93827 3.81371
# Velocity P-wave (km/s) = 6.26673 6.75231 6.51405
#
# Compressibility (1/GPa) = 0.01818757
#
# Stress axis : x y z
#
# Youngs Moduli (GPa) = 103.96017 78.26918 106.40719
#
# Poissons Ratio (x) = 0.30528 0.30170
# Poissons Ratio (y) = 0.40549 0.00715
# Poissons Ratio (z) = 0.29476 0.00526
#
# Static dielectric constant tensor:
#      x y z
#    x 1.864100 0.000000 0.088550 
#    y 0.000000 1.980980 0.000000 
#    z 0.088550 0.000000 2.102790 
# 
# From -- ./inp_files/107834.got.cif
#   From: 2010.05.17/outbox.cif.g08.bks.cpg/sg12_54_cif.got.tgz:107834.got - 2010.06.03 13:09:07.
