data_PCOD9180893
_publ_section_title
;
Structure prediction by ZEFSAII (Michael W. Deem and Ramdas Pophale) SiO2 
 PCOD9180893
Probable space group: C 2/M
;
_chemical_formula_sum "Si O2"
_cell_formula_units_Z 48
_cell_length_a 18.590670
_cell_length_b 13.700140
_cell_length_c 17.800651
_cell_angle_alpha 90.000000
_cell_angle_beta 38.534327
_cell_angle_gamma 90.000000
_cell_volume 2824.440351
_symmetry_space_group_name_H-M "C 2/M"
_symmetry_group_IT_number 12
_symmetry_cell_setting 'monoclinic'
loop_
_space_group_symop_operation_xyz
x,y,z
-x,y,-z
-x,-y,-z
x,-y,z
1/2+x,1/2+y,z
1/2-x,1/2+y,-z
1/2-x,1/2-y,-z
1/2+x,1/2-y,z
loop_
_atom_site_type_symbol
_atom_site_label
_atom_site_fract_x
_atom_site_fract_y
_atom_site_fract_z
Si Si1 0.883345 0.109716 0.146127
Si Si2 0.914270 0.117583 0.504858
Si Si3 0.588702 0.616746 0.233165
Si Si4 0.152256 0.384224 0.747075
Si Si5 0.979809 0.764572 0.853526
Si Si6 0.310521 0.791394 0.127902
O O1 0.796200 0.184216 0.176990
O O2 0.930575 0.157592 0.183672
O O3 0.840598 0.000000 0.189613
O O4 0.000000 0.107339 0.000000
O O5 0.782565 0.149916 0.621543
O O6 0.000000 0.155218 0.500000
O O7 0.974262 0.135646 0.376170
O O8 0.910112 0.000000 0.517513
O O9 0.597478 0.500000 0.211543
O O10 0.582670 0.681622 0.163425
O O11 0.696994 0.652407 0.194218
O O12 0.144090 0.500000 0.746609
O O13 0.132744 0.352650 0.850146
O O14 0.059127 0.329017 0.772116
O O15 0.890875 0.728341 0.990192
#
# Coordination Sequence:
#
# PCOD9180893 Si02
#       6
#     8   8   8   8   8   8
#     4   8  15  30  49  67  95 134 170 203 238 290
#     4   9  17  32  54  77  96 127 177 214 249 300
#     4  11  21  34  53  75 105 137 169 215 258 296
#     4  10  19  34  55  77 103 134 170 217 255 291
#     4  10  21  32  47  78 109 133 167 203 255 322
#     4  10  19  32  51  77 103 133 175 209 246 309
#
# _framework density 16.994516999999998
#
# number of rings (size 3 to 8) (size 9 to 14) (size 15 to 20)
#    0.000    2.333    1.667    3.000    0.000    3.333 
#    0.000    0.833    0.000    0.000    0.000   10.500 
#    0.000    0.000    0.000    0.000    0.000    0.000 
#
# Total GULP energy -133646.546541 kJ/mol
# GULP energy per Si atom -5568.606106 kJ/mol
# Density = 1.695584 g / cm^3
# Si number density = 16.994517 Si / 1000 Ang^3
#
#
#
# Elastic Constant Matrix: (Units=GPa)
#
#
# Indices 1 2 3 4 5 6 
#
# 1 52.7984 22.4405 2.3286 0.0000 0.8848 0.0000
# 2 22.4405 94.0432 13.7900 0.0000 -6.5175 0.0000
# 3 2.3286 13.7900 51.0976 0.0000 -6.6879 0.0000
# 4 0.0000 0.0000 0.0000 14.8508 0.0000 -1.2913
# 5 0.8848 -6.5175 -6.6879 0.0000 12.5458 0.0000
# 6 0.0000 0.0000 0.0000 -1.2913 0.0000 28.3111
#
#
#
# Elastic Compliance Matrix: (Units=1/GPa)
#
#
# Indices 1 2 3 4 5 6 
#
# 1 0.021299 -0.005370 -0.000089 0.000000 -0.004340 0.000000
# 2 -0.005370 0.012664 -0.002432 0.000000 0.005661 0.000000
# 3 -0.000089 -0.002432 0.021571 0.000000 0.010242 0.000000
# 4 0.000000 0.000000 0.000000 0.067605 0.000000 0.003084
# 5 -0.004340 0.005661 0.010242 0.000000 0.088415 0.000000
# 6 0.000000 0.000000 0.000000 0.003084 0.000000 0.035462
#
#
# Mechanical properties :
#
#
# Convention : Reuss Voigt Hill
#
# Bulk Modulus (GPa) = 25.15637 30.56195 27.85916
# Shear Modulus (GPa) = 18.11271 21.76687 19.93979
#
# Velocity S-wave (km/s) = 3.26820 3.58273 3.42907
# Velocity P-wave (km/s) = 5.39224 5.92766 5.66628
#
# Compressibility (1/GPa) = 0.03975136
#
# Stress axis : x y z
#
# Youngs Moduli (GPa) = 46.95055 78.96565 46.35787
#
# Poissons Ratio (x) = 0.42405 0.00414
# Poissons Ratio (y) = 0.25212 0.11274
# Poissons Ratio (z) = 0.00420 0.19204
#
# Static dielectric constant tensor:
#      x y z
#    x 1.572930 0.000000 0.001800 
#    y 0.000000 1.585660 0.000000 
#    z 0.001800 0.000000 1.596290 
# 
# From -- ./inp_files/166340.got.cif
#   From: 2010.05.17/outbox.cif.g08.bks.cpg/sg12_84_cif.got.tgz:166340.got - 2010.06.03 13:09:07.
