data_PCOD9180971
_publ_section_title
;
Structure prediction by ZEFSAII (Michael W. Deem and Ramdas Pophale) SiO2 
 PCOD9180971
Probable space group: C 2/M
;
_chemical_formula_sum "Si O2"
_cell_formula_units_Z 56
_cell_length_a 31.314295
_cell_length_b 7.364133
_cell_length_c 13.030418
_cell_angle_alpha 90.000000
_cell_angle_beta 47.694080
_cell_angle_gamma 90.000000
_cell_volume 2222.270573
_symmetry_space_group_name_H-M "C 2/M"
_symmetry_group_IT_number 12
_symmetry_cell_setting 'monoclinic'
loop_
_space_group_symop_operation_xyz
x,y,z
-x,y,-z
-x,-y,-z
x,-y,z
1/2+x,1/2+y,z
1/2-x,1/2+y,-z
1/2-x,1/2-y,-z
1/2+x,1/2-y,z
loop_
_atom_site_type_symbol
_atom_site_label
_atom_site_fract_x
_atom_site_fract_y
_atom_site_fract_z
Si Si1 0.235221 0.797645 0.804217
Si Si2 0.946696 0.721524 0.398844
Si Si3 0.606155 0.211304 0.957957
Si Si4 0.199430 0.784868 0.502385
Si Si5 0.570912 0.778343 0.237230
Si Si6 0.846476 0.722583 0.714268
Si Si7 0.075700 0.294291 0.786303
O O1 0.175925 0.715646 0.857221
O O2 0.278438 0.801301 0.637783
O O3 0.279903 0.713705 0.814028
O O4 0.219471 0.000000 0.863086
O O5 0.944187 0.500000 0.398482
O O6 0.889090 0.779552 0.551727
O O7 0.952325 0.786210 0.271538
O O8 0.004626 0.770496 0.366032
O O9 0.580222 0.288280 0.893385
O O10 0.590005 0.000000 0.981128
O O11 0.584250 0.286103 0.100891
O O12 0.250000 0.750000 0.500000
O O13 0.142045 0.701590 0.641905
O O14 0.191018 0.000000 0.502389
O O15 0.619161 0.720432 0.239703
O O16 0.573289 0.000000 0.233595
O O17 0.844234 0.500000 0.716633
O O18 0.053268 0.500000 0.832111
#
# Coordination Sequence:
#
# PCOD9180971 Si02
#       7
#     8   8   8   8   8   8   8
#     4  11  21  34  54  80 109 143 180 222 271 324
#     4   9  16  29  52  79 106 139 181 229 276 318
#     4  10  21  34  50  77 113 147 179 220 269 328
#     4  12  22  33  53  81 111 143 176 220 272 321
#     4   9  18  32  50  76 109 144 184 229 273 314
#     4   9  17  30  51  79 107 137 181 234 276 313
#     4  10  19  32  51  79 112 142 175 217 269 325
#
# _framework density 25.199452000000001
#
# number of rings (size 3 to 8) (size 9 to 14) (size 15 to 20)
#    0.000    2.000    2.857    2.143    0.000    2.857 
#    0.000    2.857    0.000    1.714    0.000    3.000 
#    0.000    0.000    0.000    0.000    0.000    0.000 
#
# Total GULP energy -156368.645535 kJ/mol
# GULP energy per Si atom -5584.594483 kJ/mol
# Density = 2.514210 g / cm^3
# Si number density = 25.199452 Si / 1000 Ang^3
#
#
#
# Elastic Constant Matrix: (Units=GPa)
#
#
# Indices 1 2 3 4 5 6 
#
# 1 153.1730 3.0958 25.5029 0.0000 28.8578 0.0000
# 2 3.0958 110.5677 -1.5601 0.0000 0.7963 0.0000
# 3 25.5029 -1.5601 73.0103 0.0000 17.4014 0.0000
# 4 0.0000 0.0000 0.0000 -6.8095 0.0000 -3.4636
# 5 28.8578 0.7963 17.4014 0.0000 37.0392 0.0000
# 6 0.0000 0.0000 0.0000 -3.4636 0.0000 -5.8303
#
#
#
# Elastic Compliance Matrix: (Units=1/GPa)
#
#
# Indices 1 2 3 4 5 6 
#
# 1 0.007787 -0.000200 -0.001441 0.000000 -0.005386 0.000000
# 2 -0.000200 0.009055 0.000307 0.000000 -0.000183 0.000000
# 3 -0.001441 0.000307 0.015698 0.000000 -0.006259 0.000000
# 4 0.000000 0.000000 0.000000 -0.210441 0.000000 0.125014
# 5 -0.005386 -0.000183 -0.006259 0.000000 0.034139 0.000000
# 6 0.000000 0.000000 0.000000 0.125014 0.000000 -0.245783
#
#
# Mechanical properties :
#
#
# Convention : Reuss Voigt Hill
#
# Bulk Modulus (GPa) = 33.47350 43.42537 38.44943
# Shear Modulus (GPa) = -13.26549 25.52736 6.13094
#
# Velocity S-wave (km/s) = -2.29687 3.18624 1.56149
# Velocity P-wave (km/s) = 2.50561 5.55034 4.30606
#
# Compressibility (1/GPa) = 0.02987438
#
# Stress axis : x y z
#
# Youngs Moduli (GPa) = 128.41606 110.43049 63.70088
#
# Poissons Ratio (x) = 0.02204 0.09177
# Poissons Ratio (y) = 0.02563 -0.01955
# Poissons Ratio (z) = 0.18500 -0.03389
#
# Static dielectric constant tensor:
#      x y z
#    x 2.089170 0.000000 0.060750 
#    y 0.000000 2.024760 0.000000 
#    z 0.060750 0.000000 1.978110 
# 
# From -- ./inp_files/187132.got.cif
#   From: 2010.05.17/outbox.cif.g08.bks.cpg/sg12_94_cif.got.tgz:187132.got - 2010.06.03 13:09:07.
