data_PCOD9180728
_publ_section_title
;
Structure prediction by ZEFSAII (Michael W. Deem and Ramdas Pophale) SiO2 
 PCOD9180728
Probable space group: C 2/M
;
_chemical_formula_sum "Si O2"
_cell_formula_units_Z 64
_cell_length_a 14.465290
_cell_length_b 9.454771
_cell_length_c 28.688366
_cell_angle_alpha 90.000000
_cell_angle_beta 132.418967
_cell_angle_gamma 90.000000
_cell_volume 2896.522368
_symmetry_space_group_name_H-M "C 2/M"
_symmetry_group_IT_number 12
_symmetry_cell_setting 'monoclinic'
loop_
_space_group_symop_operation_xyz
x,y,z
-x,y,-z
-x,-y,-z
x,-y,z
1/2+x,1/2+y,z
1/2-x,1/2+y,-z
1/2-x,1/2-y,-z
1/2+x,1/2-y,z
loop_
_atom_site_type_symbol
_atom_site_label
_atom_site_fract_x
_atom_site_fract_y
_atom_site_fract_z
Si Si1 0.139764 0.339922 0.802593
Si Si2 0.127416 0.840052 0.187916
Si Si3 0.655863 0.840482 0.436840
Si Si4 0.438626 0.159263 0.061058
Si Si5 0.925529 0.660099 0.429351
Si Si6 0.726918 0.661899 0.691259
Si Si7 0.288167 0.340112 0.943414
Si Si8 0.010206 0.838511 0.316856
O O1 0.093366 0.500000 0.796924
O O2 0.245606 0.352004 0.798920
O O3 0.212294 0.285669 0.872819
O O4 0.037381 0.237718 0.745890
O O5 0.165823 0.750544 0.246176
O O6 0.032753 0.754461 0.123002
O O7 0.083570 0.000000 0.183261
O O8 0.750000 0.750000 0.500000
O O9 0.530370 0.852378 0.424991
O O10 0.616130 0.754008 0.377863
O O11 0.701454 0.000000 0.442844
O O12 0.314916 0.147592 0.051005
O O13 0.486719 0.000000 0.069354
O O14 0.394803 0.239265 0.999656
O O15 0.879954 0.500000 0.424633
O O16 0.821466 0.759703 0.371450
O O17 0.000000 0.714765 0.500000
O O18 0.763397 0.500000 0.695011
O O19 0.608267 0.658498 0.687156
O O20 0.333643 0.500000 0.947932
O O21 0.048551 0.000000 0.322116
#
# Coordination Sequence:
#
# PCOD9180728 Si02
#       8
#     8   8   8   8   8   8   8   8
#     4   9  18  33  53  75  97 125 163 203 241 284
#     4  10  19  32  52  75  99 127 161 201 243 288
#     4  10  19  32  51  73  99 130 164 201 241 288
#     4  10  20  34  52  73  99 130 163 199 240 288
#     4   9  18  33  52  73  98 129 164 201 242 288
#     4   9  17  30  49  73 100 128 160 199 243 290
#     4   9  19  36  54  71  96 131 166 198 238 289
#     4   9  17  30  49  73 100 128 159 198 245 292
#
# _framework density 22.095461
#
# number of rings (size 3 to 8) (size 9 to 14) (size 15 to 20)
#    0.000    2.625    0.000    1.875    0.000    5.750 
#    0.000    3.750    0.000    0.000    0.000    0.000 
#    0.000    0.000    0.000    0.000    0.000    0.000 
#
# Total GULP energy -178778.204193 kJ/mol
# GULP energy per Si atom -5586.818881 kJ/mol
# Density = 2.204517 g / cm^3
# Si number density = 22.095461 Si / 1000 Ang^3
#
#
#
# Elastic Constant Matrix: (Units=GPa)
#
#
# Indices 1 2 3 4 5 6 
#
# 1 48.5477 0.6540 -0.5031 0.0000 -5.2175 0.0000
# 2 0.6540 211.8802 155.7716 0.0000 2.9540 0.0000
# 3 -0.5031 155.7716 251.7529 0.0000 -15.8413 0.0000
# 4 0.0000 0.0000 0.0000 17.7463 0.0000 3.5105
# 5 -5.2175 2.9540 -15.8413 0.0000 22.9479 0.0000
# 6 0.0000 0.0000 0.0000 3.5105 0.0000 4.5182
#
#
#
# Elastic Compliance Matrix: (Units=1/GPa)
#
#
# Indices 1 2 3 4 5 6 
#
# 1 0.021212 -0.000788 0.000878 0.000000 0.005530 0.000000
# 2 -0.000788 0.009281 -0.006096 0.000000 -0.005582 0.000000
# 3 0.000878 -0.006096 0.008162 0.000000 0.006619 0.000000
# 4 0.000000 0.000000 0.000000 0.066583 0.000000 -0.051732
# 5 0.005530 -0.005582 0.006619 0.000000 0.050122 0.000000
# 6 0.000000 0.000000 0.000000 -0.051732 0.000000 0.261518
#
#
# Mechanical properties :
#
#
# Convention : Reuss Voigt Hill
#
# Bulk Modulus (GPa) = 37.53136 91.55840 64.54488
# Shear Modulus (GPa) = 11.42149 32.79306 22.10727
#
# Velocity S-wave (km/s) = 2.27604 3.85665 3.16655
# Velocity P-wave (km/s) = 4.89184 7.83322 6.53029
#
# Compressibility (1/GPa) = 0.02664438
#
# Stress axis : x y z
#
# Youngs Moduli (GPa) = 47.14227 107.74348 122.51877
#
# Poissons Ratio (x) = 0.08491 -0.10757
# Poissons Ratio (y) = 0.03715 0.74682
# Poissons Ratio (z) = -0.04139 0.65676
#
# Static dielectric constant tensor:
#      x y z
#    x 1.871580 0.000000 0.004920 
#    y 0.000000 1.803930 0.000000 
#    z 0.004920 0.000000 1.767020 
# 
# From -- ./inp_files/346033.got.cif
#   From: 2010.05.17/outbox.cif.g08.bks.cpg/sg12_174_cif.got.tgz:346033.got - 2010.06.03 13:09:07.
