data_PCOD9180910
_publ_section_title
;
Structure prediction by ZEFSAII (Michael W. Deem and Ramdas Pophale) SiO2 
 PCOD9180910
Probable space group: C 2/M
;
_chemical_formula_sum "Si O2"
_cell_formula_units_Z 64
_cell_length_a 25.229407
_cell_length_b 8.639100
_cell_length_c 21.634056
_cell_angle_alpha 90.000000
_cell_angle_beta 128.195590
_cell_angle_gamma 90.000000
_cell_volume 3705.810974
_symmetry_space_group_name_H-M "C 2/M"
_symmetry_group_IT_number 12
_symmetry_cell_setting 'monoclinic'
loop_
_space_group_symop_operation_xyz
x,y,z
-x,y,-z
-x,-y,-z
x,-y,z
1/2+x,1/2+y,z
1/2-x,1/2+y,-z
1/2-x,1/2-y,-z
1/2+x,1/2-y,z
loop_
_atom_site_type_symbol
_atom_site_label
_atom_site_fract_x
_atom_site_fract_y
_atom_site_fract_z
Si Si1 0.624760 0.687821 0.451235
Si Si2 0.274435 0.312467 0.368939
Si Si3 0.008977 0.683749 0.797843
Si Si4 0.363800 0.685612 0.682921
Si Si5 0.357809 0.315354 0.062262
Si Si6 0.831134 0.812948 0.276853
Si Si7 0.525775 0.687140 0.672469
Si Si8 0.232466 0.314743 0.891527
O O1 0.626869 0.500000 0.453384
O O2 0.677289 0.742443 0.540308
O O3 0.641636 0.736621 0.393276
O O4 0.546963 0.732143 0.407725
O O5 0.272857 0.500000 0.369236
O O6 0.199739 0.249924 0.326185
O O7 0.305184 0.264676 0.325307
O O8 0.005009 0.500000 0.794339
O O9 0.068923 0.739400 0.885406
O O10 0.028228 0.744013 0.743038
O O11 0.935662 0.754048 0.758785
O O12 0.364070 0.500000 0.684091
O O13 0.364996 0.500000 0.070485
O O14 0.318788 0.258855 0.095701
O O15 0.307558 0.275557 0.969752
O O16 0.908580 0.766613 0.318767
O O17 0.785898 0.746251 0.189075
O O18 0.828649 0.000000 0.272261
O O19 0.526217 0.500000 0.678632
O O20 0.224906 0.500000 0.888547
#
# Coordination Sequence:
#
# PCOD9180910 Si02
#       8
#     8   8   8   8   8   8   8   8
#     4   8  16  31  52  75 101 130 173 222 262 303
#     4  10  20  34  51  75 102 137 180 219 256 303
#     4  11  20  31  52  80 105 133 167 212 260 308
#     4  10  20  35  54  75 100 135 173 219 267 306
#     4  10  19  32  51  77 107 135 167 208 253 302
#     4  10  20  32  50  73 107 145 174 209 255 305
#     4   9  17  31  49  73 104 140 172 207 256 308
#     4  10  20  32  50  76 106 139 172 206 247 299
#
# _framework density 17.270174999999998
#
# number of rings (size 3 to 8) (size 9 to 14) (size 15 to 20)
#    0.000    2.250    1.250    3.375    0.000    2.500 
#    0.000    5.000    0.000    0.750    0.000   10.500 
#    0.000    0.000    0.000    0.000    0.000    0.000 
#
# Total GULP energy -178532.298556 kJ/mol
# GULP energy per Si atom -5579.134330 kJ/mol
# Density = 1.723087 g / cm^3
# Si number density = 17.270175 Si / 1000 Ang^3
#
#
#
# Elastic Constant Matrix: (Units=GPa)
#
#
# Indices 1 2 3 4 5 6 
#
# 1 114.0783 26.2225 42.9668 0.0000 25.2895 0.0000
# 2 26.2225 27.8929 15.5772 0.0000 9.4146 0.0000
# 3 42.9668 15.5772 55.8611 0.0000 29.3185 0.0000
# 4 0.0000 0.0000 0.0000 21.2935 0.0000 3.0240
# 5 25.2895 9.4146 29.3185 0.0000 22.5978 0.0000
# 6 0.0000 0.0000 0.0000 3.0240 0.0000 21.5769
#
#
#
# Elastic Compliance Matrix: (Units=1/GPa)
#
#
# Indices 1 2 3 4 5 6 
#
# 1 0.013915 -0.008211 -0.006380 0.000000 -0.003874 0.000000
# 2 -0.008211 0.047697 -0.004320 0.000000 -0.005077 0.000000
# 3 -0.006380 -0.004320 0.060557 0.000000 -0.069628 0.000000
# 4 0.000000 0.000000 0.000000 0.047916 0.000000 -0.006715
# 5 -0.003874 -0.005077 -0.069628 0.000000 0.141038 0.000000
# 6 0.000000 0.000000 0.000000 -0.006715 0.000000 0.047287
#
#
# Mechanical properties :
#
#
# Convention : Reuss Voigt Hill
#
# Bulk Modulus (GPa) = 11.85577 40.81835 26.33706
# Shear Modulus (GPa) = 11.78274 20.63138 16.20706
#
# Velocity S-wave (km/s) = 2.61484 3.46008 3.06672
# Velocity P-wave (km/s) = 3.99954 6.29678 5.27474
#
# Compressibility (1/GPa) = 0.08434715
#
# Stress axis : x y z
#
# Youngs Moduli (GPa) = 71.86366 20.96568 16.51325
#
# Poissons Ratio (x) = 0.17215 0.10536
# Poissons Ratio (y) = 0.59008 0.07134
# Poissons Ratio (z) = 0.45849 0.09057
#
# Static dielectric constant tensor:
#      x y z
#    x 1.564080 0.000000 0.018230 
#    y 0.000000 1.585550 0.000000 
#    z 0.018230 0.000000 1.595530 
# 
# From -- ./inp_files/348564.got.cif
#   From: 2010.05.17/outbox.cif.g08.bks.cpg/sg12_175_cif.got.tgz:348564.got - 2010.06.03 13:09:07.
