data_PCOD9180037
_publ_section_title
;
Structure prediction by ZEFSAII (Michael W. Deem and Ramdas Pophale) SiO2 
 PCOD9180037
Probable space group: C 2/M
;
_chemical_formula_sum "Si O2"
_cell_formula_units_Z 48
_cell_length_a 17.278278
_cell_length_b 13.129699
_cell_length_c 14.507275
_cell_angle_alpha 90.000000
_cell_angle_beta 55.118972
_cell_angle_gamma 90.000000
_cell_volume 2699.825146
_symmetry_space_group_name_H-M "C 2/M"
_symmetry_group_IT_number 12
_symmetry_cell_setting 'monoclinic'
loop_
_space_group_symop_operation_xyz
x,y,z
-x,y,-z
-x,-y,-z
x,-y,z
1/2+x,1/2+y,z
1/2-x,1/2+y,-z
1/2-x,1/2-y,-z
1/2+x,1/2-y,z
loop_
_atom_site_type_symbol
_atom_site_label
_atom_site_fract_x
_atom_site_fract_y
_atom_site_fract_z
Si Si1 0.284033 0.618157 0.783543
Si Si2 0.988710 0.614303 0.751797
Si Si3 0.911511 0.624506 0.995003
Si Si4 0.306106 0.166137 0.345571
Si Si5 0.488877 0.296120 0.618347
Si Si6 0.832973 0.116063 0.396855
O O1 0.293123 0.500000 0.802312
O O2 0.190778 0.659114 0.899031
O O3 0.256788 0.629899 0.695275
O O4 0.386340 0.667482 0.721668
O O5 0.959244 0.500000 0.748760
O O6 0.997456 0.683836 0.656121
O O7 0.092463 0.614625 0.726345
O O8 0.925705 0.655760 0.878959
O O9 0.912722 0.500000 0.995864
O O10 0.000000 0.656734 0.000000
O O11 0.254229 0.132380 0.474109
O O12 0.321976 0.288604 0.334820
O O13 0.500000 0.298885 0.500000
O O14 0.572035 0.361800 0.609069
O O15 0.833353 0.000000 0.361414
#
# Coordination Sequence:
#
# PCOD9180037 Si02
#       6
#     8   8   8   8   8   8
#     4  11  20  33  54  79 107 133 172 223 259 303
#     4  10  20  36  54  76 107 136 173 224 260 302
#     4   9  17  31  55  81  99 128 173 220 270 301
#     4  10  19  31  53  80  99 133 179 213 260 309
#     4  11  23  34  49  78 109 143 178 200 258 327
#     4  10  20  34  50  73 109 141 171 214 256 309
#
# _framework density 17.778929000000002
#
# number of rings (size 3 to 8) (size 9 to 14) (size 15 to 20)
#    0.000    1.833    3.333    2.000    0.000    1.667 
#    0.000    0.833    0.000    0.000    0.000   10.500 
#    0.000    0.000    0.000    0.000    0.000    0.000 
#
# Total GULP energy -133735.828000 kJ/mol
# GULP energy per Si atom -5572.326167 kJ/mol
# Density = 1.773846 g / cm^3
# Si number density = 17.778929 Si / 1000 Ang^3
#
#
#
# Elastic Constant Matrix: (Units=GPa)
#
#
# Indices 1 2 3 4 5 6 
#
# 1 31.8783 4.6907 3.4956 0.0000 -16.3763 0.0000
# 2 4.6907 73.6274 10.8895 0.0000 -5.5147 0.0000
# 3 3.4956 10.8895 73.5976 0.0000 -16.1898 0.0000
# 4 0.0000 0.0000 0.0000 18.6402 0.0000 -4.5956
# 5 -16.3763 -5.5147 -16.1898 0.0000 19.5552 0.0000
# 6 0.0000 0.0000 0.0000 -4.5956 0.0000 -3.1386
#
#
#
# Elastic Compliance Matrix: (Units=1/GPa)
#
#
# Indices 1 2 3 4 5 6 
#
# 1 0.060738 -0.000961 0.010254 0.000000 0.059083 0.000000
# 2 -0.000961 0.014019 -0.001633 0.000000 0.001797 0.000000
# 3 0.010254 -0.001633 0.018499 0.000000 0.023442 0.000000
# 4 0.000000 0.000000 0.000000 0.039418 0.000000 -0.057716
# 5 0.059083 0.001797 0.023442 0.000000 0.120530 0.000000
# 6 0.000000 0.000000 0.000000 -0.057716 0.000000 -0.234103
#
#
# Mechanical properties :
#
#
# Convention : Reuss Voigt Hill
#
# Bulk Modulus (GPa) = 9.21012 24.13943 16.67477
# Shear Modulus (GPa) = 125.08543 17.67988 71.38265
#
# Velocity S-wave (km/s) = 8.39695 3.15688 6.34329
# Velocity P-wave (km/s) = 9.96008 5.18602 7.94034
#
# Compressibility (1/GPa) = 0.10857620
#
# Stress axis : x y z
#
# Youngs Moduli (GPa) = 16.46414 71.33046 54.05771
#
# Poissons Ratio (x) = 0.06854 -0.55433
# Poissons Ratio (y) = 0.01582 0.08830
# Poissons Ratio (z) = -0.16883 0.11652
#
# Static dielectric constant tensor:
#      x y z
#    x 1.607340 0.000000 -0.003780 
#    y 0.000000 1.630810 0.000000 
#    z -0.003780 0.000000 1.627410 
# 
# From -- ./inp_files/276314.got.cif
#   From: 2010.05.17/outbox.cif.g08.bks.cpg/sg12_139_cif.got.tgz:276314.got - 2010.06.03 13:09:07.
