data_PCOD9180418
_publ_section_title
;
Structure prediction by ZEFSAII (Michael W. Deem and Ramdas Pophale) SiO2 
 PCOD9180418
Probable space group: C 2/M
;
_chemical_formula_sum "Si O2"
_cell_formula_units_Z 56
_cell_length_a 25.480456
_cell_length_b 7.591591
_cell_length_c 19.288922
_cell_angle_alpha 90.000000
_cell_angle_beta 130.184330
_cell_angle_gamma 90.000000
_cell_volume 2850.530532
_symmetry_space_group_name_H-M "C 2/M"
_symmetry_group_IT_number 12
_symmetry_cell_setting 'monoclinic'
loop_
_space_group_symop_operation_xyz
x,y,z
-x,y,-z
-x,-y,-z
x,-y,z
1/2+x,1/2+y,z
1/2-x,1/2+y,-z
1/2-x,1/2-y,-z
1/2+x,1/2-y,z
loop_
_atom_site_type_symbol
_atom_site_label
_atom_site_fract_x
_atom_site_fract_y
_atom_site_fract_z
Si Si1 0.194832 0.699997 0.785848
Si Si2 0.303610 0.709020 0.605605
Si Si3 0.562181 0.296505 0.099205
Si Si4 0.955185 0.704643 0.757447
Si Si5 0.714937 0.282951 0.253758
Si Si6 0.406198 0.215001 0.181188
Si Si7 0.802878 0.708847 0.983162
O O1 0.171893 0.500000 0.752947
O O2 0.219917 0.780605 0.735186
O O3 0.139273 0.779709 0.792215
O O4 0.267656 0.697734 0.889011
O O5 0.310795 0.500000 0.616354
O O6 0.250000 0.750000 0.500000
O O7 0.380278 0.780145 0.660320
O O8 0.280615 0.771130 0.662327
O O9 0.568309 0.500000 0.082195
O O10 0.545188 0.291403 0.166822
O O11 0.639974 0.221899 0.161657
O O12 0.500000 0.218608 0.000000
O O13 0.969843 0.500000 0.783935
O O14 0.015000 0.768358 0.757128
O O15 0.714861 0.500000 0.251191
O O16 0.399808 0.000000 0.178508
O O17 0.373453 0.266702 0.078773
O O18 0.804958 0.500000 0.970970
O O19 0.750000 0.750000 0.000000
#
# Coordination Sequence:
#
# PCOD9180418 Si02
#       7
#     8   8   8   8   8   8   8
#     4   9  16  29  47  67  94 129 164 201 241 280
#     4  10  20  37  58  79  98 119 155 202 250 302
#     4   9  18  31  45  66  98 133 170 209 246 286
#     4  10  19  32  49  72  99 129 163 199 245 294
#     4   8  16  30  49  72  96 124 160 200 244 292
#     4   8  16  28  43  65  97 129 162 201 237 278
#     4   9  16  27  40  60  90 129 171 206 232 266
#
# _framework density 19.645465000000002
#
# number of rings (size 3 to 8) (size 9 to 14) (size 15 to 20)
#    0.000    3.000    0.000    3.000    2.000    0.286 
#    0.000   10.000    0.000    0.857    0.000    6.000 
#    0.000    0.000    0.000    0.000    0.000    0.000 
#
# Total GULP energy -155888.938692 kJ/mol
# GULP energy per Si atom -5567.462096 kJ/mol
# Density = 1.960075 g / cm^3
# Si number density = 19.645465 Si / 1000 Ang^3
#
#
#
# Elastic Constant Matrix: (Units=GPa)
#
#
# Indices 1 2 3 4 5 6 
#
# 1 147.1349 -5.9382 46.1345 0.0000 4.6127 0.0000
# 2 -5.9382 46.3267 -9.9104 0.0000 -0.3212 0.0000
# 3 46.1345 -9.9104 92.5192 0.0000 9.5076 0.0000
# 4 0.0000 0.0000 0.0000 16.8275 0.0000 0.3533
# 5 4.6127 -0.3212 9.5076 0.0000 14.8942 0.0000
# 6 0.0000 0.0000 0.0000 0.3533 0.0000 11.0100
#
#
#
# Elastic Compliance Matrix: (Units=1/GPa)
#
#
# Indices 1 2 3 4 5 6 
#
# 1 0.008058 0.000176 -0.004006 0.000000 0.000065 0.000000
# 2 0.000176 0.022113 0.002394 0.000000 -0.001106 0.000000
# 3 -0.004006 0.002394 0.013837 0.000000 -0.007541 0.000000
# 4 0.000000 0.000000 0.000000 0.059467 0.000000 -0.001908
# 5 0.000065 -0.001106 -0.007541 0.000000 0.071910 0.000000
# 6 0.000000 0.000000 0.000000 -0.001908 0.000000 0.090888
#
#
# Mechanical properties :
#
#
# Convention : Reuss Voigt Hill
#
# Bulk Modulus (GPa) = 24.30834 38.50581 31.40708
# Shear Modulus (GPa) = 17.67689 25.59265 21.63477
#
# Velocity S-wave (km/s) = 3.00291 3.61324 3.32212
# Velocity P-wave (km/s) = 4.94203 6.08689 5.54409
#
# Compressibility (1/GPa) = 0.04113814
#
# Stress axis : x y z
#
# Youngs Moduli (GPa) = 124.10718 45.22225 72.26786
#
# Poissons Ratio (x) = -0.00798 0.28948
# Poissons Ratio (y) = -0.02189 -0.17304
# Poissons Ratio (z) = 0.49714 -0.10828
#
# Static dielectric constant tensor:
#      x y z
#    x 1.742690 0.000000 0.016730 
#    y 0.000000 1.694310 0.000000 
#    z 0.016730 0.000000 1.802290 
# 
# From -- ./inp_files/291955.got.cif
#   From: 2010.05.17/outbox.cif.g08.bks.cpg/sg12_146_cif.got.tgz:291955.got - 2010.06.03 13:09:07.
