data_PCOD9180067
_publ_section_title
;
Structure prediction by ZEFSAII (Michael W. Deem and Ramdas Pophale) SiO2 
 PCOD9180067
Probable space group: C 2/M
;
_chemical_formula_sum "Si O2"
_cell_formula_units_Z 64
_cell_length_a 22.876744
_cell_length_b 8.742147
_cell_length_c 22.564106
_cell_angle_alpha 90.000000
_cell_angle_beta 131.605018
_cell_angle_gamma 90.000000
_cell_volume 3374.279299
_symmetry_space_group_name_H-M "C 2/M"
_symmetry_group_IT_number 12
_symmetry_cell_setting 'monoclinic'
loop_
_space_group_symop_operation_xyz
x,y,z
-x,y,-z
-x,-y,-z
x,-y,z
1/2+x,1/2+y,z
1/2-x,1/2+y,-z
1/2-x,1/2-y,-z
1/2+x,1/2-y,z
loop_
_atom_site_type_symbol
_atom_site_label
_atom_site_fract_x
_atom_site_fract_y
_atom_site_fract_z
Si Si1 0.458890 0.677320 0.654704
Si Si2 0.087018 0.686777 0.040554
Si Si3 0.744491 0.815825 0.671155
Si Si4 0.687011 0.182548 0.503998
Si Si5 0.127097 0.815525 0.810498
Si Si6 0.747423 0.815662 0.200999
Si Si7 0.078545 0.177270 0.232385
Si Si8 0.416118 0.819237 0.094591
O O1 0.460889 0.500000 0.636598
O O2 0.399577 0.769803 0.574255
O O3 0.547488 0.734703 0.723201
O O4 0.424767 0.680065 0.698488
O O5 0.085206 0.500000 0.040229
O O6 0.157912 0.736396 0.130397
O O7 0.107462 0.732928 0.986957
O O8 0.000000 0.739010 0.000000
O O9 0.704543 0.765058 0.583040
O O10 0.716356 0.747818 0.714125
O O11 0.835833 0.772006 0.728368
O O12 0.740195 0.000000 0.670445
O O13 0.750000 0.250000 0.500000
O O14 0.695659 0.000000 0.508298
O O15 0.201068 0.770404 0.821187
O O16 0.124570 0.756382 0.876001
O O17 0.123391 0.000000 0.811005
O O18 0.747567 0.000000 0.203924
O O19 0.008179 0.279778 0.161711
O O20 0.065374 0.000000 0.205602
O O21 0.404282 0.000000 0.090387
#
# Coordination Sequence:
#
# PCOD9180067 Si02
#       8
#     8   8   8   8   8   8   8   8
#     4   9  17  33  53  75 105 140 175 221 268 311
#     4   9  18  33  53  81 116 140 168 225 279 315
#     4  10  21  36  52  76 111 142 171 221 278 316
#     4  11  21  34  53  81 113 141 172 216 270 325
#     4   9  20  38  56  75 107 145 184 228 269 312
#     4  10  21  38  58  77 101 146 192 220 263 328
#     4   9  17  32  51  74 110 146 172 213 272 323
#     4  10  19  31  53  83 108 139 183 226 266 314
#
# _framework density 18.967013999999999
#
# number of rings (size 3 to 8) (size 9 to 14) (size 15 to 20)
#    0.000    2.375    1.250    2.250    0.000    5.500 
#    0.000    1.875    0.000    7.125    0.000    0.000 
#    0.000    0.000    0.000    0.000    0.000    0.000 
#
# Total GULP energy -178494.181588 kJ/mol
# GULP energy per Si atom -5577.943175 kJ/mol
# Density = 1.892384 g / cm^3
# Si number density = 18.967014 Si / 1000 Ang^3
#
#
#
# Elastic Constant Matrix: (Units=GPa)
#
#
# Indices 1 2 3 4 5 6 
#
# 1 77.3657 13.2733 39.3951 0.0000 -3.5516 0.0000
# 2 13.2733 13.3217 21.6542 0.0000 -4.5367 0.0000
# 3 39.3951 21.6542 122.6639 0.0000 -19.3894 0.0000
# 4 0.0000 0.0000 0.0000 18.2917 0.0000 -3.6855
# 5 -3.5516 -4.5367 -19.3894 0.0000 18.4489 0.0000
# 6 0.0000 0.0000 0.0000 -3.6855 0.0000 21.7513
#
#
#
# Elastic Compliance Matrix: (Units=1/GPa)
#
#
# Indices 1 2 3 4 5 6 
#
# 1 0.016738 -0.011574 -0.003925 0.000000 -0.003749 0.000000
# 2 -0.011574 0.114178 -0.014814 0.000000 0.010280 0.000000
# 3 -0.003925 -0.014814 0.013591 0.000000 0.009885 0.000000
# 4 0.000000 0.000000 0.000000 0.056602 0.000000 0.009591
# 5 -0.003749 0.010280 0.009885 0.000000 0.066399 0.000000
# 6 0.000000 0.000000 0.000000 0.009591 0.000000 0.047599
#
#
# Mechanical properties :
#
#
# Convention : Reuss Voigt Hill
#
# Bulk Modulus (GPa) = 11.92172 40.22182 26.07177
# Shear Modulus (GPa) = 12.38569 20.96696 16.67633
#
# Velocity S-wave (km/s) = 2.55818 3.32843 2.96839
# Velocity P-wave (km/s) = 3.87619 6.00196 5.05215
#
# Compressibility (1/GPa) = 0.08388049
#
# Stress axis : x y z
#
# Youngs Moduli (GPa) = 59.74504 8.75829 73.58009
#
# Poissons Ratio (x) = 0.10136 0.28881
# Poissons Ratio (y) = 0.69146 1.09003
# Poissons Ratio (z) = 0.23450 0.12975
#
# Static dielectric constant tensor:
#      x y z
#    x 1.666390 0.000000 0.002890 
#    y 0.000000 1.647400 0.000000 
#    z 0.002890 0.000000 1.662680 
# 
# From -- ./inp_files/324335.got.cif
#   From: 2010.05.17/outbox.cif.g08.bks.cpg/sg12_163_cif.got.tgz:324335.got - 2010.06.03 13:09:07.
