data_PCOD9180511
_publ_section_title
;
Structure prediction by ZEFSAII (Michael W. Deem and Ramdas Pophale) SiO2 
 PCOD9180511
Probable space group: C 2/M
;
_chemical_formula_sum "Si O2"
_cell_formula_units_Z 56
_cell_length_a 19.539521
_cell_length_b 14.017417
_cell_length_c 21.865295
_cell_angle_alpha 90.000000
_cell_angle_beta 21.221205
_cell_angle_gamma 90.000000
_cell_volume 2167.750724
_symmetry_space_group_name_H-M "C 2/M"
_symmetry_group_IT_number 12
_symmetry_cell_setting 'monoclinic'
loop_
_space_group_symop_operation_xyz
x,y,z
-x,y,-z
-x,-y,-z
x,-y,z
1/2+x,1/2+y,z
1/2-x,1/2+y,-z
1/2-x,1/2-y,-z
1/2+x,1/2-y,z
loop_
_atom_site_type_symbol
_atom_site_label
_atom_site_fract_x
_atom_site_fract_y
_atom_site_fract_z
Si Si1 0.519829 0.604753 0.138855
Si Si2 0.008686 0.664091 0.832962
Si Si3 0.652201 0.360372 0.204110
Si Si4 0.128593 0.368823 0.232223
Si Si5 0.302906 0.641792 0.694322
Si Si6 0.767553 0.362879 0.473487
Si Si7 0.700059 0.129214 0.305847
O O1 0.486646 0.500000 0.197978
O O2 0.495068 0.719206 0.177807
O O3 0.373042 0.603396 0.204495
O O4 0.733752 0.601638 0.936489
O O5 0.131492 0.630773 0.789722
O O6 0.114475 0.622044 0.686640
O O7 0.801525 0.628187 0.024965
O O8 0.634258 0.245975 0.225604
O O9 0.713996 0.391884 0.221159
O O10 0.445260 0.396487 0.358523
O O11 0.215192 0.401083 0.223579
O O12 0.909688 0.397096 0.407722
O O13 0.500000 0.608340 0.500000
O O14 0.311780 0.756407 0.688501
O O15 0.750000 0.250000 0.500000
O O16 0.500000 0.098971 0.500000
#
# Coordination Sequence:
#
# PCOD9180511 Si02
#       7
#     8   8   8   8   8   8   8
#     4  10  21  34  51  69  93 133 181 221 254 290
#     4  10  19  32  50  72 100 131 173 215 261 301
#     4   9  17  29  46  70  93 126 165 201 250 307
#     4   9  19  32  46  68  91 125 169 214 261 302
#     4   9  14  26  47  66  94 130 159 204 248 294
#     4  10  20  31  49  71  96 127 169 216 261 314
#     4   9  18  30  48  65  92 125 170 220 257 289
#
# _framework density 25.833227999999998
#
# number of rings (size 3 to 8) (size 9 to 14) (size 15 to 20)
#    0.000    2.571    1.429    0.857    6.000   10.000 
#    0.000    0.000    0.000    0.000    0.000    0.000 
#    0.000    0.000    0.000    2.571    0.000  126.857 
#
# Total GULP energy -156336.970054 kJ/mol
# GULP energy per Si atom -5583.463216 kJ/mol
# Density = 2.577443 g / cm^3
# Si number density = 25.833228 Si / 1000 Ang^3
#
#
#
# Elastic Constant Matrix: (Units=GPa)
#
#
# Indices 1 2 3 4 5 6 
#
# 1 94.0207 1.0943 55.6724 -0.0198 10.6253 0.0117
# 2 1.0943 135.7614 8.9128 -0.0256 -0.4019 0.0077
# 3 55.6724 8.9128 173.5298 -0.0769 -3.9569 0.0410
# 4 -0.0198 -0.0256 -0.0769 -92.9834 -0.0116 48.4631
# 5 10.6253 -0.4019 -3.9569 -0.0116 44.9651 0.0058
# 6 0.0117 0.0077 0.0410 48.4631 0.0058 -37.3560
#
#
#
# Elastic Compliance Matrix: (Units=1/GPa)
#
#
# Indices 1 2 3 4 5 6 
#
# 1 0.013701 0.000173 -0.004487 0.000002 -0.003631 0.000001
# 2 0.000173 0.007393 -0.000436 -0.000004 -0.000013 -0.000003
# 3 -0.004487 -0.000436 0.007263 -0.000005 0.001696 0.000000
# 4 0.000002 -0.000004 -0.000005 -0.033211 -0.000004 -0.043086
# 5 -0.003631 -0.000013 0.001696 -0.000004 0.023247 -0.000001
# 6 0.000001 -0.000003 0.000000 -0.043086 -0.000001 -0.082666
#
#
# Mechanical properties :
#
#
# Convention : Reuss Voigt Hill
#
# Bulk Modulus (GPa) = 53.02650 59.40787 56.21719
# Shear Modulus (GPa) = -103.12075 5.43398 -48.84339
#
# Velocity S-wave (km/s) = -6.32491 1.45191 -4.35296
# Velocity P-wave (km/s) = 5.72436 5.08501 1.85890
#
# Compressibility (1/GPa) = 0.01885849
#
# Stress axis : x y z
#
# Youngs Moduli (GPa) = 72.98516 135.26262 137.67632
#
# Poissons Ratio (x) = -0.02346 0.61781
# Poissons Ratio (y) = -0.01266 0.05998
# Poissons Ratio (z) = 0.32752 0.05893
#
# Static dielectric constant tensor:
#      x y z
#    x 2.029550 0.000000 -0.001430 
#    y 0.000000 2.084640 0.000030 
#    z -0.001430 0.000030 1.966150 
# 
# From -- ./inp_files/347753.got.cif
#   From: 2010.05.17/outbox.cif.g08.bks.cpg/sg12_174_cif.got.tgz:347753.got - 2010.06.03 13:09:07.
