data_PCOD9180456
_publ_section_title
;
Structure prediction by ZEFSAII (Michael W. Deem and Ramdas Pophale) SiO2 
 PCOD9180456
Probable space group: C 2/M
;
_chemical_formula_sum "Si O2"
_cell_formula_units_Z 44
_cell_length_a 9.379210
_cell_length_b 23.189753
_cell_length_c 14.971478
_cell_angle_alpha 90.000000
_cell_angle_beta 41.677887
_cell_angle_gamma 90.000000
_cell_volume 2165.264316
_symmetry_space_group_name_H-M "C 2/M"
_symmetry_group_IT_number 12
_symmetry_cell_setting 'monoclinic'
loop_
_space_group_symop_operation_xyz
x,y,z
-x,y,-z
-x,-y,-z
x,-y,z
1/2+x,1/2+y,z
1/2-x,1/2+y,-z
1/2-x,1/2-y,-z
1/2+x,1/2-y,z
loop_
_atom_site_type_symbol
_atom_site_label
_atom_site_fract_x
_atom_site_fract_y
_atom_site_fract_z
Si Si1 0.000000 0.312270 0.500000
Si Si2 0.375301 0.390073 0.652830
Si Si3 0.882772 0.500000 0.650979
Si Si4 0.048729 0.212772 0.124980
Si Si5 0.393288 0.395730 0.274754
Si Si6 0.264012 0.000000 0.358200
Si Si7 0.622181 0.261355 0.282488
O O1 0.797971 0.353504 0.605622
O O2 0.009770 0.272090 0.581603
O O3 0.500000 0.381155 0.500000
O O4 0.505309 0.414992 0.677986
O O5 0.204584 0.439810 0.708961
O O6 0.317903 0.325945 0.713447
O O7 0.724115 0.445196 0.725946
O O8 0.000000 0.500000 0.500000
O O9 0.073663 0.500000 0.634327
O O10 0.998919 0.236615 0.247633
O O11 0.056892 0.143999 0.140001
O O12 0.842131 0.226921 0.163486
O O13 0.250000 0.250000 0.000000
O O14 0.000000 0.000000 0.500000
#
# Coordination Sequence:
#
# PCOD9180456 Si02
#       7
#     4   8   4   8   8   4   8
#     4  10  20  33  52  91 114 152 196 236 320 368
#     4  10  19  32  49  80 114 151 188 240 295 363
#     4  12  20  36  56  85 124 162 199 242 303 381
#     4  10  22  39  56  84 116 161 207 248 297 356
#     4  10  22  33  58  83 122 162 195 241 302 366
#     4  10  22  32  50  77 120 159 191 232 295 359
#     4  10  21  33  59  80 117 152 193 255 307 364
#
# _framework density 20.320844999999998
#
# number of rings (size 3 to 8) (size 9 to 14) (size 15 to 20)
#    0.000    1.818    1.818    3.273    2.545    3.636 
#    0.000    0.000    0.000    1.091    0.000   17.818 
#    0.000    0.000    0.000    0.000    0.000    0.000 
#
# Total GULP energy -122541.952031 kJ/mol
# GULP energy per Si atom -5570.088729 kJ/mol
# Density = 2.027459 g / cm^3
# Si number density = 20.320845 Si / 1000 Ang^3
#
#
#
# Elastic Constant Matrix: (Units=GPa)
#
#
# Indices 1 2 3 4 5 6 
#
# 1 137.9589 41.1246 4.1923 0.0000 9.1729 0.0000
# 2 41.1246 107.2023 27.4568 0.0000 4.4666 0.0000
# 3 4.1923 27.4568 48.4822 0.0000 -4.2730 0.0000
# 4 0.0000 0.0000 0.0000 6.0899 0.0000 -0.0878
# 5 9.1729 4.4666 -4.2730 0.0000 20.6002 0.0000
# 6 0.0000 0.0000 0.0000 -0.0878 0.0000 38.8286
#
#
#
# Elastic Compliance Matrix: (Units=1/GPa)
#
#
# Indices 1 2 3 4 5 6 
#
# 1 0.008405 -0.003341 0.000916 0.000000 -0.002828 0.000000
# 2 -0.003341 0.012525 -0.007042 0.000000 -0.002689 0.000000
# 3 0.000916 -0.007042 0.025092 0.000000 0.006324 0.000000
# 4 0.000000 0.000000 0.000000 0.164211 0.000000 0.000371
# 5 -0.002828 -0.002689 0.006324 0.000000 0.051697 0.000000
# 6 0.000000 0.000000 0.000000 0.000371 0.000000 0.025755
#
#
# Mechanical properties :
#
#
# Convention : Reuss Voigt Hill
#
# Bulk Modulus (GPa) = 36.91506 48.79897 42.85702
# Shear Modulus (GPa) = 15.84044 27.82841 21.83442
#
# Velocity S-wave (km/s) = 2.79501 3.70462 3.28149
# Velocity P-wave (km/s) = 5.34992 6.50887 5.95764
#
# Compressibility (1/GPa) = 0.02708921
#
# Stress axis : x y z
#
# Youngs Moduli (GPa) = 118.98171 79.83832 39.85330
#
# Poissons Ratio (x) = 0.26674 -0.03651
# Poissons Ratio (y) = 0.39751 0.28063
# Poissons Ratio (z) = -0.10900 0.56218
#
# Static dielectric constant tensor:
#      x y z
#    x 1.728080 0.000000 -0.008960 
#    y 0.000000 1.793910 0.000000 
#    z -0.008960 0.000000 1.748700 
# 
# From -- ./inp_files/198269.got.cif
#   From: 2010.05.17/outbox.cif.g08.bks.cpg/sg12_100_cif.got.tgz:198269.got - 2010.06.03 13:09:07.
