data_PCOD9180105
_publ_section_title
;
Structure prediction by ZEFSAII (Michael W. Deem and Ramdas Pophale) SiO2 
 PCOD9180105
Probable space group: C 2/M
;
_chemical_formula_sum "Si O2"
_cell_formula_units_Z 64
_cell_length_a 29.469377
_cell_length_b 7.873580
_cell_length_c 14.715868
_cell_angle_alpha 90.000000
_cell_angle_beta 120.050068
_cell_angle_gamma 90.000000
_cell_volume 2955.564107
_symmetry_space_group_name_H-M "C 2/M"
_symmetry_group_IT_number 12
_symmetry_cell_setting 'monoclinic'
loop_
_space_group_symop_operation_xyz
x,y,z
-x,y,-z
-x,-y,-z
x,-y,z
1/2+x,1/2+y,z
1/2-x,1/2+y,-z
1/2-x,1/2-y,-z
1/2+x,1/2-y,z
loop_
_atom_site_type_symbol
_atom_site_label
_atom_site_fract_x
_atom_site_fract_y
_atom_site_fract_z
Si Si1 0.603960 0.297768 0.255379
Si Si2 0.805368 0.699993 0.513320
Si Si3 0.670521 0.209536 0.665203
Si Si4 0.944049 0.695134 0.463735
Si Si5 0.588845 0.704399 0.855918
Si Si6 0.298414 0.201122 0.111756
Si Si7 0.978948 0.796224 0.682642
Si Si8 0.558747 0.291630 0.028262
O O1 0.609866 0.500000 0.255484
O O2 0.649427 0.240634 0.368600
O O3 0.548329 0.264296 0.248430
O O4 0.598794 0.233823 0.147445
O O5 0.805450 0.500000 0.501404
O O6 0.750000 0.750000 0.500000
O O7 0.813511 0.771316 0.419175
O O8 0.610647 0.268160 0.623480
O O9 0.703732 0.265615 0.785935
O O10 0.669625 0.000000 0.662195
O O11 0.946457 0.500000 0.434496
O O12 0.944340 0.702500 0.573136
O O13 0.000000 0.780634 0.500000
O O14 0.585641 0.500000 0.854041
O O15 0.645694 0.751212 0.876175
O O16 0.539290 0.761319 0.744885
O O17 0.576772 0.764424 0.946512
O O18 0.297574 0.000000 0.117768
O O19 0.250000 0.250000 0.000000
O O20 0.976201 0.000000 0.663906
O O21 0.558405 0.500000 0.026221
O O22 0.500000 0.241264 0.000000
#
# Coordination Sequence:
#
# PCOD9180105 Si02
#       8
#     8   8   8   8   8   8   8   8
#     4  10  19  34  57  86 116 152 194 236 283 335
#     4  11  23  41  62  85 115 152 195 240 287 343
#     4   9  20  39  61  83 111 151 193 231 280 349
#     4  10  19  33  55  82 112 151 194 229 274 342
#     4  10  20  36  59  89 121 156 198 240 286 342
#     4  11  24  44  65  85 112 150 198 247 293 343
#     4  10  19  31  53  85 120 149 184 236 287 333
#     4   9  16  31  57  85 118 161 201 233 275 345
#
# _framework density 21.654073
#
# number of rings (size 3 to 8) (size 9 to 14) (size 15 to 20)
#    0.000    2.000    2.500    1.500    0.000    2.750 
#    0.000    9.375    0.000    0.750    0.000    0.000 
#    0.000    0.000    0.000    0.000    0.000    0.000 
#
# Total GULP energy -178585.104403 kJ/mol
# GULP energy per Si atom -5580.784513 kJ/mol
# Density = 2.160479 g / cm^3
# Si number density = 21.654073 Si / 1000 Ang^3
#
#
#
# Elastic Constant Matrix: (Units=GPa)
#
#
# Indices 1 2 3 4 5 6 
#
# 1 97.4871 1.6972 60.3042 0.0000 12.6800 0.0000
# 2 1.6972 15.6616 10.2367 0.0000 1.9214 0.0000
# 3 60.3042 10.2367 172.0354 0.0000 9.3933 0.0000
# 4 0.0000 0.0000 0.0000 20.0337 0.0000 0.7761
# 5 12.6800 1.9214 9.3933 0.0000 35.2461 0.0000
# 6 0.0000 0.0000 0.0000 0.7761 0.0000 19.9434
#
#
#
# Elastic Compliance Matrix: (Units=1/GPa)
#
#
# Indices 1 2 3 4 5 6 
#
# 1 0.013611 0.002050 -0.004688 0.000000 -0.003759 0.000000
# 2 0.002050 0.066980 -0.004530 0.000000 -0.003182 0.000000
# 3 -0.004688 -0.004530 0.007733 0.000000 -0.000127 0.000000
# 4 0.000000 0.000000 0.000000 0.049991 0.000000 -0.001945
# 5 -0.003759 -0.003182 -0.000127 0.000000 0.029932 0.000000
# 6 0.000000 0.000000 0.000000 -0.001945 0.000000 0.050218
#
#
# Mechanical properties :
#
#
# Convention : Reuss Voigt Hill
#
# Bulk Modulus (GPa) = 13.51585 47.74002 30.62794
# Shear Modulus (GPa) = 19.42033 29.24104 24.33068
#
# Velocity S-wave (km/s) = 2.99798 3.67873 3.35566
# Velocity P-wave (km/s) = 4.27073 6.33550 5.40267
#
# Compressibility (1/GPa) = 0.07398718
#
# Stress axis : x y z
#
# Youngs Moduli (GPa) = 73.47098 14.92985 129.32398
#
# Poissons Ratio (x) = -0.03061 0.60625
# Poissons Ratio (y) = -0.15063 0.58590
# Poissons Ratio (z) = 0.34442 0.06764
#
# Static dielectric constant tensor:
#      x y z
#    x 1.750870 0.000000 -0.101630 
#    y 0.000000 1.801200 0.000000 
#    z -0.101630 0.000000 1.760820 
# 
# From -- ./inp_files/249217.got.cif
#   From: 2010.05.17/outbox.cif.g08.bks.cpg/sg12_125_cif.got.tgz:249217.got - 2010.06.03 13:09:07.
