data_PCOD9180185
_publ_section_title
;
Structure prediction by ZEFSAII (Michael W. Deem and Ramdas Pophale) SiO2 
 PCOD9180185
Probable space group: C 2/M
;
_chemical_formula_sum "Si O2"
_cell_formula_units_Z 56
_cell_length_a 20.185560
_cell_length_b 7.927235
_cell_length_c 29.461405
_cell_angle_alpha 90.000000
_cell_angle_beta 141.924530
_cell_angle_gamma 90.000000
_cell_volume 2907.295456
_symmetry_space_group_name_H-M "C 2/M"
_symmetry_group_IT_number 12
_symmetry_cell_setting 'monoclinic'
loop_
_space_group_symop_operation_xyz
x,y,z
-x,y,-z
-x,-y,-z
x,-y,z
1/2+x,1/2+y,z
1/2-x,1/2+y,-z
1/2-x,1/2-y,-z
1/2+x,1/2-y,z
loop_
_atom_site_type_symbol
_atom_site_label
_atom_site_fract_x
_atom_site_fract_y
_atom_site_fract_z
Si Si1 0.169314 0.800686 0.860617
Si Si2 0.449229 0.797503 0.113790
Si Si3 0.933527 0.500000 0.529263
Si Si4 0.669889 0.197727 0.284292
Si Si5 0.826614 0.500000 0.378273
Si Si6 0.413091 0.206505 0.990846
Si Si7 0.128956 0.810857 0.443871
Si Si8 0.461699 0.192548 0.695087
O O1 0.289974 0.741075 0.915483
O O2 0.135162 0.772400 0.894819
O O3 0.078081 0.717457 0.780399
O O4 0.165021 0.000000 0.849816
O O5 0.568643 0.763238 0.197119
O O6 0.435247 0.000000 0.106914
O O7 0.438209 0.739102 0.056070
O O8 0.843074 0.500000 0.441406
O O9 0.919968 0.670251 0.550229
O O10 0.053340 0.500000 0.575106
O O11 0.762996 0.333158 0.328703
O O12 0.622366 0.218595 0.309408
O O13 0.699603 0.000000 0.294246
O O14 0.414859 0.000000 0.991721
O O15 0.500000 0.261410 0.000000
O O16 0.250000 0.750000 0.500000
O O17 0.065357 0.806929 0.362059
O O18 0.129317 0.000000 0.463029
O O19 0.450897 0.000000 0.673505
#
# Coordination Sequence:
#
# PCOD9180185 Si02
#       8
#     8   8   4   8   4   8   8   8
#     4  10  19  31  55  86 111 151 200 249 300 354
#     4   9  18  34  56  83 112 149 199 247 300 355
#     4  11  26  44  58  96 121 165 203 238 313 363
#     4   9  20  36  62  92 116 159 202 250 304 353
#     4  11  24  42  66  82 128 163 201 249 290 372
#     4   9  18  34  53  78 114 153 194 245 304 365
#     4  12  23  40  65  93 125 157 200 254 306 360
#     4  10  20  37  60  89 123 152 198 252 306 359
#
# _framework density 19.261889
#
# number of rings (size 3 to 8) (size 9 to 14) (size 15 to 20)
#    0.000    2.000    1.429    3.000    5.000    2.286 
#    2.571    2.143    0.000    3.857    0.000    0.000 
#    0.000    0.000    0.000    0.000    0.000    0.000 
#
# Total GULP energy -156322.160285 kJ/mol
# GULP energy per Si atom -5582.934296 kJ/mol
# Density = 1.921805 g / cm^3
# Si number density = 19.261889 Si / 1000 Ang^3
#
#
#
# Elastic Constant Matrix: (Units=GPa)
#
#
# Indices 1 2 3 4 5 6 
#
# 1 81.7647 28.4963 49.1070 -0.0005 12.2639 -0.0002
# 2 28.4963 85.7342 25.4380 -0.0003 10.1156 -0.0003
# 3 49.1070 25.4380 70.0242 -0.0001 9.6915 -0.0001
# 4 -0.0005 -0.0003 -0.0001 138.1073 0.0000 70.1953
# 5 12.2639 10.1156 9.6915 0.0000 29.2987 0.0000
# 6 -0.0002 -0.0003 -0.0001 70.1953 0.0000 64.0036
#
#
#
# Elastic Compliance Matrix: (Units=1/GPa)
#
#
# Indices 1 2 3 4 5 6 
#
# 1 0.022180 -0.002772 -0.014037 0.000000 -0.003683 0.000000
# 2 -0.002772 0.013691 -0.002657 0.000000 -0.002687 0.000000
# 3 -0.014037 -0.002657 0.025309 0.000000 -0.001578 0.000000
# 4 0.000000 0.000000 0.000000 0.016361 0.000000 -0.017944
# 5 -0.003683 -0.002687 -0.001578 0.000000 0.037123 0.000000
# 6 0.000000 0.000000 0.000000 -0.017944 0.000000 0.035304
#
#
# Mechanical properties :
#
#
# Convention : Reuss Voigt Hill
#
# Bulk Modulus (GPa) = 44.95366 49.28953 47.12159
# Shear Modulus (GPa) = 25.46912 55.24738 40.35825
#
# Velocity S-wave (km/s) = 3.64023 5.36139 4.58234
# Velocity P-wave (km/s) = 6.40758 7.99817 7.24665
#
# Compressibility (1/GPa) = 0.02224513
#
# Stress axis : x y z
#
# Youngs Moduli (GPa) = 45.08646 73.04064 39.51201
#
# Poissons Ratio (x) = 0.20250 0.55464
# Poissons Ratio (y) = 0.12500 0.10500
# Poissons Ratio (z) = 0.63289 0.19409
#
# Static dielectric constant tensor:
#      x y z
#    x 1.651980 0.000000 -0.014530 
#    y 0.000000 1.708720 0.000000 
#    z -0.014530 0.000000 1.670850 
# 
# From -- ./inp_files/363258.got.cif
#   From: 2010.05.17/outbox.cif.g08.bks.cpg/sg12_182_cif.got.tgz:363258.got - 2010.06.03 13:09:07.
