data_PCOD9180663
_publ_section_title
;
Structure prediction by ZEFSAII (Michael W. Deem and Ramdas Pophale) SiO2 
 PCOD9180663
Probable space group: C 2/M
;
_chemical_formula_sum "Si O2"
_cell_formula_units_Z 56
_cell_length_a 20.617114
_cell_length_b 7.435318
_cell_length_c 17.390389
_cell_angle_alpha 90.000000
_cell_angle_beta 100.691818
_cell_angle_gamma 90.000000
_cell_volume 2619.575055
_symmetry_space_group_name_H-M "C 2/M"
_symmetry_group_IT_number 12
_symmetry_cell_setting 'monoclinic'
loop_
_space_group_symop_operation_xyz
x,y,z
-x,y,-z
-x,-y,-z
x,-y,z
1/2+x,1/2+y,z
1/2-x,1/2+y,-z
1/2-x,1/2-y,-z
1/2+x,1/2-y,z
loop_
_atom_site_type_symbol
_atom_site_label
_atom_site_fract_x
_atom_site_fract_y
_atom_site_fract_z
Si Si1 0.154297 0.206846 0.083997
Si Si2 0.074025 0.710066 0.480209
Si Si3 0.221888 0.280000 0.798394
Si Si4 0.478040 0.782069 0.858739
Si Si5 0.627546 0.780104 0.647563
Si Si6 0.985523 0.719284 0.685201
Si Si7 0.375169 0.794148 0.090028
O O1 0.205823 0.278548 0.158415
O O2 0.080903 0.217624 0.101037
O O3 0.172008 0.000000 0.073909
O O4 0.156967 0.293598 0.000818
O O5 0.091601 0.500000 0.475189
O O6 0.120219 0.784309 0.557984
O O7 0.000000 0.716291 0.500000
O O8 0.064080 0.784603 0.392453
O O9 0.222518 0.500000 0.795724
O O10 0.190538 0.222043 0.710691
O O11 0.172180 0.218424 0.855043
O O12 0.468671 0.727594 0.767833
O O13 0.551020 0.717737 0.898613
O O14 0.476015 0.000000 0.863405
O O15 0.560301 0.728615 0.678177
O O16 0.626940 0.000000 0.644982
O O17 0.985025 0.500000 0.683081
O O18 0.385408 0.000000 0.117404
#
# Coordination Sequence:
#
# PCOD9180663 Si02
#       7
#     8   8   8   8   8   8   8
#     4  11  23  34  45  66  96 125 152 187 232 276
#     4   7  10  15  31  62  95 115 132 175 233 269
#     4   9  17  30  47  66  90 121 154 187 226 274
#     4  10  19  32  51  70  91 121 155 189 226 271
#     4   8  11  20  39  64  91 116 144 182 226 267
#     4   8  12  21  39  66  93 115 143 183 228 265
#     4  10  19  34  54  70  85 114 159 199 230 267
#
# _framework density 21.377513
#
# number of rings (size 3 to 8) (size 9 to 14) (size 15 to 20)
#    0.000    3.000    1.429    3.000    0.000    2.286 
#    0.000    0.714    0.000    0.857    0.000    0.000 
#    0.000    7.429    0.000    0.000    0.000    0.143 
#
# Total GULP energy -156130.736943 kJ/mol
# GULP energy per Si atom -5576.097748 kJ/mol
# Density = 2.132886 g / cm^3
# Si number density = 21.377513 Si / 1000 Ang^3
#
#
#
# Elastic Constant Matrix: (Units=GPa)
#
#
# Indices 1 2 3 4 5 6 
#
# 1 40.3650 2.3214 -3.5118 0.0000 18.6482 0.0000
# 2 2.3214 60.9006 2.3256 0.0000 2.8484 0.0000
# 3 -3.5118 2.3256 99.7705 0.0000 25.1129 0.0000
# 4 0.0000 0.0000 0.0000 40.7300 0.0000 -48.1436
# 5 18.6482 2.8484 25.1129 0.0000 24.5494 0.0000
# 6 0.0000 0.0000 0.0000 -48.1436 0.0000 64.0585
#
#
#
# Elastic Compliance Matrix: (Units=1/GPa)
#
#
# Indices 1 2 3 4 5 6 
#
# 1 0.051781 0.000018 0.015789 0.000000 -0.055487 0.000000
# 2 0.000018 0.016511 0.000137 0.000000 -0.002070 0.000000
# 3 0.015789 0.000137 0.018314 0.000000 -0.030743 0.000000
# 4 0.000000 0.000000 0.000000 0.219906 0.000000 0.165272
# 5 -0.055487 -0.002070 -0.030743 0.000000 0.114572 0.000000
# 6 0.000000 0.000000 0.000000 0.165272 0.000000 0.139822
#
#
# Mechanical properties :
#
#
# Convention : Reuss Voigt Hill
#
# Bulk Modulus (GPa) = 8.43928 22.58960 15.51444
# Shear Modulus (GPa) = 8.79482 39.19431 23.99456
#
# Velocity S-wave (km/s) = 2.03051 4.28651 3.35389
# Velocity P-wave (km/s) = 3.07467 5.92358 4.71924
#
# Compressibility (1/GPa) = 0.11849354
#
# Stress axis : x y z
#
# Youngs Moduli (GPa) = 19.31214 60.56542 54.60332
#
# Poissons Ratio (x) = -0.00112 -0.86211
# Poissons Ratio (y) = -0.00036 -0.00747
# Poissons Ratio (z) = -0.30491 -0.00828
#
# Static dielectric constant tensor:
#      x y z
#    x 1.738730 0.000000 0.046770 
#    y 0.000000 1.844930 0.000000 
#    z 0.046770 0.000000 1.793480 
# 
# From -- ./inp_files/280143.got.cif
#   From: 2010.05.17/outbox.cif.g08.bks.cpg/sg12_141_cif.got.tgz:280143.got - 2010.06.03 13:09:07.
