data_PCOD9180551
_publ_section_title
;
Structure prediction by ZEFSAII (Michael W. Deem and Ramdas Pophale) SiO2 
 PCOD9180551
Probable space group: C 2/M
;
_chemical_formula_sum "Si O2"
_cell_formula_units_Z 56
_cell_length_a 22.735313
_cell_length_b 13.775284
_cell_length_c 12.687636
_cell_angle_alpha 90.000000
_cell_angle_beta 110.891929
_cell_angle_gamma 90.000000
_cell_volume 3712.337982
_symmetry_space_group_name_H-M "C 2/M"
_symmetry_group_IT_number 12
_symmetry_cell_setting 'monoclinic'
loop_
_space_group_symop_operation_xyz
x,y,z
-x,y,-z
-x,-y,-z
x,-y,z
1/2+x,1/2+y,z
1/2-x,1/2+y,-z
1/2-x,1/2-y,-z
1/2+x,1/2-y,z
loop_
_atom_site_type_symbol
_atom_site_label
_atom_site_fract_x
_atom_site_fract_y
_atom_site_fract_z
Si Si1 0.430256 0.884094 0.117089
Si Si2 0.156204 0.698127 0.750801
Si Si3 0.222555 0.112263 0.859386
Si Si4 0.711279 0.611806 0.104987
Si Si5 0.924401 0.385229 0.729462
Si Si6 0.143507 0.301105 0.121621
Si Si7 0.927531 0.384319 0.483963
O O1 0.387141 0.837780 0.180396
O O2 0.503143 0.867973 0.191148
O O3 0.419220 0.000000 0.107445
O O4 0.409346 0.838475 0.993238
O O5 0.174987 0.810349 0.778378
O O6 0.221832 0.639654 0.800828
O O7 0.119274 0.674024 0.620884
O O8 0.292556 0.140927 0.866556
O O9 0.209363 0.000000 0.826862
O O10 0.219576 0.125131 0.984162
O O11 0.695485 0.500000 0.115124
O O12 0.660416 0.689025 0.112586
O O13 0.911924 0.500000 0.738578
O O14 0.879142 0.324505 0.775776
O O15 0.917657 0.365222 0.601174
O O16 0.918311 0.500000 0.458987
O O17 0.000000 0.363140 0.500000
#
# Coordination Sequence:
#
# PCOD9180551 Si02
#       7
#     8   8   8   8   8   8   8
#     4  11  18  28  49  77 103 126 155 201 251 298
#     4  11  18  31  52  77  98 126 164 205 245 285
#     4  10  19  32  51  74 101 130 164 203 242 292
#     4  10  19  32  51  74 100 130 165 203 242 290
#     4  10  21  32  47  74 105 134 159 196 250 298
#     4  11  19  32  49  75 105 131 159 196 253 298
#     4  10  19  32  50  73 101 132 164 199 240 293
#
# _framework density 15.084833
#
# number of rings (size 3 to 8) (size 9 to 14) (size 15 to 20)
#    0.000    1.571    4.286    3.857    0.000    1.143 
#    0.000    2.857    0.000    5.571    0.000    0.000 
#    0.000    0.000    0.000    0.000    0.000    0.000 
#
# Total GULP energy -156281.035070 kJ/mol
# GULP energy per Si atom -5581.465538 kJ/mol
# Density = 1.505050 g / cm^3
# Si number density = 15.084833 Si / 1000 Ang^3
#
#
#
# Elastic Constant Matrix: (Units=GPa)
#
#
# Indices 1 2 3 4 5 6 
#
# 1 42.2061 46.1322 44.8672 0.0000 -0.7943 0.0000
# 2 46.1322 119.8756 63.9727 0.0000 4.9805 0.0000
# 3 44.8672 63.9727 111.5172 0.0000 7.6236 0.0000
# 4 0.0000 0.0000 0.0000 22.3543 0.0000 -1.8458
# 5 -0.7943 4.9805 7.6236 0.0000 24.7423 0.0000
# 6 0.0000 0.0000 0.0000 -1.8458 0.0000 19.8769
#
#
#
# Elastic Compliance Matrix: (Units=1/GPa)
#
#
# Indices 1 2 3 4 5 6 
#
# 1 0.054083 -0.013326 -0.014727 0.000000 0.008957 0.000000
# 2 -0.013326 0.015308 -0.003249 0.000000 -0.002508 0.000000
# 3 -0.014727 -0.003249 0.017104 0.000000 -0.005089 0.000000
# 4 0.000000 0.000000 0.000000 0.045080 0.000000 0.004186
# 5 0.008957 -0.002508 -0.005089 0.000000 0.042777 0.000000
# 6 0.000000 0.000000 0.000000 0.004186 0.000000 0.050698
#
#
# Mechanical properties :
#
#
# Convention : Reuss Voigt Hill
#
# Bulk Modulus (GPa) = 41.85565 64.83811 53.34688
# Shear Modulus (GPa) = 16.91371 21.30316 19.10843
#
# Velocity S-wave (km/s) = 3.35212 3.76203 3.56298
# Velocity P-wave (km/s) = 6.54136 7.87059 7.23656
#
# Compressibility (1/GPa) = 0.02389164
#
# Stress axis : x y z
#
# Youngs Moduli (GPa) = 18.49004 65.32478 58.46545
#
# Poissons Ratio (x) = 0.87050 0.86104
# Poissons Ratio (y) = 0.24639 0.18994
# Poissons Ratio (z) = 0.27231 0.21222
#
# Static dielectric constant tensor:
#      x y z
#    x 1.487820 0.000000 -0.003840 
#    y 0.000000 1.495150 0.000000 
#    z -0.003840 0.000000 1.491960 
# 
# From -- ./inp_files/166806.got.cif
#   From: 2010.05.17/outbox.cif.g08.bks.cpg/sg12_84_cif.got.tgz:166806.got - 2010.06.03 13:09:07.
