data_PCOD9180525
_publ_section_title
;
Structure prediction by ZEFSAII (Michael W. Deem and Ramdas Pophale) SiO2 
 PCOD9180525
Probable space group: C 2/M
;
_chemical_formula_sum "Si O2"
_cell_formula_units_Z 56
_cell_length_a 14.380775
_cell_length_b 9.470380
_cell_length_c 23.289676
_cell_angle_alpha 90.000000
_cell_angle_beta 119.195984
_cell_angle_gamma 90.000000
_cell_volume 2768.889552
_symmetry_space_group_name_H-M "C 2/M"
_symmetry_group_IT_number 12
_symmetry_cell_setting 'monoclinic'
loop_
_space_group_symop_operation_xyz
x,y,z
-x,y,-z
-x,-y,-z
x,-y,z
1/2+x,1/2+y,z
1/2-x,1/2+y,-z
1/2-x,1/2-y,-z
1/2+x,1/2-y,z
loop_
_atom_site_type_symbol
_atom_site_label
_atom_site_fract_x
_atom_site_fract_y
_atom_site_fract_z
Si Si1 0.038535 0.159857 0.573720
Si Si2 0.392656 0.160340 0.689156
Si Si3 0.126858 0.661435 0.698778
Si Si4 0.689432 0.658813 0.434450
Si Si5 0.283802 0.334276 0.170398
Si Si6 0.083074 0.166213 0.074985
Si Si7 0.984274 0.838004 0.815292
O O1 0.112842 0.259778 0.634004
O O2 0.000000 0.214441 0.500000
O O3 0.930920 0.146951 0.578431
O O4 0.767092 0.000000 0.558451
O O5 0.508768 0.157131 0.692511
O O6 0.318369 0.255446 0.626742
O O7 0.413949 0.232736 0.756382
O O8 0.354805 0.000000 0.682600
O O9 0.163806 0.500000 0.704054
O O10 0.197564 0.750198 0.764594
O O11 0.750000 0.750000 0.500000
O O12 0.918201 0.000000 0.421565
O O13 0.264915 0.500000 0.175453
O O14 0.187483 0.262310 0.107498
O O15 0.393607 0.321100 0.167848
O O16 0.029757 0.183622 0.121468
O O17 0.111785 0.000000 0.077421
O O18 0.000000 0.201906 0.000000
O O19 0.953662 0.000000 0.792198
#
# Coordination Sequence:
#
# PCOD9180525 Si02
#       7
#     8   8   8   8   8   8   8
#     4   9  18  33  51  72 101 137 177 223 273 323
#     4   9  17  31  53  78 103 136 181 228 274 327
#     4   9  17  31  53  78 104 138 180 226 273 327
#     4  10  19  32  50  72 102 139 178 223 275 329
#     4  10  20  36  59  85 113 148 189 233 280 334
#     4  10  22  40  60  85 119 153 186 230 283 340
#     4   9  19  37  59  83 113 149 188 229 281 338
#
# _framework density 20.224713999999999
#
# number of rings (size 3 to 8) (size 9 to 14) (size 15 to 20)
#    0.000    2.571    0.000    1.714    0.000    6.286 
#    2.571    0.000    0.000    0.000    0.000    0.000 
#    0.000    0.000    0.000    0.000    0.000    0.000 
#
# Total GULP energy -156432.782046 kJ/mol
# GULP energy per Si atom -5586.885073 kJ/mol
# Density = 2.017868 g / cm^3
# Si number density = 20.224714 Si / 1000 Ang^3
#
#
#
# Elastic Constant Matrix: (Units=GPa)
#
#
# Indices 1 2 3 4 5 6 
#
# 1 53.4721 28.4028 15.9380 0.0000 -1.0275 0.0000
# 2 28.4028 160.8754 99.9291 0.0000 9.4024 0.0000
# 3 15.9380 99.9291 146.1483 0.0000 4.9527 0.0000
# 4 0.0000 0.0000 0.0000 33.9402 0.0000 2.4234
# 5 -1.0275 9.4024 4.9527 0.0000 26.4749 0.0000
# 6 0.0000 0.0000 0.0000 2.4234 0.0000 14.3588
#
#
#
# Elastic Compliance Matrix: (Units=1/GPa)
#
#
# Indices 1 2 3 4 5 6 
#
# 1 0.020773 -0.004070 0.000444 0.000000 0.002169 0.000000
# 2 -0.004070 0.011766 -0.007501 0.000000 -0.002933 0.000000
# 3 0.000444 -0.007501 0.011908 0.000000 0.000454 0.000000
# 4 0.000000 0.000000 0.000000 0.029823 0.000000 -0.005033
# 5 0.002169 -0.002933 0.000454 0.000000 0.038813 0.000000
# 6 0.000000 0.000000 0.000000 -0.005033 0.000000 0.070493
#
#
# Mechanical properties :
#
#
# Convention : Reuss Voigt Hill
#
# Bulk Modulus (GPa) = 45.06336 72.11506 58.58921
# Shear Modulus (GPa) = 23.44923 29.36983 26.40953
#
# Velocity S-wave (km/s) = 3.40874 3.81488 3.61751
# Velocity P-wave (km/s) = 6.14999 7.42554 6.81766
#
# Compressibility (1/GPa) = 0.02219098
#
# Stress axis : x y z
#
# Youngs Moduli (GPa) = 48.14048 84.99355 83.97914
#
# Poissons Ratio (x) = 0.34592 -0.03729
# Poissons Ratio (y) = 0.19593 0.62997
# Poissons Ratio (z) = -0.02138 0.63758
#
# Static dielectric constant tensor:
#      x y z
#    x 1.756380 0.000000 0.005940 
#    y 0.000000 1.708730 0.000000 
#    z 0.005940 0.000000 1.669810 
# 
# From -- ./inp_files/339108.got.cif
#   From: 2010.05.17/outbox.cif.g08.bks.cpg/sg12_170_cif.got.tgz:339108.got - 2010.06.03 13:09:07.
