data_PCOD9180174
_publ_section_title
;
Structure prediction by ZEFSAII (Michael W. Deem and Ramdas Pophale) SiO2 
 PCOD9180174
Probable space group: C 2/M
;
_chemical_formula_sum "Si O2"
_cell_formula_units_Z 36
_cell_length_a 9.493888
_cell_length_b 26.998968
_cell_length_c 12.397833
_cell_angle_alpha 90.000000
_cell_angle_beta 145.813290
_cell_angle_gamma 90.000000
_cell_volume 1785.621993
_symmetry_space_group_name_H-M "C 2/M"
_symmetry_group_IT_number 12
_symmetry_cell_setting 'monoclinic'
loop_
_space_group_symop_operation_xyz
x,y,z
-x,y,-z
-x,-y,-z
x,-y,z
1/2+x,1/2+y,z
1/2-x,1/2+y,-z
1/2-x,1/2-y,-z
1/2+x,1/2-y,z
loop_
_atom_site_type_symbol
_atom_site_label
_atom_site_fract_x
_atom_site_fract_y
_atom_site_fract_z
Si Si1 0.823479 0.554198 0.992013
Si Si2 0.733682 0.556864 0.563936
Si Si3 0.555461 0.361865 0.313837
Si Si4 0.500000 0.299766 0.500000
Si Si5 0.972903 0.769831 0.854657
O O1 0.695306 0.500000 0.922502
O O2 0.010495 0.560661 0.209120
O O3 0.662920 0.602688 0.869034
O O4 0.000000 0.550367 0.000000
O O5 0.500000 0.566494 0.500000
O O6 0.698272 0.500000 0.506697
O O7 0.745804 0.596050 0.475359
O O8 0.508271 0.331841 0.395420
O O9 0.597366 0.320873 0.249868
O O10 0.247233 0.267427 0.323632
O O11 0.000000 0.775645 0.000000
O O12 0.250000 0.750000 0.000000
#
# Coordination Sequence:
#
# PCOD9180174 Si02
#       5
#     8   8   8   4   8
#     4  10  19  32  56  94 134 166 208 266 329 395
#     4  10  19  31  54  92 129 163 207 261 325 392
#     4  12  23  37  67  90 134 171 215 267 342 388
#     4  12  26  44  65 102 131 178 220 284 328 398
#     4  12  29  47  68  94 134 179 230 283 330 396
#
# _framework density 20.161041000000001
#
# number of rings (size 3 to 8) (size 9 to 14) (size 15 to 20)
#    0.000    0.889    5.556    1.333    6.222    0.000 
#    0.000    0.000    0.000    2.667    0.000    6.222 
#    0.000    0.000    0.000    0.000    0.000    0.000 
#
# Total GULP energy -100345.364138 kJ/mol
# GULP energy per Si atom -5574.742452 kJ/mol
# Density = 2.011515 g / cm^3
# Si number density = 20.161041 Si / 1000 Ang^3
#
#
#
# Elastic Constant Matrix: (Units=GPa)
#
#
# Indices 1 2 3 4 5 6 
#
# 1 58.7236 45.3916 39.8573 0.0000 -23.9966 0.0000
# 2 45.3916 164.8137 83.0340 0.0000 -14.5274 0.0000
# 3 39.8573 83.0340 174.4781 0.0000 -17.3509 0.0000
# 4 0.0000 0.0000 0.0000 109.8514 0.0000 -2.5011
# 5 -23.9966 -14.5274 -17.3509 0.0000 26.0039 0.0000
# 6 0.0000 0.0000 0.0000 -2.5011 0.0000 28.2022
#
#
#
# Elastic Compliance Matrix: (Units=1/GPa)
#
#
# Indices 1 2 3 4 5 6 
#
# 1 0.033970 -0.005837 -0.002345 0.000000 0.026523 0.000000
# 2 -0.005837 0.009088 -0.003237 0.000000 -0.002469 0.000000
# 3 -0.002345 -0.003237 0.007939 0.000000 0.001325 0.000000
# 4 0.000000 0.000000 0.000000 0.009122 0.000000 0.000809
# 5 0.026523 -0.002469 0.001325 0.000000 0.062436 0.000000
# 6 0.000000 0.000000 0.000000 0.000809 0.000000 0.035530
#
#
# Mechanical properties :
#
#
# Convention : Reuss Voigt Hill
#
# Bulk Modulus (GPa) = 35.51106 81.62014 58.56560
# Shear Modulus (GPa) = 26.27299 48.12700 37.20000
#
# Velocity S-wave (km/s) = 3.61384 4.89113 4.30017
# Velocity P-wave (km/s) = 5.92158 8.51290 7.33262
#
# Compressibility (1/GPa) = 0.02816024
#
# Stress axis : x y z
#
# Youngs Moduli (GPa) = 29.43770 110.03173 125.95321
#
# Poissons Ratio (x) = 0.64221 0.29535
# Poissons Ratio (y) = 0.17181 0.40775
# Poissons Ratio (z) = 0.06903 0.35621
#
# Static dielectric constant tensor:
#      x y z
#    x 1.704990 0.000000 0.010750 
#    y 0.000000 1.770680 0.000000 
#    z 0.010750 0.000000 1.733830 
# 
# From -- ./inp_files/124017.got.cif
#   From: 2010.05.17/outbox.cif.g08.bks.cpg/sg12_63_cif.got.tgz:124017.got - 2010.06.03 13:09:07.
