data_PCOD9180675
_publ_section_title
;
Structure prediction by ZEFSAII (Michael W. Deem and Ramdas Pophale) SiO2 
 PCOD9180675
Probable space group: C 2/M
;
_chemical_formula_sum "Si O2"
_cell_formula_units_Z 48
_cell_length_a 24.152430
_cell_length_b 8.921963
_cell_length_c 13.970930
_cell_angle_alpha 90.000000
_cell_angle_beta 108.423923
_cell_angle_gamma 90.000000
_cell_volume 2856.246403
_symmetry_space_group_name_H-M "C 2/M"
_symmetry_group_IT_number 12
_symmetry_cell_setting 'monoclinic'
loop_
_space_group_symop_operation_xyz
x,y,z
-x,y,-z
-x,-y,-z
x,-y,z
1/2+x,1/2+y,z
1/2-x,1/2+y,-z
1/2-x,1/2-y,-z
1/2+x,1/2-y,z
loop_
_atom_site_type_symbol
_atom_site_label
_atom_site_fract_x
_atom_site_fract_y
_atom_site_fract_z
Si Si1 0.875609 0.322389 0.715742
Si Si2 0.367273 0.176726 0.361198
Si Si3 0.744914 0.322344 0.603000
Si Si4 0.066534 0.174990 0.434933
Si Si5 0.978645 0.180089 0.881364
Si Si6 0.554272 0.324222 0.741483
O O1 0.885500 0.500000 0.704878
O O2 0.806689 0.299619 0.690349
O O3 0.894024 0.229317 0.631903
O O4 0.918798 0.263252 0.821356
O O5 0.308111 0.253266 0.366237
O O6 0.415396 0.225032 0.466138
O O7 0.392046 0.234976 0.273761
O O8 0.359882 0.000000 0.356276
O O9 0.735748 0.500000 0.586035
O O10 0.750000 0.250000 0.500000
O O11 0.000792 0.190005 0.360916
O O12 0.076657 0.000000 0.463247
O O13 0.027598 0.223483 0.829206
O O14 0.969805 0.000000 0.865379
O O15 0.000000 0.210167 0.000000
O O16 0.569340 0.500000 0.755028
#
# Coordination Sequence:
#
# PCOD9180675 Si02
#       6
#     8   8   8   8   8   8
#     4  10  20  33  52  80 108 136 175 220 264 310
#     4  12  23  32  47  73 106 144 180 216 258 308
#     4  11  22  35  52  74 106 146 184 218 257 308
#     4  10  19  32  51  72 102 142 178 215 260 312
#     4   9  19  37  61  84 105 134 171 214 269 326
#     4   9  19  34  51  74 103 136 173 214 264 317
#
# _framework density 16.805271999999999
#
# number of rings (size 3 to 8) (size 9 to 14) (size 15 to 20)
#    0.000    1.833    1.667    4.500    0.000    7.667 
#    0.000    0.000    0.000    1.000    0.000    0.000 
#    0.000    0.000    0.000    0.000    0.000    0.000 
#
# Total GULP energy -133940.400525 kJ/mol
# GULP energy per Si atom -5580.850022 kJ/mol
# Density = 1.676702 g / cm^3
# Si number density = 16.805272 Si / 1000 Ang^3
#
#
#
# Elastic Constant Matrix: (Units=GPa)
#
#
# Indices 1 2 3 4 5 6 
#
# 1 124.7979 70.6263 52.1597 0.0000 -14.5247 0.0000
# 2 70.6263 94.6935 37.2066 0.0000 -4.0123 0.0000
# 3 52.1597 37.2066 80.1563 0.0000 -4.7656 0.0000
# 4 0.0000 0.0000 0.0000 20.0510 0.0000 0.1970
# 5 -14.5247 -4.0123 -4.7656 0.0000 8.0760 0.0000
# 6 0.0000 0.0000 0.0000 0.1970 0.0000 25.2430
#
#
#
# Elastic Compliance Matrix: (Units=1/GPa)
#
#
# Indices 1 2 3 4 5 6 
#
# 1 0.020315 -0.011548 -0.006247 0.000000 0.027113 0.000000
# 2 -0.011548 0.019551 -0.002298 0.000000 -0.012413 0.000000
# 3 -0.006247 -0.002298 0.017485 0.000000 -0.002059 0.000000
# 4 0.000000 0.000000 0.000000 0.049877 0.000000 -0.000389
# 5 0.027113 -0.012413 -0.002059 0.000000 0.165205 0.000000
# 6 0.000000 0.000000 0.000000 -0.000389 0.000000 0.039618
#
#
# Mechanical properties :
#
#
# Convention : Reuss Voigt Hill
#
# Bulk Modulus (GPa) = 58.26278 68.84812 63.55545
# Shear Modulus (GPa) = 13.96809 19.98433 16.97621
#
# Velocity S-wave (km/s) = 2.88614 3.45218 3.18177
# Velocity P-wave (km/s) = 6.77134 7.54633 7.16931
#
# Compressibility (1/GPa) = 0.01716362
#
# Stress axis : x y z
#
# Youngs Moduli (GPa) = 49.22461 51.14912 57.19180
#
# Poissons Ratio (x) = 0.59069 0.35728
# Poissons Ratio (y) = 0.56847 0.13143
# Poissons Ratio (z) = 0.30751 0.11755
#
# Static dielectric constant tensor:
#      x y z
#    x 1.584520 0.000000 -0.004130 
#    y 0.000000 1.565260 0.000000 
#    z -0.004130 0.000000 1.562310 
# 
# From -- ./inp_files/230406.got.cif
#   From: 2010.05.17/outbox.cif.g08.bks.cpg/sg12_116_cif.got.tgz:230406.got - 2010.06.03 13:09:07.
