data_PCOD9180935
_publ_section_title
;
Structure prediction by ZEFSAII (Michael W. Deem and Ramdas Pophale) SiO2 
 PCOD9180935
Probable space group: C 2/M
;
_chemical_formula_sum "Si O2"
_cell_formula_units_Z 56
_cell_length_a 19.527970
_cell_length_b 18.449211
_cell_length_c 16.352499
_cell_angle_alpha 90.000000
_cell_angle_beta 33.134598
_cell_angle_gamma 90.000000
_cell_volume 3220.288544
_symmetry_space_group_name_H-M "C 2/M"
_symmetry_group_IT_number 12
_symmetry_cell_setting 'monoclinic'
loop_
_space_group_symop_operation_xyz
x,y,z
-x,y,-z
-x,-y,-z
x,-y,z
1/2+x,1/2+y,z
1/2-x,1/2+y,-z
1/2-x,1/2-y,-z
1/2+x,1/2-y,z
loop_
_atom_site_type_symbol
_atom_site_label
_atom_site_fract_x
_atom_site_fract_y
_atom_site_fract_z
Si Si1 0.750000 0.250001 0.840029
Si Si2 0.173991 0.081209 0.479866
Si Si3 0.478868 0.725121 0.176890
Si Si4 0.872648 0.351365 0.167090
Si Si5 0.978869 0.774879 0.365373
Si Si6 0.673992 0.581209 0.672149
Si Si7 0.372648 0.148635 0.587613
O O1 0.711630 0.182970 0.820270
O O2 0.788369 0.317031 0.743531
O O3 0.872798 0.229912 0.768391
O O4 0.627201 0.270089 0.013988
O O5 0.292547 0.095845 0.303573
O O6 0.075314 0.145436 0.562161
O O7 0.209006 0.086989 0.540993
O O8 0.124531 0.000000 0.515899
O O9 0.414799 0.783179 0.181224
O O10 0.448737 0.742266 0.301263
O O11 0.424684 0.645436 0.212792
O O12 0.000000 0.381884 0.000000
O O13 0.914799 0.716822 0.489179
O O14 0.624532 0.500000 0.735037
O O15 0.792548 0.595845 0.611331
O O16 0.500000 0.118115 0.500000
#
# Coordination Sequence:
#
# PCOD9180935 Si02
#       7
#     8   8   8   8   8   8   8
#     4  10  19  32  51  78 106 126 172 224 269 310
#     4  10  20  34  53  77 106 141 179 216 260 318
#     4  10  19  33  54  77 102 138 179 220 263 310
#     4  10  19  32  53  75 104 135 175 223 266 308
#     4  10  19  33  54  77 102 138 179 220 263 310
#     4  10  20  34  53  77 106 141 179 216 260 318
#     4  10  19  32  53  75 104 135 175 223 266 308
#
# _framework density 17.389745000000001
#
# number of rings (size 3 to 8) (size 9 to 14) (size 15 to 20)
#    0.000    2.000    2.857    1.286    0.000    2.857 
#    0.000    2.857    0.000    1.714    0.000   16.000 
#    0.000    0.000    0.000    0.000    0.000    0.000 
#
# Total GULP energy -156204.554715 kJ/mol
# GULP energy per Si atom -5578.734097 kJ/mol
# Density = 1.735017 g / cm^3
# Si number density = 17.389745 Si / 1000 Ang^3
#
#
#
# Elastic Constant Matrix: (Units=GPa)
#
#
# Indices 1 2 3 4 5 6 
#
# 1 64.8042 26.2681 9.0867 0.0001 -7.2418 -0.0001
# 2 26.2681 67.7475 26.2649 0.0001 0.0025 0.0000
# 3 9.0867 26.2649 67.1406 0.0002 5.1369 -0.0002
# 4 0.0001 0.0001 0.0002 13.0559 -0.0002 -0.9666
# 5 -7.2418 0.0025 5.1369 -0.0002 20.7314 0.0001
# 6 -0.0001 0.0000 -0.0002 -0.9666 0.0001 11.9822
#
#
#
# Elastic Compliance Matrix: (Units=1/GPa)
#
#
# Indices 1 2 3 4 5 6 
#
# 1 0.019201 -0.007352 -0.000240 0.000000 0.006768 0.000000
# 2 -0.007352 0.020275 -0.006870 0.000000 -0.000868 0.000000
# 3 -0.000240 -0.006870 0.017961 0.000000 -0.004534 0.000000
# 4 0.000000 0.000000 0.000000 0.077054 0.000001 0.006216
# 5 0.006768 -0.000868 -0.004534 0.000001 0.051724 0.000000
# 6 0.000000 0.000000 0.000000 0.006216 0.000000 0.083958
#
#
# Mechanical properties :
#
#
# Convention : Reuss Voigt Hill
#
# Bulk Modulus (GPa) = 35.07260 35.88132 35.47696
# Shear Modulus (GPa) = 16.20210 18.35872 17.28041
#
# Velocity S-wave (km/s) = 3.05569 3.25271 3.15574
# Velocity P-wave (km/s) = 5.71507 5.89790 5.80721
#
# Compressibility (1/GPa) = 0.02851228
#
# Stress axis : x y z
#
# Youngs Moduli (GPa) = 52.07996 49.32244 55.67634
#
# Poissons Ratio (x) = 0.36262 0.01338
# Poissons Ratio (y) = 0.38290 0.38249
# Poissons Ratio (z) = 0.01252 0.33884
#
# Static dielectric constant tensor:
#      x y z
#    x 1.591020 0.000000 0.003940 
#    y 0.000000 1.565480 0.000000 
#    z 0.003940 0.000000 1.586640 
# 
# From -- ./inp_files/284976.got.cif
#   From: 2010.05.17/outbox.cif.g08.bks.cpg/sg12_143_cif.got.tgz:284976.got - 2010.06.03 13:09:07.
