data_PCOD9180670
_publ_section_title
;
Structure prediction by ZEFSAII (Michael W. Deem and Ramdas Pophale) SiO2 
 PCOD9180670
Probable space group: C 2/M
;
_chemical_formula_sum "Si O2"
_cell_formula_units_Z 56
_cell_length_a 31.543080
_cell_length_b 7.752481
_cell_length_c 20.270427
_cell_angle_alpha 90.000000
_cell_angle_beta 143.932043
_cell_angle_gamma 90.000000
_cell_volume 2918.330598
_symmetry_space_group_name_H-M "C 2/M"
_symmetry_group_IT_number 12
_symmetry_cell_setting 'monoclinic'
loop_
_space_group_symop_operation_xyz
x,y,z
-x,y,-z
-x,-y,-z
x,-y,z
1/2+x,1/2+y,z
1/2-x,1/2+y,-z
1/2-x,1/2-y,-z
1/2+x,1/2-y,z
loop_
_atom_site_type_symbol
_atom_site_label
_atom_site_fract_x
_atom_site_fract_y
_atom_site_fract_z
Si Si1 0.731172 0.296680 0.278448
Si Si2 0.327390 0.705462 0.129540
Si Si3 0.601149 0.201643 0.909133
Si Si4 0.443346 0.788571 0.747043
Si Si5 0.300083 0.792190 0.500447
Si Si6 0.250673 0.295437 0.156327
Si Si7 0.074830 0.708299 0.125631
O O1 0.743354 0.500000 0.293093
O O2 0.767361 0.224368 0.390722
O O3 0.760037 0.228469 0.245428
O O4 0.645794 0.264390 0.176501
O O5 0.339262 0.500000 0.143038
O O6 0.384715 0.785063 0.151463
O O7 0.314542 0.767921 0.188411
O O8 0.250000 0.750000 0.000000
O O9 0.523627 0.273870 0.831451
O O10 0.598713 0.000000 0.924890
O O11 0.672367 0.276752 0.034705
O O12 0.380721 0.731744 0.618665
O O13 0.421833 0.736323 0.794032
O O14 0.444140 0.000000 0.746802
O O15 0.250000 0.750000 0.500000
O O16 0.301784 0.000000 0.498077
O O17 0.247144 0.500000 0.138332
O O18 0.073939 0.500000 0.123300
O O19 0.000000 0.768926 0.000000
#
# Coordination Sequence:
#
# PCOD9180670 Si02
#       7
#     8   8   8   8   8   8   8
#     4  11  22  32  47  73 101 127 163 210 251 286
#     4   9  17  30  49  74 102 131 162 197 240 295
#     4   9  17  31  52  77 100 126 163 203 245 294
#     4   9  17  31  51  71  95 128 164 203 242 290
#     4  10  20  35  52  70  94 129 172 210 246 290
#     4   9  18  32  50  72 100 132 164 194 237 303
#     4  10  19  32  51  71  94 130 167 195 238 301
#
# _framework density 19.189052
#
# number of rings (size 3 to 8) (size 9 to 14) (size 15 to 20)
#    0.000    2.429    1.429    2.571    0.000    6.000 
#    0.000    1.429    0.000    0.857    0.000    6.000 
#    0.000    0.000    0.000    0.000    0.000    0.000 
#
# Total GULP energy -156114.014279 kJ/mol
# GULP energy per Si atom -5575.500510 kJ/mol
# Density = 1.914538 g / cm^3
# Si number density = 19.189052 Si / 1000 Ang^3
#
#
#
# Elastic Constant Matrix: (Units=GPa)
#
#
# Indices 1 2 3 4 5 6 
#
# 1 71.3275 -13.9644 3.0252 0.0000 -25.7645 0.0000
# 2 -13.9644 21.2095 -2.6182 0.0000 4.5418 0.0000
# 3 3.0252 -2.6182 68.3258 0.0000 -21.5989 0.0000
# 4 0.0000 0.0000 0.0000 6.8675 0.0000 -4.6355
# 5 -25.7645 4.5418 -21.5989 0.0000 26.7002 0.0000
# 6 0.0000 0.0000 0.0000 -4.6355 0.0000 22.9558
#
#
#
# Elastic Compliance Matrix: (Units=1/GPa)
#
#
# Indices 1 2 3 4 5 6 
#
# 1 0.027726 0.012511 0.009454 0.000000 0.032274 0.000000
# 2 0.012511 0.054629 0.003249 0.000000 0.005408 0.000000
# 3 0.009454 0.003249 0.022909 0.000000 0.027102 0.000000
# 4 0.000000 0.000000 0.000000 0.168594 0.000000 0.034044
# 5 0.032274 0.005408 0.027102 0.000000 0.089600 0.000000
# 6 0.000000 0.000000 0.000000 0.034044 0.000000 0.050437
#
#
# Mechanical properties :
#
#
# Convention : Reuss Voigt Hill
#
# Bulk Modulus (GPa) = 6.42294 14.86089 10.64191
# Shear Modulus (GPa) = 12.03762 22.93271 17.48516
#
# Velocity S-wave (km/s) = 2.50735 3.46076 3.02189
# Velocity P-wave (km/s) = 3.42591 4.87139 4.21113
#
# Compressibility (1/GPa) = 0.15569201
#
# Stress axis : x y z
#
# Youngs Moduli (GPa) = 36.06716 18.30532 43.65066
#
# Poissons Ratio (x) = -0.22901 -0.41268
# Poissons Ratio (y) = -0.45123 -0.14182
# Poissons Ratio (z) = -0.34099 -0.05947
#
# Static dielectric constant tensor:
#      x y z
#    x 1.677170 0.000000 -0.022310 
#    y 0.000000 1.691690 0.000000 
#    z -0.022310 0.000000 1.679780 
# 
# From -- ./inp_files/287408.got.cif
#   From: 2010.05.17/outbox.cif.g08.bks.cpg/sg12_144_cif.got.tgz:287408.got - 2010.06.03 13:09:07.
