data_PCOD9180916
_publ_section_title
;
Structure prediction by ZEFSAII (Michael W. Deem and Ramdas Pophale) SiO2 
 PCOD9180916
Probable space group: C 2/M
;
_chemical_formula_sum "Si O2"
_cell_formula_units_Z 64
_cell_length_a 21.706580
_cell_length_b 16.928694
_cell_length_c 19.745384
_cell_angle_alpha 90.000000
_cell_angle_beta 151.382297
_cell_angle_gamma 90.000000
_cell_volume 3475.221638
_symmetry_space_group_name_H-M "C 2/M"
_symmetry_group_IT_number 12
_symmetry_cell_setting 'monoclinic'
loop_
_space_group_symop_operation_xyz
x,y,z
-x,y,-z
-x,-y,-z
x,-y,z
1/2+x,1/2+y,z
1/2-x,1/2+y,-z
1/2-x,1/2-y,-z
1/2+x,1/2-y,z
loop_
_atom_site_type_symbol
_atom_site_label
_atom_site_fract_x
_atom_site_fract_y
_atom_site_fract_z
Si Si1 0.600963 0.412387 0.203009
Si Si2 0.267565 0.285160 0.177333
Si Si3 0.848254 0.590490 0.539120
Si Si4 0.946117 0.686463 0.751760
Si Si5 0.385277 0.329391 0.072199
Si Si6 0.194263 0.750691 0.252411
Si Si7 0.208130 0.593414 0.014734
Si Si8 0.024508 0.312192 0.448498
O O1 0.604062 0.500000 0.175578
O O2 0.714176 0.408257 0.368793
O O3 0.467875 0.394185 0.112076
O O4 0.632099 0.338276 0.185107
O O5 0.199885 0.289306 0.184936
O O6 0.267569 0.368565 0.139895
O O7 0.407340 0.246335 0.320810
O O8 0.188716 0.225752 0.052764
O O9 0.873231 0.500000 0.583560
O O10 0.850585 0.650341 0.604207
O O11 0.955466 0.622291 0.589755
O O12 0.881124 0.705788 0.761046
O O13 0.013936 0.768801 0.795053
O O14 0.061421 0.623608 0.869613
O O15 0.286830 0.367266 0.029229
O O16 0.340923 0.765309 0.417607
O O17 0.216378 0.500000 0.020336
O O18 0.000000 0.347125 0.500000
#
# Coordination Sequence:
#
# PCOD9180916 Si02
#       8
#     8   8   8   8   8   8   8   8
#     4   9  19  34  52  78 108 135 169 215 262 306
#     4  10  20  37  56  77 103 139 176 208 256 312
#     4  10  19  32  51  77 109 139 172 217 263 302
#     4  10  20  34  53  78 103 137 178 214 253 307
#     4  10  20  34  54  76 105 137 171 212 254 312
#     4   9  20  36  56  77 103 137 177 217 253 305
#     4  11  22  35  53  78 107 135 170 217 261 305
#     4   9  18  34  57  80 102 134 175 215 258 313
#
# _framework density 18.416091999999999
#
# number of rings (size 3 to 8) (size 9 to 14) (size 15 to 20)
#    0.000    2.250    0.000    3.750    0.000   10.250 
#    0.000    6.250    0.000    4.125    0.000    0.000 
#    0.000    0.000    0.000    0.000    0.000    0.000 
#
# Total GULP energy -178575.379082 kJ/mol
# GULP energy per Si atom -5580.480596 kJ/mol
# Density = 1.837418 g / cm^3
# Si number density = 18.416092 Si / 1000 Ang^3
#
#
#
# Elastic Constant Matrix: (Units=GPa)
#
#
# Indices 1 2 3 4 5 6 
#
# 1 111.6516 36.1661 18.5066 -0.0001 10.9384 -0.0001
# 2 36.1661 70.4906 8.4402 -0.0002 -0.9976 -0.0002
# 3 18.5066 8.4402 26.4709 0.0000 7.1972 -0.0002
# 4 -0.0001 -0.0002 0.0000 14.1247 0.0000 1.6568
# 5 10.9384 -0.9976 7.1972 0.0000 24.0359 -0.0001
# 6 -0.0001 -0.0002 -0.0002 1.6568 -0.0001 9.6972
#
#
#
# Elastic Compliance Matrix: (Units=1/GPa)
#
#
# Indices 1 2 3 4 5 6 
#
# 1 0.012089 -0.005594 -0.005562 0.000000 -0.004068 0.000000
# 2 -0.005594 0.017445 -0.002766 0.000000 0.004098 0.000000
# 3 -0.005562 -0.002766 0.045604 0.000000 -0.011239 0.000001
# 4 0.000000 0.000000 0.000000 0.072246 0.000000 -0.012344
# 5 -0.004068 0.004098 -0.011239 0.000000 0.046991 0.000000
# 6 0.000000 0.000000 0.000001 -0.012344 0.000000 0.105232
#
#
# Mechanical properties :
#
#
# Convention : Reuss Voigt Hill
#
# Bulk Modulus (GPa) = 21.14407 37.20431 29.17419
# Shear Modulus (GPa) = 14.56811 19.27156 16.91984
#
# Velocity S-wave (km/s) = 2.81562 3.23840 3.03438
# Velocity P-wave (km/s) = 4.69856 5.85055 5.30591
#
# Compressibility (1/GPa) = 0.04729459
#
# Stress axis : x y z
#
# Youngs Moduli (GPa) = 82.72056 57.32138 21.92811
#
# Poissons Ratio (x) = 0.32065 0.12196
# Poissons Ratio (y) = 0.46274 0.06065
# Poissons Ratio (z) = 0.46009 0.15854
#
# Static dielectric constant tensor:
#      x y z
#    x 1.628630 0.000000 -0.003610 
#    y 0.000000 1.624060 0.000000 
#    z -0.003610 0.000000 1.677000 
# 
# From -- ./inp_files/285233.got.cif
#   From: 2010.05.17/outbox.cif.g08.bks.cpg/sg12_143_cif.got.tgz:285233.got - 2010.06.03 13:09:07.
