data_PCOD9180086
_publ_section_title
;
Structure prediction by ZEFSAII (Michael W. Deem and Ramdas Pophale) SiO2 
 PCOD9180086
Probable space group: C 2/M
;
_chemical_formula_sum "Si O2"
_cell_formula_units_Z 50
_cell_length_a 19.899297
_cell_length_b 8.100594
_cell_length_c 13.174417
_cell_angle_alpha 90.000000
_cell_angle_beta 107.639646
_cell_angle_gamma 90.000000
_cell_volume 2023.812831
_symmetry_space_group_name_H-M "C 2/M"
_symmetry_group_IT_number 12
_symmetry_cell_setting 'monoclinic'
loop_
_space_group_symop_operation_xyz
x,y,z
-x,y,-z
-x,-y,-z
x,-y,z
1/2+x,1/2+y,z
1/2-x,1/2+y,-z
1/2-x,1/2-y,-z
1/2+x,1/2-y,z
loop_
_atom_site_type_symbol
_atom_site_label
_atom_site_fract_x
_atom_site_fract_y
_atom_site_fract_z
Si Si1 0.345027 0.685710 0.053048
Si Si2 0.432765 0.815417 0.255443
Si Si3 0.071237 0.691748 0.088733
Si Si4 0.575268 0.187481 0.449807
Si Si5 0.000000 0.000000 0.500000
Si Si6 0.839620 0.806007 0.689134
Si Si7 0.782349 0.306842 0.224845
O O1 0.331527 0.500000 0.015221
O O2 0.415969 0.693189 0.156447
O O3 0.366211 0.790698 0.965364
O O4 0.212113 0.757741 0.888703
O O5 0.506071 0.807532 0.344086
O O6 0.364023 0.792015 0.295241
O O7 0.424403 0.000000 0.207550
O O8 0.061211 0.500000 0.111562
O O9 0.096617 0.786073 0.200289
O O10 0.000000 0.749477 0.000000
O O11 0.558890 0.352445 0.505082
O O12 0.641020 0.213004 0.405007
O O13 0.576578 0.000000 0.494815
O O14 0.772331 0.735786 0.720058
O O15 0.830278 0.000000 0.662578
O O16 0.765470 0.500000 0.211642
#
# Coordination Sequence:
#
# PCOD9180086 Si02
#       7
#     8   8   8   8   2   8   8
#     4  10  19  31  53  83 116 159 209 255 288 348
#     4   8  17  36  59  85 116 158 204 240 292 358
#     4  11  23  36  51  76 121 169 211 256 301 347
#     4  11  23  41  68  96 123 158 196 248 310 374
#     4  12  26  44  68  98 126 152 194 258 304 386
#     4  11  22  38  61  90 121 159 201 256 309 357
#     4   8  18  36  57  83 117 163 203 246 298 351
#
# _framework density 24.705842000000001
#
# number of rings (size 3 to 8) (size 9 to 14) (size 15 to 20)
#    0.960    1.120    0.800    3.120    1.120    7.040 
#    0.000    0.000    0.000    0.960    0.000    0.000 
#    0.000    0.000    0.000    0.000    0.000    0.000 
#
# Total GULP energy -139244.576373 kJ/mol
# GULP energy per Si atom -5569.783055 kJ/mol
# Density = 2.464961 g / cm^3
# Si number density = 24.705842 Si / 1000 Ang^3
#
#
#
# Elastic Constant Matrix: (Units=GPa)
#
#
# Indices 1 2 3 4 5 6 
#
# 1 128.0637 23.9979 21.0738 0.0000 -39.3266 0.0000
# 2 23.9979 110.1086 41.6292 0.0000 -17.2695 0.0000
# 3 21.0738 41.6292 37.8016 0.0000 -18.4249 0.0000
# 4 0.0000 0.0000 0.0000 18.7630 0.0000 -16.8265
# 5 -39.3266 -17.2695 -18.4249 0.0000 43.1342 0.0000
# 6 0.0000 0.0000 0.0000 -16.8265 0.0000 5.0513
#
#
#
# Elastic Compliance Matrix: (Units=1/GPa)
#
#
# Indices 1 2 3 4 5 6 
#
# 1 0.010938 -0.000574 -0.000905 0.000000 0.009356 0.000000
# 2 -0.000574 0.015656 -0.017834 0.000000 -0.001873 0.000000
# 3 -0.000905 -0.017834 0.053948 0.000000 0.015078 0.000000
# 4 0.000000 0.000000 0.000000 -0.026819 0.000000 -0.089335
# 5 0.009356 -0.001873 0.015078 0.000000 0.037404 0.000000
# 6 0.000000 0.000000 0.000000 -0.089335 0.000000 -0.099617
#
#
# Mechanical properties :
#
#
# Convention : Reuss Voigt Hill
#
# Bulk Modulus (GPa) = 23.85788 49.93064 36.89426
# Shear Modulus (GPa) = 113.35347 26.00792 69.68069
#
# Velocity S-wave (km/s) = 6.78092 3.24806 5.31652
# Velocity P-wave (km/s) = 8.42529 5.85837 7.25624
#
# Compressibility (1/GPa) = 0.04191487
#
# Stress axis : x y z
#
# Youngs Moduli (GPa) = 91.42145 63.87376 18.53646
#
# Poissons Ratio (x) = 0.03669 0.01678
# Poissons Ratio (y) = 0.05251 0.33058
# Poissons Ratio (z) = 0.08275 1.13913
#
# Static dielectric constant tensor:
#      x y z
#    x 2.071910 0.000000 0.022270 
#    y 0.000000 1.870110 0.000000 
#    z 0.022270 0.000000 2.011480 
# 
# From -- ./inp_files/230292.got.cif
#   From: 2010.05.17/outbox.cif.g08.bks.cpg/sg12_116_cif.got.tgz:230292.got - 2010.06.03 13:09:07.
