data_PCOD9180111
_publ_section_title
;
Structure prediction by ZEFSAII (Michael W. Deem and Ramdas Pophale) SiO2 
 PCOD9180111
Probable space group: C 2/M
;
_chemical_formula_sum "Si O2"
_cell_formula_units_Z 56
_cell_length_a 26.748072
_cell_length_b 7.702026
_cell_length_c 12.253910
_cell_angle_alpha 90.000000
_cell_angle_beta 109.969968
_cell_angle_gamma 90.000000
_cell_volume 2372.688650
_symmetry_space_group_name_H-M "C 2/M"
_symmetry_group_IT_number 12
_symmetry_cell_setting 'monoclinic'
loop_
_space_group_symop_operation_xyz
x,y,z
-x,y,-z
-x,-y,-z
x,-y,z
1/2+x,1/2+y,z
1/2-x,1/2+y,-z
1/2-x,1/2-y,-z
1/2+x,1/2-y,z
loop_
_atom_site_type_symbol
_atom_site_label
_atom_site_fract_x
_atom_site_fract_y
_atom_site_fract_z
Si Si1 0.976863 0.500000 0.611303
Si Si2 0.438087 0.690784 0.482687
Si Si3 0.786827 0.792799 0.628503
Si Si4 0.601164 0.705271 0.219585
Si Si5 0.484710 0.000000 0.856999
Si Si6 0.381189 0.699494 0.226693
Si Si7 0.239502 0.712048 0.825198
Si Si8 0.850126 0.792899 0.985336
O O1 0.940465 0.328318 0.580478
O O2 0.010345 0.500000 0.749340
O O3 0.000000 0.500000 0.500000
O O4 0.500000 0.664610 0.500000
O O5 0.415054 0.500000 0.491742
O O6 0.408987 0.770419 0.355191
O O7 0.750000 0.750000 0.500000
O O8 0.847908 0.732527 0.671538
O O9 0.757523 0.735778 0.716972
O O10 0.791384 0.000000 0.641552
O O11 0.589791 0.500000 0.230585
O O12 0.550348 0.826214 0.180461
O O13 0.624338 0.724106 0.113387
O O14 0.500000 0.000000 0.000000
O O15 0.401005 0.500000 0.239468
O O16 0.317745 0.709083 0.195024
O O17 0.386350 0.778500 0.109899
O O18 0.235618 0.500000 0.827898
O O19 0.289473 0.772822 0.935812
O O20 0.845991 0.000000 0.002024
#
# Coordination Sequence:
#
# PCOD9180111 Si02
#       8
#     4   8   8   8   4   8   8   8
#     4  10  24  46  68  92 130 164 198 266 332 378
#     4   9  20  39  61  87 121 162 207 254 314 383
#     4   9  19  35  57  82 115 165 211 256 324 392
#     4   9  21  43  64  90 130 169 214 272 326 383
#     4  12  28  46  70 104 130 166 230 278 320 398
#     4  10  19  31  53  86 118 156 209 256 312 388
#     4   9  18  32  48  76 118 154 196 252 314 382
#     4   8  16  35  58  80 118 165 203 253 315 379
#
# _framework density 23.601918000000001
#
# number of rings (size 3 to 8) (size 9 to 14) (size 15 to 20)
#    0.000    2.714    0.000    2.143    2.000    4.857 
#    5.143    4.286    0.000    0.000    0.000    0.000 
#    0.000    0.000    0.000    0.000    0.000    0.000 
#
# Total GULP energy -156004.625268 kJ/mol
# GULP energy per Si atom -5571.593760 kJ/mol
# Density = 2.354820 g / cm^3
# Si number density = 23.601918 Si / 1000 Ang^3
#
#
#
# Elastic Constant Matrix: (Units=GPa)
#
#
# Indices 1 2 3 4 5 6 
#
# 1 37.0328 2.9199 30.2915 0.0000 -3.1687 0.0000
# 2 2.9199 76.9435 23.4347 0.0000 6.3578 0.0000
# 3 30.2915 23.4347 211.7714 0.0000 15.5383 0.0000
# 4 0.0000 0.0000 0.0000 25.0259 0.0000 14.4151
# 5 -3.1687 6.3578 15.5383 0.0000 30.1870 0.0000
# 6 0.0000 0.0000 0.0000 14.4151 0.0000 24.5529
#
#
#
# Elastic Compliance Matrix: (Units=1/GPa)
#
#
# Indices 1 2 3 4 5 6 
#
# 1 0.031549 -0.000184 -0.004924 0.000000 0.005885 0.000000
# 2 -0.000184 0.013586 -0.001315 0.000000 -0.002204 0.000000
# 3 -0.004924 -0.001315 0.005809 0.000000 -0.003230 0.000000
# 4 0.000000 0.000000 0.000000 0.060377 0.000000 -0.035447
# 5 0.005885 -0.002204 -0.003230 0.000000 0.035871 0.000000
# 6 0.000000 0.000000 0.000000 -0.035447 0.000000 0.061540
#
#
# Mechanical properties :
#
#
# Convention : Reuss Voigt Hill
#
# Bulk Modulus (GPa) = 26.24856 48.78219 37.51538
# Shear Modulus (GPa) = 21.34219 33.89328 27.61773
#
# Velocity S-wave (km/s) = 3.01035 3.79362 3.42445
# Velocity P-wave (km/s) = 4.81959 6.31683 5.61831
#
# Compressibility (1/GPa) = 0.03809733
#
# Stress axis : x y z
#
# Youngs Moduli (GPa) = 31.69680 73.60375 172.14725
#
# Poissons Ratio (x) = 0.01352 0.84768
# Poissons Ratio (y) = 0.00582 0.22646
# Poissons Ratio (z) = 0.15608 0.09682
#
# Static dielectric constant tensor:
#      x y z
#    x 1.918240 0.000000 -0.049420 
#    y 0.000000 1.974010 0.000000 
#    z -0.049420 0.000000 2.061570 
# 
# From -- ./inp_files/187786.got.cif
#   From: 2010.05.17/outbox.cif.g08.bks.cpg/sg12_94_cif.got.tgz:187786.got - 2010.06.03 13:09:07.
