data_PCOD9180915
_publ_section_title
;
Structure prediction by ZEFSAII (Michael W. Deem and Ramdas Pophale) SiO2 
 PCOD9180915
Probable space group: C 2/M
;
_chemical_formula_sum "Si O2"
_cell_formula_units_Z 64
_cell_length_a 33.611448
_cell_length_b 7.463630
_cell_length_c 25.495858
_cell_angle_alpha 90.000000
_cell_angle_beta 153.680640
_cell_angle_gamma 90.000000
_cell_volume 2835.810855
_symmetry_space_group_name_H-M "C 2/M"
_symmetry_group_IT_number 12
_symmetry_cell_setting 'monoclinic'
loop_
_space_group_symop_operation_xyz
x,y,z
-x,y,-z
-x,-y,-z
x,-y,z
1/2+x,1/2+y,z
1/2-x,1/2+y,-z
1/2-x,1/2-y,-z
1/2+x,1/2-y,z
loop_
_atom_site_type_symbol
_atom_site_label
_atom_site_fract_x
_atom_site_fract_y
_atom_site_fract_z
Si Si1 0.229161 0.287727 0.414735
Si Si2 0.069387 0.216841 0.037698
Si Si3 0.079161 0.719743 0.758299
Si Si4 0.378140 0.208725 0.505624
Si Si5 0.531005 0.207164 0.186391
Si Si6 0.196528 0.709240 0.801160
Si Si7 0.122755 0.282515 0.923638
Si Si8 0.274457 0.779998 0.281619
O O1 0.229495 0.500000 0.405853
O O2 0.250000 0.250000 0.500000
O O3 0.305245 0.216882 0.465829
O O4 0.128109 0.214993 0.286799
O O5 0.033282 0.283059 0.939561
O O6 0.068235 0.000000 0.034637
O O7 0.171057 0.273426 0.168281
O O8 0.000000 0.276272 0.000000
O O9 0.082012 0.500000 0.762137
O O10 0.128812 0.783850 0.764600
O O11 0.128521 0.775368 0.870155
O O12 0.975680 0.779868 0.636487
O O13 0.335475 0.283583 0.401736
O O14 0.394256 0.000000 0.513513
O O15 0.472104 0.281975 0.164395
O O16 0.548910 0.000000 0.221415
O O17 0.173724 0.500000 0.768743
O O18 0.196696 0.781891 0.742280
O O19 0.295335 0.722038 0.943369
O O20 0.122783 0.500000 0.925558
O O21 0.274922 0.000000 0.282058
#
# Coordination Sequence:
#
# PCOD9180915 Si02
#       8
#     8   8   8   8   8   8   8   8
#     4  11  23  39  58  83 113 147 187 230 274 329
#     4  10  19  32  51  77 108 140 177 224 274 324
#     4   9  19  34  56  81 108 144 186 232 282 330
#     4  10  20  38  59  80 111 151 187 230 280 329
#     4  10  21  35  53  77 107 142 180 220 269 330
#     4  10  19  34  55  82 111 142 184 233 280 332
#     4  10  19  34  53  78 109 142 180 226 281 337
#     4   9  18  32  53  81 112 143 184 232 278 328
#
# _framework density 22.568501000000001
#
# number of rings (size 3 to 8) (size 9 to 14) (size 15 to 20)
#    0.000    2.125    1.250    2.250    0.000    4.750 
#    0.000    6.250    0.000    0.000    0.000    1.750 
#    0.000    0.000    0.000    0.000    0.000    0.000 
#
# Total GULP energy -178800.794074 kJ/mol
# GULP energy per Si atom -5587.524815 kJ/mol
# Density = 2.251713 g / cm^3
# Si number density = 22.568501 Si / 1000 Ang^3
#
#
#
# Elastic Constant Matrix: (Units=GPa)
#
#
# Indices 1 2 3 4 5 6 
#
# 1 157.3660 -12.4648 31.7905 0.0000 -5.1805 0.0000
# 2 -12.4648 62.2354 -16.3054 0.0000 1.6415 0.0001
# 3 31.7905 -16.3054 81.0154 0.0000 -6.8467 0.0000
# 4 0.0000 0.0000 0.0000 5.3149 0.0000 -12.0229
# 5 -5.1805 1.6415 -6.8467 0.0000 42.1949 0.0000
# 6 0.0000 0.0001 0.0000 -12.0229 0.0000 -2.2131
#
#
#
# Elastic Compliance Matrix: (Units=1/GPa)
#
#
# Indices 1 2 3 4 5 6 
#
# 1 0.006939 0.000712 -0.002545 0.000000 0.000411 0.000000
# 2 0.000712 0.017036 0.003144 0.000000 -0.000065 0.000000
# 3 -0.002545 0.003144 0.014132 0.000000 0.001858 0.000000
# 4 0.000000 0.000000 0.000000 0.014158 0.000000 -0.076916
# 5 0.000411 -0.000065 0.001858 0.000000 0.024054 0.000000
# 6 0.000000 0.000000 0.000000 -0.076916 0.000000 -0.034001
#
#
# Mechanical properties :
#
#
# Convention : Reuss Voigt Hill
#
# Bulk Modulus (GPa) = 24.55259 34.07303 29.31281
# Shear Modulus (GPa) = 93.86050 28.89911 61.37980
#
# Velocity S-wave (km/s) = 6.45596 3.58230 5.22074
# Velocity P-wave (km/s) = 8.15324 5.67810 7.02553
#
# Compressibility (1/GPa) = 0.04072890
#
# Stress axis : x y z
#
# Youngs Moduli (GPa) = 144.12094 58.69909 70.76330
#
# Poissons Ratio (x) = -0.04180 0.18007
# Poissons Ratio (y) = -0.10264 -0.22246
# Poissons Ratio (z) = 0.36673 -0.18454
#
# Static dielectric constant tensor:
#      x y z
#    x 1.820140 0.000000 0.014650 
#    y 0.000000 1.867250 0.000000 
#    z 0.014650 0.000000 1.803350 
# 
# From -- ./inp_files/243836.got.cif
#   From: 2010.05.17/outbox.cif.g08.bks.cpg/sg12_122_cif.got.tgz:243836.got - 2010.06.03 13:09:07.
