data_PCOD9180833
_publ_section_title
;
Structure prediction by ZEFSAII (Michael W. Deem and Ramdas Pophale) SiO2 
 PCOD9180833
Probable space group: C 2/M
;
_chemical_formula_sum "Si O2"
_cell_formula_units_Z 50
_cell_length_a 31.487053
_cell_length_b 7.696667
_cell_length_c 26.412222
_cell_angle_alpha 90.000000
_cell_angle_beta 163.468335
_cell_angle_gamma 90.000000
_cell_volume 1821.339544
_symmetry_space_group_name_H-M "C 2/M"
_symmetry_group_IT_number 12
_symmetry_cell_setting 'monoclinic'
loop_
_space_group_symop_operation_xyz
x,y,z
-x,y,-z
-x,-y,-z
x,-y,z
1/2+x,1/2+y,z
1/2-x,1/2+y,-z
1/2-x,1/2-y,-z
1/2+x,1/2-y,z
loop_
_atom_site_type_symbol
_atom_site_label
_atom_site_fract_x
_atom_site_fract_y
_atom_site_fract_z
Si Si1 0.197711 0.202783 0.283942
Si Si2 0.979292 0.704305 0.243203
Si Si3 0.882466 0.206454 0.699794
Si Si4 0.500000 0.000000 0.000000
Si Si5 0.390247 0.698028 0.416417
Si Si6 0.695338 0.300449 0.110423
Si Si7 0.819339 0.799132 0.153567
O O1 0.088142 0.345574 0.134558
O O2 0.341289 0.210853 0.411441
O O3 0.223991 0.245679 0.373729
O O4 0.144811 0.000000 0.222529
O O5 0.966080 0.500000 0.237688
O O6 0.105222 0.721907 0.343525
O O7 0.956785 0.786085 0.272572
O O8 0.828503 0.774972 0.043101
O O9 0.881030 0.000000 0.691100
O O10 0.042049 0.255402 0.908528
O O11 0.500000 0.779124 0.500000
O O12 0.439050 0.500000 0.483254
O O13 0.240524 0.689895 0.210433
O O14 0.682000 0.500000 0.111157
O O15 0.820585 0.286499 0.209716
O O16 0.787699 0.000000 0.127015
#
# Coordination Sequence:
#
# PCOD9180833 Si02
#       7
#     8   8   8   2   8   8   8
#     4  11  23  38  57  83 112 148 188 230 283 338
#     4   9  16  25  43  68 100 140 174 209 259 327
#     4   9  19  32  49  77 110 139 175 218 273 334
#     4  12  22  36  58  82 116 148 174 230 280 338
#     4  11  24  41  58  78 106 146 194 240 285 330
#     4  10  19  32  51  75 105 139 179 226 275 333
#     4   9  16  27  42  66 101 137 175 214 263 320
#
# _framework density 27.452323
#
# number of rings (size 3 to 8) (size 9 to 14) (size 15 to 20)
#    0.000    2.080    0.800    3.120    1.120    7.040 
#    0.000    0.000    0.000    0.000    0.000    1.120 
#    0.000    0.000    0.000    0.000    0.000    0.000 
#
# Total GULP energy -139554.665558 kJ/mol
# GULP energy per Si atom -5582.186622 kJ/mol
# Density = 2.738984 g / cm^3
# Si number density = 27.452323 Si / 1000 Ang^3
#
#
#
# Elastic Constant Matrix: (Units=GPa)
#
#
# Indices 1 2 3 4 5 6 
#
# 1 222.6017 38.6364 39.7916 -0.0006 19.4225 -0.0065
# 2 38.6364 122.7145 2.1730 -0.0010 2.2931 -0.0157
# 3 39.7916 2.1730 81.9819 -0.0019 46.9211 -0.0084
# 4 -0.0006 -0.0010 -0.0019 5.6592 -0.0013 106.2214
# 5 19.4225 2.2931 46.9211 -0.0013 56.3443 -0.0073
# 6 -0.0065 -0.0157 -0.0084 106.2214 -0.0073 -830.9720
#
#
#
# Elastic Compliance Matrix: (Units=1/GPa)
#
#
# Indices 1 2 3 4 5 6 
#
# 1 0.005227 -0.001607 -0.002867 0.000000 0.000651 0.000000
# 2 -0.001607 0.008649 0.000831 0.000001 -0.000490 0.000000
# 3 -0.002867 0.000831 0.024879 0.000001 -0.019763 0.000000
# 4 0.000000 0.000001 0.000001 0.051982 0.000001 0.006645
# 5 0.000651 -0.000490 -0.019763 0.000001 0.034001 0.000000
# 6 0.000000 0.000000 0.000000 0.006645 0.000000 -0.000354
#
#
# Mechanical properties :
#
#
# Convention : Reuss Voigt Hill
#
# Bulk Modulus (GPa) = 31.77685 65.38891 48.58288
# Shear Modulus (GPa) = 35.17158 -130.68054 -47.75448
#
# Velocity S-wave (km/s) = 3.58325 -6.90696 -4.17531
# Velocity P-wave (km/s) = 5.35910 6.30375 2.34705
#
# Compressibility (1/GPa) = 0.03146945
#
# Stress axis : x y z
#
# Youngs Moduli (GPa) = 191.31555 115.61463 40.19517
#
# Poissons Ratio (x) = 0.18580 0.11525
# Poissons Ratio (y) = 0.30746 -0.03342
# Poissons Ratio (z) = 0.54853 -0.09613
#
# Static dielectric constant tensor:
#      x y z
#    x 2.110580 0.000000 0.019830 
#    y 0.000000 1.971840 0.000000 
#    z 0.019830 0.000000 2.392290 
# 
# From -- ./inp_files/384842.got.cif
#   From: 2010.05.17/outbox.cif.g08.bks.cpg/sg12_193_cif.got.tgz:384842.got - 2010.06.03 13:09:07.
