data_PCOD9180795
_publ_section_title
;
Structure prediction by ZEFSAII (Michael W. Deem and Ramdas Pophale) SiO2 
 PCOD9180795
Probable space group: C 2/M
;
_chemical_formula_sum "Si O2"
_cell_formula_units_Z 64
_cell_length_a 20.126396
_cell_length_b 7.412728
_cell_length_c 19.439149
_cell_angle_alpha 90.000000
_cell_angle_beta 90.864448
_cell_angle_gamma 90.000000
_cell_volume 2899.825705
_symmetry_space_group_name_H-M "C 2/M"
_symmetry_group_IT_number 12
_symmetry_cell_setting 'monoclinic'
loop_
_space_group_symop_operation_xyz
x,y,z
-x,y,-z
-x,-y,-z
x,-y,z
1/2+x,1/2+y,z
1/2-x,1/2+y,-z
1/2-x,1/2-y,-z
1/2+x,1/2-y,z
loop_
_atom_site_type_symbol
_atom_site_label
_atom_site_fract_x
_atom_site_fract_y
_atom_site_fract_z
Si Si1 0.221577 0.713559 0.924380
Si Si2 0.426848 0.719535 0.417492
Si Si3 0.921410 0.220088 0.574007
Si Si4 0.651305 0.279582 0.154895
Si Si5 0.600573 0.295045 0.839074
Si Si6 0.170945 0.212850 0.305957
Si Si7 0.172757 0.217972 0.703404
Si Si8 0.520296 0.721035 0.076673
O O1 0.213346 0.500000 0.916375
O O2 0.277303 0.778965 0.871936
O O3 0.151524 0.797908 0.903810
O O4 0.250000 0.750000 0.000000
O O5 0.426040 0.500000 0.416774
O O6 0.409760 0.777178 0.494992
O O7 0.503292 0.772658 0.404571
O O8 0.374297 0.779164 0.359775
O O9 0.866939 0.284664 0.627695
O O10 0.920418 0.000000 0.572645
O O11 0.651813 0.500000 0.154749
O O12 0.643172 0.216774 0.232900
O O13 0.593136 0.223871 0.102566
O O14 0.583944 0.500000 0.818248
O O15 0.640327 0.216136 0.774754
O O16 0.533031 0.214917 0.867584
O O17 0.250519 0.231877 0.306061
O O18 0.156819 0.000000 0.305408
O O19 0.172402 0.000000 0.705077
O O20 0.518468 0.500000 0.076175
O O21 0.500000 0.779656 0.000000
#
# Coordination Sequence:
#
# PCOD9180795 Si02
#       8
#     8   8   8   8   8   8   8   8
#     4  11  21  35  55  76 101 134 168 207 250 299
#     4   8  15  29  48  76 106 133 166 212 259 295
#     4   8  15  28  50  76 103 132 170 214 254 295
#     4   9  18  31  49  74 100 127 165 212 252 287
#     4  10  20  33  51  76 102 131 166 207 256 306
#     4  10  19  32  51  75 101 133 173 211 249 297
#     4  10  20  32  49  74 106 136 166 205 253 306
#     4   9  17  30  49  72  96 121 160 212 255 294
#
# _framework density 22.070291999999998
#
# number of rings (size 3 to 8) (size 9 to 14) (size 15 to 20)
#    0.000    2.625    1.250    1.875    1.750    2.500 
#    0.000    0.000    0.000    5.625    0.000    1.750 
#    0.000    0.000    0.000    0.000    0.000    0.000 
#
# Total GULP energy -178703.689817 kJ/mol
# GULP energy per Si atom -5584.490307 kJ/mol
# Density = 2.202006 g / cm^3
# Si number density = 22.070292 Si / 1000 Ang^3
#
#
#
# Elastic Constant Matrix: (Units=GPa)
#
#
# Indices 1 2 3 4 5 6 
#
# 1 62.8603 -7.7003 19.9808 0.0000 0.0652 0.0000
# 2 -7.7003 74.3316 -2.5929 0.0000 -4.6658 0.0000
# 3 19.9808 -2.5929 101.6269 0.0000 -0.5584 0.0000
# 4 0.0000 0.0000 0.0000 -0.0462 0.0000 0.4008
# 5 0.0652 -4.6658 -0.5584 0.0000 47.0639 0.0000
# 6 0.0000 0.0000 0.0000 0.4008 0.0000 10.9879
#
#
#
# Elastic Compliance Matrix: (Units=1/GPa)
#
#
# Indices 1 2 3 4 5 6 
#
# 1 0.017172 0.001669 -0.003333 0.000000 0.000102 0.000000
# 2 0.001669 0.013712 0.000029 0.000000 0.001357 0.000000
# 3 -0.003333 0.000029 0.010497 0.000000 0.000132 0.000000
# 4 0.000000 0.000000 0.000000-16.441296 0.000000 0.599734
# 5 0.000102 0.001357 0.000132 0.000000 0.021384 0.000000
# 6 0.000000 0.000000 0.000000 0.599734 0.000000 0.069132
#
#
# Mechanical properties :
#
#
# Convention : Reuss Voigt Hill
#
# Bulk Modulus (GPa) = 26.23883 28.68825 27.46354
# Shear Modulus (GPa) = -0.30687 26.87654 13.28483
#
# Velocity S-wave (km/s) = -0.37329 3.49344 2.45609
# Velocity P-wave (km/s) = 3.42473 5.41285 4.52922
#
# Compressibility (1/GPa) = 0.03811145
#
# Stress axis : x y z
#
# Youngs Moduli (GPa) = 58.23405 72.92696 95.26814
#
# Poissons Ratio (x) = -0.12172 0.31753
# Poissons Ratio (y) = -0.09720 -0.00278
# Poissons Ratio (z) = 0.19410 -0.00213
#
# Static dielectric constant tensor:
#      x y z
#    x 1.754370 0.000000 -0.016070 
#    y 0.000000 1.876360 0.000000 
#    z -0.016070 0.000000 1.801370 
# 
# From -- ./inp_files/314205.got.cif
#   From: 2010.05.17/outbox.cif.g08.bks.cpg/sg12_158_cif.got.tgz:314205.got - 2010.06.03 13:09:07.
