data_PCOD9180443
_publ_section_title
;
Structure prediction by ZEFSAII (Michael W. Deem and Ramdas Pophale) SiO2 
 PCOD9180443
Probable space group: C 2/M
;
_chemical_formula_sum "Si O2"
_cell_formula_units_Z 64
_cell_length_a 18.804451
_cell_length_b 22.454336
_cell_length_c 8.888636
_cell_angle_alpha 90.000000
_cell_angle_beta 87.106287
_cell_angle_gamma 90.000000
_cell_volume 3748.365019
_symmetry_space_group_name_H-M "C 2/M"
_symmetry_group_IT_number 12
_symmetry_cell_setting 'monoclinic'
loop_
_space_group_symop_operation_xyz
x,y,z
-x,y,-z
-x,-y,-z
x,-y,z
1/2+x,1/2+y,z
1/2-x,1/2+y,-z
1/2-x,1/2-y,-z
1/2+x,1/2-y,z
loop_
_atom_site_type_symbol
_atom_site_label
_atom_site_fract_x
_atom_site_fract_y
_atom_site_fract_z
Si Si1 0.421613 0.250020 0.570292
Si Si2 0.289239 0.932890 0.565252
Si Si3 0.293535 0.688481 0.456854
Si Si4 0.075124 0.616576 0.930379
Si Si5 0.208375 0.821157 0.893884
Si Si6 0.714670 0.933281 0.073203
Si Si7 0.575358 0.877805 0.572146
Si Si8 0.129838 0.729948 0.092283
O O1 0.500000 0.263548 0.500000
O O2 0.366235 0.301684 0.538018
O O3 0.401204 0.188000 0.488082
O O4 0.412647 0.237654 0.748440
O O5 0.245481 0.874964 0.510860
O O6 0.298569 0.927078 0.745216
O O7 0.366786 0.925033 0.486810
O O8 0.261017 0.000000 0.538507
O O9 0.250000 0.750000 0.500000
O O10 0.311114 0.685088 0.278115
O O11 0.071174 0.620085 0.751706
O O12 0.143325 0.581126 0.987480
O O13 0.088745 0.682345 0.995692
O O14 0.000000 0.592973 0.000000
O O15 0.222996 0.886093 0.959497
O O16 0.289340 0.794204 0.887348
O O17 0.148983 0.788590 0.997800
O O18 0.736954 0.000000 0.038747
O O19 0.500000 0.888533 0.500000
#
# Coordination Sequence:
#
# PCOD9180443 Si02
#       8
#     8   8   8   8   8   8   8   8
#     4  11  21  34  53  80 112 145 181 227 282 329
#     4  10  21  36  55  79 107 142 185 231 274 328
#     4  11  18  33  58  80 106 142 185 229 274 327
#     4  11  21  32  49  72 102 141 180 220 263 318
#     4   9  18  31  52  80 102 135 174 224 276 316
#     4   9  19  36  53  72 102 135 175 222 268 317
#     4  11  21  34  52  75 110 147 184 223 269 329
#     4  10  19  32  49  76 107 133 177 227 278 317
#
# _framework density 17.074110999999998
#
# number of rings (size 3 to 8) (size 9 to 14) (size 15 to 20)
#    0.000    1.750    2.500    4.500    0.000    2.000 
#    0.000    0.000    0.000    0.375    0.000    0.000 
#    0.000    4.500    0.000    0.000    0.000    0.000 
#
# Total GULP energy -178324.894697 kJ/mol
# GULP energy per Si atom -5572.652959 kJ/mol
# Density = 1.703525 g / cm^3
# Si number density = 17.074111 Si / 1000 Ang^3
#
#
#
# Elastic Constant Matrix: (Units=GPa)
#
#
# Indices 1 2 3 4 5 6 
#
# 1 46.2491 27.5234 12.8516 0.0000 -1.9754 0.0000
# 2 27.5234 107.4101 21.6729 0.0000 1.9005 0.0000
# 3 12.8516 21.6729 52.7948 0.0000 -2.1838 0.0000
# 4 0.0000 0.0000 0.0000 18.5781 0.0000 0.5702
# 5 -1.9754 1.9005 -2.1838 0.0000 25.1339 0.0000
# 6 0.0000 0.0000 0.0000 0.5702 0.0000 13.3928
#
#
#
# Elastic Compliance Matrix: (Units=1/GPa)
#
#
# Indices 1 2 3 4 5 6 
#
# 1 0.026369 -0.006017 -0.003858 0.000000 0.002192 0.000000
# 2 -0.006017 0.011556 -0.003347 0.000000 -0.001638 0.000000
# 3 -0.003858 -0.003347 0.021329 0.000000 0.001803 0.000000
# 4 0.000000 0.000000 0.000000 0.053897 0.000000 -0.002295
# 5 0.002192 -0.001638 0.001803 0.000000 0.040240 0.000000
# 6 0.000000 0.000000 0.000000 -0.002295 0.000000 0.074765
#
#
# Mechanical properties :
#
#
# Convention : Reuss Voigt Hill
#
# Bulk Modulus (GPa) = 30.47894 36.72775 33.60334
# Shear Modulus (GPa) = 18.82979 21.04802 19.93890
#
# Velocity S-wave (km/s) = 3.32449 3.51486 3.42100
# Velocity P-wave (km/s) = 5.71192 6.16683 5.94373
#
# Compressibility (1/GPa) = 0.03280954
#
# Stress axis : x y z
#
# Youngs Moduli (GPa) = 37.92386 86.53284 46.88464
#
# Poissons Ratio (x) = 0.52068 0.18088
# Poissons Ratio (y) = 0.22819 0.15692
# Poissons Ratio (z) = 0.14631 0.28963
#
# Static dielectric constant tensor:
#      x y z
#    x 1.579100 0.000000 0.001170 
#    y 0.000000 1.626070 0.000000 
#    z 0.001170 0.000000 1.601020 
# 
# From -- ./inp_files/89170.got.cif
#   From: 2010.05.17/outbox.cif.g08.bks.cpg/sg12_45_cif.got.tgz:89170.got - 2010.06.03 13:09:07.
