data_PCOD9180437
_publ_section_title
;
Structure prediction by ZEFSAII (Michael W. Deem and Ramdas Pophale) SiO2 
 PCOD9180437
Probable space group: C 2/M
;
_chemical_formula_sum "Si O2"
_cell_formula_units_Z 52
_cell_length_a 21.451089
_cell_length_b 10.471490
_cell_length_c 19.681807
_cell_angle_alpha 90.000000
_cell_angle_beta 40.561427
_cell_angle_gamma 90.000000
_cell_volume 2874.827419
_symmetry_space_group_name_H-M "C 2/M"
_symmetry_group_IT_number 12
_symmetry_cell_setting 'monoclinic'
loop_
_space_group_symop_operation_xyz
x,y,z
-x,y,-z
-x,-y,-z
x,-y,z
1/2+x,1/2+y,z
1/2-x,1/2+y,-z
1/2-x,1/2-y,-z
1/2+x,1/2-y,z
loop_
_atom_site_type_symbol
_atom_site_label
_atom_site_fract_x
_atom_site_fract_y
_atom_site_fract_z
Si Si1 0.193934 0.358575 0.294950
Si Si2 0.000000 0.243794 0.500000
Si Si3 0.339206 0.147204 0.138818
Si Si4 0.245958 0.359667 0.410541
Si Si5 0.507117 0.147604 0.108587
Si Si6 0.473095 0.353712 0.247370
Si Si7 0.593771 0.354192 0.556637
O O1 0.209078 0.500000 0.253212
O O2 0.253179 0.247249 0.209672
O O3 0.232409 0.359324 0.340538
O O4 0.081931 0.327346 0.395949
O O5 0.950312 0.163793 0.481465
O O6 0.410185 0.170226 0.144477
O O7 0.305798 0.000000 0.171250
O O8 0.406383 0.159225 0.016972
O O9 0.213461 0.500000 0.462358
O O10 0.357885 0.346624 0.332710
O O11 0.180031 0.246071 0.491910
O O12 0.515725 0.248678 0.161914
O O13 0.503931 0.000000 0.134855
O O14 0.502744 0.500000 0.207004
O O15 0.483233 0.330422 0.319637
O O16 0.627196 0.500000 0.537090
#
# Coordination Sequence:
#
# PCOD9180437 Si02
#       7
#     8   4   8   8   8   8   8
#     4  10  19  33  54  77 103 138 174 212 257 303
#     4  10  22  38  52  74 104 134 180 220 258 298
#     4   9  18  32  51  77 109 139 169 207 250 304
#     4   9  18  31  47  72 105 134 165 206 258 313
#     4   9  18  32  50  77 110 141 168 200 253 313
#     4  10  19  32  49  75 106 135 168 212 258 307
#     4  10  21  34  51  72  99 135 177 218 257 301
#
# _framework density 18.088042999999999
#
# number of rings (size 3 to 8) (size 9 to 14) (size 15 to 20)
#    0.000    2.462    1.538    1.846    0.000    5.538 
#    0.000    1.538    0.000    0.923    0.000    0.000 
#    0.000    0.000    0.000    0.000    0.000    0.000 
#
# Total GULP energy -144936.585014 kJ/mol
# GULP energy per Si atom -5574.484039 kJ/mol
# Density = 1.804687 g / cm^3
# Si number density = 18.088043 Si / 1000 Ang^3
#
#
#
# Elastic Constant Matrix: (Units=GPa)
#
#
# Indices 1 2 3 4 5 6 
#
# 1 32.9434 15.9471 8.4731 0.0000 4.8589 0.0000
# 2 15.9471 146.2615 74.7289 0.0000 3.9831 0.0000
# 3 8.4731 74.7289 64.1699 0.0000 -2.2734 0.0000
# 4 0.0000 0.0000 0.0000 33.8738 0.0000 5.3365
# 5 4.8589 3.9831 -2.2734 0.0000 30.2192 0.0000
# 6 0.0000 0.0000 0.0000 5.3365 0.0000 10.0780
#
#
#
# Elastic Compliance Matrix: (Units=1/GPa)
#
#
# Indices 1 2 3 4 5 6 
#
# 1 0.032767 -0.002804 -0.001238 0.000000 -0.004992 0.000000
# 2 -0.002804 0.017548 -0.020185 0.000000 -0.003380 0.000000
# 3 -0.001238 -0.020185 0.039460 0.000000 0.005828 0.000000
# 4 0.000000 0.000000 0.000000 0.032208 0.000000 -0.017055
# 5 -0.004992 -0.003380 0.005828 0.000000 0.034778 0.000000
# 6 0.000000 0.000000 0.000000 -0.017055 0.000000 0.108257
#
#
# Mechanical properties :
#
#
# Convention : Reuss Voigt Hill
#
# Bulk Modulus (GPa) = 24.20071 49.07477 36.63774
# Shear Modulus (GPa) = 15.27905 24.44925 19.86415
#
# Velocity S-wave (km/s) = 2.90953 3.68051 3.31749
# Velocity P-wave (km/s) = 4.96947 6.72692 5.91384
#
# Compressibility (1/GPa) = 0.04132111
#
# Stress axis : x y z
#
# Youngs Moduli (GPa) = 30.51833 56.98728 25.34242
#
# Poissons Ratio (x) = 0.15981 0.03137
# Poissons Ratio (y) = 0.08558 0.51153
# Poissons Ratio (z) = 0.03777 1.15027
#
# Static dielectric constant tensor:
#      x y z
#    x 1.637540 0.000000 0.014060 
#    y 0.000000 1.636100 0.000000 
#    z 0.014060 0.000000 1.607090 
# 
# From -- ./inp_files/237226.got.cif
#   From: 2010.05.17/outbox.cif.g08.bks.cpg/sg12_119_cif.got.tgz:237226.got - 2010.06.03 13:09:07.
