data_PCOD9180386
_publ_section_title
;
Structure prediction by ZEFSAII (Michael W. Deem and Ramdas Pophale) SiO2 
 PCOD9180386
Probable space group: C 2/M
;
_chemical_formula_sum "Si O2"
_cell_formula_units_Z 64
_cell_length_a 14.221395
_cell_length_b 26.165438
_cell_length_c 11.917370
_cell_angle_alpha 90.000000
_cell_angle_beta 74.008437
_cell_angle_gamma 90.000000
_cell_volume 4262.953555
_symmetry_space_group_name_H-M "C 2/M"
_symmetry_group_IT_number 12
_symmetry_cell_setting 'monoclinic'
loop_
_space_group_symop_operation_xyz
x,y,z
-x,y,-z
-x,-y,-z
x,-y,z
1/2+x,1/2+y,z
1/2-x,1/2+y,-z
1/2-x,1/2-y,-z
1/2+x,1/2-y,z
loop_
_atom_site_type_symbol
_atom_site_label
_atom_site_fract_x
_atom_site_fract_y
_atom_site_fract_z
Si Si1 0.388680 0.787059 0.549862
Si Si2 0.496292 0.059163 0.635810
Si Si3 0.121106 0.347807 0.675713
Si Si4 0.920985 0.205727 0.889054
Si Si5 0.167722 0.368402 0.242682
Si Si6 0.142578 0.185867 0.849150
Si Si7 0.771666 0.215234 0.736081
Si Si8 0.952727 0.676962 0.901222
O O1 0.500000 0.769650 0.500000
O O2 0.363883 0.816817 0.444334
O O3 0.380085 0.827704 0.654450
O O4 0.320885 0.740767 0.610422
O O5 0.500000 0.064795 0.500000
O O6 0.579856 0.096110 0.660050
O O7 0.390070 0.079848 0.710703
O O8 0.510216 0.000000 0.660158
O O9 0.215665 0.336111 0.719487
O O10 0.035131 0.323479 0.778559
O O11 0.853527 0.204432 0.802237
O O12 0.923166 0.264751 0.928143
O O13 0.033550 0.188837 0.833381
O O14 0.875477 0.178180 0.012185
O O15 0.283134 0.358167 0.217288
O O16 0.136692 0.352724 0.126531
O O17 0.198599 0.239907 0.806103
O O18 0.000000 0.656177 0.000000
#
# Coordination Sequence:
#
# PCOD9180386 Si02
#       8
#     8   8   8   8   8   8   8   8
#     4  11  17  31  43  67 103 135 163 194 234 292
#     4  10  19  35  58  77  95 120 164 217 252 292
#     4  11  19  32  45  71 100 133 163 199 251 292
#     4  11  18  30  40  70  98 131 182 197 224 281
#     4  10  19  32  49  70  98 130 161 205 256 288
#     4  10  20  28  46  66 102 136 167 211 225 282
#     4  11  21  27  45  66 100 145 167 190 241 295
#     4  11  18  27  46  68  98 132 172 203 228 284
#
# _framework density 15.013066
#
# number of rings (size 3 to 8) (size 9 to 14) (size 15 to 20)
#    0.000    1.375    8.750    0.750    1.750    0.000 
#    0.000    0.000    0.000    6.000    0.000    2.625 
#    0.000    2.500    0.000    0.000    0.000    0.000 
#
# Total GULP energy -178179.355626 kJ/mol
# GULP energy per Si atom -5568.104863 kJ/mol
# Density = 1.497890 g / cm^3
# Si number density = 15.013066 Si / 1000 Ang^3
#
#
#
# Elastic Constant Matrix: (Units=GPa)
#
#
# Indices 1 2 3 4 5 6 
#
# 1 115.7904 35.9971 40.6276 0.0000 -0.9979 0.0000
# 2 35.9971 60.1041 17.6521 0.0000 -3.9241 0.0000
# 3 40.6276 17.6521 64.3218 0.0000 -2.5895 0.0000
# 4 0.0000 0.0000 0.0000 11.7262 0.0000 1.6313
# 5 -0.9979 -3.9241 -2.5895 0.0000 29.1015 0.0000
# 6 0.0000 0.0000 0.0000 1.6313 0.0000 15.4129
#
#
#
# Elastic Compliance Matrix: (Units=1/GPa)
#
#
# Indices 1 2 3 4 5 6 
#
# 1 0.012689 -0.005759 -0.006471 0.000000 -0.000917 0.000000
# 2 -0.005759 0.020828 -0.001980 0.000000 0.002435 0.000000
# 3 -0.006471 -0.001980 0.020231 0.000000 0.001311 0.000000
# 4 0.000000 0.000000 0.000000 0.086554 0.000000 -0.009161
# 5 -0.000917 0.002435 0.001311 0.000000 0.034776 0.000000
# 6 0.000000 0.000000 0.000000 -0.009161 0.000000 0.065850
#
#
# Mechanical properties :
#
#
# Convention : Reuss Voigt Hill
#
# Bulk Modulus (GPa) = 39.48492 47.64110 43.56301
# Shear Modulus (GPa) = 17.99914 20.97742 19.48828
#
# Velocity S-wave (km/s) = 3.46627 3.74207 3.60681
# Velocity P-wave (km/s) = 6.50980 7.10442 6.81360
#
# Compressibility (1/GPa) = 0.02532612
#
# Stress axis : x y z
#
# Youngs Moduli (GPa) = 78.80563 48.01336 49.43006
#
# Poissons Ratio (x) = 0.27652 0.31988
# Poissons Ratio (y) = 0.45385 0.09788
# Poissons Ratio (z) = 0.50999 0.09507
#
# Static dielectric constant tensor:
#      x y z
#    x 1.532770 0.000000 0.025060 
#    y 0.000000 1.474320 0.000000 
#    z 0.025060 0.000000 1.484020 
# 
# From -- ./inp_files/148633.got.cif
#   From: 2010.05.17/outbox.cif.g08.bks.cpg/sg12_75_cif.got.tgz:148633.got - 2010.06.03 13:09:07.
