data_PCOD9180732
_publ_section_title
;
Structure prediction by ZEFSAII (Michael W. Deem and Ramdas Pophale) SiO2 
 PCOD9180732
Probable space group: C 2/M
;
_chemical_formula_sum "Si O2"
_cell_formula_units_Z 56
_cell_length_a 19.467277
_cell_length_b 8.059664
_cell_length_c 26.664619
_cell_angle_alpha 90.000000
_cell_angle_beta 139.614534
_cell_angle_gamma 90.000000
_cell_volume 2710.712181
_symmetry_space_group_name_H-M "C 2/M"
_symmetry_group_IT_number 12
_symmetry_cell_setting 'monoclinic'
loop_
_space_group_symop_operation_xyz
x,y,z
-x,y,-z
-x,-y,-z
x,-y,z
1/2+x,1/2+y,z
1/2-x,1/2+y,-z
1/2-x,1/2-y,-z
1/2+x,1/2-y,z
loop_
_atom_site_type_symbol
_atom_site_label
_atom_site_fract_x
_atom_site_fract_y
_atom_site_fract_z
Si Si1 0.073313 0.299547 0.993882
Si Si2 0.112613 0.702747 0.583544
Si Si3 0.449254 0.801726 0.243501
Si Si4 0.316986 0.201350 0.265632
Si Si5 0.901638 0.304818 0.819221
Si Si6 0.164824 0.191938 0.326109
Si Si7 0.211595 0.308722 0.924548
O O1 0.086664 0.500000 0.001924
O O2 0.007555 0.255075 0.907216
O O3 0.187505 0.216178 0.055690
O O4 0.000000 0.253413 0.000000
O O5 0.113837 0.500000 0.582306
O O6 0.131652 0.747496 0.652189
O O7 0.215646 0.761805 0.609678
O O8 0.000000 0.759441 0.500000
O O9 0.389297 0.741137 0.259808
O O10 0.573839 0.769531 0.309507
O O11 0.388706 0.732694 0.160429
O O12 0.434879 0.000000 0.235328
O O13 0.198926 0.275622 0.200363
O O14 0.307828 0.000000 0.259315
O O15 0.909348 0.500000 0.811312
O O16 0.876061 0.209845 0.754008
O O17 0.171842 0.000000 0.343440
O O18 0.186385 0.500000 0.918138
O O19 0.250000 0.250000 0.000000
#
# Coordination Sequence:
#
# PCOD9180732 Si02
#       7
#     8   8   8   8   8   8   8
#     4  10  21  35  50  71  99 130 166 211 261 304
#     4   8  15  31  55  80 103 128 162 202 243 293
#     4  10  21  36  51  72 104 136 168 210 256 297
#     4   9  18  33  54  77 101 134 171 204 246 300
#     4  10  19  32  51  73  99 131 167 210 256 299
#     4  10  20  33  53  77  99 131 170 203 242 297
#     4  11  23  36  51  71  98 135 175 215 258 300
#
# _framework density 20.658777000000001
#
# number of rings (size 3 to 8) (size 9 to 14) (size 15 to 20)
#    0.000    2.286    0.000    3.857    0.000    6.571 
#    0.000    0.714    0.000   10.714    0.000    0.000 
#    0.000    0.000    0.000    0.000    0.000    0.000 
#
# Total GULP energy -156315.143080 kJ/mol
# GULP energy per Si atom -5582.683681 kJ/mol
# Density = 2.061176 g / cm^3
# Si number density = 20.658777 Si / 1000 Ang^3
#
#
#
# Elastic Constant Matrix: (Units=GPa)
#
#
# Indices 1 2 3 4 5 6 
#
# 1 96.0119 -2.7933 19.6911 0.0000 23.9061 0.0000
# 2 -2.7933 8.8027 3.1644 0.0000 -4.4085 0.0000
# 3 19.6911 3.1644 101.6274 0.0000 26.9477 0.0000
# 4 0.0000 0.0000 0.0000 14.1069 0.0000 5.9700
# 5 23.9061 -4.4085 26.9477 0.0000 26.7720 0.0000
# 6 0.0000 0.0000 0.0000 5.9700 0.0000 28.8639
#
#
#
# Elastic Compliance Matrix: (Units=1/GPa)
#
#
# Indices 1 2 3 4 5 6 
#
# 1 0.013502 -0.002939 0.001092 0.000000 -0.013640 0.000000
# 2 -0.002939 0.137605 -0.014213 0.000000 0.039590 0.000000
# 3 0.001092 -0.014213 0.014937 0.000000 -0.018350 0.000000
# 4 0.000000 0.000000 0.000000 0.077688 0.000000 -0.016068
# 5 -0.013640 0.039590 -0.018350 0.000000 0.074522 0.000000
# 6 0.000000 0.000000 0.000000 -0.016068 0.000000 0.037969
#
#
# Mechanical properties :
#
#
# Convention : Reuss Voigt Hill
#
# Bulk Modulus (GPa) = 7.46690 27.39625 17.43157
# Shear Modulus (GPa) = 11.54779 26.37388 18.96083
#
# Velocity S-wave (km/s) = 2.36684 3.57689 3.03282
# Velocity P-wave (km/s) = 3.33038 5.50899 4.55195
#
# Compressibility (1/GPa) = 0.13392442
#
# Stress axis : x y z
#
# Youngs Moduli (GPa) = 74.06248 7.26717 66.94983
#
# Poissons Ratio (x) = 0.02136 -0.07312
# Poissons Ratio (y) = 0.21768 0.95155
# Poissons Ratio (z) = -0.08089 0.10329
#
# Static dielectric constant tensor:
#      x y z
#    x 1.766380 0.000000 0.002900 
#    y 0.000000 1.726430 0.000000 
#    z 0.002900 0.000000 1.737430 
# 
# From -- ./inp_files/280189.got.cif
#   From: 2010.05.17/outbox.cif.g08.bks.cpg/sg12_141_cif.got.tgz:280189.got - 2010.06.03 13:09:07.
