data_PCOD9180107
_publ_section_title
;
Structure prediction by ZEFSAII (Michael W. Deem and Ramdas Pophale) SiO2 
 PCOD9180107
Probable space group: C 2/M
;
_chemical_formula_sum "Si O2"
_cell_formula_units_Z 50
_cell_length_a 9.885312
_cell_length_b 16.032244
_cell_length_c 14.678719
_cell_angle_alpha 90.000000
_cell_angle_beta 127.555062
_cell_angle_gamma 90.000000
_cell_volume 1844.246355
_symmetry_space_group_name_H-M "C 2/M"
_symmetry_group_IT_number 12
_symmetry_cell_setting 'monoclinic'
loop_
_space_group_symop_operation_xyz
x,y,z
-x,y,-z
-x,-y,-z
x,-y,z
1/2+x,1/2+y,z
1/2-x,1/2+y,-z
1/2-x,1/2-y,-z
1/2+x,1/2-y,z
loop_
_atom_site_type_symbol
_atom_site_label
_atom_site_fract_x
_atom_site_fract_y
_atom_site_fract_z
Si Si1 0.224222 0.407591 0.087081
Si Si2 0.438837 0.101212 0.671202
Si Si3 0.600698 0.628735 0.170041
Si Si4 0.376335 0.600742 0.328410
Si Si5 0.421340 0.796009 0.110165
Si Si6 0.252508 0.600406 0.577045
Si Si7 0.500000 0.500000 0.000000
O O1 0.178896 0.500000 0.093942
O O2 0.415037 0.410990 0.121106
O O3 0.272486 0.362771 0.200236
O O4 0.089889 0.374830 0.959957
O O5 0.250063 0.111816 0.639603
O O6 0.553314 0.165627 0.778251
O O7 0.402680 0.126877 0.551687
O O8 0.479473 0.000000 0.694499
O O9 0.559321 0.725411 0.144691
O O10 0.726420 0.617265 0.306662
O O11 0.630317 0.573740 0.093540
O O12 0.396069 0.500000 0.329807
O O13 0.568559 0.632438 0.393945
O O14 0.250000 0.750000 0.000000
O O15 0.247770 0.500000 0.568274
#
# Coordination Sequence:
#
# PCOD9180107 Si02
#       7
#     8   8   8   8   8   8   2
#     4   9  16  33  54  75 109 147 178 226 300 362
#     4  10  19  31  53  86 114 149 190 228 293 376
#     4  10  20  34  53  79 105 145 201 247 286 330
#     4   8  15  27  50  81 112 141 171 216 287 355
#     4  10  22  35  50  77 113 151 197 247 293 336
#     4   9  16  32  54  79 114 148 184 234 290 359
#     4  12  20  36  60  80 102 150 212 250 270 334
#
# _framework density 27.111346000000001
#
# number of rings (size 3 to 8) (size 9 to 14) (size 15 to 20)
#    0.000    2.560    1.600    1.920    0.000    4.480 
#    0.000    2.400    0.000    0.000    0.000    8.960 
#    0.000    0.000    0.000    0.000    0.640    0.320 
#
# Total GULP energy -139334.388403 kJ/mol
# GULP energy per Si atom -5573.375536 kJ/mol
# Density = 2.704964 g / cm^3
# Si number density = 27.111346 Si / 1000 Ang^3
#
#
#
# Elastic Constant Matrix: (Units=GPa)
#
#
# Indices 1 2 3 4 5 6 
#
# 1 59.0039 9.9869 54.1555 0.0000 9.5242 0.0000
# 2 9.9869 134.2255 78.6233 0.0000 8.4907 0.0000
# 3 54.1555 78.6233 286.8564 0.0000 -2.2359 0.0000
# 4 0.0000 0.0000 0.0000 33.6003 0.0000 4.5681
# 5 9.5242 8.4907 -2.2359 0.0000 49.2880 0.0000
# 6 0.0000 0.0000 0.0000 4.5681 0.0000 19.9268
#
#
#
# Elastic Compliance Matrix: (Units=1/GPa)
#
#
# Indices 1 2 3 4 5 6 
#
# 1 0.021566 0.001301 -0.004464 0.000000 -0.004594 0.000000
# 2 0.001301 0.009088 -0.002752 0.000000 -0.001942 0.000000
# 3 -0.004464 -0.002752 0.005095 0.000000 0.001568 0.000000
# 4 0.000000 0.000000 0.000000 0.030719 0.000000 -0.007042
# 5 -0.004594 -0.001942 0.001568 0.000000 0.021582 0.000000
# 6 0.000000 0.000000 0.000000 -0.007042 0.000000 0.051798
#
#
# Mechanical properties :
#
#
# Convention : Reuss Voigt Hill
#
# Bulk Modulus (GPa) = 41.80576 85.06857 63.43716
# Shear Modulus (GPa) = 31.31819 43.05104 37.18462
#
# Velocity S-wave (km/s) = 3.40247 3.98921 3.70746
# Velocity P-wave (km/s) = 5.55780 7.25700 6.46348
#
# Compressibility (1/GPa) = 0.02392015
#
# Stress axis : x y z
#
# Youngs Moduli (GPa) = 46.36832 110.03582 196.26412
#
# Poissons Ratio (x) = -0.14312 0.87609
# Poissons Ratio (y) = -0.06031 0.54003
# Poissons Ratio (z) = 0.20698 0.30277
#
# Static dielectric constant tensor:
#      x y z
#    x 2.559750 0.000000 -0.042090 
#    y 0.000000 2.164600 0.000000 
#    z -0.042090 0.000000 2.194440 
# 
# From -- ./inp_files/271224.got.cif
#   From: 2010.05.17/outbox.cif.g08.bks.cpg/sg12_136_cif.got.tgz:271224.got - 2010.06.03 13:09:07.
