data_PCOD9180877
_publ_section_title
;
Structure prediction by ZEFSAII (Michael W. Deem and Ramdas Pophale) SiO2 
 PCOD9180877
Probable space group: C 2/M
;
_chemical_formula_sum "Si O2"
_cell_formula_units_Z 56
_cell_length_a 19.905054
_cell_length_b 7.640573
_cell_length_c 25.617069
_cell_angle_alpha 90.000000
_cell_angle_beta 43.829714
_cell_angle_gamma 90.000000
_cell_volume 2698.046384
_symmetry_space_group_name_H-M "C 2/M"
_symmetry_group_IT_number 12
_symmetry_cell_setting 'monoclinic'
loop_
_space_group_symop_operation_xyz
x,y,z
-x,y,-z
-x,-y,-z
x,-y,z
1/2+x,1/2+y,z
1/2-x,1/2+y,-z
1/2-x,1/2-y,-z
1/2+x,1/2-y,z
loop_
_atom_site_type_symbol
_atom_site_label
_atom_site_fract_x
_atom_site_fract_y
_atom_site_fract_z
Si Si1 0.177749 0.789613 0.493080
Si Si2 0.689625 0.714615 0.201389
Si Si3 0.543001 0.286484 0.372331
Si Si4 0.255958 0.691218 0.937496
Si Si5 0.209736 0.213672 0.358425
Si Si6 0.356078 0.211397 0.188026
Si Si7 0.952810 0.796106 0.972161
O O1 0.250000 0.750000 0.500000
O O2 0.212324 0.726465 0.416643
O O3 0.067525 0.725500 0.563567
O O4 0.172201 0.000000 0.492876
O O5 0.691630 0.500000 0.198934
O O6 0.599291 0.766264 0.288079
O O7 0.691442 0.781910 0.141083
O O8 0.786356 0.767263 0.179044
O O9 0.542064 0.500000 0.373567
O O10 0.611329 0.233794 0.382825
O O11 0.300914 0.500000 0.915025
O O12 0.250000 0.750000 0.000000
O O13 0.143886 0.690469 0.983490
O O14 0.300499 0.268030 0.271630
O O15 0.209795 0.000000 0.358308
O O16 0.464249 0.276417 0.117853
O O17 0.358809 0.000000 0.186274
O O18 0.925604 0.000000 0.991577
O O19 0.000000 0.738508 0.000000
#
# Coordination Sequence:
#
# PCOD9180877 Si02
#       7
#     8   8   8   8   8   8   8
#     4  10  19  32  51  76 108 138 166 205 255 310
#     4   8  15  29  52  78 101 129 172 217 256 306
#     4   8  14  28  53  79  97 126 172 216 251 292
#     4  11  22  37  55  76 107 144 181 220 264 316
#     4   8  15  29  53  80 101 126 174 224 252 291
#     4   9  16  31  55  80 102 131 174 222 267 308
#     4  11  22  35  54  80 109 138 176 222 265 315
#
# _framework density 20.755758
#
# number of rings (size 3 to 8) (size 9 to 14) (size 15 to 20)
#    0.000    2.714    1.429    3.000    0.000    2.286 
#    2.571    0.714    0.000    6.000    0.000    0.000 
#    0.000    0.000    0.000    0.000    0.000    0.000 
#
# Total GULP energy -156149.521138 kJ/mol
# GULP energy per Si atom -5576.768612 kJ/mol
# Density = 2.070852 g / cm^3
# Si number density = 20.755758 Si / 1000 Ang^3
#
#
#
# Elastic Constant Matrix: (Units=GPa)
#
#
# Indices 1 2 3 4 5 6 
#
# 1 81.7337 2.2854 64.9716 -0.0008 30.6172 -0.0004
# 2 2.2854 35.4584 -1.9709 -0.0009 6.8817 0.0022
# 3 64.9716 -1.9709 150.2593 -0.0008 30.9649 0.0001
# 4 -0.0008 -0.0009 -0.0008 0.0475 0.0000 13.1755
# 5 30.6172 6.8817 30.9649 0.0000 40.9587 0.0002
# 6 -0.0004 0.0022 0.0001 13.1755 0.0002 6.3205
#
#
#
# Elastic Compliance Matrix: (Units=1/GPa)
#
#
# Indices 1 2 3 4 5 6 
#
# 1 0.022198 0.000323 -0.007301 0.000000 -0.011128 0.000001
# 2 0.000323 0.029506 0.001562 -0.000006 -0.006380 0.000002
# 3 -0.007301 0.001562 0.010379 -0.000001 -0.002651 0.000000
# 4 0.000000 -0.000006 -0.000001 -0.036472 0.000001 0.076030
# 5 -0.011128 -0.006380 -0.002651 0.000001 0.035810 -0.000001
# 6 0.000001 0.000002 0.000000 0.076030 -0.000001 -0.000274
#
#
# Mechanical properties :
#
#
# Convention : Reuss Voigt Hill
#
# Bulk Modulus (GPa) = 19.51145 44.22485 31.86815
# Shear Modulus (GPa) = 56.14093 22.94301 39.54197
#
# Velocity S-wave (km/s) = 5.20645 3.32833 4.36949
# Velocity P-wave (km/s) = 6.75009 6.01032 6.39092
#
# Compressibility (1/GPa) = 0.05125196
#
# Stress axis : x y z
#
# Youngs Moduli (GPa) = 45.04920 33.89110 96.34913
#
# Poissons Ratio (x) = -0.01095 0.70343
# Poissons Ratio (y) = -0.01456 -0.15050
# Poissons Ratio (z) = 0.32890 -0.05294
#
# Static dielectric constant tensor:
#      x y z
#    x 1.719020 0.000000 0.036810 
#    y 0.000000 1.813600 0.000000 
#    z 0.036810 0.000000 1.769120 
# 
# From -- ./inp_files/342238.got.cif
#   From: 2010.05.17/outbox.cif.g08.bks.cpg/sg12_172_cif.got.tgz:342238.got - 2010.06.03 13:09:07.
