data_PCOD9180507
_publ_section_title
;
Structure prediction by ZEFSAII (Michael W. Deem and Ramdas Pophale) SiO2 
 PCOD9180507
Probable space group: C 2/M
;
_chemical_formula_sum "Si O2"
_cell_formula_units_Z 40
_cell_length_a 21.081245
_cell_length_b 8.893650
_cell_length_c 22.067340
_cell_angle_alpha 90.000000
_cell_angle_beta 144.595694
_cell_angle_gamma 90.000000
_cell_volume 2396.964563
_symmetry_space_group_name_H-M "C 2/M"
_symmetry_group_IT_number 12
_symmetry_cell_setting 'monoclinic'
loop_
_space_group_symop_operation_xyz
x,y,z
-x,y,-z
-x,-y,-z
x,-y,z
1/2+x,1/2+y,z
1/2-x,1/2+y,-z
1/2-x,1/2-y,-z
1/2+x,1/2-y,z
loop_
_atom_site_type_symbol
_atom_site_label
_atom_site_fract_x
_atom_site_fract_y
_atom_site_fract_z
Si Si1 0.749713 0.818477 0.066788
Si Si2 0.681791 0.820005 0.502634
Si Si3 0.881725 0.180153 0.733600
Si Si4 0.020257 0.318574 0.947075
Si Si5 0.989306 0.180503 0.290273
O O1 0.862373 0.775965 0.188089
O O2 0.749772 0.000000 0.061638
O O3 0.750000 0.750000 0.000000
O O4 0.640101 0.771820 0.016419
O O5 0.750000 0.750000 0.500000
O O6 0.756137 0.781076 0.618743
O O7 0.560717 0.756046 0.398674
O O8 0.680854 0.000000 0.496489
O O9 0.930753 0.257576 0.830535
O O10 0.955755 0.220623 0.732155
O O11 0.889074 0.000000 0.745887
O O12 0.016693 0.500000 0.943362
O O13 0.000000 0.268172 0.000000
O O14 0.998233 0.000000 0.303062
#
# Coordination Sequence:
#
# PCOD9180507 Si02
#       5
#     8   8   8   8   8
#     4  10  19  32  50  72 100 129 161 205 247 288
#     4   9  17  28  44  69  99 126 157 198 243 289
#     4   9  17  30  47  69  97 126 160 200 241 288
#     4  10  21  34  49  72 100 131 165 200 242 293
#     4   9  17  29  46  71  99 124 158 201 244 288
#
# _framework density 16.687771999999999
#
# number of rings (size 3 to 8) (size 9 to 14) (size 15 to 20)
#    0.000    2.600    2.000    1.800    0.000    5.200 
#    0.000    0.000    0.000    1.200    0.000    8.400 
#    0.000    0.000    0.000    0.000    0.000    0.000 
#
# Total GULP energy -111422.016086 kJ/mol
# GULP energy per Si atom -5571.100804 kJ/mol
# Density = 1.664979 g / cm^3
# Si number density = 16.687772 Si / 1000 Ang^3
#
#
#
# Elastic Constant Matrix: (Units=GPa)
#
#
# Indices 1 2 3 4 5 6 
#
# 1 83.7307 22.1512 69.8407 0.0000 -3.8681 0.0000
# 2 22.1512 16.5284 45.7203 0.0000 -0.7006 0.0000
# 3 69.8407 45.7203 204.6590 0.0000 1.5138 0.0000
# 4 0.0000 0.0000 0.0000 34.6617 0.0000 -3.7107
# 5 -3.8681 -0.7006 1.5138 0.0000 17.7415 0.0000
# 6 0.0000 0.0000 0.0000 -3.7107 0.0000 13.2796
#
#
#
# Elastic Compliance Matrix: (Units=1/GPa)
#
#
# Indices 1 2 3 4 5 6 
#
# 1 0.019054 -0.019171 -0.002246 0.000000 0.003589 0.000000
# 2 -0.019171 0.179194 -0.033532 0.000000 0.005758 0.000000
# 3 -0.002246 -0.033532 0.013165 0.000000 -0.002937 0.000000
# 4 0.000000 0.000000 0.000000 0.029740 0.000000 0.008310
# 5 0.003589 0.005758 -0.002937 0.000000 0.057625 0.000000
# 6 0.000000 0.000000 0.000000 0.008310 0.000000 0.077626
#
#
# Mechanical properties :
#
#
# Convention : Reuss Voigt Hill
#
# Bulk Modulus (GPa) = 9.85070 64.48250 37.16660
# Shear Modulus (GPa) = 9.61278 24.28363 16.94820
#
# Velocity S-wave (km/s) = 2.40268 3.81881 3.19031
# Velocity P-wave (km/s) = 3.68957 7.62685 5.99090
#
# Compressibility (1/GPa) = 0.10151560
#
# Stress axis : x y z
#
# Youngs Moduli (GPa) = 52.48227 5.58054 75.95693
#
# Poissons Ratio (x) = 0.10698 0.17061
# Poissons Ratio (y) = 1.00613 2.54699
# Poissons Ratio (z) = 0.11788 0.18713
#
# Static dielectric constant tensor:
#      x y z
#    x 1.539350 0.000000 0.023180 
#    y 0.000000 1.560890 0.000000 
#    z 0.023180 0.000000 1.595920 
# 
# From -- ./inp_files/162356.got.cif
#   From: 2010.05.17/outbox.cif.g08.bks.cpg/sg12_82_cif.got.tgz:162356.got - 2010.06.03 13:09:07.
