data_PCOD9180520
_publ_section_title
;
Structure prediction by ZEFSAII (Michael W. Deem and Ramdas Pophale) SiO2 
 PCOD9180520
Probable space group: C 2/M
;
_chemical_formula_sum "Si O2"
_cell_formula_units_Z 48
_cell_length_a 25.446056
_cell_length_b 7.404883
_cell_length_c 11.270354
_cell_angle_alpha 90.000000
_cell_angle_beta 71.286182
_cell_angle_gamma 90.000000
_cell_volume 2011.347789
_symmetry_space_group_name_H-M "C 2/M"
_symmetry_group_IT_number 12
_symmetry_cell_setting 'monoclinic'
loop_
_space_group_symop_operation_xyz
x,y,z
-x,y,-z
-x,-y,-z
x,-y,z
1/2+x,1/2+y,z
1/2-x,1/2+y,-z
1/2-x,1/2-y,-z
1/2+x,1/2-y,z
loop_
_atom_site_type_symbol
_atom_site_label
_atom_site_fract_x
_atom_site_fract_y
_atom_site_fract_z
Si Si1 0.621791 0.212449 0.151756
Si Si2 0.733492 0.297411 0.189748
Si Si3 0.333225 0.221436 0.257043
Si Si4 0.828691 0.718169 0.522766
Si Si5 0.561930 0.780154 0.432513
Si Si6 0.936423 0.720647 0.044954
O O1 0.687285 0.227858 0.132449
O O2 0.588575 0.284793 0.289835
O O3 0.596076 0.282874 0.049220
O O4 0.610692 0.000000 0.156571
O O5 0.744815 0.500000 0.142111
O O6 0.792446 0.213117 0.181865
O O7 0.704053 0.294976 0.341166
O O8 0.313702 0.279512 0.401656
O O9 0.330511 0.000000 0.258894
O O10 0.396334 0.271956 0.182577
O O11 0.822762 0.500000 0.534211
O O12 0.893270 0.762722 0.499077
O O13 0.500000 0.716004 0.500000
O O14 0.560003 0.000000 0.428584
O O15 0.937856 0.500000 0.044398
O O16 0.000000 0.781490 0.000000
#
# Coordination Sequence:
#
# PCOD9180520 Si02
#       6
#     8   8   8   8   8   8
#     4   9  18  32  50  74 101 129 164 207 247 291
#     4  10  19  32  50  72 102 135 167 202 246 294
#     4   9  18  30  47  74 103 132 163 203 251 296
#     4   9  17  30  49  74 103 128 160 206 252 296
#     4   8  14  23  41  69  95 121 153 193 241 286
#     4   9  18  31  50  77 104 127 161 210 255 292
#
# _framework density 23.864595000000001
#
# number of rings (size 3 to 8) (size 9 to 14) (size 15 to 20)
#    0.000    3.000    0.000    2.000    2.333    0.667 
#    0.000    0.833    0.000   10.500    0.000    0.000 
#    0.000    0.000    0.000    0.000    0.000    0.000 
#
# Total GULP energy -133976.778072 kJ/mol
# GULP energy per Si atom -5582.365753 kJ/mol
# Density = 2.381028 g / cm^3
# Si number density = 23.864595 Si / 1000 Ang^3
#
#
#
# Elastic Constant Matrix: (Units=GPa)
#
#
# Indices 1 2 3 4 5 6 
#
# 1 141.2865 -1.8291 48.3865 0.0000 -8.5731 0.0000
# 2 -1.8291 75.4279 0.5289 0.0000 1.3508 0.0000
# 3 48.3865 0.5289 77.1536 0.0000 7.8122 0.0000
# 4 0.0000 0.0000 0.0000 -2.9354 0.0000 2.2724
# 5 -8.5731 1.3508 7.8122 0.0000 44.7670 0.0000
# 6 0.0000 0.0000 0.0000 2.2724 0.0000 9.9418
#
#
#
# Elastic Compliance Matrix: (Units=1/GPa)
#
#
# Indices 1 2 3 4 5 6 
#
# 1 0.009366 0.000219 -0.006165 0.000000 0.002863 0.000000
# 2 0.000219 0.013270 -0.000196 0.000000 -0.000324 0.000000
# 3 -0.006165 -0.000196 0.017253 0.000000 -0.004185 0.000000
# 4 0.000000 0.000000 0.000000 -0.289453 0.000000 0.066162
# 5 0.002863 -0.000324 -0.004185 0.000000 0.023626 0.000000
# 6 0.000000 0.000000 0.000000 0.066162 0.000000 0.085463
#
#
# Mechanical properties :
#
#
# Convention : Reuss Voigt Hill
#
# Bulk Modulus (GPa) = 36.22453 43.11562 39.67007
# Shear Modulus (GPa) = -42.02033 26.80680 -7.60676
#
# Velocity S-wave (km/s) = -4.20072 3.35518 -1.78728
# Velocity P-wave (km/s) = 2.88373 5.75462 3.52135
#
# Compressibility (1/GPa) = 0.02760561
#
# Stress axis : x y z
#
# Youngs Moduli (GPa) = 106.77251 75.35694 57.96205
#
# Poissons Ratio (x) = -0.01651 0.35734
# Poissons Ratio (y) = -0.02339 0.01133
# Poissons Ratio (z) = 0.65826 0.01473
#
# Static dielectric constant tensor:
#      x y z
#    x 1.896280 0.000000 -0.001470 
#    y 0.000000 1.926230 0.000000 
#    z -0.001470 0.000000 1.898150 
# 
# From -- ./inp_files/179746.got.cif
#   From: 2010.05.17/outbox.cif.g08.bks.cpg/sg12_90_cif.got.tgz:179746.got - 2010.06.03 13:09:07.
