data_PCOD9180339
_publ_section_title
;
Structure prediction by ZEFSAII (Michael W. Deem and Ramdas Pophale) SiO2 
 PCOD9180339
Probable space group: C 2/M
;
_chemical_formula_sum "Si O2"
_cell_formula_units_Z 56
_cell_length_a 25.935027
_cell_length_b 7.265813
_cell_length_c 12.897906
_cell_angle_alpha 90.000000
_cell_angle_beta 86.863905
_cell_angle_gamma 90.000000
_cell_volume 2426.829374
_symmetry_space_group_name_H-M "C 2/M"
_symmetry_group_IT_number 12
_symmetry_cell_setting 'monoclinic'
loop_
_space_group_symop_operation_xyz
x,y,z
-x,y,-z
-x,-y,-z
x,-y,z
1/2+x,1/2+y,z
1/2-x,1/2+y,-z
1/2-x,1/2-y,-z
1/2+x,1/2-y,z
loop_
_atom_site_type_symbol
_atom_site_label
_atom_site_fract_x
_atom_site_fract_y
_atom_site_fract_z
Si Si1 0.396980 0.224581 0.840863
Si Si2 0.189270 0.714193 0.744928
Si Si3 0.514500 0.223748 0.795242
Si Si4 0.163857 0.276037 0.518718
Si Si5 0.047884 0.276425 0.563889
Si Si6 0.607914 0.775571 0.923419
Si Si7 0.303649 0.221491 0.706054
O O1 0.455312 0.283448 0.808884
O O2 0.353559 0.284516 0.764468
O O3 0.397244 0.000000 0.838005
O O4 0.384162 0.282015 0.959450
O O5 0.174606 0.500000 0.737814
O O6 0.182018 0.790317 0.629452
O O7 0.151624 0.787971 0.837791
O O8 0.249535 0.727215 0.763663
O O9 0.539852 0.279989 0.683578
O O10 0.552109 0.279310 0.884297
O O11 0.513703 0.000000 0.796080
O O12 0.166821 0.500000 0.518491
O O13 0.103708 0.223785 0.515297
O O14 0.194107 0.213049 0.413515
O O15 0.047184 0.500000 0.563133
O O16 0.000000 0.214403 0.500000
O O17 0.608658 0.000000 0.924907
O O18 0.305597 0.000000 0.703742
#
# Coordination Sequence:
#
# PCOD9180339 Si02
#       7
#     8   8   8   8   8   8   8
#     4   9  17  27  41  64  94 122 147 183 232 277
#     4  10  19  32  49  67  90 123 159 189 221 267
#     4   9  14  23  39  62  91 120 148 180 226 279
#     4   9  16  28  43  63  92 121 150 185 226 271
#     4   9  14  20  35  60  91 121 144 175 226 279
#     4   9  16  27  43  64  90 120 152 186 227 274
#     4  10  20  32  46  67  95 123 152 190 231 266
#
# _framework density 23.075377
#
# number of rings (size 3 to 8) (size 9 to 14) (size 15 to 20)
#    0.000    2.714    1.429    1.714    0.000    5.714 
#    0.000    0.000    0.000    0.000    0.000    1.000 
#    0.000    4.571    0.000    0.000    0.000    0.000 
#
# Total GULP energy -156509.086223 kJ/mol
# GULP energy per Si atom -5589.610222 kJ/mol
# Density = 2.302286 g / cm^3
# Si number density = 23.075377 Si / 1000 Ang^3
#
#
#
# Elastic Constant Matrix: (Units=GPa)
#
#
# Indices 1 2 3 4 5 6 
#
# 1 102.2424 -14.7224 -1.4734 0.0000 -18.4046 0.0000
# 2 -14.7224 99.8912 -6.3974 0.0000 0.3312 0.0000
# 3 -1.4734 -6.3974 48.8698 0.0000 -5.2950 0.0000
# 4 0.0000 0.0000 0.0000 -19.7181 0.0000 -3.2795
# 5 -18.4046 0.3312 -5.2950 0.0000 25.4947 0.0000
# 6 0.0000 0.0000 0.0000 -3.2795 0.0000 -2.4566
#
#
#
# Elastic Compliance Matrix: (Units=1/GPa)
#
#
# Indices 1 2 3 4 5 6 
#
# 1 0.011622 0.001782 0.001525 0.000000 0.008684 0.000000
# 2 0.001782 0.010369 0.001571 0.000000 0.001478 0.000000
# 3 0.001525 0.001571 0.021311 0.000000 0.005506 0.000000
# 4 0.000000 0.000000 0.000000 -0.065188 0.000000 0.087024
# 5 0.008684 0.001478 0.005506 0.000000 0.046617 0.000000
# 6 0.000000 0.000000 0.000000 0.087024 0.000000 -0.523240
#
#
# Mechanical properties :
#
#
# Convention : Reuss Voigt Hill
#
# Bulk Modulus (GPa) = 18.84746 22.86855 20.85801
# Shear Modulus (GPa) = -10.19205 18.90376 4.35585
#
# Velocity S-wave (km/s) = -2.10391 2.86530 1.37541
# Velocity P-wave (km/s) = 1.51116 4.56930 3.40309
#
# Compressibility (1/GPa) = 0.05305754
#
# Stress axis : x y z
#
# Youngs Moduli (GPa) = 86.04109 96.43918 46.92459
#
# Poissons Ratio (x) = -0.17184 -0.07154
# Poissons Ratio (y) = -0.15331 -0.07373
# Poissons Ratio (z) = -0.13117 -0.15153
#
# Static dielectric constant tensor:
#      x y z
#    x 1.809120 0.000000 0.004170 
#    y 0.000000 1.948760 0.000000 
#    z 0.004170 0.000000 1.816790 
# 
# From -- ./inp_files/173882.got.cif
#   From: 2010.05.17/outbox.cif.g08.bks.cpg/sg12_87_cif.got.tgz:173882.got - 2010.06.03 13:09:07.
