data_PCOD9180951
_publ_section_title
;
Structure prediction by ZEFSAII (Michael W. Deem and Ramdas Pophale) SiO2 
 PCOD9180951
Probable space group: C 2/M
;
_chemical_formula_sum "Si O2"
_cell_formula_units_Z 48
_cell_length_a 23.409284
_cell_length_b 8.570512
_cell_length_c 17.499722
_cell_angle_alpha 90.000000
_cell_angle_beta 49.417895
_cell_angle_gamma 90.000000
_cell_volume 2666.485694
_symmetry_space_group_name_H-M "C 2/M"
_symmetry_group_IT_number 12
_symmetry_cell_setting 'monoclinic'
loop_
_space_group_symop_operation_xyz
x,y,z
-x,y,-z
-x,-y,-z
x,-y,z
1/2+x,1/2+y,z
1/2-x,1/2+y,-z
1/2-x,1/2-y,-z
1/2+x,1/2-y,z
loop_
_atom_site_type_symbol
_atom_site_label
_atom_site_fract_x
_atom_site_fract_y
_atom_site_fract_z
Si Si1 0.118284 0.811397 0.394627
Si Si2 0.041641 0.677422 0.183596
Si Si3 0.505158 0.811072 0.616743
Si Si4 0.792736 0.678003 0.891879
Si Si5 0.069447 0.186153 0.991213
Si Si6 0.228844 0.681537 0.799774
O O1 0.075295 0.749778 0.506580
O O2 0.206092 0.761025 0.315000
O O3 0.068214 0.747474 0.366964
O O4 0.115786 0.000000 0.393883
O O5 0.017228 0.500000 0.187737
O O6 0.121635 0.671187 0.156956
O O7 0.055553 0.759947 0.090708
O O8 0.991853 0.742888 0.297130
O O9 0.502999 0.000000 0.618521
O O10 0.768102 0.500000 0.895161
O O11 0.773697 0.791153 0.839474
O O12 0.750000 0.750000 0.000000
O O13 0.069824 0.000000 0.990851
O O14 0.148235 0.240954 0.885481
O O15 0.000000 0.243107 0.000000
O O16 0.215129 0.500000 0.797051
#
# Coordination Sequence:
#
# PCOD9180951 Si02
#       6
#     8   8   8   8   8   8
#     4  10  20  32  49  78 113 147 181 213 259 314
#     4  10  21  35  54  80 110 145 180 216 267 324
#     4  10  19  32  51  78 112 147 181 213 258 315
#     4  11  20  31  49  78 112 142 177 216 265 325
#     4  11  25  41  58  80 104 137 182 231 280 324
#     4  11  22  35  54  79 110 147 181 218 268 323
#
# _framework density 18.001221999999999
#
# number of rings (size 3 to 8) (size 9 to 14) (size 15 to 20)
#    0.000    1.500    3.333    3.500    0.000    5.333 
#    0.000    0.000    0.000    1.000    0.000    0.000 
#    0.000    0.000    0.000    0.000    0.000    0.000 
#
# Total GULP energy -133714.639298 kJ/mol
# GULP energy per Si atom -5571.443304 kJ/mol
# Density = 1.796025 g / cm^3
# Si number density = 18.001222 Si / 1000 Ang^3
#
#
#
# Elastic Constant Matrix: (Units=GPa)
#
#
# Indices 1 2 3 4 5 6 
#
# 1 71.8854 15.2032 51.6315 0.0000 -12.2717 0.0001
# 2 15.2032 43.0869 35.0091 -0.0002 -3.2700 0.0005
# 3 51.6315 35.0091 166.9841 0.0004 -17.2991 0.0001
# 4 0.0000 -0.0002 0.0004 18.2875 0.0000 -2.3940
# 5 -12.2717 -3.2700 -17.2991 0.0000 10.6852 -0.0001
# 6 0.0001 0.0005 0.0001 -2.3940 -0.0001 17.9249
#
#
#
# Elastic Compliance Matrix: (Units=1/GPa)
#
#
# Indices 1 2 3 4 5 6 
#
# 1 0.020030 -0.002610 -0.004020 0.000000 0.015697 0.000000
# 2 -0.002610 0.028326 -0.005460 0.000000 -0.003168 -0.000001
# 3 -0.004020 -0.005460 0.009282 0.000000 0.008739 0.000000
# 4 0.000000 0.000000 0.000000 0.055655 0.000000 0.007433
# 5 0.015697 -0.003168 0.008739 0.000000 0.124793 0.000001
# 6 0.000000 -0.000001 0.000000 0.007433 0.000001 0.056781
#
#
# Mechanical properties :
#
#
# Convention : Reuss Voigt Hill
#
# Bulk Modulus (GPa) = 29.88849 53.96046 41.92448
# Shear Modulus (GPa) = 15.14240 21.38703 18.26472
#
# Velocity S-wave (km/s) = 2.90347 3.45060 3.18879
# Velocity P-wave (km/s) = 5.28013 6.77618 6.07439
#
# Compressibility (1/GPa) = 0.03345769
#
# Stress axis : x y z
#
# Youngs Moduli (GPa) = 49.92522 35.30376 107.74043
#
# Poissons Ratio (x) = 0.09214 0.43311
# Poissons Ratio (y) = 0.13030 0.58824
# Poissons Ratio (z) = 0.20069 0.19275
#
# Static dielectric constant tensor:
#      x y z
#    x 1.603350 0.000000 -0.018570 
#    y 0.000000 1.633570 0.000000 
#    z -0.018570 0.000000 1.693400 
# 
# From -- ./inp_files/287255.got.cif
#   From: 2010.05.17/outbox.cif.g08.bks.cpg/sg12_144_cif.got.tgz:287255.got - 2010.06.03 13:09:07.
