data_PCOD9180014
_publ_section_title
;
Structure prediction by ZEFSAII (Michael W. Deem and Ramdas Pophale) SiO2 
 PCOD9180014
Probable space group: C 2/M
;
_chemical_formula_sum "Si O2"
_cell_formula_units_Z 64
_cell_length_a 10.865684
_cell_length_b 22.423512
_cell_length_c 12.916825
_cell_angle_alpha 90.000000
_cell_angle_beta 106.662171
_cell_angle_gamma 90.000000
_cell_volume 3015.000820
_symmetry_space_group_name_H-M "C 2/M"
_symmetry_group_IT_number 12
_symmetry_cell_setting 'monoclinic'
loop_
_space_group_symop_operation_xyz
x,y,z
-x,y,-z
-x,-y,-z
x,-y,z
1/2+x,1/2+y,z
1/2-x,1/2+y,-z
1/2-x,1/2-y,-z
1/2+x,1/2-y,z
loop_
_atom_site_type_symbol
_atom_site_label
_atom_site_fract_x
_atom_site_fract_y
_atom_site_fract_z
Si Si1 0.219807 0.434654 0.593466
Si Si2 0.892220 0.279935 0.900350
Si Si3 0.461345 0.233002 0.281416
Si Si4 0.956490 0.930065 0.778237
Si Si5 0.274523 0.340010 0.856884
Si Si6 0.863838 0.365374 0.619131
Si Si7 0.086383 0.567512 0.787478
Si Si8 0.666896 0.353109 0.743759
O O1 0.196750 0.500000 0.542686
O O2 0.369523 0.426260 0.653361
O O3 0.156241 0.390536 0.498979
O O4 0.159825 0.433987 0.693867
O O5 0.838393 0.216220 0.929970
O O6 0.775838 0.323353 0.843428
O O7 0.970153 0.266676 0.814003
O O8 0.000000 0.306127 0.000000
O O9 0.325199 0.196590 0.243585
O O10 0.562966 0.197153 0.373424
O O11 0.435027 0.300680 0.300688
O O12 0.887877 0.881672 0.837594
O O13 0.097428 0.907668 0.783159
O O14 0.950311 0.000000 0.811274
O O15 0.173545 0.388337 0.877858
O O16 0.731533 0.364766 0.649222
O O17 0.953263 0.403693 0.719694
O O18 0.076048 0.500000 0.823369
#
# Coordination Sequence:
#
# PCOD9180014 Si02
#       8
#     8   8   8   8   8   8   8   8
#     4   9  18  32  54  80 105 142 195 236 255 300
#     4  10  20  36  63  89 102 133 180 230 276 324
#     4   9  19  36  55  78 111 141 171 226 275 324
#     4  10  20  36  57  78 111 155 185 218 270 322
#     4   9  17  32  54  79 110 139 176 219 267 325
#     4  10  19  31  53  77 108 143 187 231 269 307
#     4   9  17  31  54  78 107 148 189 230 269 308
#     4  10  21  36  54  79 114 142 178 220 281 337
#
# _framework density 21.227191999999999
#
# number of rings (size 3 to 8) (size 9 to 14) (size 15 to 20)
#    0.000    2.500    1.250    1.875    0.000    4.500 
#    0.000    1.875   13.750    1.875    0.000    0.000 
#    0.000    0.000    0.000    0.000    0.000    0.000 
#
# Total GULP energy -178315.539358 kJ/mol
# GULP energy per Si atom -5572.360605 kJ/mol
# Density = 2.117888 g / cm^3
# Si number density = 21.227192 Si / 1000 Ang^3
#
#
#
# Elastic Constant Matrix: (Units=GPa)
#
#
# Indices 1 2 3 4 5 6 
#
# 1 90.5067 24.8109 9.6944 0.0000 -0.3429 0.0000
# 2 24.8109 89.2500 9.0400 0.0000 0.4983 0.0000
# 3 9.6944 9.0400 20.9431 0.0000 3.3460 0.0000
# 4 0.0000 0.0000 0.0000 6.7705 0.0000 3.4206
# 5 -0.3429 0.4983 3.3460 0.0000 7.4205 0.0000
# 6 0.0000 0.0000 0.0000 3.4206 0.0000 28.2632
#
#
#
# Elastic Compliance Matrix: (Units=1/GPa)
#
#
# Indices 1 2 3 4 5 6 
#
# 1 0.012402 -0.002964 -0.004941 0.000000 0.003000 0.000000
# 2 -0.002964 0.012443 -0.004142 0.000000 0.000895 0.000000
# 3 -0.004941 -0.004142 0.055838 0.000000 -0.025128 0.000000
# 4 0.000000 0.000000 0.000000 0.157318 0.000000 -0.019040
# 5 0.003000 0.000895 -0.025128 0.000000 0.146171 0.000000
# 6 0.000000 0.000000 0.000000 -0.019040 0.000000 0.037686
#
#
# Mechanical properties :
#
#
# Convention : Reuss Voigt Hill
#
# Bulk Modulus (GPa) = 17.67107 31.97670 24.82389
# Shear Modulus (GPa) = 10.75697 18.96780 14.86238
#
# Velocity S-wave (km/s) = 2.25356 2.99249 2.64892
# Velocity P-wave (km/s) = 3.88770 5.19969 4.59080
#
# Compressibility (1/GPa) = 0.05658966
#
# Stress axis : x y z
#
# Youngs Moduli (GPa) = 80.63203 80.36660 17.90895
#
# Poissons Ratio (x) = 0.23821 0.08848
# Poissons Ratio (y) = 0.23899 0.07418
# Poissons Ratio (z) = 0.39838 0.33287
#
# Static dielectric constant tensor:
#      x y z
#    x 1.831200 0.000000 0.014310 
#    y 0.000000 1.819790 0.000000 
#    z 0.014310 0.000000 1.769420 
# 
# From -- ./inp_files/207697.got.cif
#   From: 2010.05.17/outbox.cif.g08.bks.cpg/sg12_104_cif.got.tgz:207697.got - 2010.06.03 13:09:07.
