data_PCOD9180415
_publ_section_title
;
Structure prediction by ZEFSAII (Michael W. Deem and Ramdas Pophale) SiO2 
 PCOD9180415
Probable space group: C 2/M
;
_chemical_formula_sum "Si O2"
_cell_formula_units_Z 52
_cell_length_a 5.175349
_cell_length_b 24.511552
_cell_length_c 27.159071
_cell_angle_alpha 90.000000
_cell_angle_beta 118.297632
_cell_angle_gamma 90.000000
_cell_volume 3033.564384
_symmetry_space_group_name_H-M "C 2/M"
_symmetry_group_IT_number 12
_symmetry_cell_setting 'monoclinic'
loop_
_space_group_symop_operation_xyz
x,y,z
-x,y,-z
-x,-y,-z
x,-y,z
1/2+x,1/2+y,z
1/2-x,1/2+y,-z
1/2-x,1/2-y,-z
1/2+x,1/2-y,z
loop_
_atom_site_type_symbol
_atom_site_label
_atom_site_fract_x
_atom_site_fract_y
_atom_site_fract_z
Si Si1 0.197468 0.869824 0.836341
Si Si2 0.000000 0.710956 0.500000
Si Si3 0.820734 0.285127 0.933289
Si Si4 0.236871 0.562309 0.844538
Si Si5 0.380945 0.713130 0.259619
Si Si6 0.779103 0.713057 0.381043
Si Si7 0.682215 0.436928 0.974636
O O1 0.278678 0.835836 0.892840
O O2 0.450998 0.912864 0.844951
O O3 0.182154 0.827842 0.789978
O O4 0.885148 0.899571 0.816807
O O5 0.750000 0.750000 0.500000
O O6 0.867666 0.682173 0.439465
O O7 0.506720 0.260649 0.920619
O O8 0.000000 0.294982 0.000000
O O9 0.183802 0.500000 0.823869
O O10 0.494198 0.561144 0.908825
O O11 0.586621 0.761350 0.256130
O O12 0.576270 0.686426 0.321011
O O13 0.571132 0.763107 0.381408
O O14 0.733082 0.500000 0.995849
O O15 0.500000 0.407153 0.000000
O O16 0.000000 0.412679 0.000000
#
# Coordination Sequence:
#
# PCOD9180415 Si02
#       7
#     8   4   8   8   8   8   8
#     4  12  22  35  55  72  92 126 159 192 238 286
#     4   8  12  20  34  56  86 124 159 178 211 264
#     4  10  21  37  54  73  96 119 149 190 230 274
#     4  11  24  38  51  71  96 121 153 194 239 287
#     4  10  19  32  49  72  98 124 160 200 232 269
#     4   8  14  23  38  60  90 124 155 187 219 260
#     4   9  17  31  49  65  83 106 131 168 220 275
#
# _framework density 17.141551
#
# number of rings (size 3 to 8) (size 9 to 14) (size 15 to 20)
#    0.000    2.154    0.000    4.154    0.000    4.308 
#    0.000    0.000    0.000    0.462    0.000    0.000 
#    0.000    0.000    0.000    4.154    0.000    1.538 
#
# Total GULP energy -144937.616342 kJ/mol
# GULP energy per Si atom -5574.523705 kJ/mol
# Density = 1.710254 g / cm^3
# Si number density = 17.141551 Si / 1000 Ang^3
#
#
#
# Elastic Constant Matrix: (Units=GPa)
#
#
# Indices 1 2 3 4 5 6 
#
# 1 85.6139 6.8757 -0.8016 0.0000 -15.0316 0.0000
# 2 6.8757 49.3431 21.4822 0.0000 -3.5857 0.0000
# 3 -0.8016 21.4822 88.6341 0.0000 -6.2407 0.0000
# 4 0.0000 0.0000 0.0000 2.4256 0.0000 -19.5495
# 5 -15.0316 -3.5857 -6.2407 0.0000 20.3273 0.0000
# 6 0.0000 0.0000 0.0000 -19.5495 0.0000 -254.1815
#
#
#
# Elastic Compliance Matrix: (Units=1/GPa)
#
#
# Indices 1 2 3 4 5 6 
#
# 1 0.013611 -0.001704 0.001250 0.000000 0.010148 0.000000
# 2 -0.001704 0.022982 -0.005508 0.000000 0.001103 0.000000
# 3 0.001250 -0.005508 0.012904 0.000000 0.003915 0.000000
# 4 0.000000 0.000000 0.000000 0.254503 0.000000 -0.019574
# 5 0.010148 0.001103 0.003915 0.000000 0.058096 0.000000
# 6 0.000000 0.000000 0.000000 -0.019574 0.000000 -0.002429
#
#
# Mechanical properties :
#
#
# Convention : Reuss Voigt Hill
#
# Bulk Modulus (GPa) = 26.61353 30.96710 28.79031
# Shear Modulus (GPa) = 13.01700 -33.21672 -10.09986
#
# Velocity S-wave (km/s) = 2.75868 -4.40681 -2.42998
# Velocity P-wave (km/s) = 5.07016 2.79080 2.99316
#
# Compressibility (1/GPa) = 0.03757487
#
# Stress axis : x y z
#
# Youngs Moduli (GPa) = 73.47201 43.51292 77.49409
#
# Poissons Ratio (x) = 0.07413 -0.09691
# Poissons Ratio (y) = 0.12516 0.42682
# Poissons Ratio (z) = -0.09188 0.23966
#
# Static dielectric constant tensor:
#      x y z
#    x 1.617850 0.000000 -0.002560 
#    y 0.000000 1.575800 0.000000 
#    z -0.002560 0.000000 1.630230 
# 
# From -- ./inp_files/331205.got.cif
#   From: 2010.05.17/outbox.cif.g08.bks.cpg/sg12_166_cif.got.tgz:331205.got - 2010.06.03 13:09:07.
