data_PCOD9180420
_publ_section_title
;
Structure prediction by ZEFSAII (Michael W. Deem and Ramdas Pophale) SiO2 
 PCOD9180420
Probable space group: C 2/M
;
_chemical_formula_sum "Si O2"
_cell_formula_units_Z 56
_cell_length_a 7.757631
_cell_length_b 20.308401
_cell_length_c 20.954665
_cell_angle_alpha 90.000000
_cell_angle_beta 114.228110
_cell_angle_gamma 90.000000
_cell_volume 3010.521853
_symmetry_space_group_name_H-M "C 2/M"
_symmetry_group_IT_number 12
_symmetry_cell_setting 'monoclinic'
loop_
_space_group_symop_operation_xyz
x,y,z
-x,y,-z
-x,-y,-z
x,-y,z
1/2+x,1/2+y,z
1/2-x,1/2+y,-z
1/2-x,1/2-y,-z
1/2+x,1/2-y,z
loop_
_atom_site_type_symbol
_atom_site_label
_atom_site_fract_x
_atom_site_fract_y
_atom_site_fract_z
Si Si1 0.418093 0.202580 0.550224
Si Si2 0.613251 0.780100 0.108682
Si Si3 0.061292 0.925970 0.178316
Si Si4 0.712441 0.896686 0.035749
Si Si5 0.755039 0.704905 0.652178
Si Si6 0.235046 0.145909 0.093092
Si Si7 0.943137 0.186856 0.255271
O O1 0.500000 0.165833 0.500000
O O2 0.250000 0.250000 0.500000
O O3 0.586301 0.249474 0.599987
O O4 0.342429 0.168646 0.603513
O O5 0.676840 0.823341 0.058097
O O6 0.432792 0.816057 0.111715
O O7 0.587640 0.704913 0.084317
O O8 0.781648 0.783318 0.185282
O O9 0.217720 0.900519 0.151674
O O10 0.864431 0.925974 0.107639
O O11 0.038125 0.872748 0.231024
O O12 0.098811 0.000000 0.206001
O O13 0.500000 0.925928 0.000000
O O14 0.790290 0.893696 0.976121
O O15 0.662625 0.664671 0.695944
O O16 0.909555 0.755551 0.704632
#
# Coordination Sequence:
#
# PCOD9180420 Si02
#       7
#     8   8   8   8   8   8   8
#     4   8  14  25  43  75 116 141 153 178 224 284
#     4  10  19  32  51  75  99 119 154 207 263 314
#     4  11  24  38  49  64  93 131 170 213 255 301
#     4   9  20  35  53  74  92 115 154 209 270 325
#     4   9  16  27  49  75 105 136 164 193 227 279
#     4  11  20  32  51  72  93 121 158 209 268 319
#     4  10  19  32  49  73 100 132 168 204 246 293
#
# _framework density 18.601427000000001
#
# number of rings (size 3 to 8) (size 9 to 14) (size 15 to 20)
#    0.000    2.286    0.000    4.286    0.000    4.857 
#    0.000    5.714    0.000    0.000    0.000    0.000 
#    0.000   72.000    0.000    0.000    0.000    0.571 
#
# Total GULP energy -156076.059855 kJ/mol
# GULP energy per Si atom -5574.144995 kJ/mol
# Density = 1.855909 g / cm^3
# Si number density = 18.601427 Si / 1000 Ang^3
#
#
#
# Elastic Constant Matrix: (Units=GPa)
#
#
# Indices 1 2 3 4 5 6 
#
# 1 120.3981 15.9609 42.3849 0.0000 -26.2957 0.0000
# 2 15.9609 51.9355 10.3429 0.0000 -18.1222 0.0000
# 3 42.3849 10.3429 89.8757 0.0000 -20.5633 0.0000
# 4 0.0000 0.0000 0.0000 1.5833 0.0000 2.0224
# 5 -26.2957 -18.1222 -20.5633 0.0000 67.4596 0.0000
# 6 0.0000 0.0000 0.0000 2.0224 0.0000 2.9629
#
#
#
# Elastic Compliance Matrix: (Units=1/GPa)
#
#
# Indices 1 2 3 4 5 6 
#
# 1 0.010527 -0.001556 -0.004238 0.000000 0.002394 0.000000
# 2 -0.001556 0.021602 -0.000605 0.000000 0.005012 0.000000
# 3 -0.004238 -0.000605 0.013738 0.000000 0.002373 0.000000
# 4 0.000000 0.000000 0.000000 4.928135 0.000000 -3.363751
# 5 0.002394 0.005012 0.002373 0.000000 0.017827 0.000000
# 6 0.000000 0.000000 0.000000 -3.363751 0.000000 2.633467
#
#
# Mechanical properties :
#
#
# Convention : Reuss Voigt Hill
#
# Bulk Modulus (GPa) = 30.24031 44.39851 37.31941
# Shear Modulus (GPa) = 0.65367 27.30254 13.97810
#
# Velocity S-wave (km/s) = 0.59344 3.83530 2.74424
# Velocity P-wave (km/s) = 4.09412 6.59794 5.49066
#
# Compressibility (1/GPa) = 0.03306845
#
# Stress axis : x y z
#
# Youngs Moduli (GPa) = 94.99723 46.29137 72.79323
#
# Poissons Ratio (x) = 0.07203 0.30847
# Poissons Ratio (y) = 0.14781 0.04407
# Poissons Ratio (z) = 0.40256 0.02803
#
# Static dielectric constant tensor:
#      x y z
#    x 1.742200 0.000000 -0.022040 
#    y 0.000000 1.605970 0.000000 
#    z -0.022040 0.000000 1.686530 
# 
# From -- ./inp_files/301471.got.cif
#   From: 2010.05.17/outbox.cif.g08.bks.cpg/sg12_151_cif.got.tgz:301471.got - 2010.06.03 13:09:07.
