data_PCOD9180674
_publ_section_title
;
Structure prediction by ZEFSAII (Michael W. Deem and Ramdas Pophale) SiO2 
 PCOD9180674
Probable space group: C 2/M
;
_chemical_formula_sum "Si O2"
_cell_formula_units_Z 44
_cell_length_a 13.050922
_cell_length_b 12.962206
_cell_length_c 15.178146
_cell_angle_alpha 90.000000
_cell_angle_beta 121.010237
_cell_angle_gamma 90.000000
_cell_volume 2200.684584
_symmetry_space_group_name_H-M "C 2/M"
_symmetry_group_IT_number 12
_symmetry_cell_setting 'monoclinic'
loop_
_space_group_symop_operation_xyz
x,y,z
-x,y,-z
-x,-y,-z
x,-y,z
1/2+x,1/2+y,z
1/2-x,1/2+y,-z
1/2-x,1/2-y,-z
1/2+x,1/2-y,z
loop_
_atom_site_type_symbol
_atom_site_label
_atom_site_fract_x
_atom_site_fract_y
_atom_site_fract_z
Si Si1 0.086546 0.168082 0.873354
Si Si2 0.984492 0.887654 0.354807
Si Si3 0.244637 0.834875 0.421833
Si Si4 0.173036 0.118674 0.207383
Si Si5 0.500000 0.794804 0.500000
Si Si6 0.813102 0.383641 0.088672
O O1 0.093635 0.292025 0.883022
O O2 0.072834 0.132826 0.766271
O O3 0.968198 0.129223 0.870307
O O4 0.207827 0.126538 0.970080
O O5 0.127427 0.895447 0.401564
O O6 0.965988 0.787413 0.407680
O O7 0.943196 0.000000 0.371256
O O8 0.250000 0.750000 0.500000
O O9 0.207341 0.809037 0.304611
O O10 0.384567 0.863018 0.473685
O O11 0.248591 0.136927 0.153719
O O12 0.197277 0.000000 0.246716
O O13 0.860996 0.500000 0.109533
#
# Coordination Sequence:
#
# PCOD9180674 Si02
#       6
#     8   8   8   8   4   8
#     4  10  19  32  54  77 104 136 169 212 256 298
#     4  10  19  33  52  74 100 133 173 209 249 304
#     4   9  18  31  49  72  99 131 165 207 254 298
#     4  10  19  34  55  77 102 136 177 212 249 304
#     4  10  19  32  51  72 100 134 167 210 259 302
#     4  10  20  33  53  80 105 133 172 213 255 303
#
# _framework density 19.993777999999999
#
# number of rings (size 3 to 8) (size 9 to 14) (size 15 to 20)
#    0.000    2.182    0.000    5.182    0.000    1.455 
#    0.000    1.818    0.000   61.091    0.000    0.000 
#    0.000    0.000    0.000    0.000    0.000    0.000 
#
# Total GULP energy -122476.154388 kJ/mol
# GULP energy per Si atom -5567.097927 kJ/mol
# Density = 1.994827 g / cm^3
# Si number density = 19.993778 Si / 1000 Ang^3
#
#
#
# Elastic Constant Matrix: (Units=GPa)
#
#
# Indices 1 2 3 4 5 6 
#
# 1 50.4843 7.2155 6.7678 0.0000 6.5330 0.0000
# 2 7.2155 84.9934 25.7989 0.0000 -2.3100 0.0000
# 3 6.7678 25.7989 89.1814 0.0000 -9.7215 0.0000
# 4 0.0000 0.0000 0.0000 -15.1055 0.0000 -9.4764
# 5 6.5330 -2.3100 -9.7215 0.0000 30.3083 0.0000
# 6 0.0000 0.0000 0.0000 -9.4764 0.0000 11.7434
#
#
#
# Elastic Compliance Matrix: (Units=1/GPa)
#
#
# Indices 1 2 3 4 5 6 
#
# 1 0.020910 -0.001384 -0.001750 0.000000 -0.005174 0.000000
# 2 -0.001384 0.012991 -0.003640 0.000000 0.000121 0.000000
# 3 -0.001750 -0.003640 0.012859 0.000000 0.004225 0.000000
# 4 0.000000 0.000000 0.000000 -0.043951 0.000000 -0.035467
# 5 -0.005174 0.000121 0.004225 0.000000 0.035474 0.000000
# 6 0.000000 0.000000 0.000000 -0.035467 0.000000 0.056534
#
#
# Mechanical properties :
#
#
# Convention : Reuss Voigt Hill
#
# Bulk Modulus (GPa) = 30.11014 33.80263 31.95639
# Shear Modulus (GPa) = 41.86276 17.71437 29.78856
#
# Velocity S-wave (km/s) = 4.58076 2.97979 3.86410
# Velocity P-wave (km/s) = 6.56279 5.36490 5.99385
#
# Compressibility (1/GPa) = 0.03321140
#
# Stress axis : x y z
#
# Youngs Moduli (GPa) = 47.82346 76.97455 77.76398
#
# Poissons Ratio (x) = 0.10657 0.13612
# Poissons Ratio (y) = 0.06621 0.28306
# Poissons Ratio (z) = 0.08371 0.28018
#
# Static dielectric constant tensor:
#      x y z
#    x 1.712180 0.000000 -0.005500 
#    y 0.000000 1.732330 0.000000 
#    z -0.005500 0.000000 1.720900 
# 
# From -- ./inp_files/268980.got.cif
#   From: 2010.05.17/outbox.cif.g08.bks.cpg/sg12_135_cif.got.tgz:268980.got - 2010.06.03 13:09:07.
