data_PCOD9180508
_publ_section_title
;
Structure prediction by ZEFSAII (Michael W. Deem and Ramdas Pophale) SiO2 
 PCOD9180508
Probable space group: C 2/M
;
_chemical_formula_sum "Si O2"
_cell_formula_units_Z 48
_cell_length_a 15.805156
_cell_length_b 22.995016
_cell_length_c 6.939012
_cell_angle_alpha 90.000000
_cell_angle_beta 105.405686
_cell_angle_gamma 90.000000
_cell_volume 2431.298489
_symmetry_space_group_name_H-M "C 2/M"
_symmetry_group_IT_number 12
_symmetry_cell_setting 'monoclinic'
loop_
_space_group_symop_operation_xyz
x,y,z
-x,y,-z
-x,-y,-z
x,-y,z
1/2+x,1/2+y,z
1/2-x,1/2+y,-z
1/2-x,1/2-y,-z
1/2+x,1/2-y,z
loop_
_atom_site_type_symbol
_atom_site_label
_atom_site_fract_x
_atom_site_fract_y
_atom_site_fract_z
Si Si1 0.154441 0.128801 0.340939
Si Si2 0.599052 0.728864 0.728333
Si Si3 0.232129 0.332135 0.224337
Si Si4 0.422064 0.754540 0.733572
Si Si5 0.213716 0.934540 0.997665
Si Si6 0.972958 0.897351 0.210596
O O1 0.219895 0.146866 0.549799
O O2 0.114979 0.190078 0.232993
O O3 0.068679 0.092373 0.361309
O O4 0.200257 0.092136 0.202117
O O5 0.700900 0.716126 0.823805
O O6 0.527565 0.761761 0.816505
O O7 0.592611 0.753339 0.508334
O O8 0.558741 0.664134 0.724117
O O9 0.140572 0.302580 0.216075
O O10 0.229870 0.387781 0.085586
O O11 0.115419 0.934649 0.844416
O O12 0.247555 0.000000 0.020840
O O13 0.000000 0.895350 0.000000
#
# Coordination Sequence:
#
# PCOD9180508 Si02
#       6
#     8   8   8   8   8   8
#     4   9  17  30  47  67  92 126 159 192 238 286
#     4   8  14  26  44  69  98 123 149 186 235 291
#     4  10  19  32  50  72 100 130 159 196 242 285
#     4   9  16  28  48  72  99 126 154 194 242 293
#     4  10  21  33  45  66  96 131 171 203 226 271
#     4   8  15  27  43  64  93 126 157 190 229 276
#
# _framework density 19.742538
#
# number of rings (size 3 to 8) (size 9 to 14) (size 15 to 20)
#    0.000    3.000    0.000    3.000    0.000    6.333 
#    0.000    4.167    0.000    0.000    0.000    2.333 
#    0.000   13.333    0.000    0.000    0.000    0.000 
#
# Total GULP energy -133696.464101 kJ/mol
# GULP energy per Si atom -5570.686004 kJ/mol
# Density = 1.969760 g / cm^3
# Si number density = 19.742538 Si / 1000 Ang^3
#
#
#
# Elastic Constant Matrix: (Units=GPa)
#
#
# Indices 1 2 3 4 5 6 
#
# 1 101.7244 64.5595 37.1850 0.0000 -27.2934 0.0000
# 2 64.5595 77.4462 32.3358 0.0000 -19.4630 0.0000
# 3 37.1850 32.3358 61.8136 0.0000 -3.3896 0.0000
# 4 0.0000 0.0000 0.0000 10.0092 0.0000 9.9087
# 5 -27.2934 -19.4630 -3.3896 0.0000 31.7138 0.0000
# 6 0.0000 0.0000 0.0000 9.9087 0.0000 1.5572
#
#
#
# Elastic Compliance Matrix: (Units=1/GPa)
#
#
# Indices 1 2 3 4 5 6 
#
# 1 0.024868 -0.015203 -0.006382 0.000000 0.011389 0.000000
# 2 -0.015203 0.029055 -0.005827 0.000000 0.004125 0.000000
# 3 -0.006382 -0.005827 0.022701 0.000000 -0.006643 0.000000
# 4 0.000000 0.000000 0.000000 -0.018853 0.000000 0.119966
# 5 0.011389 0.004125 -0.006643 0.000000 0.043155 0.000000
# 6 0.000000 0.000000 0.000000 0.119966 0.000000 -0.121182
#
#
# Mechanical properties :
#
#
# Convention : Reuss Voigt Hill
#
# Bulk Modulus (GPa) = 45.87390 56.57165 51.22277
# Shear Modulus (GPa) = 119.51337 15.78296 67.64816
#
# Velocity S-wave (km/s) = 7.78893 2.83050 5.86000
# Velocity P-wave (km/s) = 10.20668 6.27688 8.47277
#
# Compressibility (1/GPa) = 0.02179889
#
# Stress axis : x y z
#
# Youngs Moduli (GPa) = 40.21231 34.41729 44.05060
#
# Poissons Ratio (x) = 0.52325 0.28114
# Poissons Ratio (y) = 0.61135 0.25670
# Poissons Ratio (z) = 0.25664 0.20056
#
# Static dielectric constant tensor:
#      x y z
#    x 1.740760 0.000000 -0.002530 
#    y 0.000000 1.677510 0.000000 
#    z -0.002530 0.000000 1.813450 
# 
# From -- ./inp_files/62761.got.cif
#   From: 2010.05.17/outbox.cif.g08.bks.cpg/sg12_32_cif.got.tgz:62761.got - 2010.06.03 13:09:07.
