data_PCOD9180943
_publ_section_title
;
Structure prediction by ZEFSAII (Michael W. Deem and Ramdas Pophale) SiO2 
 PCOD9180943
Probable space group: C 2/M
;
_chemical_formula_sum "Si O2"
_cell_formula_units_Z 48
_cell_length_a 27.233759
_cell_length_b 13.890485
_cell_length_c 12.151915
_cell_angle_alpha 90.000000
_cell_angle_beta 152.440994
_cell_angle_gamma 90.000000
_cell_volume 2126.833136
_symmetry_space_group_name_H-M "C 2/M"
_symmetry_group_IT_number 12
_symmetry_cell_setting 'monoclinic'
loop_
_space_group_symop_operation_xyz
x,y,z
-x,y,-z
-x,-y,-z
x,-y,z
1/2+x,1/2+y,z
1/2-x,1/2+y,-z
1/2-x,1/2-y,-z
1/2+x,1/2-y,z
loop_
_atom_site_type_symbol
_atom_site_label
_atom_site_fract_x
_atom_site_fract_y
_atom_site_fract_z
Si Si1 0.864749 0.279043 0.180934
Si Si2 0.620211 0.182754 0.234317
Si Si3 0.398018 0.887599 0.031380
Si Si4 0.660028 0.391014 0.271437
Si Si5 0.137679 0.108551 0.975603
Si Si6 0.888898 0.388185 0.443364
O O1 0.854060 0.358594 0.063420
O O2 0.914635 0.322100 0.390607
O O3 0.750000 0.250000 0.000000
O O4 0.907693 0.186813 0.198577
O O5 0.622634 0.296994 0.264587
O O6 0.711939 0.124838 0.478885
O O7 0.500000 0.145197 0.000000
O O8 0.650652 0.171487 0.165349
O O9 0.524387 0.866418 0.291573
O O10 0.382344 0.000000 0.978563
O O11 0.639458 0.500000 0.271672
O O12 0.610418 0.383568 0.050429
O O13 0.265865 0.121365 0.227890
O O14 0.113550 0.000000 0.891425
O O15 0.906680 0.500000 0.448318
#
# Coordination Sequence:
#
# PCOD9180943 Si02
#       6
#     8   8   8   8   8   8
#     4  10  19  32  51  78 109 145 183 228 276 341
#     4  11  23  38  61  93 121 153 196 246 295 348
#     4  11  21  35  56  84 114 143 183 236 292 344
#     4  10  21  39  61  85 119 158 196 239 294 354
#     4   9  17  33  55  77 105 146 188 224 276 343
#     4   9  18  31  53  82 109 140 177 227 289 343
#
# _framework density 22.568764999999999
#
# number of rings (size 3 to 8) (size 9 to 14) (size 15 to 20)
#    0.000    2.000    1.667    2.500    0.000    5.000 
#    0.000    0.000    0.000    3.000    0.000    0.000 
#    0.000    0.000    0.000    0.000    0.000    0.000 
#
# Total GULP energy -133898.482799 kJ/mol
# GULP energy per Si atom -5579.103450 kJ/mol
# Density = 2.251740 g / cm^3
# Si number density = 22.568765 Si / 1000 Ang^3
#
#
#
# Elastic Constant Matrix: (Units=GPa)
#
#
# Indices 1 2 3 4 5 6 
#
# 1 22.4866 -10.5307 12.0652 0.0000 -6.6109 0.0000
# 2 -10.5307 102.2758 20.9475 0.0000 -22.5408 0.0000
# 3 12.0652 20.9475 73.4861 0.0000 -22.6469 0.0000
# 4 0.0000 0.0000 0.0000 33.3215 0.0000 -3.1273
# 5 -6.6109 -22.5408 -22.6469 0.0000 40.7069 0.0000
# 6 0.0000 0.0000 0.0000 -3.1273 0.0000 16.1354
#
#
#
# Elastic Compliance Matrix: (Units=1/GPa)
#
#
# Indices 1 2 3 4 5 6 
#
# 1 0.056820 0.009840 -0.009186 0.000000 0.009566 0.000000
# 2 0.009840 0.012987 -0.003149 0.000000 0.007037 0.000000
# 3 -0.009186 -0.003149 0.018124 0.000000 0.006848 0.000000
# 4 0.000000 0.000000 0.000000 0.030567 0.000000 0.005924
# 5 0.009566 0.007037 0.006848 0.000000 0.033826 0.000000
# 6 0.000000 0.000000 0.000000 0.005924 0.000000 0.063124
#
#
# Mechanical properties :
#
#
# Convention : Reuss Voigt Hill
#
# Bulk Modulus (GPa) = 12.05659 27.02360 19.54010
# Shear Modulus (GPa) = 20.15449 29.75052 24.95251
#
# Velocity S-wave (km/s) = 2.99160 3.63466 3.32870
# Velocity P-wave (km/s) = 4.15772 5.44190 4.84257
#
# Compressibility (1/GPa) = 0.08294218
#
# Stress axis : x y z
#
# Youngs Moduli (GPa) = 17.59936 77.00267 55.17520
#
# Poissons Ratio (x) = -0.75772 0.50683
# Poissons Ratio (y) = -0.17318 0.17373
# Poissons Ratio (z) = 0.16166 0.24246
#
# Static dielectric constant tensor:
#      x y z
#    x 1.883600 0.000000 0.039330 
#    y 0.000000 1.848810 0.000000 
#    z 0.039330 0.000000 1.834910 
# 
# From -- ./inp_files/189541.got.cif
#   From: 2010.05.17/outbox.cif.g08.bks.cpg/sg12_95_cif.got.tgz:189541.got - 2010.06.03 13:09:07.
