data_PCOD9180434
_publ_section_title
;
Structure prediction by ZEFSAII (Michael W. Deem and Ramdas Pophale) SiO2 
 PCOD9180434
Probable space group: C 2/M
;
_chemical_formula_sum "Si O2"
_cell_formula_units_Z 48
_cell_length_a 7.798584
_cell_length_b 29.428161
_cell_length_c 8.059011
_cell_angle_alpha 90.000000
_cell_angle_beta 92.779485
_cell_angle_gamma 90.000000
_cell_volume 1847.350940
_symmetry_space_group_name_H-M "C 2/M"
_symmetry_group_IT_number 12
_symmetry_cell_setting 'monoclinic'
loop_
_space_group_symop_operation_xyz
x,y,z
-x,y,-z
-x,-y,-z
x,-y,z
1/2+x,1/2+y,z
1/2-x,1/2+y,-z
1/2-x,1/2-y,-z
1/2+x,1/2-y,z
loop_
_atom_site_type_symbol
_atom_site_label
_atom_site_fract_x
_atom_site_fract_y
_atom_site_fract_z
Si Si1 0.212067 0.863967 0.499869
Si Si2 0.788366 0.779514 0.670967
Si Si3 0.665723 0.695075 0.804330
Si Si4 0.385373 0.451116 0.825563
Si Si5 0.807916 0.382106 0.995626
Si Si6 0.257786 0.447609 0.317874
O O1 0.286976 0.829593 0.365538
O O2 0.257701 0.836336 0.670102
O O3 0.279635 0.914800 0.529031
O O4 0.000000 0.865416 0.500000
O O5 0.750000 0.750000 0.500000
O O6 0.744026 0.745019 0.814840
O O7 0.982862 0.792677 0.718055
O O8 0.682575 0.660568 0.957042
O O9 0.297170 0.500000 0.805811
O O10 0.534462 0.447616 0.697076
O O11 0.500000 0.451751 0.000000
O O12 0.259823 0.409358 0.847225
O O13 0.805424 0.421140 0.850393
O O14 0.000000 0.364045 0.000000
O O15 0.202774 0.500000 0.325558
#
# Coordination Sequence:
#
# PCOD9180434 Si02
#       6
#     8   8   8   8   8   8
#     4   8  15  28  49  75  99 127 161 208 267 316
#     4   9  16  32  56  78 101 130 171 220 273 326
#     4   9  18  32  51  77 102 131 180 227 264 317
#     4   8  15  29  49  72 100 138 180 218 259 309
#     4  10  19  32  49  74 107 144 180 217 265 311
#     4   9  17  30  50  77 106 136 175 218 261 316
#
# _framework density 25.983153999999999
#
# number of rings (size 3 to 8) (size 9 to 14) (size 15 to 20)
#    0.000    3.167    0.000    3.000    0.000    1.667 
#    0.000    9.167    0.000    6.000    0.000    3.500 
#    0.000   26.667    0.000    0.000    0.000    0.000 
#
# Total GULP energy -133800.984513 kJ/mol
# GULP energy per Si atom -5575.041021 kJ/mol
# Density = 2.592402 g / cm^3
# Si number density = 25.983154 Si / 1000 Ang^3
#
#
#
# Elastic Constant Matrix: (Units=GPa)
#
#
# Indices 1 2 3 4 5 6 
#
# 1 67.6873 23.1614 13.1078 0.0000 18.6454 0.0000
# 2 23.1614 239.0598 66.3851 0.0000 -4.3748 0.0000
# 3 13.1078 66.3851 80.0651 0.0000 -5.3493 0.0000
# 4 0.0000 0.0000 0.0000 13.6218 0.0000 6.4988
# 5 18.6454 -4.3748 -5.3493 0.0000 16.6874 0.0000
# 6 0.0000 0.0000 0.0000 6.4988 0.0000 26.6246
#
#
#
# Elastic Compliance Matrix: (Units=1/GPa)
#
#
# Indices 1 2 3 4 5 6 
#
# 1 0.024158 -0.001604 -0.004554 0.000000 -0.028873 0.000000
# 2 -0.001604 0.005541 -0.004205 0.000000 0.001897 0.000000
# 3 -0.004554 -0.004205 0.017360 0.000000 0.009551 0.000000
# 4 0.000000 0.000000 0.000000 0.083088 0.000000 -0.020281
# 5 -0.028873 0.001897 0.009551 0.000000 0.095746 0.000000
# 6 0.000000 0.000000 0.000000 -0.020281 0.000000 0.042510
#
#
# Mechanical properties :
#
#
# Convention : Reuss Voigt Hill
#
# Bulk Modulus (GPa) = 37.97526 65.79120 51.88323
# Shear Modulus (GPa) = 16.78387 30.33062 23.55725
#
# Velocity S-wave (km/s) = 2.54432 3.42031 3.01431
# Velocity P-wave (km/s) = 4.82478 6.40107 5.66799
#
# Compressibility (1/GPa) = 0.02633293
#
# Stress axis : x y z
#
# Youngs Moduli (GPa) = 41.39374 180.47843 57.60455
#
# Poissons Ratio (x) = 0.28956 0.26232
# Poissons Ratio (y) = 0.06641 0.24221
# Poissons Ratio (z) = 0.18850 0.75886
#
# Static dielectric constant tensor:
#      x y z
#    x 2.090250 0.000000 -0.049610 
#    y 0.000000 2.093250 0.000000 
#    z -0.049610 0.000000 2.253120 
# 
# From -- ./inp_files/124857.got.cif
#   From: 2010.05.17/outbox.cif.g08.bks.cpg/sg12_63_cif.got.tgz:124857.got - 2010.06.03 13:09:07.
