data_PCOD9180349
_publ_section_title
;
Structure prediction by ZEFSAII (Michael W. Deem and Ramdas Pophale) SiO2 
 PCOD9180349
Probable space group: C 2/M
;
_chemical_formula_sum "Si O2"
_cell_formula_units_Z 56
_cell_length_a 13.447628
_cell_length_b 8.247593
_cell_length_c 24.161222
_cell_angle_alpha 90.000000
_cell_angle_beta 53.566124
_cell_angle_gamma 90.000000
_cell_volume 2155.961276
_symmetry_space_group_name_H-M "C 2/M"
_symmetry_group_IT_number 12
_symmetry_cell_setting 'monoclinic'
loop_
_space_group_symop_operation_xyz
x,y,z
-x,y,-z
-x,-y,-z
x,-y,z
1/2+x,1/2+y,z
1/2-x,1/2+y,-z
1/2-x,1/2-y,-z
1/2+x,1/2-y,z
loop_
_atom_site_type_symbol
_atom_site_label
_atom_site_fract_x
_atom_site_fract_y
_atom_site_fract_z
Si Si1 0.739011 0.805381 0.841314
Si Si2 0.888001 0.322620 0.577852
Si Si3 0.128727 0.192614 0.985843
Si Si4 0.474136 0.193322 0.870191
Si Si5 0.417892 0.195294 0.276117
Si Si6 0.685466 0.182366 0.577752
Si Si7 0.149512 0.191901 0.303719
O O1 0.605911 0.770628 0.856565
O O2 0.834347 0.741102 0.763451
O O3 0.750848 0.000000 0.840730
O O4 0.729847 0.736689 0.905950
O O5 0.824780 0.500000 0.600745
O O6 0.805280 0.184482 0.578371
O O7 0.935340 0.276082 0.622744
O O8 0.000000 0.337610 0.500000
O O9 0.122765 0.257065 0.050313
O O10 0.124921 0.000000 0.991124
O O11 0.000000 0.252550 0.000000
O O12 0.489813 0.262263 0.802517
O O13 0.464473 0.000000 0.867399
O O14 0.405684 0.260084 0.343609
O O15 0.284546 0.216709 0.289001
O O16 0.435104 0.000000 0.275531
O O17 0.750000 0.250000 0.500000
O O18 0.645892 0.000000 0.578434
O O19 0.127971 0.000000 0.308388
#
# Coordination Sequence:
#
# PCOD9180349 Si02
#       7
#     8   8   8   8   8   8   8
#     4   8  13  21  32  45  63  92 129 164 199 244
#     4  10  20  32  46  66  91 118 149 184 223 267
#     4   9  15  19  24  40  65  91 122 161 201 238
#     4   8  12  20  32  43  60  91 128 161 195 238
#     4   7  12  23  38  54  72  98 133 170 206 250
#     4  10  19  32  49  68  90 116 149 186 225 268
#     4   8  14  25  40  56  74 100 137 176 212 253
#
# _framework density 25.974494
#
# number of rings (size 3 to 8) (size 9 to 14) (size 15 to 20)
#    0.000    3.429    0.000    3.857    0.000    3.429 
#    0.000    7.857    0.000    0.000    0.000    0.000 
#    0.000    0.000    0.000    1.286    0.000   16.571 
#
# Total GULP energy -156117.508092 kJ/mol
# GULP energy per Si atom -5575.625289 kJ/mol
# Density = 2.591537 g / cm^3
# Si number density = 25.974494 Si / 1000 Ang^3
#
#
#
# Elastic Constant Matrix: (Units=GPa)
#
#
# Indices 1 2 3 4 5 6 
#
# 1 54.1457 9.4764 52.5996 0.0000 42.5182 0.0000
# 2 9.4764 30.4640 47.3168 0.0000 7.1177 0.0000
# 3 52.5996 47.3168 359.6793 0.0000 39.7465 0.0000
# 4 0.0000 0.0000 0.0000 21.7153 0.0000 -1.9135
# 5 42.5182 7.1177 39.7465 0.0000 54.5605 0.0000
# 6 0.0000 0.0000 0.0000 -1.9135 0.0000 14.8378
#
#
#
# Elastic Compliance Matrix: (Units=1/GPa)
#
#
# Indices 1 2 3 4 5 6 
#
# 1 0.051175 -0.002487 -0.003029 0.000000 -0.037349 0.000000
# 2 -0.002487 0.041498 -0.005124 0.000000 0.000258 0.000000
# 3 -0.003029 -0.005124 0.003874 0.000000 0.000207 0.000000
# 4 0.000000 0.000000 0.000000 0.046580 0.000000 0.006007
# 5 -0.037349 0.000258 0.000207 0.000000 0.047249 0.000000
# 6 0.000000 0.000000 0.000000 0.006007 0.000000 0.068170
#
#
# Mechanical properties :
#
#
# Convention : Reuss Voigt Hill
#
# Bulk Modulus (GPa) = 13.28623 73.67496 43.48059
# Shear Modulus (GPa) = 16.39793 40.54912 28.47352
#
# Velocity S-wave (km/s) = 2.51531 3.95538 3.31450
# Velocity P-wave (km/s) = 3.68265 7.02040 5.60571
#
# Compressibility (1/GPa) = 0.07526590
#
# Stress axis : x y z
#
# Youngs Moduli (GPa) = 19.54074 24.09775 258.09855
#
# Poissons Ratio (x) = 0.05994 0.78189
# Poissons Ratio (y) = 0.04861 1.32245
# Poissons Ratio (z) = 0.05920 0.12347
#
# Static dielectric constant tensor:
#      x y z
#    x 2.251420 0.000000 -0.069820 
#    y 0.000000 1.890990 0.000000 
#    z -0.069820 0.000000 2.193420 
# 
# From -- ./inp_files/345464.got.cif
#   From: 2010.05.17/outbox.cif.g08.bks.cpg/sg12_173_cif.got.tgz:345464.got - 2010.06.03 13:09:07.
