data_PCOD9180279
_publ_section_title
;
Structure prediction by ZEFSAII (Michael W. Deem and Ramdas Pophale) SiO2 
 PCOD9180279
Probable space group: C 2/M
;
_chemical_formula_sum "Si O2"
_cell_formula_units_Z 60
_cell_length_a 9.423587
_cell_length_b 26.984605
_cell_length_c 15.862489
_cell_angle_alpha 90.000000
_cell_angle_beta 64.618740
_cell_angle_gamma 90.000000
_cell_volume 3644.349686
_symmetry_space_group_name_H-M "C 2/M"
_symmetry_group_IT_number 12
_symmetry_cell_setting 'monoclinic'
loop_
_space_group_symop_operation_xyz
x,y,z
-x,y,-z
-x,-y,-z
x,-y,z
1/2+x,1/2+y,z
1/2-x,1/2+y,-z
1/2-x,1/2-y,-z
1/2+x,1/2-y,z
loop_
_atom_site_type_symbol
_atom_site_label
_atom_site_fract_x
_atom_site_fract_y
_atom_site_fract_z
Si Si1 0.834507 0.056495 0.506670
Si Si2 0.416607 0.659645 0.275870
Si Si3 0.292899 0.554688 0.318458
Si Si4 0.611981 0.794416 0.279772
Si Si5 0.500000 0.751075 0.000000
Si Si6 0.840081 0.779994 0.873281
Si Si7 0.980811 0.613085 0.406525
Si Si8 0.407795 0.717980 0.439776
O O1 0.840435 0.053196 0.404276
O O2 0.690863 0.092013 0.564425
O O3 0.000000 0.073723 0.500000
O O4 0.806542 0.000000 0.545266
O O5 0.381107 0.603095 0.261329
O O6 0.290762 0.695102 0.261311
O O7 0.586918 0.677267 0.203427
O O8 0.381626 0.672005 0.383027
O O9 0.319900 0.500000 0.274880
O O10 0.109070 0.569456 0.364519
O O11 0.615529 0.771750 0.185488
O O12 0.523241 0.844636 0.328619
O O13 0.526516 0.753759 0.359082
O O14 0.347535 0.781507 0.069816
O O15 0.573793 0.719918 0.058414
O O16 0.000000 0.631043 0.500000
O O17 0.500000 0.703058 0.500000
O O18 0.250000 0.750000 0.500000
#
# Coordination Sequence:
#
# PCOD9180279 Si02
#       8
#     8   8   8   8   4   8   8   8
#     4   9  17  29  42  62  92 129 177 220 252 278
#     4  10  20  33  50  74 104 130 172 213 246 290
#     4   9  18  32  49  67  93 133 178 217 245 281
#     4  10  19  32  47  70 105 130 166 211 239 287
#     4  10  20  36  60  74 102 126 158 186 260 320
#     4  10  20  36  54  79 101 131 153 202 246 316
#     4   9  17  29  49  67  94 137 179 208 244 280
#     4  11  21  31  45  66 102 146 175 200 243 290
#
# _framework density 16.463843000000001
#
# number of rings (size 3 to 8) (size 9 to 14) (size 15 to 20)
#    0.000    2.267    2.667    0.800    3.733    2.133 
#    2.400    0.000    0.000    0.000    0.000    0.933 
#    0.000    0.000    0.000    3.333    0.000    0.000 
#
# Total GULP energy -167149.832157 kJ/mol
# GULP energy per Si atom -5571.661072 kJ/mol
# Density = 1.642637 g / cm^3
# Si number density = 16.463843 Si / 1000 Ang^3
#
#
#
# Elastic Constant Matrix: (Units=GPa)
#
#
# Indices 1 2 3 4 5 6 
#
# 1 94.7410 27.6770 28.6726 0.0000 -10.4772 0.0000
# 2 27.6770 75.6064 25.5748 0.0000 -9.8069 0.0000
# 3 28.6726 25.5748 65.6268 0.0000 -15.9159 0.0000
# 4 0.0000 0.0000 0.0000 12.4059 0.0000 -12.5955
# 5 -10.4772 -9.8069 -15.9159 0.0000 35.1619 0.0000
# 6 0.0000 0.0000 0.0000 -12.5955 0.0000 41.7368
#
#
#
# Elastic Compliance Matrix: (Units=1/GPa)
#
#
# Indices 1 2 3 4 5 6 
#
# 1 0.012846 -0.003170 -0.004115 0.000000 0.001081 0.000000
# 2 -0.003170 0.016114 -0.004531 0.000000 0.001499 0.000000
# 3 -0.004115 -0.004531 0.020441 0.000000 0.006763 0.000000
# 4 0.000000 0.000000 0.000000 0.116214 0.000000 0.035072
# 5 0.001081 0.001499 0.006763 0.000000 0.032241 0.000000
# 6 0.000000 0.000000 0.000000 0.035072 0.000000 0.034544
#
#
# Mechanical properties :
#
#
# Convention : Reuss Voigt Hill
#
# Bulk Modulus (GPa) = 38.80644 44.42476 41.61560
# Shear Modulus (GPa) = 18.89479 28.13090 23.51284
#
# Velocity S-wave (km/s) = 3.39138 4.13806 3.78319
# Velocity P-wave (km/s) = 6.24157 7.06210 6.66447
#
# Compressibility (1/GPa) = 0.02576892
#
# Stress axis : x y z
#
# Youngs Moduli (GPa) = 77.84427 62.05764 48.92040
#
# Poissons Ratio (x) = 0.19675 0.20130
# Poissons Ratio (y) = 0.24680 0.22166
# Poissons Ratio (z) = 0.32032 0.28118
#
# Static dielectric constant tensor:
#      x y z
#    x 1.577750 0.000000 -0.006810 
#    y 0.000000 1.594390 0.000000 
#    z -0.006810 0.000000 1.563680 
# 
# From -- ./inp_files/259552.got.cif
#   From: 2010.05.17/outbox.cif.g08.bks.cpg/sg12_130_cif.got.tgz:259552.got - 2010.06.03 13:09:07.
