data_PCOD9180704
_publ_section_title
;
Structure prediction by ZEFSAII (Michael W. Deem and Ramdas Pophale) SiO2 
 PCOD9180704
Probable space group: C 2/M
;
_chemical_formula_sum "Si O2"
_cell_formula_units_Z 48
_cell_length_a 27.942967
_cell_length_b 8.867128
_cell_length_c 21.161136
_cell_angle_alpha 90.000000
_cell_angle_beta 32.778328
_cell_angle_gamma 90.000000
_cell_volume 2838.604503
_symmetry_space_group_name_H-M "C 2/M"
_symmetry_group_IT_number 12
_symmetry_cell_setting 'monoclinic'
loop_
_space_group_symop_operation_xyz
x,y,z
-x,y,-z
-x,-y,-z
x,-y,z
1/2+x,1/2+y,z
1/2-x,1/2+y,-z
1/2-x,1/2-y,-z
1/2+x,1/2-y,z
loop_
_atom_site_type_symbol
_atom_site_label
_atom_site_fract_x
_atom_site_fract_y
_atom_site_fract_z
Si Si1 0.825079 0.317842 0.961054
Si Si2 0.324711 0.177196 0.107777
Si Si3 0.984945 0.179993 0.248922
Si Si4 0.797765 0.177819 0.264836
Si Si5 0.033658 0.322641 0.866629
Si Si6 0.702979 0.678990 0.490344
O O1 0.828891 0.500000 0.953157
O O2 0.920631 0.248863 0.837230
O O3 0.750000 0.250000 0.000000
O O4 0.806452 0.277790 0.055494
O O5 0.277987 0.265817 0.215987
O O6 0.304702 0.000000 0.136604
O O7 0.430811 0.194537 0.997496
O O8 0.958556 0.263344 0.213397
O O9 0.902422 0.204110 0.386930
O O10 0.993738 0.000000 0.228266
O O11 0.898228 0.227934 0.168198
O O12 0.741274 0.253751 0.383320
O O13 0.788904 0.000000 0.278980
O O14 0.055722 0.500000 0.846846
O O15 0.719246 0.500000 0.473881
O O16 0.750000 0.750000 0.500000
#
# Coordination Sequence:
#
# PCOD9180704 Si02
#       6
#     8   8   8   8   8   8
#     4  10  21  38  62  86 109 138 173 222 279 328
#     4   9  20  36  52  75 105 140 178 219 273 325
#     4  10  20  34  54  81 109 140 183 226 268 320
#     4  12  23  32  48  75 108 148 185 221 265 316
#     4  10  19  32  51  73 105 145 181 222 269 319
#     4  11  22  35  53  76 109 150 188 225 263 316
#
# _framework density 16.909716
#
# number of rings (size 3 to 8) (size 9 to 14) (size 15 to 20)
#    0.000    1.667    1.667    5.000    0.000    8.000 
#    0.000    0.000    0.000    1.000    0.000    7.000 
#    0.000    0.000    0.000    0.000    0.000    0.000 
#
# Total GULP energy -133972.350554 kJ/mol
# GULP energy per Si atom -5582.181273 kJ/mol
# Density = 1.687123 g / cm^3
# Si number density = 16.909716 Si / 1000 Ang^3
#
#
#
# Elastic Constant Matrix: (Units=GPa)
#
#
# Indices 1 2 3 4 5 6 
#
# 1 95.5187 49.4271 69.7117 -0.0015 2.7667 0.0016
# 2 49.4271 102.0453 69.7406 -0.0009 14.8816 0.0006
# 3 69.7117 69.7406 93.9717 -0.0004 21.9926 0.0018
# 4 -0.0015 -0.0009 -0.0004 27.1338 0.0013 -0.5681
# 5 2.7667 14.8816 21.9926 0.0013 19.9091 -0.0017
# 6 0.0016 0.0006 0.0018 -0.5681 -0.0017 26.4315
#
#
#
# Elastic Compliance Matrix: (Units=1/GPa)
#
#
# Indices 1 2 3 4 5 6 
#
# 1 0.032147 0.002328 -0.032534 0.000000 0.029731 0.000002
# 2 0.002328 0.020110 -0.017610 0.000000 0.004098 0.000001
# 3 -0.032534 -0.017610 0.058946 0.000001 -0.047430 -0.000005
# 4 0.000000 0.000000 0.000001 0.036871 -0.000003 0.000793
# 5 0.029731 0.004098 -0.047430 -0.000003 0.095428 0.000007
# 6 0.000002 0.000001 -0.000005 0.000793 0.000007 0.037851
#
#
# Mechanical properties :
#
#
# Convention : Reuss Voigt Hill
#
# Bulk Modulus (GPa) = 64.22380 74.36604 69.29492
# Shear Modulus (GPa) = 13.08302 21.53862 17.31082
#
# Velocity S-wave (km/s) = 2.78456 3.57282 3.20303
# Velocity P-wave (km/s) = 6.95710 7.81626 7.39916
#
# Compressibility (1/GPa) = 0.01557055
#
# Stress axis : x y z
#
# Youngs Moduli (GPa) = 31.10683 49.72688 16.96475
#
# Poissons Ratio (x) = -0.11574 0.55192
# Poissons Ratio (y) = -0.07240 0.29875
# Poissons Ratio (z) = 1.01202 0.87570
#
# Static dielectric constant tensor:
#      x y z
#    x 1.580630 0.000000 0.015340 
#    y 0.000000 1.569840 0.000000 
#    z 0.015340 0.000000 1.589040 
# 
# From -- ./inp_files/329011.got.cif
#   From: 2010.05.17/outbox.cif.g08.bks.cpg/sg12_165_cif.got.tgz:329011.got - 2010.06.03 13:09:07.
