data_PCOD9180191
_publ_section_title
;
Structure prediction by ZEFSAII (Michael W. Deem and Ramdas Pophale) SiO2 
 PCOD9180191
Probable space group: C 2/M
;
_chemical_formula_sum "Si O2"
_cell_formula_units_Z 32
_cell_length_a 16.375538
_cell_length_b 12.226916
_cell_length_c 8.575193
_cell_angle_alpha 90.000000
_cell_angle_beta 125.042039
_cell_angle_gamma 90.000000
_cell_volume 1405.716146
_symmetry_space_group_name_H-M "C 2/M"
_symmetry_group_IT_number 12
_symmetry_cell_setting 'monoclinic'
loop_
_space_group_symop_operation_xyz
x,y,z
-x,y,-z
-x,-y,-z
x,-y,z
1/2+x,1/2+y,z
1/2-x,1/2+y,-z
1/2-x,1/2-y,-z
1/2+x,1/2-y,z
loop_
_atom_site_type_symbol
_atom_site_label
_atom_site_fract_x
_atom_site_fract_y
_atom_site_fract_z
Si Si1 0.116674 0.500000 0.083381
Si Si2 0.633459 0.629290 0.947666
Si Si3 0.242904 0.802226 0.744274
Si Si4 0.999622 0.500000 0.684083
Si Si5 0.452013 0.243865 0.622711
O O1 0.108030 0.500000 0.884210
O O2 0.176015 0.394107 0.199810
O O3 0.000000 0.500000 0.000000
O O4 0.625639 0.500000 0.961575
O O5 0.686975 0.656012 0.840617
O O6 0.524952 0.686384 0.812468
O O7 0.700526 0.690545 0.149483
O O8 0.159101 0.787825 0.521571
O O9 0.952833 0.617191 0.672058
O O10 0.000000 0.500000 0.500000
O O11 0.500000 0.247747 0.500000
#
# Coordination Sequence:
#
# PCOD9180191 Si02
#       5
#     4   8   8   4   8
#     4  12  24  42  61  84 124 167 202 238 288 370
#     4  10  19  31  55  87 123 142 192 255 308 339
#     4  10  21  34  54  88 118 159 194 241 304 354
#     4  10  20  38  60  88 121 150 199 252 294 348
#     4   9  19  31  54  87 119 150 190 251 301 350
#
# _framework density 22.764196999999999
#
# number of rings (size 3 to 8) (size 9 to 14) (size 15 to 20)
#    0.000    2.000    3.750    0.000    7.000    1.500 
#    0.000    1.250    0.000    0.750    0.000    0.000 
#    0.000    0.000    0.000    0.000    0.000    0.000 
#
# Total GULP energy -89450.598083 kJ/mol
# GULP energy per Si atom -5590.662380 kJ/mol
# Density = 2.271238 g / cm^3
# Si number density = 22.764197 Si / 1000 Ang^3
#
#
#
# Elastic Constant Matrix: (Units=GPa)
#
#
# Indices 1 2 3 4 5 6 
#
# 1 65.3303 40.4816 50.5135 0.0000 24.1275 0.0000
# 2 40.4816 216.6165 80.5738 0.0000 37.4184 0.0000
# 3 50.5135 80.5738 146.0043 0.0000 46.5623 0.0000
# 4 0.0000 0.0000 0.0000 38.3402 0.0000 20.4617
# 5 24.1275 37.4184 46.5623 0.0000 38.1210 0.0000
# 6 0.0000 0.0000 0.0000 20.4617 0.0000 -39.8597
#
#
#
# Elastic Compliance Matrix: (Units=1/GPa)
#
#
# Indices 1 2 3 4 5 6 
#
# 1 0.022396 -0.001154 -0.004836 0.000000 -0.007135 0.000000
# 2 -0.001154 0.006075 -0.002104 0.000000 -0.002662 0.000000
# 3 -0.004836 -0.002104 0.013184 0.000000 -0.010978 0.000000
# 4 0.000000 0.000000 0.000000 0.020473 0.000000 0.010510
# 5 -0.007135 -0.002662 -0.010978 0.000000 0.046770 0.000000
# 6 0.000000 0.000000 0.000000 0.010510 0.000000 -0.019693
#
#
# Mechanical properties :
#
#
# Convention : Reuss Voigt Hill
#
# Bulk Modulus (GPa) = 39.26663 85.67654 62.47158
# Shear Modulus (GPa) = 43.90457 24.41243 34.15850
#
# Velocity S-wave (km/s) = 4.39642 3.27831 3.87788
# Velocity P-wave (km/s) = 6.56187 7.21443 6.89587
#
# Compressibility (1/GPa) = 0.02546692
#
# Stress axis : x y z
#
# Youngs Moduli (GPa) = 44.64996 164.61875 75.84784
#
# Poissons Ratio (x) = 0.18998 0.36681
# Poissons Ratio (y) = 0.05153 0.15959
# Poissons Ratio (z) = 0.21593 0.34636
#
# Static dielectric constant tensor:
#      x y z
#    x 1.983470 0.000000 -0.079830 
#    y 0.000000 1.783090 0.000000 
#    z -0.079830 0.000000 1.856310 
# 
# From -- ./inp_files/56840.got.cif
#   From: 2010.05.17/outbox.cif.g08.bks.cpg/sg12_29_cif.got.tgz:56840.got - 2010.06.03 13:09:07.
