data_PCOD9180313
_publ_section_title
;
Structure prediction by ZEFSAII (Michael W. Deem and Ramdas Pophale) SiO2 
 PCOD9180313
Probable space group: C 2/M
;
_chemical_formula_sum "Si O2"
_cell_formula_units_Z 56
_cell_length_a 18.104198
_cell_length_b 11.594107
_cell_length_c 22.716352
_cell_angle_alpha 90.000000
_cell_angle_beta 149.566564
_cell_angle_gamma 90.000000
_cell_volume 2415.273798
_symmetry_space_group_name_H-M "C 2/M"
_symmetry_group_IT_number 12
_symmetry_cell_setting 'monoclinic'
loop_
_space_group_symop_operation_xyz
x,y,z
-x,y,-z
-x,-y,-z
x,-y,z
1/2+x,1/2+y,z
1/2-x,1/2+y,-z
1/2-x,1/2-y,-z
1/2+x,1/2-y,z
loop_
_atom_site_type_symbol
_atom_site_label
_atom_site_fract_x
_atom_site_fract_y
_atom_site_fract_z
Si Si1 0.163329 0.129505 0.638025
Si Si2 0.598214 0.881409 0.436140
Si Si3 0.863699 0.627771 0.056036
Si Si4 0.438684 0.372371 0.222520
Si Si5 0.810647 0.697388 0.626118
Si Si6 0.801128 0.719833 0.227376
Si Si7 0.345206 0.365353 0.985110
O O1 0.275789 0.131332 0.661103
O O2 0.223163 0.219767 0.727004
O O3 0.000000 0.155488 0.500000
O O4 0.154859 0.000000 0.657314
O O5 0.666306 0.769196 0.511588
O O6 0.647035 0.875593 0.401734
O O7 0.425567 0.874513 0.321487
O O8 0.651445 0.000000 0.500322
O O9 0.932629 0.500000 0.092341
O O10 0.703314 0.619800 0.915823
O O11 0.919065 0.749746 0.065818
O O12 0.814336 0.633377 0.090946
O O13 0.496487 0.500000 0.272486
O O14 0.563599 0.292492 0.282263
O O15 0.380885 0.317531 0.242870
O O16 0.678894 0.667438 0.100051
O O17 0.399475 0.500000 0.028615
#
# Coordination Sequence:
#
# PCOD9180313 Si02
#       7
#     8   8   8   8   8   8   8
#     4  11  22  37  53  71  99 135 175 218 257 307
#     4  10  19  32  48  69  97 127 163 206 251 303
#     4   8  15  28  49  77 106 137 174 215 259 308
#     4   9  17  31  52  76 101 131 169 212 253 305
#     4  10  20  33  49  72  95 129 169 206 255 302
#     4  10  19  32  50  75 102 133 171 206 259 306
#     4   9  16  28  48  76 109 138 169 215 266 311
#
# _framework density 23.185776000000001
#
# number of rings (size 3 to 8) (size 9 to 14) (size 15 to 20)
#    0.000    2.429    1.429    1.714    0.000    0.571 
#    0.000    4.286    0.000    0.857    0.000    4.000 
#    0.000    0.000    0.000    0.000    0.000    0.000 
#
# Total GULP energy -156075.104023 kJ/mol
# GULP energy per Si atom -5574.110858 kJ/mol
# Density = 2.313300 g / cm^3
# Si number density = 23.185776 Si / 1000 Ang^3
#
#
#
# Elastic Constant Matrix: (Units=GPa)
#
#
# Indices 1 2 3 4 5 6 
#
# 1 59.3351 25.6684 9.6740 -0.0001 -14.2723 0.0000
# 2 25.6684 179.2652 27.1347 -0.0003 -10.7056 -0.0002
# 3 9.6740 27.1347 57.8164 -0.0001 -13.0894 -0.0001
# 4 -0.0001 -0.0003 -0.0001 15.5154 -0.0001 5.8294
# 5 -14.2723 -10.7056 -13.0894 -0.0001 28.0906 -0.0001
# 6 0.0000 -0.0002 -0.0001 5.8294 -0.0001 9.1741
#
#
#
# Elastic Compliance Matrix: (Units=1/GPa)
#
#
# Indices 1 2 3 4 5 6 
#
# 1 0.020103 -0.002297 -0.000192 0.000000 0.009249 0.000000
# 2 -0.002297 0.006297 -0.002562 0.000000 0.000039 0.000000
# 3 -0.000192 -0.002562 0.020444 0.000000 0.008453 0.000000
# 4 0.000000 0.000000 0.000000 0.084664 0.000000 -0.053797
# 5 0.009249 0.000039 0.008453 0.000000 0.044252 0.000001
# 6 0.000000 0.000000 0.000000 -0.053797 0.000001 0.143186
#
#
# Mechanical properties :
#
#
# Convention : Reuss Voigt Hill
#
# Bulk Modulus (GPa) = 27.21618 46.81897 37.01758
# Shear Modulus (GPa) = 14.65001 26.15201 20.40101
#
# Velocity S-wave (km/s) = 2.51640 3.36212 2.96952
# Velocity P-wave (km/s) = 4.49520 5.94210 5.26856
#
# Compressibility (1/GPa) = 0.03674284
#
# Stress axis : x y z
#
# Youngs Moduli (GPa) = 49.74321 158.79501 48.91312
#
# Poissons Ratio (x) = 0.36478 0.00937
# Poissons Ratio (y) = 0.11427 0.12533
# Poissons Ratio (z) = 0.00953 0.40689
#
# Static dielectric constant tensor:
#      x y z
#    x 1.858070 0.000000 -0.025100 
#    y 0.000000 2.074540 0.000000 
#    z -0.025100 0.000000 1.947710 
# 
# From -- ./inp_files/315379.got.cif
#   From: 2010.05.17/outbox.cif.g08.bks.cpg/sg12_158_cif.got.tgz:315379.got - 2010.06.03 13:09:07.
