data_PCOD9180606
_publ_section_title
;
Structure prediction by ZEFSAII (Michael W. Deem and Ramdas Pophale) SiO2 
 PCOD9180606
Probable space group: C 2/M
;
_chemical_formula_sum "Si O2"
_cell_formula_units_Z 56
_cell_length_a 19.725218
_cell_length_b 8.831339
_cell_length_c 22.310818
_cell_angle_alpha 90.000000
_cell_angle_beta 54.987740
_cell_angle_gamma 90.000000
_cell_volume 3183.195381
_symmetry_space_group_name_H-M "C 2/M"
_symmetry_group_IT_number 12
_symmetry_cell_setting 'monoclinic'
loop_
_space_group_symop_operation_xyz
x,y,z
-x,y,-z
-x,-y,-z
x,-y,z
1/2+x,1/2+y,z
1/2-x,1/2+y,-z
1/2-x,1/2-y,-z
1/2+x,1/2-y,z
loop_
_atom_site_type_symbol
_atom_site_label
_atom_site_fract_x
_atom_site_fract_y
_atom_site_fract_z
Si Si1 0.692907 0.181127 0.579857
Si Si2 0.783446 0.318442 0.294411
Si Si3 0.235007 0.819242 0.102207
Si Si4 0.882114 0.680439 0.941344
Si Si5 0.330825 0.180838 0.743493
Si Si6 0.489840 0.181890 0.298961
Si Si7 0.958868 0.819744 0.184743
O O1 0.750000 0.250000 0.500000
O O2 0.718465 0.226654 0.634525
O O3 0.595526 0.220670 0.624133
O O4 0.699239 0.000000 0.573343
O O5 0.787890 0.500000 0.289172
O O6 0.706310 0.256798 0.296551
O O7 0.867665 0.249939 0.223970
O O8 0.169994 0.750650 0.087481
O O9 0.219143 0.743280 0.173876
O O10 0.222697 0.000000 0.112307
O O11 0.325852 0.791090 0.028317
O O12 0.888575 0.500000 0.929229
O O13 0.972439 0.753636 0.894896
O O14 0.427039 0.217012 0.707304
O O15 0.322395 0.000000 0.744295
O O16 0.487971 0.266227 0.236303
O O17 0.488670 0.000000 0.287433
O O18 0.955864 0.000000 0.183035
#
# Coordination Sequence:
#
# PCOD9180606 Si02
#       7
#     8   8   8   8   8   8   8
#     4   9  19  37  60  84 109 141 177 218 267 320
#     4  10  22  39  57  78 112 147 178 221 276 328
#     4  10  20  32  50  77 108 144 185 229 276 322
#     4  10  19  32  50  75 108 144 184 231 278 320
#     4  11  21  35  56  81 111 145 183 226 275 326
#     4   9  19  35  55  80 111 145 179 220 271 321
#     4  11  20  32  54  81 106 139 189 233 271 324
#
# _framework density 17.592386000000001
#
# number of rings (size 3 to 8) (size 9 to 14) (size 15 to 20)
#    0.000    2.000    1.429    3.857    0.000    5.143 
#    0.000    1.429    0.000    8.571    0.000    0.000 
#    0.000    0.000    0.000    0.000    0.000    0.000 
#
# Total GULP energy -156307.106381 kJ/mol
# GULP energy per Si atom -5582.396656 kJ/mol
# Density = 1.755235 g / cm^3
# Si number density = 17.592386 Si / 1000 Ang^3
#
#
#
# Elastic Constant Matrix: (Units=GPa)
#
#
# Indices 1 2 3 4 5 6 
#
# 1 102.1820 42.2869 45.8147 0.0000 -5.7699 0.0003
# 2 42.2869 63.6859 38.4474 0.0000 -8.9006 0.0005
# 3 45.8147 38.4474 109.7019 0.0000 -16.1565 0.0001
# 4 0.0000 0.0000 0.0000 31.7206 0.0000 -1.5637
# 5 -5.7699 -8.9006 -16.1565 0.0000 17.9392 0.0000
# 6 0.0003 0.0005 0.0001 -1.5637 0.0000 29.6313
#
#
#
# Elastic Compliance Matrix: (Units=1/GPa)
#
#
# Indices 1 2 3 4 5 6 
#
# 1 0.014518 -0.007747 -0.003720 0.000000 -0.002524 0.000000
# 2 -0.007747 0.024321 -0.004471 0.000000 0.005548 0.000000
# 3 -0.003720 -0.004471 0.013528 0.000000 0.008768 0.000000
# 4 0.000000 0.000000 0.000000 0.031607 0.000000 0.001668
# 5 -0.002524 0.005548 0.008768 0.000000 0.065582 0.000000
# 6 0.000000 0.000000 0.000000 0.001668 0.000000 0.033836
#
#
# Mechanical properties :
#
#
# Convention : Reuss Voigt Hill
#
# Bulk Modulus (GPa) = 48.80383 58.74086 53.77235
# Shear Modulus (GPa) = 22.51271 25.79293 24.15282
#
# Velocity S-wave (km/s) = 3.58115 3.83318 3.70930
# Velocity P-wave (km/s) = 6.70083 7.28378 6.99838
#
# Compressibility (1/GPa) = 0.02049019
#
# Stress axis : x y z
#
# Youngs Moduli (GPa) = 68.88179 41.11742 73.92341
#
# Poissons Ratio (x) = 0.31853 0.27498
# Poissons Ratio (y) = 0.53361 0.33053
# Poissons Ratio (z) = 0.25622 0.18385
#
# Static dielectric constant tensor:
#      x y z
#    x 1.597930 0.000000 -0.016420 
#    y 0.000000 1.587390 0.000000 
#    z -0.016420 0.000000 1.592700 
# 
# From -- ./inp_files/319640.got.cif
#   From: 2010.05.17/outbox.cif.g08.bks.cpg/sg12_160_cif.got.tgz:319640.got - 2010.06.03 13:09:07.
