data_PCOD9180613
_publ_section_title
;
Structure prediction by ZEFSAII (Michael W. Deem and Ramdas Pophale) SiO2 
 PCOD9180613
Probable space group: C 2/M
;
_chemical_formula_sum "Si O2"
_cell_formula_units_Z 40
_cell_length_a 24.391081
_cell_length_b 9.189993
_cell_length_c 20.717348
_cell_angle_alpha 90.000000
_cell_angle_beta 148.144528
_cell_angle_gamma 90.000000
_cell_volume 2450.936123
_symmetry_space_group_name_H-M "C 2/M"
_symmetry_group_IT_number 12
_symmetry_cell_setting 'monoclinic'
loop_
_space_group_symop_operation_xyz
x,y,z
-x,y,-z
-x,-y,-z
x,-y,z
1/2+x,1/2+y,z
1/2-x,1/2+y,-z
1/2-x,1/2-y,-z
1/2+x,1/2-y,z
loop_
_atom_site_type_symbol
_atom_site_label
_atom_site_fract_x
_atom_site_fract_y
_atom_site_fract_z
Si Si1 0.381924 0.327408 0.074462
Si Si2 0.823223 0.827927 0.165930
Si Si3 0.676777 0.672073 0.519485
Si Si4 0.500000 0.827656 0.423284
Si Si5 0.881924 0.827408 0.689386
O O1 0.368093 0.500000 0.048502
O O2 0.365762 0.305952 0.135311
O O3 0.500000 0.286884 0.175757
O O4 0.292593 0.237105 0.949901
O O5 0.899499 0.745663 0.290490
O O6 0.823339 0.000000 0.178748
O O7 0.676661 0.500000 0.532071
O O8 0.600501 0.754337 0.491492
O O9 0.792593 0.737105 0.635286
O O10 0.634238 0.694048 0.403787
O O11 0.500000 0.805909 0.500000
O O12 0.500000 0.000000 0.409854
O O13 0.868093 0.000000 0.687684
#
# Coordination Sequence:
#
# PCOD9180613 Si02
#       5
#     8   8   8   8   8
#     4   9  17  31  50  75 107 137 165 204 254 308
#     4  10  19  32  50  76 104 133 172 211 255 303
#     4  10  19  32  50  76 104 133 172 211 255 303
#     4  11  23  37  53  73 101 139 178 213 254 305
#     4   9  17  31  50  75 107 137 165 204 254 308
#
# _framework density 16.320295000000002
#
# number of rings (size 3 to 8) (size 9 to 14) (size 15 to 20)
#    0.000    2.200    2.000    1.800    0.000    4.000 
#    0.000    0.000    0.000    1.200    0.000    8.400 
#    0.000    0.000    0.000    0.000    0.000    0.000 
#
# Total GULP energy -111589.440705 kJ/mol
# GULP energy per Si atom -5579.472035 kJ/mol
# Density = 1.628315 g / cm^3
# Si number density = 16.320295 Si / 1000 Ang^3
#
#
#
# Elastic Constant Matrix: (Units=GPa)
#
#
# Indices 1 2 3 4 5 6 
#
# 1 75.1591 77.0068 74.5881 0.0000 18.5654 0.0000
# 2 77.0068 110.0373 91.7877 0.0000 12.3066 0.0000
# 3 74.5881 91.7877 139.2057 0.0000 34.7610 0.0000
# 4 0.0000 0.0000 0.0000 30.2465 0.0000 4.8827
# 5 18.5654 12.3066 34.7610 0.0000 24.9191 0.0000
# 6 0.0000 0.0000 0.0000 4.8827 0.0000 24.3822
#
#
#
# Elastic Compliance Matrix: (Units=1/GPa)
#
#
# Indices 1 2 3 4 5 6 
#
# 1 0.058616 -0.038253 0.000005 0.000000 -0.024785 0.000000
# 2 -0.038253 0.048450 -0.019322 0.000000 0.031525 0.000000
# 3 0.000005 -0.019322 0.026915 0.000000 -0.028006 0.000000
# 4 0.000000 0.000000 0.000000 0.034166 0.000000 -0.006842
# 5 -0.024785 0.031525 -0.028006 0.000000 0.082093 0.000000
# 6 0.000000 0.000000 0.000000 -0.006842 0.000000 0.042384
#
#
# Mechanical properties :
#
#
# Convention : Reuss Voigt Hill
#
# Bulk Modulus (GPa) = 53.07813 90.12969 71.60391
# Shear Modulus (GPa) = 12.07602 21.31088 16.69345
#
# Velocity S-wave (km/s) = 2.72313 3.61749 3.20170
# Velocity P-wave (km/s) = 6.51772 8.53193 7.59192
#
# Compressibility (1/GPa) = 0.01884015
#
# Stress axis : x y z
#
# Youngs Moduli (GPa) = 17.06019 20.63998 37.15435
#
# Poissons Ratio (x) = 0.78953 -0.00017
# Poissons Ratio (y) = 0.65260 0.71789
# Poissons Ratio (z) = -0.00008 0.39880
#
# Static dielectric constant tensor:
#      x y z
#    x 1.523470 0.000000 0.011910 
#    y 0.000000 1.538160 0.000000 
#    z 0.011910 0.000000 1.537770 
# 
# From -- ./inp_files/60855.got.cif
#   From: 2010.05.17/outbox.cif.g08.bks.cpg/sg12_31_cif.got.tgz:60855.got - 2010.06.03 13:09:07.
