data_PCOD9180096
_publ_section_title
;
Structure prediction by ZEFSAII (Michael W. Deem and Ramdas Pophale) SiO2 
 PCOD9180096
Probable space group: C 2/M
;
_chemical_formula_sum "Si O2"
_cell_formula_units_Z 42
_cell_length_a 14.913196
_cell_length_b 7.599940
_cell_length_c 18.876061
_cell_angle_alpha 90.000000
_cell_angle_beta 50.487175
_cell_angle_gamma 90.000000
_cell_volume 1650.510013
_symmetry_space_group_name_H-M "C 2/M"
_symmetry_group_IT_number 12
_symmetry_cell_setting 'monoclinic'
loop_
_space_group_symop_operation_xyz
x,y,z
-x,y,-z
-x,-y,-z
x,-y,z
1/2+x,1/2+y,z
1/2-x,1/2+y,-z
1/2-x,1/2-y,-z
1/2+x,1/2-y,z
loop_
_atom_site_type_symbol
_atom_site_label
_atom_site_fract_x
_atom_site_fract_y
_atom_site_fract_z
Si Si1 0.344333 0.213859 0.322103
Si Si2 0.814591 0.205993 0.064594
Si Si3 0.209188 0.790421 0.259943
Si Si4 0.500000 0.000000 0.500000
Si Si5 0.572331 0.205274 0.125411
Si Si6 0.050323 0.204328 0.588535
O O1 0.240806 0.273499 0.322610
O O2 0.458000 0.274505 0.220412
O O3 0.356691 0.280249 0.395257
O O4 0.340897 0.000000 0.327719
O O5 0.799373 0.226838 0.155758
O O6 0.692342 0.283142 0.095889
O O7 0.820463 0.000000 0.046705
O O8 0.917019 0.282571 0.964984
O O9 0.075455 0.747794 0.312159
O O10 0.219682 0.000000 0.254457
O O11 0.443610 0.155383 0.476428
O O12 0.574485 0.000000 0.142957
O O13 0.046446 0.000000 0.566357
#
# Coordination Sequence:
#
# PCOD9180096 Si02
#       6
#     8   8   8   2   8   8
#     4  10  20  40  66  93 129 174 214 267 322 378
#     4  10  19  31  53  84 124 171 220 269 316 361
#     4  10  22  38  64  94 129 169 217 264 320 386
#     4  12  26  48  80  94 136 162 206 264 332 398
#     4   9  18  32  54  82 121 173 223 263 315 369
#     4  11  24  45  73 101 128 167 212 258 327 396
#
# _framework density 25.446679
#
# number of rings (size 3 to 8) (size 9 to 14) (size 15 to 20)
#    0.000    1.905    2.857    0.857    1.333    3.048 
#    0.000    4.762    0.000    0.000    0.000    0.000 
#    0.000    0.000    0.000    0.000    0.000    0.000 
#
# Total GULP energy -117177.252053 kJ/mol
# GULP energy per Si atom -5579.869145 kJ/mol
# Density = 2.538876 g / cm^3
# Si number density = 25.446679 Si / 1000 Ang^3
#
#
#
# Elastic Constant Matrix: (Units=GPa)
#
#
# Indices 1 2 3 4 5 6 
#
# 1 87.7319 5.3667 33.7733 0.0000 35.6066 0.0000
# 2 5.3667 92.1726 18.9801 0.0000 15.2391 0.0001
# 3 33.7733 18.9801 136.4582 0.0000 14.5975 0.0000
# 4 0.0000 0.0000 0.0000 16.3142 0.0000 16.9579
# 5 35.6066 15.2391 14.5975 0.0000 48.1447 0.0000
# 6 0.0000 0.0001 0.0000 16.9579 0.0000 11.3719
#
#
#
# Elastic Compliance Matrix: (Units=1/GPa)
#
#
# Indices 1 2 3 4 5 6 
#
# 1 0.017675 0.001731 -0.003264 0.000000 -0.012630 0.000000
# 2 0.001731 0.011826 -0.001587 0.000000 -0.004542 0.000000
# 3 -0.003264 -0.001587 0.008315 0.000000 0.000396 0.000000
# 4 0.000000 0.000000 0.000000 -0.111441 0.000000 0.166181
# 5 -0.012630 -0.004542 0.000396 0.000000 0.031430 0.000000
# 6 0.000000 0.000000 0.000000 0.166181 0.000000 -0.159874
#
#
# Mechanical properties :
#
#
# Convention : Reuss Voigt Hill
#
# Bulk Modulus (GPa) = 31.67049 48.06697 39.86873
# Shear Modulus (GPa) = -26.98293 32.38234 2.69971
#
# Velocity S-wave (km/s) = -3.25987 3.57116 1.03113
# Velocity P-wave (km/s) = 1.30236 5.99454 4.13754
#
# Compressibility (1/GPa) = 0.03157514
#
# Stress axis : x y z
#
# Youngs Moduli (GPa) = 56.57642 84.55718 120.26984
#
# Poissons Ratio (x) = -0.14639 0.39259
# Poissons Ratio (y) = -0.09795 0.19093
# Poissons Ratio (z) = 0.18468 0.13423
#
# Static dielectric constant tensor:
#      x y z
#    x 2.048730 0.000000 -0.020300 
#    y 0.000000 1.944820 0.000000 
#    z -0.020300 0.000000 2.053540 
# 
# From -- ./inp_files/221148.got.cif
#   From: 2010.05.17/outbox.cif.g08.bks.cpg/sg12_111_cif.got.tgz:221148.got - 2010.06.03 13:09:07.
