data_PCOD9180800
_publ_section_title
;
Structure prediction by ZEFSAII (Michael W. Deem and Ramdas Pophale) SiO2 
 PCOD9180800
Probable space group: C 2/M
;
_chemical_formula_sum "Si O2"
_cell_formula_units_Z 56
_cell_length_a 19.290394
_cell_length_b 10.022406
_cell_length_c 28.783963
_cell_angle_alpha 90.000000
_cell_angle_beta 146.259746
_cell_angle_gamma 90.000000
_cell_volume 3090.950616
_symmetry_space_group_name_H-M "C 2/M"
_symmetry_group_IT_number 12
_symmetry_cell_setting 'monoclinic'
loop_
_space_group_symop_operation_xyz
x,y,z
-x,y,-z
-x,-y,-z
x,-y,z
1/2+x,1/2+y,z
1/2-x,1/2+y,-z
1/2-x,1/2-y,-z
1/2+x,1/2-y,z
loop_
_atom_site_type_symbol
_atom_site_label
_atom_site_fract_x
_atom_site_fract_y
_atom_site_fract_z
Si Si1 0.167803 0.350748 0.508677
Si Si2 0.369626 0.147873 0.621475
Si Si3 0.064410 0.342489 0.908067
Si Si4 0.034238 0.147809 0.572896
Si Si5 0.757363 0.843564 0.934684
Si Si6 0.164502 0.342469 0.779247
Si Si7 0.723028 0.844106 0.237965
O O1 0.162027 0.500000 0.524893
O O2 0.282372 0.264094 0.592444
O O3 0.175017 0.363343 0.456924
O O4 0.044187 0.265296 0.448221
O O5 0.515987 0.181305 0.702195
O O6 0.353498 0.000000 0.634244
O O7 0.078319 0.500000 0.926973
O O8 0.133871 0.321432 0.897509
O O9 0.917969 0.310759 0.826344
O O10 0.136856 0.251640 0.985523
O O11 0.179288 0.166268 0.665217
O O12 0.000000 0.148548 0.500000
O O13 0.998244 0.000000 0.571668
O O14 0.727881 0.819024 0.864501
O O15 0.791587 0.000000 0.959090
O O16 0.177969 0.500000 0.774846
O O17 0.224992 0.249630 0.773895
O O18 0.724336 0.000000 0.223737
#
# Coordination Sequence:
#
# PCOD9180800 Si02
#       7
#     8   8   8   8   8   8   8
#     4  10  19  32  51  75 102 135 176 220 265 311
#     4   9  18  32  51  74 102 138 173 213 264 315
#     4   9  19  37  57  79 109 143 180 220 268 322
#     4  10  21  36  54  76 104 142 185 224 267 322
#     4   9  19  36  59  83 107 140 181 223 266 320
#     4  10  20  35  56  83 112 143 180 224 272 321
#     4  10  21  36  56  81 109 143 180 224 273 323
#
# _framework density 18.117402999999999
#
# number of rings (size 3 to 8) (size 9 to 14) (size 15 to 20)
#    0.000    2.429    1.429    0.429    0.000    4.286 
#    0.000    7.143    0.000    3.429    0.000    0.000 
#    0.000    0.000    0.000    0.000    0.000    0.000 
#
# Total GULP energy -156081.645242 kJ/mol
# GULP energy per Si atom -5574.344473 kJ/mol
# Density = 1.807617 g / cm^3
# Si number density = 18.117403 Si / 1000 Ang^3
#
#
#
# Elastic Constant Matrix: (Units=GPa)
#
#
# Indices 1 2 3 4 5 6 
#
# 1 35.1085 43.5972 61.4810 0.0000 12.6755 0.0000
# 2 43.5972 97.8763 68.3704 0.0000 22.1642 0.0000
# 3 61.4810 68.3704 118.3695 0.0000 18.1848 0.0000
# 4 0.0000 0.0000 0.0000 52.6731 0.0000 51.4875
# 5 12.6755 22.1642 18.1848 0.0000 31.7618 0.0000
# 6 0.0000 0.0000 0.0000 51.4875 0.0000 78.6326
#
#
#
# Elastic Compliance Matrix: (Units=1/GPa)
#
#
# Indices 1 2 3 4 5 6 
#
# 1 0.510846 -0.064559 -0.223284 0.000000 -0.030979 0.000000
# 2 -0.064559 0.026784 0.018612 0.000000 -0.003582 0.000000
# 3 -0.223284 0.018612 0.111812 0.000000 0.012104 0.000000
# 4 0.000000 0.000000 0.000000 0.052743 0.000000 -0.034535
# 5 -0.030979 -0.003582 0.012104 0.000000 0.039417 0.000000
# 6 0.000000 0.000000 0.000000 -0.034535 0.000000 0.035331
#
#
# Mechanical properties :
#
#
# Convention : Reuss Voigt Hill
#
# Bulk Modulus (GPa) = 9.01073 66.47240 37.74157
# Shear Modulus (GPa) = 3.69716 37.80721 20.75219
#
# Velocity S-wave (km/s) = 1.43007 4.57310 3.38809
# Velocity P-wave (km/s) = 2.77689 8.04075 6.01518
#
# Compressibility (1/GPa) = 0.11097874
#
# Stress axis : x y z
#
# Youngs Moduli (GPa) = 1.95754 37.33632 8.94357
#
# Poissons Ratio (x) = 2.41039 1.99696
# Poissons Ratio (y) = 0.12638 -0.16646
# Poissons Ratio (z) = 0.43709 -0.69490
#
# Static dielectric constant tensor:
#      x y z
#    x 1.617350 0.000000 0.004230 
#    y 0.000000 1.647680 0.000000 
#    z 0.004230 0.000000 1.609940 
# 
# From -- ./inp_files/237399.got.cif
#   From: 2010.05.17/outbox.cif.g08.bks.cpg/sg12_119_cif.got.tgz:237399.got - 2010.06.03 13:09:07.
