data_PCOD9180320
_publ_section_title
;
Structure prediction by ZEFSAII (Michael W. Deem and Ramdas Pophale) SiO2 
 PCOD9180320
Probable space group: C 2/M
;
_chemical_formula_sum "Si O2"
_cell_formula_units_Z 44
_cell_length_a 15.403597
_cell_length_b 11.314870
_cell_length_c 16.149060
_cell_angle_alpha 90.000000
_cell_angle_beta 48.150824
_cell_angle_gamma 90.000000
_cell_volume 2096.616830
_symmetry_space_group_name_H-M "C 2/M"
_symmetry_group_IT_number 12
_symmetry_cell_setting 'monoclinic'
loop_
_space_group_symop_operation_xyz
x,y,z
-x,y,-z
-x,-y,-z
x,-y,z
1/2+x,1/2+y,z
1/2-x,1/2+y,-z
1/2-x,1/2-y,-z
1/2+x,1/2-y,z
loop_
_atom_site_type_symbol
_atom_site_label
_atom_site_fract_x
_atom_site_fract_y
_atom_site_fract_z
Si Si1 0.479877 0.631566 0.874337
Si Si2 0.834652 0.371006 0.511996
Si Si3 0.302955 0.366836 0.133032
Si Si4 0.786833 0.128326 0.740005
Si Si5 0.370538 0.790699 0.310832
Si Si6 0.000000 0.191922 0.500000
O O1 0.475629 0.500000 0.839178
O O2 0.591846 0.633522 0.865776
O O3 0.505769 0.738074 0.795457
O O4 0.367454 0.645920 0.003866
O O5 0.852263 0.500000 0.536864
O O6 0.705626 0.324897 0.614792
O O7 0.861438 0.369322 0.397800
O O8 0.917643 0.275194 0.498867
O O9 0.249645 0.500000 0.171779
O O10 0.226758 0.250693 0.200432
O O11 0.693148 0.145231 0.724985
O O12 0.913100 0.125996 0.616648
O O13 0.765804 0.000000 0.794398
#
# Coordination Sequence:
#
# PCOD9180320 Si02
#       6
#     8   8   8   8   8   4
#     4   8  13  26  46  71  99 129 161 197 239 290
#     4  10  19  32  48  72 100 129 166 209 246 286
#     4   8  15  27  47  72 100 129 163 200 237 284
#     4  10  19  33  50  73 102 132 162 201 248 295
#     4   9  18  30  49  74 100 129 161 199 249 297
#     4  10  22  34  50  68  93 132 171 200 241 296
#
# _framework density 20.986190000000001
#
# number of rings (size 3 to 8) (size 9 to 14) (size 15 to 20)
#    0.000    2.909    0.000    2.727    0.000    5.091 
#    0.000   10.909    0.000    1.091    0.000    0.000 
#    0.000    0.000    0.000    0.000    0.000    0.000 
#
# Total GULP energy -122624.079045 kJ/mol
# GULP energy per Si atom -5573.821775 kJ/mol
# Density = 2.093842 g / cm^3
# Si number density = 20.986190 Si / 1000 Ang^3
#
#
#
# Elastic Constant Matrix: (Units=GPa)
#
#
# Indices 1 2 3 4 5 6 
#
# 1 12.6816 2.5789 2.1540 0.0000 1.3631 0.0000
# 2 2.5789 172.0815 62.0771 0.0000 -10.3235 0.0000
# 3 2.1540 62.0771 85.0910 0.0000 -3.2231 0.0000
# 4 0.0000 0.0000 0.0000 8.0745 0.0000 11.7846
# 5 1.3631 -10.3235 -3.2231 0.0000 13.3333 0.0000
# 6 0.0000 0.0000 0.0000 11.7846 0.0000 28.8775
#
#
#
# Elastic Compliance Matrix: (Units=1/GPa)
#
#
# Indices 1 2 3 4 5 6 
#
# 1 0.080385 -0.001238 -0.001493 0.000000 -0.009538 0.000000
# 2 -0.001238 0.008217 -0.005770 0.000000 0.005094 0.000000
# 3 -0.001493 -0.005770 0.015982 0.000000 -0.000452 0.000000
# 4 0.000000 0.000000 0.000000 0.306240 0.000000 -0.124973
# 5 -0.009538 0.005094 -0.000452 0.000000 0.079810 0.000000
# 6 0.000000 0.000000 0.000000 -0.124973 0.000000 0.085629
#
#
# Mechanical properties :
#
#
# Convention : Reuss Voigt Hill
#
# Bulk Modulus (GPa) = 11.41790 44.83044 28.12417
# Shear Modulus (GPa) = 8.03266 23.59335 15.81300
#
# Velocity S-wave (km/s) = 1.95855 3.35659 2.74797
# Velocity P-wave (km/s) = 3.25069 6.03577 4.84755
#
# Compressibility (1/GPa) = 0.08758181
#
# Stress axis : x y z
#
# Youngs Moduli (GPa) = 12.44012 121.69986 62.56866
#
# Poissons Ratio (x) = 0.15071 0.09339
# Poissons Ratio (y) = 0.01541 0.36104
# Poissons Ratio (z) = 0.01857 0.70224
#
# Static dielectric constant tensor:
#      x y z
#    x 1.776860 0.000000 0.010360 
#    y 0.000000 1.784090 0.000000 
#    z 0.010360 0.000000 1.774100 
# 
# From -- ./inp_files/276878.got.cif
#   From: 2010.05.17/outbox.cif.g08.bks.cpg/sg12_139_cif.got.tgz:276878.got - 2010.06.03 13:09:07.
