data_PCOD9180754
_publ_section_title
;
Structure prediction by ZEFSAII (Michael W. Deem and Ramdas Pophale) SiO2 
 PCOD9180754
Probable space group: C 2/M
;
_chemical_formula_sum "Si O2"
_cell_formula_units_Z 52
_cell_length_a 14.962447
_cell_length_b 7.536685
_cell_length_c 22.532817
_cell_angle_alpha 90.000000
_cell_angle_beta 128.029979
_cell_angle_gamma 90.000000
_cell_volume 2001.487998
_symmetry_space_group_name_H-M "C 2/M"
_symmetry_group_IT_number 12
_symmetry_cell_setting 'monoclinic'
loop_
_space_group_symop_operation_xyz
x,y,z
-x,y,-z
-x,-y,-z
x,-y,z
1/2+x,1/2+y,z
1/2-x,1/2+y,-z
1/2-x,1/2-y,-z
1/2+x,1/2-y,z
loop_
_atom_site_type_symbol
_atom_site_label
_atom_site_fract_x
_atom_site_fract_y
_atom_site_fract_z
Si Si1 0.896046 0.791570 0.815722
Si Si2 0.140331 0.285940 0.881624
Si Si3 0.000000 0.247423 0.500000
Si Si4 0.064328 0.285216 0.720939
Si Si5 0.127396 0.693489 0.430803
Si Si6 0.372409 0.282440 0.936428
Si Si7 0.292834 0.213971 0.339696
O O1 0.848421 0.724480 0.858917
O O2 0.834607 0.723605 0.730404
O O3 0.032110 0.773692 0.874860
O O4 0.869650 0.000000 0.803546
O O5 0.140767 0.500000 0.884677
O O6 0.104154 0.223353 0.800743
O O7 0.271519 0.225897 0.939503
O O8 0.950200 0.317050 0.541941
O O9 0.875411 0.191844 0.421219
O O10 0.058808 0.500000 0.723990
O O11 0.148306 0.257858 0.700228
O O12 0.945339 0.207208 0.648403
O O13 0.144477 0.500000 0.412648
O O14 0.250000 0.750000 0.500000
O O15 0.372624 0.500000 0.937298
O O16 0.500000 0.222637 0.000000
O O17 0.296138 0.000000 0.356732
#
# Coordination Sequence:
#
# PCOD9180754 Si02
#       7
#     8   8   4   8   8   8   8
#     4  10  20  33  54  82 106 132 171 217 256 296
#     4  10  19  34  55  77 103 138 173 206 251 309
#     4  10  19  32  51  74 101 136 177 218 255 300
#     4   8  15  30  50  70  97 135 174 207 246 305
#     4  10  20  33  50  73 100 132 172 215 258 304
#     4   9  18  35  58  80 104 137 174 207 246 306
#     4   9  15  28  50  73  98 133 177 215 249 296
#
# _framework density 25.980668999999999
#
# number of rings (size 3 to 8) (size 9 to 14) (size 15 to 20)
#    0.000    2.615    1.538    2.308    2.154    0.615 
#    0.000    1.154    0.000    4.615    0.000    0.000 
#    0.000    0.000    0.000    0.000    0.000    0.000 
#
# Total GULP energy -144758.913606 kJ/mol
# GULP energy per Si atom -5567.650523 kJ/mol
# Density = 2.592154 g / cm^3
# Si number density = 25.980669 Si / 1000 Ang^3
#
#
#
# Elastic Constant Matrix: (Units=GPa)
#
#
# Indices 1 2 3 4 5 6 
#
# 1 124.0258 -6.2028 23.3524 0.0000 19.4759 0.0000
# 2 -6.2028 64.4479 5.7554 0.0000 3.8029 0.0000
# 3 23.3524 5.7554 127.9911 0.0000 36.9614 0.0000
# 4 0.0000 0.0000 0.0000 36.1157 0.0000 35.0088
# 5 19.4759 3.8029 36.9614 0.0000 55.1199 0.0000
# 6 0.0000 0.0000 0.0000 35.0088 0.0000 27.4805
#
#
#
# Elastic Compliance Matrix: (Units=1/GPa)
#
#
# Indices 1 2 3 4 5 6 
#
# 1 0.008684 0.001066 -0.000899 0.000000 -0.002539 0.000000
# 2 0.001066 0.015735 -0.000595 0.000000 -0.001063 0.000000
# 3 -0.000899 -0.000595 0.009798 0.000000 -0.006211 0.000000
# 4 0.000000 0.000000 0.000000 -0.117870 0.000000 0.150161
# 5 -0.002539 -0.001063 -0.006211 0.000000 0.023278 0.000000
# 6 0.000000 0.000000 0.000000 0.150161 0.000000 -0.154909
#
#
# Mechanical properties :
#
#
# Convention : Reuss Voigt Hill
#
# Bulk Modulus (GPa) = 29.97593 40.25275 35.11434
# Shear Modulus (GPa) = -24.59321 43.31387 9.36033
#
# Velocity S-wave (km/s) = -3.08002 4.08751 1.90017
# Velocity P-wave (km/s) = 1.04204 6.14850 4.28475
#
# Compressibility (1/GPa) = 0.03336010
#
# Stress axis : x y z
#
# Youngs Moduli (GPa) = 115.15230 63.55313 102.06684
#
# Poissons Ratio (x) = -0.06774 0.09177
# Poissons Ratio (y) = -0.12274 0.06073
# Poissons Ratio (z) = 0.10354 0.03781
#
# Static dielectric constant tensor:
#      x y z
#    x 2.064370 0.000000 0.099900 
#    y 0.000000 2.029850 0.000000 
#    z 0.099900 0.000000 2.185590 
# 
# From -- ./inp_files/339359.got.cif
#   From: 2010.05.17/outbox.cif.g08.bks.cpg/sg12_170_cif.got.tgz:339359.got - 2010.06.03 13:09:07.
