data_PCOD9180689
_publ_section_title
;
Structure prediction by ZEFSAII (Michael W. Deem and Ramdas Pophale) SiO2 
 PCOD9180689
Probable space group: C 2/M
;
_chemical_formula_sum "Si O2"
_cell_formula_units_Z 56
_cell_length_a 22.379614
_cell_length_b 9.780752
_cell_length_c 17.924598
_cell_angle_alpha 90.000000
_cell_angle_beta 121.298206
_cell_angle_gamma 90.000000
_cell_volume 3352.537720
_symmetry_space_group_name_H-M "C 2/M"
_symmetry_group_IT_number 12
_symmetry_cell_setting 'monoclinic'
loop_
_space_group_symop_operation_xyz
x,y,z
-x,y,-z
-x,-y,-z
x,-y,z
1/2+x,1/2+y,z
1/2-x,1/2+y,-z
1/2-x,1/2-y,-z
1/2+x,1/2-y,z
loop_
_atom_site_type_symbol
_atom_site_label
_atom_site_fract_x
_atom_site_fract_y
_atom_site_fract_z
Si Si1 0.086273 0.840912 0.742999
Si Si2 0.951210 0.153371 0.754024
Si Si3 0.430559 0.840698 0.411947
Si Si4 0.322373 0.333882 0.049546
Si Si5 0.803846 0.345061 0.444689
Si Si6 0.046415 0.841085 0.962774
Si Si7 0.325935 0.840390 0.633813
O O1 0.089725 0.744931 0.673808
O O2 0.139011 0.809265 0.845715
O O3 0.008311 0.828040 0.726208
O O4 0.097364 0.000000 0.730089
O O5 0.891877 0.265457 0.711642
O O6 0.995453 0.159930 0.858515
O O7 0.921191 0.000000 0.727890
O O8 0.500000 0.790655 0.500000
O O9 0.367770 0.835183 0.429988
O O10 0.442890 0.000000 0.399141
O O11 0.312195 0.500000 0.037034
O O12 0.378437 0.291139 0.020822
O O13 0.250000 0.250000 0.000000
O O14 0.774922 0.500000 0.422498
O O15 0.744484 0.236123 0.388119
O O16 0.829303 0.323848 0.546080
O O17 0.059995 0.000000 0.992752
O O18 0.000000 0.778513 0.000000
O O19 0.324155 0.000000 0.650027
#
# Coordination Sequence:
#
# PCOD9180689 Si02
#       7
#     8   8   8   8   8   8   8
#     4   9  19  34  51  74 104 137 171 207 250 307
#     4   9  17  31  52  74  98 129 164 203 247 296
#     4  10  20  34  52  75 102 131 168 215 256 292
#     4   9  18  34  55  78 105 138 174 214 262 311
#     4   9  19  34  49  68  98 132 166 203 244 295
#     4   8  15  31  54  77  99 128 171 214 247 297
#     4  10  19  32  51  72  96 129 165 204 250 295
#
# _framework density 16.703765000000001
#
# number of rings (size 3 to 8) (size 9 to 14) (size 15 to 20)
#    0.000    2.857    0.000    3.000    0.000    3.714 
#    2.571    2.143    0.000    0.857    0.000    0.000 
#    0.000    0.000    0.000    0.000    0.000    0.000 
#
# Total GULP energy -155922.543957 kJ/mol
# GULP energy per Si atom -5568.662284 kJ/mol
# Density = 1.666575 g / cm^3
# Si number density = 16.703765 Si / 1000 Ang^3
#
#
#
# Elastic Constant Matrix: (Units=GPa)
#
#
# Indices 1 2 3 4 5 6 
#
# 1 96.7187 44.6520 45.4826 0.0000 2.1639 0.0000
# 2 44.6520 57.3312 32.8756 0.0000 9.6662 0.0000
# 3 45.4826 32.8756 45.2000 0.0000 7.4801 0.0000
# 4 0.0000 0.0000 0.0000 27.7996 0.0000 9.3905
# 5 2.1639 9.6662 7.4801 0.0000 26.6915 0.0000
# 6 0.0000 0.0000 0.0000 9.3905 0.0000 12.9433
#
#
#
# Elastic Compliance Matrix: (Units=1/GPa)
#
#
# Indices 1 2 3 4 5 6 
#
# 1 0.022185 -0.008449 -0.017184 0.000000 0.006077 0.000000
# 2 -0.008449 0.033782 -0.014846 0.000000 -0.007389 0.000000
# 3 -0.017184 -0.014846 0.051480 0.000000 -0.007657 0.000000
# 4 0.000000 0.000000 0.000000 0.047649 0.000000 -0.034570
# 5 0.006077 -0.007389 -0.007657 0.000000 0.041794 0.000000
# 6 0.000000 0.000000 0.000000 -0.034570 0.000000 0.102341
#
#
# Mechanical properties :
#
#
# Convention : Reuss Voigt Hill
#
# Bulk Modulus (GPa) = 37.75142 49.47449 43.61296
# Shear Modulus (GPa) = 12.85283 18.56954 15.71118
#
# Velocity S-wave (km/s) = 2.77692 3.33783 3.07021
# Velocity P-wave (km/s) = 5.73858 6.67367 6.22371
#
# Compressibility (1/GPa) = 0.02648907
#
# Stress axis : x y z
#
# Youngs Moduli (GPa) = 45.07581 29.60132 19.42495
#
# Poissons Ratio (x) = 0.25012 0.33379
# Poissons Ratio (y) = 0.38087 0.28838
# Poissons Ratio (z) = 0.77456 0.43946
#
# Static dielectric constant tensor:
#      x y z
#    x 1.569920 0.000000 -0.010620 
#    y 0.000000 1.564600 0.000000 
#    z -0.010620 0.000000 1.544800 
# 
# From -- ./inp_files/281722.got.cif
#   From: 2010.05.17/outbox.cif.g08.bks.cpg/sg12_141_cif.got.tgz:281722.got - 2010.06.03 13:09:07.
