data_PCOD9180763
_publ_section_title
;
Structure prediction by ZEFSAII (Michael W. Deem and Ramdas Pophale) SiO2 
 PCOD9180763
Probable space group: C 2/M
;
_chemical_formula_sum "Si O2"
_cell_formula_units_Z 64
_cell_length_a 15.334460
_cell_length_b 12.591299
_cell_length_c 17.093811
_cell_angle_alpha 90.000000
_cell_angle_beta 90.044871
_cell_angle_gamma 90.000000
_cell_volume 3300.485193
_symmetry_space_group_name_H-M "C 2/M"
_symmetry_group_IT_number 12
_symmetry_cell_setting 'monoclinic'
loop_
_space_group_symop_operation_xyz
x,y,z
-x,y,-z
-x,-y,-z
x,-y,z
1/2+x,1/2+y,z
1/2-x,1/2+y,-z
1/2-x,1/2-y,-z
1/2+x,1/2-y,z
loop_
_atom_site_type_symbol
_atom_site_label
_atom_site_fract_x
_atom_site_fract_y
_atom_site_fract_z
Si Si1 0.907104 0.621375 0.284640
Si Si2 0.692019 0.623883 0.548655
Si Si3 0.855338 0.123567 0.620023
Si Si4 0.619435 0.124154 0.051781
Si Si5 0.059118 0.304135 0.886742
Si Si6 0.519211 0.756239 0.581339
Si Si7 0.297738 0.375484 0.137386
Si Si8 0.254830 0.218172 0.699684
O O1 0.885106 0.500000 0.302038
O O2 0.935114 0.634908 0.195175
O O3 0.825249 0.698717 0.296716
O O4 0.977933 0.666040 0.345377
O O5 0.668878 0.500000 0.553770
O O6 0.709318 0.641505 0.455722
O O7 0.610501 0.697057 0.570013
O O8 0.757836 0.650434 0.619200
O O9 0.948943 0.162979 0.591327
O O10 0.834051 0.200086 0.692088
O O11 0.853354 0.000000 0.639394
O O12 0.543296 0.196977 0.089842
O O13 0.717137 0.151507 0.079389
O O14 0.603725 0.000000 0.073334
O O15 0.605756 0.136333 0.958969
O O16 0.116002 0.196200 0.875983
O O17 0.500000 0.814972 0.500000
O O18 0.318146 0.500000 0.129480
O O19 0.258683 0.352419 0.223959
#
# Coordination Sequence:
#
# PCOD9180763 Si02
#       8
#     8   8   8   8   8   8   8   8
#     4  10  20  34  53  75 104 143 180 224 278 332
#     4   9  17  32  52  72  99 140 182 221 271 330
#     4  10  19  32  51  74 102 137 180 228 276 324
#     4  10  20  37  63  91 116 151 194 237 285 345
#     4  10  20  37  61  87 116 149 193 238 283 339
#     4   9  19  33  50  75 105 139 180 225 271 327
#     4  10  22  38  59  85 120 155 190 233 289 343
#     4  10  20  33  51  75 108 137 181 226 276 328
#
# _framework density 19.391086999999999
#
# number of rings (size 3 to 8) (size 9 to 14) (size 15 to 20)
#    0.000    2.250    0.000    3.375    1.750    1.750 
#    0.000    2.500    0.000    3.750    0.000    0.000 
#    0.000    0.000    0.000    0.000    0.000    0.000 
#
# Total GULP energy -178215.228857 kJ/mol
# GULP energy per Si atom -5569.225902 kJ/mol
# Density = 1.934695 g / cm^3
# Si number density = 19.391087 Si / 1000 Ang^3
#
#
#
# Elastic Constant Matrix: (Units=GPa)
#
#
# Indices 1 2 3 4 5 6 
#
# 1 41.2877 19.3494 19.8890 0.0000 -0.3567 0.0000
# 2 19.3494 58.9189 36.1791 0.0000 8.4653 0.0000
# 3 19.8890 36.1791 69.3702 0.0000 1.4539 0.0000
# 4 0.0000 0.0000 0.0000 16.4813 0.0000 13.4704
# 5 -0.3567 8.4653 1.4539 0.0000 24.2066 0.0000
# 6 0.0000 0.0000 0.0000 13.4704 0.0000 4.5956
#
#
#
# Elastic Compliance Matrix: (Units=1/GPa)
#
#
# Indices 1 2 3 4 5 6 
#
# 1 0.030032 -0.007368 -0.004837 0.000000 0.003310 0.000000
# 2 -0.007368 0.028408 -0.012509 0.000000 -0.009292 0.000000
# 3 -0.004837 -0.012509 0.022264 0.000000 0.002966 0.000000
# 4 0.000000 0.000000 0.000000 -0.043473 0.000000 0.127427
# 5 0.003310 -0.009292 0.002966 0.000000 0.044431 0.000000
# 6 0.000000 0.000000 0.000000 0.127427 0.000000 -0.155910
#
#
# Mechanical properties :
#
#
# Convention : Reuss Voigt Hill
#
# Bulk Modulus (GPa) = 31.97301 35.60131 33.78716
# Shear Modulus (GPa) = -347.35503 15.33398 -166.01053
#
# Velocity S-wave (km/s) = -13.39851 2.81512 -9.26270
# Velocity P-wave (km/s) = 14.92769 5.38201 9.84555
#
# Compressibility (1/GPa) = 0.03127638
#
# Stress axis : x y z
#
# Youngs Moduli (GPa) = 33.29782 35.20124 44.91597
#
# Poissons Ratio (x) = 0.25936 0.21726
# Poissons Ratio (y) = 0.24534 0.56184
# Poissons Ratio (z) = 0.16107 0.44032
#
# Static dielectric constant tensor:
#      x y z
#    x 1.719030 0.000000 0.012950 
#    y 0.000000 1.650200 0.000000 
#    z 0.012950 0.000000 1.725630 
# 
# From -- ./inp_files/269302.got.cif
#   From: 2010.05.17/outbox.cif.g08.bks.cpg/sg12_135_cif.got.tgz:269302.got - 2010.06.03 13:09:07.
