data_PCOD9180652
_publ_section_title
;
Structure prediction by ZEFSAII (Michael W. Deem and Ramdas Pophale) SiO2 
 PCOD9180652
Probable space group: C 2/M
;
_chemical_formula_sum "Si O2"
_cell_formula_units_Z 32
_cell_length_a 4.888669
_cell_length_b 29.493900
_cell_length_c 10.960337
_cell_angle_alpha 90.000000
_cell_angle_beta 71.637175
_cell_angle_gamma 90.000000
_cell_volume 1499.856973
_symmetry_space_group_name_H-M "C 2/M"
_symmetry_group_IT_number 12
_symmetry_cell_setting 'monoclinic'
loop_
_space_group_symop_operation_xyz
x,y,z
-x,y,-z
-x,-y,-z
x,-y,z
1/2+x,1/2+y,z
1/2-x,1/2+y,-z
1/2-x,1/2-y,-z
1/2+x,1/2-y,z
loop_
_atom_site_type_symbol
_atom_site_label
_atom_site_fract_x
_atom_site_fract_y
_atom_site_fract_z
Si Si1 0.903746 0.500000 0.374668
Si Si2 0.997584 0.000000 0.859726
Si Si3 0.249425 0.419308 0.757304
Si Si4 0.962441 0.274907 0.153729
Si Si5 0.322605 0.635353 0.152515
O O1 0.736681 0.453271 0.362172
O O2 0.000000 0.500000 0.500000
O O3 0.196232 0.500000 0.252419
O O4 0.824119 0.955542 0.848486
O O5 0.000000 0.000000 0.000000
O O6 0.466303 0.377873 0.763610
O O7 0.925642 0.402226 0.812618
O O8 0.122836 0.233995 0.202691
O O9 0.128318 0.318948 0.177926
O O10 0.000000 0.274008 0.000000
O O11 0.500000 0.636214 0.000000
#
# Coordination Sequence:
#
# PCOD9180652 Si02
#       5
#     4   4   8   8   8
#     4  11  26  46  65  86 122 169 211 263 316 370
#     4  11  24  40  62  89 124 161 201 255 308 378
#     4  11  24  38  57  85 116 160 206 254 306 363
#     4  10  19  32  50  78 119 171 208 240 300 378
#     4  12  22  34  55  85 124 160 207 255 304 366
#
# _framework density 21.335367000000002
#
# number of rings (size 3 to 8) (size 9 to 14) (size 15 to 20)
#    0.000    1.000    2.500    6.750    3.500    3.000 
#    0.000    1.875    0.000    0.000    0.000    0.000 
#    0.000   20.000    0.000    0.000    0.000    0.000 
#
# Total GULP energy -89116.360571 kJ/mol
# GULP energy per Si atom -5569.772536 kJ/mol
# Density = 2.128681 g / cm^3
# Si number density = 21.335367 Si / 1000 Ang^3
#
#
#
# Elastic Constant Matrix: (Units=GPa)
#
#
# Indices 1 2 3 4 5 6 
#
# 1 152.9892 48.7443 38.5324 0.0000 21.5758 0.0000
# 2 48.7443 125.5137 28.0609 0.0000 18.0760 0.0000
# 3 38.5324 28.0609 93.3226 0.0000 25.7589 0.0000
# 4 0.0000 0.0000 0.0000 16.6488 0.0000 9.7530
# 5 21.5758 18.0760 25.7589 0.0000 38.2947 0.0000
# 6 0.0000 0.0000 0.0000 9.7530 0.0000 60.1359
#
#
#
# Elastic Compliance Matrix: (Units=1/GPa)
#
#
# Indices 1 2 3 4 5 6 
#
# 1 0.008107 -0.002392 -0.002062 0.000000 -0.002052 0.000000
# 2 -0.002392 0.009504 -0.001233 0.000000 -0.002309 0.000000
# 3 -0.002062 -0.001233 0.014068 0.000000 -0.007719 0.000000
# 4 0.000000 0.000000 0.000000 0.066370 0.000000 -0.010764
# 5 -0.002052 -0.002309 -0.007719 0.000000 0.033552 0.000000
# 6 0.000000 0.000000 0.000000 -0.010764 0.000000 0.018375
#
#
# Mechanical properties :
#
#
# Convention : Reuss Voigt Hill
#
# Bulk Modulus (GPa) = 49.24523 66.94452 58.09488
# Shear Modulus (GPa) = 29.74093 40.11508 34.92800
#
# Velocity S-wave (km/s) = 3.73765 4.34085 4.05049
# Velocity P-wave (km/s) = 6.46206 7.52126 7.01169
#
# Compressibility (1/GPa) = 0.02030653
#
# Stress axis : x y z
#
# Youngs Moduli (GPa) = 123.34713 105.21418 71.08215
#
# Poissons Ratio (x) = 0.25168 0.14656
# Poissons Ratio (y) = 0.29505 0.08763
# Poissons Ratio (z) = 0.25432 0.12970
#
# Static dielectric constant tensor:
#      x y z
#    x 1.824110 0.000000 -0.004730 
#    y 0.000000 1.893320 0.000000 
#    z -0.004730 0.000000 1.703090 
# 
# From -- ./inp_files/115635.got.cif
#   From: 2010.05.17/outbox.cif.g08.bks.cpg/sg12_58_cif.got.tgz:115635.got - 2010.06.03 13:09:07.
