data_PCOD9180022
_publ_section_title
;
Structure prediction by ZEFSAII (Michael W. Deem and Ramdas Pophale) SiO2 
 PCOD9180022
Probable space group: C 2/M
;
_chemical_formula_sum "Si O2"
_cell_formula_units_Z 64
_cell_length_a 25.627241
_cell_length_b 14.738366
_cell_length_c 12.183996
_cell_angle_alpha 90.000000
_cell_angle_beta 37.835273
_cell_angle_gamma 90.000000
_cell_volume 2822.799443
_symmetry_space_group_name_H-M "C 2/M"
_symmetry_group_IT_number 12
_symmetry_cell_setting 'monoclinic'
loop_
_space_group_symop_operation_xyz
x,y,z
-x,y,-z
-x,-y,-z
x,-y,z
1/2+x,1/2+y,z
1/2-x,1/2+y,-z
1/2-x,1/2-y,-z
1/2+x,1/2-y,z
loop_
_atom_site_type_symbol
_atom_site_label
_atom_site_fract_x
_atom_site_fract_y
_atom_site_fract_z
Si Si1 0.902607 0.139473 0.655277
Si Si2 0.578057 0.401157 0.611595
Si Si3 0.269032 0.334742 0.047307
Si Si4 0.087434 0.644583 0.402339
Si Si5 0.349705 0.596925 0.262310
Si Si6 0.967770 0.700157 0.275047
Si Si7 0.809851 0.662236 0.390217
Si Si8 0.643532 0.767442 0.898071
O O1 0.869953 0.108239 0.589258
O O2 0.909266 0.249230 0.640736
O O3 0.000000 0.106088 0.500000
O O4 0.843947 0.114600 0.856190
O O5 0.534920 0.500000 0.679616
O O6 0.625018 0.398340 0.651070
O O7 0.527618 0.306857 0.698941
O O8 0.181266 0.388483 0.213619
O O9 0.298972 0.285572 0.109685
O O10 0.250000 0.250000 0.000000
O O11 0.072135 0.647379 0.557179
O O12 0.000000 0.605005 0.500000
O O13 0.380668 0.500000 0.166287
O O14 0.246826 0.596875 0.441181
O O15 0.383385 0.682735 0.137583
O O16 0.902778 0.680187 0.284488
O O17 0.064670 0.682733 0.085089
O O18 0.750000 0.750000 0.500000
O O19 0.815520 0.656864 0.249621
#
# Coordination Sequence:
#
# PCOD9180022 Si02
#       8
#     8   8   8   8   8   8   8   8
#     4   9  18  32  47  71 106 144 189 230 275 339
#     4  10  20  33  52  74 109 156 188 226 280 344
#     4  10  19  31  53  79 111 146 183 235 289 339
#     4   9  17  30  48  74 108 143 180 226 282 339
#     4  10  22  38  55  79 112 153 192 230 285 350
#     4  11  19  33  52  80 118 139 186 237 286 341
#     4  10  19  33  54  77 105 144 186 236 280 331
#     4  11  21  33  56  87 111 145 184 240 291 343
#
# _framework density 22.672528
#
# number of rings (size 3 to 8) (size 9 to 14) (size 15 to 20)
#    0.000    2.000    2.500    4.875    3.500    0.750 
#    0.000    1.875    0.000    1.500    0.000    0.000 
#    0.000    4.250    0.000    0.000    0.000    0.000 
#
# Total GULP energy -178167.363866 kJ/mol
# GULP energy per Si atom -5567.730121 kJ/mol
# Density = 2.262092 g / cm^3
# Si number density = 22.672528 Si / 1000 Ang^3
#
#
#
# Elastic Constant Matrix: (Units=GPa)
#
#
# Indices 1 2 3 4 5 6 
#
# 1 113.1926 -7.2399 35.3158 0.0000 8.2058 0.0000
# 2 -7.2399 41.5575 -12.4569 0.0000 5.4850 0.0000
# 3 35.3158 -12.4569 157.6110 0.0000 -3.2273 0.0000
# 4 0.0000 0.0000 0.0000 0.9710 0.0000 3.7686
# 5 8.2058 5.4850 -3.2273 0.0000 33.7517 0.0000
# 6 0.0000 0.0000 0.0000 3.7686 0.0000 -0.7825
#
#
#
# Elastic Compliance Matrix: (Units=1/GPa)
#
#
# Indices 1 2 3 4 5 6 
#
# 1 0.009799 0.001438 -0.002140 0.000000 -0.002821 0.000000
# 2 0.001438 0.025361 0.001594 0.000000 -0.004319 0.000000
# 3 -0.002140 0.001594 0.006969 0.000000 0.000928 0.000000
# 4 0.000000 0.000000 0.000000 0.052301 0.000000 0.251877
# 5 -0.002821 -0.004319 0.000928 0.000000 0.031104 0.000000
# 6 0.000000 0.000000 0.000000 0.251877 0.000000 -0.064897
#
#
# Mechanical properties :
#
#
# Convention : Reuss Voigt Hill
#
# Bulk Modulus (GPa) = 22.77224 38.17771 30.47498
# Shear Modulus (GPa) = 68.03530 26.57083 47.30307
#
# Velocity S-wave (km/s) = 5.48388 3.42707 4.57262
# Velocity P-wave (km/s) = 7.08259 5.70395 6.43032
#
# Compressibility (1/GPa) = 0.04391311
#
# Stress axis : x y z
#
# Youngs Moduli (GPa) = 102.05639 39.43019 143.49006
#
# Poissons Ratio (x) = -0.05670 0.30702
# Poissons Ratio (y) = -0.14675 -0.22870
# Poissons Ratio (z) = 0.21837 -0.06284
#
# Static dielectric constant tensor:
#      x y z
#    x 1.918360 0.000000 0.000620 
#    y 0.000000 1.936440 0.000000 
#    z 0.000620 0.000000 1.948140 
# 
# From -- ./inp_files/177738.got.cif
#   From: 2010.05.17/outbox.cif.g08.bks.cpg/sg12_89_cif.got.tgz:177738.got - 2010.06.03 13:09:07.
