data_PCOD9180772
_publ_section_title
;
Structure prediction by ZEFSAII (Michael W. Deem and Ramdas Pophale) SiO2 
 PCOD9180772
Probable space group: C 2/M
;
_chemical_formula_sum "Si O2"
_cell_formula_units_Z 48
_cell_length_a 22.418685
_cell_length_b 10.496402
_cell_length_c 31.720477
_cell_angle_alpha 90.000000
_cell_angle_beta 18.849342
_cell_angle_gamma 90.000000
_cell_volume 2411.578840
_symmetry_space_group_name_H-M "C 2/M"
_symmetry_group_IT_number 12
_symmetry_cell_setting 'monoclinic'
loop_
_space_group_symop_operation_xyz
x,y,z
-x,y,-z
-x,-y,-z
x,-y,z
1/2+x,1/2+y,z
1/2-x,1/2+y,-z
1/2-x,1/2-y,-z
1/2+x,1/2-y,z
loop_
_atom_site_type_symbol
_atom_site_label
_atom_site_fract_x
_atom_site_fract_y
_atom_site_fract_z
Si Si1 0.302028 0.151748 0.201723
Si Si2 0.021373 0.854132 0.319609
Si Si3 0.185066 0.354873 0.348985
Si Si4 0.155037 0.642037 0.618993
Si Si5 0.522954 0.777182 0.792957
Si Si6 0.668786 0.141235 0.996273
O O1 0.205168 0.247922 0.299466
O O2 0.520654 0.178258 0.059864
O O3 0.211824 0.170055 0.216460
O O4 0.276451 0.000000 0.229209
O O5 0.966615 0.751321 0.321522
O O6 0.860419 0.845029 0.462854
O O7 0.017406 0.000000 0.306460
O O8 0.186249 0.500000 0.331556
O O9 0.358318 0.334032 0.264579
O O10 0.000000 0.337103 0.500000
O O11 0.088570 0.500000 0.652190
O O12 0.146809 0.657130 0.674708
O O13 0.452130 0.858811 0.879772
O O14 0.339142 0.731236 0.892094
O O15 0.737975 0.000000 0.941322
#
# Coordination Sequence:
#
# PCOD9180772 Si02
#       6
#     8   8   8   8   8   8
#     4   9  18  34  53  72  98 132 170 211 253 298
#     4   9  19  35  54  77 103 132 169 212 257 303
#     4  10  20  31  47  75 106 134 165 205 255 306
#     4  10  20  34  54  78 103 134 170 209 255 305
#     4  10  19  32  51  74 104 136 169 207 252 302
#     4   9  18  32  51  74  99 132 171 209 250 298
#
# _framework density 19.903973000000001
#
# number of rings (size 3 to 8) (size 9 to 14) (size 15 to 20)
#    0.000    2.500    0.000    2.000    0.000    3.000 
#    0.000    5.000    0.000    4.000    0.000    0.000 
#    0.000    0.000    0.000    0.000    0.000    0.000 
#
# Total GULP energy -133816.022491 kJ/mol
# GULP energy per Si atom -5575.667604 kJ/mol
# Density = 1.985867 g / cm^3
# Si number density = 19.903973 Si / 1000 Ang^3
#
#
#
# Elastic Constant Matrix: (Units=GPa)
#
#
# Indices 1 2 3 4 5 6 
#
# 1 65.0397 20.6408 26.5245 -0.0018 -10.9568 -0.0034
# 2 20.6408 75.3927 10.4202 0.0003 -10.3962 -0.0020
# 3 26.5245 10.4202 41.9862 0.0255 1.7051 0.0108
# 4 -0.0018 0.0003 0.0255 -3.4490 -0.0009 -12.3978
# 5 -10.9568 -10.3962 1.7051 -0.0009 43.6966 0.0025
# 6 -0.0034 -0.0020 0.0108 -12.3978 0.0025 16.4654
#
#
#
# Elastic Compliance Matrix: (Units=1/GPa)
#
#
# Indices 1 2 3 4 5 6 
#
# 1 0.023140 -0.003654 -0.013934 -0.000044 0.005477 -0.000020
# 2 -0.003654 0.014838 -0.001482 -0.000004 0.002672 -0.000001
# 3 -0.013934 -0.001482 0.033197 0.000092 -0.005142 0.000045
# 4 -0.000044 -0.000004 0.000092 -0.078223 -0.000014 -0.058898
# 5 0.005477 0.002672 -0.005142 -0.000014 0.025095 -0.000009
# 6 -0.000020 -0.000001 0.000045 -0.058898 -0.000009 0.016385
#
#
# Mechanical properties :
#
#
# Convention : Reuss Voigt Hill
#
# Bulk Modulus (GPa) = 30.27261 33.06549 31.66905
# Shear Modulus (GPa) = 59.81989 19.66481 39.74235
#
# Velocity S-wave (km/s) = 5.48812 3.14663 4.47330
# Velocity P-wave (km/s) = 7.44323 5.46354 6.52886
#
# Compressibility (1/GPa) = 0.03303316
#
# Stress axis : x y z
#
# Youngs Moduli (GPa) = 43.21498 67.39624 30.12338
#
# Poissons Ratio (x) = 0.24628 0.41974
# Poissons Ratio (y) = 0.15791 0.04466
# Poissons Ratio (z) = 0.60216 0.09991
#
# Static dielectric constant tensor:
#      x y z
#    x 1.690150 0.000000 0.001970 
#    y 0.000000 1.684910 0.000010 
#    z 0.001970 0.000010 1.716200 
# 
# From -- ./inp_files/283023.got.cif
#   From: 2010.05.17/outbox.cif.g08.bks.cpg/sg12_142_cif.got.tgz:283023.got - 2010.06.03 13:09:07.
