data_PCOD9180040
_publ_section_title
;
Structure prediction by ZEFSAII (Michael W. Deem and Ramdas Pophale) SiO2 
 PCOD9180040
Probable space group: C 2/M
;
_chemical_formula_sum "Si O2"
_cell_formula_units_Z 64
_cell_length_a 21.001830
_cell_length_b 9.086238
_cell_length_c 25.515188
_cell_angle_alpha 90.000000
_cell_angle_beta 129.259724
_cell_angle_gamma 90.000000
_cell_volume 3769.997024
_symmetry_space_group_name_H-M "C 2/M"
_symmetry_group_IT_number 12
_symmetry_cell_setting 'monoclinic'
loop_
_space_group_symop_operation_xyz
x,y,z
-x,y,-z
-x,-y,-z
x,-y,z
1/2+x,1/2+y,z
1/2-x,1/2+y,-z
1/2-x,1/2-y,-z
1/2+x,1/2-y,z
loop_
_atom_site_type_symbol
_atom_site_label
_atom_site_fract_x
_atom_site_fract_y
_atom_site_fract_z
Si Si1 0.520928 0.676788 0.425728
Si Si2 0.366473 0.676320 0.420413
Si Si3 0.033460 0.177426 0.219278
Si Si4 0.780135 0.676851 0.202743
Si Si5 0.280912 0.322963 0.713812
Si Si6 0.724707 0.824979 0.069225
Si Si7 0.026043 0.323909 0.704732
Si Si8 0.376880 0.675589 0.070892
O O1 0.522702 0.500000 0.419040
O O2 0.437466 0.711542 0.414653
O O3 0.595787 0.717236 0.503446
O O4 0.518431 0.758642 0.369484
O O5 0.356289 0.500000 0.414601
O O6 0.283075 0.753724 0.360198
O O7 0.125322 0.217182 0.249775
O O8 0.009200 0.253907 0.260823
O O9 0.965340 0.216609 0.140143
O O10 0.029215 0.000000 0.223796
O O11 0.772497 0.500000 0.194273
O O12 0.745493 0.722342 0.241273
O O13 0.733582 0.752046 0.130389
O O14 0.876937 0.713875 0.249458
O O15 0.274120 0.500000 0.707802
O O16 0.808515 0.792311 0.080074
O O17 0.717234 0.000000 0.069678
O O18 0.651784 0.759087 0.995973
O O19 0.018803 0.500000 0.702146
O O20 0.374827 0.500000 0.060285
#
# Coordination Sequence:
#
# PCOD9180040 Si02
#       8
#     8   8   8   8   8   8   8   8
#     4   9  18  33  54  80 109 141 177 218 266 318
#     4   9  18  33  54  80 109 141 177 219 266 315
#     4  10  21  38  57  77 107 146 181 214 263 326
#     4  10  20  34  52  79 110 138 173 218 265 313
#     4  10  21  37  56  79 109 144 179 217 265 320
#     4  10  19  31  53  81 104 134 176 221 265 308
#     4  11  21  33  54  83 110 137 176 226 269 307
#     4   9  18  33  52  76 105 137 174 217 264 313
#
# _framework density 16.976140999999998
#
# number of rings (size 3 to 8) (size 9 to 14) (size 15 to 20)
#    0.000    2.250    2.500    1.500    0.000    3.000 
#    0.000    2.500    0.000    3.750    0.000    0.000 
#    0.000    0.000    0.000    0.000    0.000    0.000 
#
# Total GULP energy -178554.367494 kJ/mol
# GULP energy per Si atom -5579.823984 kJ/mol
# Density = 1.693750 g / cm^3
# Si number density = 16.976141 Si / 1000 Ang^3
#
#
#
# Elastic Constant Matrix: (Units=GPa)
#
#
# Indices 1 2 3 4 5 6 
#
# 1 108.5139 41.2357 84.1567 0.0000 6.4085 0.0000
# 2 41.2357 23.8676 55.1003 0.0000 1.4262 0.0000
# 3 84.1567 55.1003 183.6715 0.0000 6.3905 0.0000
# 4 0.0000 0.0000 0.0000 32.4694 0.0000 -1.0920
# 5 6.4085 1.4262 6.3905 0.0000 25.5533 0.0000
# 6 0.0000 0.0000 0.0000 -1.0920 0.0000 20.6199
#
#
#
# Elastic Compliance Matrix: (Units=1/GPa)
#
#
# Indices 1 2 3 4 5 6 
#
# 1 0.029159 -0.063888 0.005988 0.000000 -0.005244 0.000000
# 2 -0.063888 0.276438 -0.054148 0.000000 0.014135 0.000000
# 3 0.005988 -0.054148 0.019058 0.000000 -0.003246 0.000000
# 4 0.000000 0.000000 0.000000 0.030853 0.000000 0.001634
# 5 -0.005244 0.014135 -0.003246 0.000000 0.040472 0.000000
# 6 0.000000 0.000000 0.000000 0.001634 0.000000 0.048583
#
#
# Mechanical properties :
#
#
# Convention : Reuss Voigt Hill
#
# Bulk Modulus (GPa) = 9.94453 75.22650 42.58551
# Shear Modulus (GPa) = 7.12069 24.76585 15.94327
#
# Velocity S-wave (km/s) = 2.05028 3.82365 3.06789
# Velocity P-wave (km/s) = 3.38755 7.99394 6.13916
#
# Compressibility (1/GPa) = 0.10055783
#
# Stress axis : x y z
#
# Youngs Moduli (GPa) = 34.29496 3.61745 52.47165
#
# Poissons Ratio (x) = 0.23111 -0.31421
# Poissons Ratio (y) = 2.19104 2.84126
# Poissons Ratio (z) = -0.20536 0.19588
#
# Static dielectric constant tensor:
#      x y z
#    x 1.556550 0.000000 0.006730 
#    y 0.000000 1.563440 0.000000 
#    z 0.006730 0.000000 1.559790 
# 
# From -- ./inp_files/346070.got.cif
#   From: 2010.05.17/outbox.cif.g08.bks.cpg/sg12_174_cif.got.tgz:346070.got - 2010.06.03 13:09:07.
