data_PCOD9180637
_publ_section_title
;
Structure prediction by ZEFSAII (Michael W. Deem and Ramdas Pophale) SiO2 
 PCOD9180637
Probable space group: C 2/M
;
_chemical_formula_sum "Si O2"
_cell_formula_units_Z 58
_cell_length_a 20.112955
_cell_length_b 8.958718
_cell_length_c 14.207156
_cell_angle_alpha 90.000000
_cell_angle_beta 95.039397
_cell_angle_gamma 90.000000
_cell_volume 2550.039418
_symmetry_space_group_name_H-M "C 2/M"
_symmetry_group_IT_number 12
_symmetry_cell_setting 'monoclinic'
loop_
_space_group_symop_operation_xyz
x,y,z
-x,y,-z
-x,-y,-z
x,-y,z
1/2+x,1/2+y,z
1/2-x,1/2+y,-z
1/2-x,1/2-y,-z
1/2+x,1/2-y,z
loop_
_atom_site_type_symbol
_atom_site_label
_atom_site_fract_x
_atom_site_fract_y
_atom_site_fract_z
Si Si1 0.137680 0.673704 0.595130
Si Si2 0.382834 0.173406 0.182724
Si Si3 0.973499 0.322320 0.765696
Si Si4 0.500000 0.500000 0.000000
Si Si5 0.911281 0.177464 0.585215
Si Si6 0.380513 0.663711 0.895813
Si Si7 0.723888 0.825126 0.355117
Si Si8 0.752356 0.328309 0.867803
O O1 0.140805 0.500000 0.569321
O O2 0.121853 0.680428 0.703857
O O3 0.087031 0.756892 0.519594
O O4 0.209487 0.752501 0.594260
O O5 0.458097 0.226553 0.175423
O O6 0.322451 0.266930 0.133546
O O7 0.375910 0.000000 0.153574
O O8 0.975207 0.500000 0.753019
O O9 0.964738 0.243593 0.664437
O O10 0.912463 0.274077 0.823531
O O11 0.559358 0.626685 0.025810
O O12 0.840796 0.236890 0.618436
O O13 0.913998 0.000000 0.584177
O O14 0.366239 0.500000 0.848880
O O15 0.310741 0.730439 0.921484
O O16 0.732307 0.817810 0.242929
O O17 0.718515 0.000000 0.379256
O O18 0.756502 0.500000 0.897606
#
# Coordination Sequence:
#
# PCOD9180637 Si02
#       8
#     8   8   8   2   8   8   8   8
#     4  10  20  35  51  71 111 156 203 256 303 348
#     4   9  21  38  57  84 116 162 205 248 299 346
#     4  11  22  38  60  88 118 152 204 248 293 350
#     4   8  24  40  66 100 124 154 178 224 296 356
#     4  12  23  33  49  76 110 159 203 253 306 349
#     4  10  20  39  64  92 120 153 181 230 286 355
#     4  10  19  32  50  77 110 148 198 256 303 347
#     4  10  19  33  60  91 119 151 200 246 285 344
#
# _framework density 22.744747
#
# number of rings (size 3 to 8) (size 9 to 14) (size 15 to 20)
#    0.414    1.379    1.379    3.724    0.000    3.310 
#    0.000    4.138    0.000    0.828    0.000    0.000 
#    0.000    0.000    0.000    0.000    0.000    0.000 
#
# Total GULP energy -161890.037489 kJ/mol
# GULP energy per Si atom -5582.415086 kJ/mol
# Density = 2.269298 g / cm^3
# Si number density = 22.744747 Si / 1000 Ang^3
#
#
#
# Elastic Constant Matrix: (Units=GPa)
#
#
# Indices 1 2 3 4 5 6 
#
# 1 116.4075 46.5494 29.3839 0.0000 41.5683 0.0000
# 2 46.5494 130.2985 57.5897 0.0000 34.3302 0.0000
# 3 29.3839 57.5897 90.4662 0.0000 17.7061 0.0000
# 4 0.0000 0.0000 0.0000 17.5421 0.0000 17.3386
# 5 41.5683 34.3302 17.7061 0.0000 40.7038 0.0000
# 6 0.0000 0.0000 0.0000 17.3386 0.0000 27.7245
#
#
#
# Elastic Compliance Matrix: (Units=1/GPa)
#
#
# Indices 1 2 3 4 5 6 
#
# 1 0.013887 -0.000991 -0.001385 0.000000 -0.012743 0.000000
# 2 -0.000991 0.012672 -0.006396 0.000000 -0.006893 0.000000
# 3 -0.001385 -0.006396 0.015568 0.000000 0.000037 0.000000
# 4 0.000000 0.000000 0.000000 0.149284 0.000000 -0.093361
# 5 -0.012743 -0.006893 0.000037 0.000000 0.043379 0.000000
# 6 0.000000 0.000000 0.000000 -0.093361 0.000000 0.094456
#
#
# Mechanical properties :
#
#
# Convention : Reuss Voigt Hill
#
# Bulk Modulus (GPa) = 40.67978 67.13536 53.90757
# Shear Modulus (GPa) = 14.08512 30.77069 22.42790
#
# Velocity S-wave (km/s) = 2.49121 3.68213 3.14358
# Velocity P-wave (km/s) = 5.11850 6.90350 6.07690
#
# Compressibility (1/GPa) = 0.02458224
#
# Stress axis : x y z
#
# Youngs Moduli (GPa) = 72.00868 78.91596 64.23458
#
# Poissons Ratio (x) = 0.07823 0.08899
# Poissons Ratio (y) = 0.07139 0.41081
# Poissons Ratio (z) = 0.09976 0.50471
#
# Static dielectric constant tensor:
#      x y z
#    x 1.839240 0.000000 -0.021640 
#    y 0.000000 1.774560 0.000000 
#    z -0.021640 0.000000 1.891430 
# 
# From -- ./inp_files/281504.got.cif
#   From: 2010.05.17/outbox.cif.g08.bks.cpg/sg12_141_cif.got.tgz:281504.got - 2010.06.03 13:09:07.
