data_PCOD9180610
_publ_section_title
;
Structure prediction by ZEFSAII (Michael W. Deem and Ramdas Pophale) SiO2 
 PCOD9180610
Probable space group: C 2/M
;
_chemical_formula_sum "Si O2"
_cell_formula_units_Z 56
_cell_length_a 12.233681
_cell_length_b 18.303726
_cell_length_c 18.931056
_cell_angle_alpha 90.000000
_cell_angle_beta 48.585966
_cell_angle_gamma 90.000000
_cell_volume 3179.093246
_symmetry_space_group_name_H-M "C 2/M"
_symmetry_group_IT_number 12
_symmetry_cell_setting 'monoclinic'
loop_
_space_group_symop_operation_xyz
x,y,z
-x,y,-z
-x,-y,-z
x,-y,z
1/2+x,1/2+y,z
1/2-x,1/2+y,-z
1/2-x,1/2-y,-z
1/2+x,1/2-y,z
loop_
_atom_site_type_symbol
_atom_site_label
_atom_site_fract_x
_atom_site_fract_y
_atom_site_fract_z
Si Si1 0.408276 0.582905 0.757724
Si Si2 0.394937 0.642976 0.217147
Si Si3 0.636229 0.182595 0.891511
Si Si4 0.385895 0.417303 0.983921
Si Si5 0.106151 0.690925 0.741591
Si Si6 0.790030 0.339762 0.830931
Si Si7 0.870033 0.914128 0.610568
O O1 0.359518 0.500000 0.785408
O O2 0.556656 0.594052 0.737778
O O3 0.279162 0.633757 0.842099
O O4 0.424516 0.598869 0.667595
O O5 0.538463 0.635790 0.105024
O O6 0.364694 0.722707 0.262094
O O7 0.265445 0.622764 0.218107
O O8 0.587653 0.168375 0.831696
O O9 0.692523 0.265978 0.876005
O O10 0.500000 0.169010 0.000000
O O11 0.367556 0.500000 0.963758
O O12 0.500000 0.421214 0.000000
O O13 0.245632 0.386018 0.083575
O O14 0.237104 0.641760 0.656174
O O15 0.958881 0.679887 0.760806
O O16 0.000000 0.902502 0.500000
O O17 0.824935 0.000000 0.625056
#
# Coordination Sequence:
#
# PCOD9180610 Si02
#       7
#     8   8   8   8   8   8   8
#     4  10  20  35  56  79 106 144 187 226 274 326
#     4  10  19  33  51  75 115 144 182 226 270 317
#     4  10  20  32  49  77 111 150 188 226 269 311
#     4   9  18  30  44  69 106 154 195 213 246 308
#     4  10  20  33  56  80 108 141 182 223 274 326
#     4  10  19  32  50  75 110 153 186 225 263 314
#     4   9  20  41  64  83 105 136 177 224 276 333
#
# _framework density 17.615085000000001
#
# number of rings (size 3 to 8) (size 9 to 14) (size 15 to 20)
#    0.000    2.286    1.429    2.571    2.000    2.571 
#    0.000    0.714    0.000    0.000    0.000    3.000 
#    0.000    0.000    0.000    0.000    0.000    0.000 
#
# Total GULP energy -155947.282242 kJ/mol
# GULP energy per Si atom -5569.545794 kJ/mol
# Density = 1.757499 g / cm^3
# Si number density = 17.615085 Si / 1000 Ang^3
#
#
#
# Elastic Constant Matrix: (Units=GPa)
#
#
# Indices 1 2 3 4 5 6 
#
# 1 90.4988 14.8383 25.0149 0.0000 3.4459 0.0000
# 2 14.8383 73.9859 41.5345 0.0000 -9.2843 0.0000
# 3 25.0149 41.5345 81.6786 0.0001 -7.2022 -0.0001
# 4 0.0000 0.0000 0.0001 25.1162 0.0000 -4.5043
# 5 3.4459 -9.2843 -7.2022 0.0000 12.1418 0.0000
# 6 0.0000 0.0000 -0.0001 -4.5043 0.0000 17.2637
#
#
#
# Elastic Compliance Matrix: (Units=1/GPa)
#
#
# Indices 1 2 3 4 5 6 
#
# 1 0.012565 -0.001223 -0.003823 0.000000 -0.006769 0.000000
# 2 -0.001223 0.020072 -0.008914 0.000000 0.010407 0.000000
# 3 -0.003823 -0.008914 0.018404 0.000000 0.005185 0.000000
# 4 0.000000 0.000000 0.000000 0.041769 0.000000 0.010898
# 5 -0.006769 0.010407 0.005185 0.000000 0.095315 0.000000
# 6 0.000000 0.000000 0.000000 0.010898 0.000000 0.060768
#
#
# Mechanical properties :
#
#
# Convention : Reuss Voigt Hill
#
# Bulk Modulus (GPa) = 43.25311 45.43762 44.34536
# Shear Modulus (GPa) = 17.57337 21.88939 19.73138
#
# Velocity S-wave (km/s) = 3.16196 3.52895 3.35048
# Velocity P-wave (km/s) = 6.15943 6.51578 6.34011
#
# Compressibility (1/GPa) = 0.02311973
#
# Stress axis : x y z
#
# Youngs Moduli (GPa) = 79.58693 49.82103 54.33530
#
# Poissons Ratio (x) = 0.06094 0.20772
# Poissons Ratio (y) = 0.09735 0.48437
# Poissons Ratio (z) = 0.30426 0.44413
#
# Static dielectric constant tensor:
#      x y z
#    x 1.631380 0.000000 0.030160 
#    y 0.000000 1.631050 0.000000 
#    z 0.030160 0.000000 1.577230 
# 
# From -- ./inp_files/264222.got.cif
#   From: 2010.05.17/outbox.cif.g08.bks.cpg/sg12_133_cif.got.tgz:264222.got - 2010.06.03 13:09:07.
