data_PCOD9180028
_publ_section_title
;
Structure prediction by ZEFSAII (Michael W. Deem and Ramdas Pophale) SiO2 
 PCOD9180028
Probable space group: C 2/M
;
_chemical_formula_sum "Si O2"
_cell_formula_units_Z 64
_cell_length_a 20.292584
_cell_length_b 7.374607
_cell_length_c 22.218195
_cell_angle_alpha 90.000000
_cell_angle_beta 49.831401
_cell_angle_gamma 90.000000
_cell_volume 2540.758754
_symmetry_space_group_name_H-M "C 2/M"
_symmetry_group_IT_number 12
_symmetry_cell_setting 'monoclinic'
loop_
_space_group_symop_operation_xyz
x,y,z
-x,y,-z
-x,-y,-z
x,-y,z
1/2+x,1/2+y,z
1/2-x,1/2+y,-z
1/2-x,1/2-y,-z
1/2+x,1/2-y,z
loop_
_atom_site_type_symbol
_atom_site_label
_atom_site_fract_x
_atom_site_fract_y
_atom_site_fract_z
Si Si1 0.522817 0.219389 0.701357
Si Si2 0.959739 0.286699 0.925824
Si Si3 0.901769 0.721848 0.568416
Si Si4 0.141421 0.279074 0.131551
Si Si5 0.342379 0.216811 0.476136
Si Si6 0.190102 0.782398 0.906480
Si Si7 0.214418 0.703062 0.265813
Si Si8 0.876855 0.281648 0.234744
O O1 0.425156 0.276222 0.775809
O O2 0.577684 0.284425 0.612018
O O3 0.579093 0.262689 0.727765
O O4 0.519026 0.000000 0.699514
O O5 0.968238 0.500000 0.910060
O O6 0.899374 0.214996 0.907109
O O7 0.055717 0.217718 0.856766
O O8 0.906264 0.267431 0.018144
O O9 0.897417 0.500000 0.574325
O O10 0.849224 0.783103 0.540554
O O11 0.866316 0.788323 0.653332
O O12 0.000000 0.771163 0.500000
O O13 0.141856 0.500000 0.130348
O O14 0.238950 0.221174 0.086201
O O15 0.250000 0.250000 0.500000
O O16 0.352743 0.000000 0.472772
O O17 0.231950 0.712430 0.820179
O O18 0.189331 0.000000 0.904614
O O19 0.189504 0.500000 0.260142
O O20 0.285229 0.695130 0.277069
O O21 0.865552 0.500000 0.239562
#
# Coordination Sequence:
#
# PCOD9180028 Si02
#       8
#     8   8   8   8   8   8   8   8
#     4   8  15  28  50  76  95 121 166 209 244 289
#     4   9  18  33  52  73  96 126 165 207 247 291
#     4   9  19  34  53  79 109 139 174 216 262 312
#     4   8  15  29  49  72  97 123 158 205 248 289
#     4  10  19  31  53  80 104 134 172 217 261 306
#     4  10  20  31  48  73 100 130 163 202 248 296
#     4  10  21  34  49  73 103 133 164 203 250 297
#     4   9  18  34  53  72  98 132 168 204 245 295
#
# _framework density 25.189325
#
# number of rings (size 3 to 8) (size 9 to 14) (size 15 to 20)
#    0.000    2.875    0.000    2.625    1.750    1.500 
#    0.000    2.500    0.000    3.750    0.000    0.000 
#    0.000    0.000    0.000    0.000    0.000    0.000 
#
# Total GULP energy -178782.913935 kJ/mol
# GULP energy per Si atom -5586.966060 kJ/mol
# Density = 2.513199 g / cm^3
# Si number density = 25.189325 Si / 1000 Ang^3
#
#
#
# Elastic Constant Matrix: (Units=GPa)
#
#
# Indices 1 2 3 4 5 6 
#
# 1 45.3275 -6.4478 9.5250 -0.0001 -4.1256 -0.0015
# 2 -6.4478 91.0278 -3.8991 -0.0036 2.1748 -0.0082
# 3 9.5250 -3.8991 185.0119 0.0000 3.5160 0.0001
# 4 -0.0001 -0.0036 0.0000 0.4782 0.0003 -3.8719
# 5 -4.1256 2.1748 3.5160 0.0003 36.6888 0.0004
# 6 -0.0015 -0.0082 0.0001 -3.8719 0.0004 8.0815
#
#
#
# Elastic Compliance Matrix: (Units=1/GPa)
#
#
# Indices 1 2 3 4 5 6 
#
# 1 0.022760 0.001499 -0.001189 -0.000022 0.002584 -0.000005
# 2 0.001499 0.011111 0.000167 -0.000062 -0.000506 -0.000018
# 3 -0.001189 0.000167 0.005483 0.000000 -0.000669 0.000000
# 4 -0.000022 -0.000062 0.000000 -0.726249 0.000012 -0.347955
# 5 0.002584 -0.000506 -0.000669 0.000012 0.027641 0.000004
# 6 -0.000005 -0.000018 0.000000 -0.347955 0.000004 -0.042970
#
#
# Mechanical properties :
#
#
# Convention : Reuss Voigt Hill
#
# Bulk Modulus (GPa) = 24.80941 35.52482 30.16711
# Shear Modulus (GPa) = -7.24909 30.52897 11.63994
#
# Velocity S-wave (km/s) = -1.69826 3.48513 2.15198
# Velocity P-wave (km/s) = 2.45461 5.50714 4.26343
#
# Compressibility (1/GPa) = 0.04030729
#
# Stress axis : x y z
#
# Youngs Moduli (GPa) = 43.93653 90.00018 182.39823
#
# Poissons Ratio (x) = -0.13495 0.21692
# Poissons Ratio (y) = -0.06588 -0.03038
# Poissons Ratio (z) = 0.05225 -0.01499
#
# Static dielectric constant tensor:
#      x y z
#    x 1.969470 0.000000 0.043750 
#    y 0.000000 1.745970 0.000000 
#    z 0.043750 0.000000 2.007680 
# 
# From -- ./inp_files/346792.got.cif
#   From: 2010.05.17/outbox.cif.g08.bks.cpg/sg12_174_cif.got.tgz:346792.got - 2010.06.03 13:09:07.
