data_PCOD9180246
_publ_section_title
;
Structure prediction by ZEFSAII (Michael W. Deem and Ramdas Pophale) SiO2 
 PCOD9180246
Probable space group: C 2/M
;
_chemical_formula_sum "Si O2"
_cell_formula_units_Z 64
_cell_length_a 21.851538
_cell_length_b 31.004744
_cell_length_c 18.782772
_cell_angle_alpha 90.000000
_cell_angle_beta 161.589825
_cell_angle_gamma 90.000000
_cell_volume 4018.889756
_symmetry_space_group_name_H-M "C 2/M"
_symmetry_group_IT_number 12
_symmetry_cell_setting 'monoclinic'
loop_
_space_group_symop_operation_xyz
x,y,z
-x,y,-z
-x,-y,-z
x,-y,z
1/2+x,1/2+y,z
1/2-x,1/2+y,-z
1/2-x,1/2-y,-z
1/2+x,1/2-y,z
loop_
_atom_site_type_symbol
_atom_site_label
_atom_site_fract_x
_atom_site_fract_y
_atom_site_fract_z
Si Si1 0.506961 0.180961 0.351879
Si Si2 0.841703 0.192318 0.534355
Si Si3 0.203771 0.120083 0.409441
Si Si4 0.034516 0.450162 0.357373
Si Si5 0.226941 0.951082 0.232074
Si Si6 0.547031 0.234884 0.849010
Si Si7 0.465273 0.266974 0.379552
Si Si8 0.257366 0.395451 0.886956
O O1 0.690806 0.152983 0.529330
O O2 0.427163 0.203302 0.191074
O O3 0.556584 0.220883 0.457351
O O4 0.354546 0.149130 0.221031
O O5 0.811392 0.145284 0.532951
O O6 0.635143 0.216429 0.308784
O O7 0.977943 0.219634 0.739418
O O8 0.938186 0.197268 0.564479
O O9 0.341971 0.078474 0.561019
O O10 0.986989 0.109312 0.146936
O O11 0.017864 0.500000 0.319595
O O12 0.154935 0.446986 0.564585
O O13 0.830741 0.428022 0.151342
O O14 0.281643 0.916383 0.233153
O O15 0.258742 0.000000 0.238826
O O16 0.000000 0.947040 0.000000
O O17 0.740345 0.236895 0.108295
O O18 0.500000 0.275234 0.500000
#
# Coordination Sequence:
#
# PCOD9180246 Si02
#       8
#     8   8   8   8   8   8   8   8
#     4   9  20  33  48  69  94 126 169 203 236 278
#     4   9  18  34  53  68  91 130 168 197 241 287
#     4  10  19  32  50  69  86 118 165 205 232 276
#     4  10  21  33  45  66  92 120 160 201 244 289
#     4  10  19  32  45  59  87 127 162 196 241 288
#     4   9  17  34  53  68  92 129 166 201 237 291
#     4  11  21  32  48  74 102 129 158 202 247 288
#     4  11  19  30  47  64  86 125 161 202 242 275
#
# _framework density 15.924797
#
# number of rings (size 3 to 8) (size 9 to 14) (size 15 to 20)
#    0.000    2.125    1.250    4.500    0.000    4.000 
#    0.000    0.000    0.000    0.000    0.000    0.000 
#    0.000    0.500    0.000   18.750    0.000   26.625 
#
# Total GULP energy -178555.749782 kJ/mol
# GULP energy per Si atom -5579.867181 kJ/mol
# Density = 1.588855 g / cm^3
# Si number density = 15.924797 Si / 1000 Ang^3
#
#
#
# Elastic Constant Matrix: (Units=GPa)
#
#
# Indices 1 2 3 4 5 6 
#
# 1 78.5666 35.0872 34.4671 0.0000 0.8302 -0.0001
# 2 35.0872 89.8658 16.2288 0.0000 5.3396 0.0000
# 3 34.4671 16.2288 74.1277 0.0004 15.7591 0.0001
# 4 0.0000 0.0000 0.0004 11.4258 0.0001 3.8787
# 5 0.8302 5.3396 15.7591 0.0001 22.6278 0.0000
# 6 -0.0001 0.0000 0.0001 3.8787 0.0000 24.9375
#
#
#
# Elastic Compliance Matrix: (Units=1/GPa)
#
#
# Indices 1 2 3 4 5 6 
#
# 1 0.019557 -0.006399 -0.009227 0.000000 0.007219 0.000000
# 2 -0.006399 0.013704 0.000719 0.000000 -0.003500 0.000000
# 3 -0.009227 0.000719 0.020644 0.000000 -0.014209 0.000000
# 4 0.000000 0.000000 0.000000 0.092400 0.000000 -0.014372
# 5 0.007219 -0.003500 -0.014209 0.000000 0.054650 0.000000
# 6 0.000000 0.000000 0.000000 -0.014372 0.000000 0.042336
#
#
# Mechanical properties :
#
#
# Convention : Reuss Voigt Hill
#
# Bulk Modulus (GPa) = 41.50870 46.01403 43.76136
# Shear Modulus (GPa) = 17.78504 22.25002 20.01753
#
# Velocity S-wave (km/s) = 3.34550 3.74196 3.54927
# Velocity P-wave (km/s) = 6.40665 6.90123 6.65854
#
# Compressibility (1/GPa) = 0.02409134
#
# Stress axis : x y z
#
# Youngs Moduli (GPa) = 51.13171 72.97110 48.44038
#
# Poissons Ratio (x) = 0.46691 0.44698
# Poissons Ratio (y) = 0.32717 -0.03482
# Poissons Ratio (z) = 0.47181 -0.05246
#
# Static dielectric constant tensor:
#      x y z
#    x 1.535610 0.000000 0.032270 
#    y 0.000000 1.559040 0.000000 
#    z 0.032270 0.000000 1.544570 
# 
# From -- ./inp_files/286786.got.cif
#   From: 2010.05.17/outbox.cif.g08.bks.cpg/sg12_144_cif.got.tgz:286786.got - 2010.06.03 13:09:07.
