data_PCOD9180725
_publ_section_title
;
Structure prediction by ZEFSAII (Michael W. Deem and Ramdas Pophale) SiO2 
 PCOD9180725
Probable space group: C 2/M
;
_chemical_formula_sum "Si O2"
_cell_formula_units_Z 56
_cell_length_a 15.955821
_cell_length_b 7.743545
_cell_length_c 17.113983
_cell_angle_alpha 90.000000
_cell_angle_beta 99.751337
_cell_angle_gamma 90.000000
_cell_volume 2083.961393
_symmetry_space_group_name_H-M "C 2/M"
_symmetry_group_IT_number 12
_symmetry_cell_setting 'monoclinic'
loop_
_space_group_symop_operation_xyz
x,y,z
-x,y,-z
-x,-y,-z
x,-y,z
1/2+x,1/2+y,z
1/2-x,1/2+y,-z
1/2-x,1/2-y,-z
1/2+x,1/2-y,z
loop_
_atom_site_type_symbol
_atom_site_label
_atom_site_fract_x
_atom_site_fract_y
_atom_site_fract_z
Si Si1 0.450350 0.202876 0.304733
Si Si2 0.428185 0.208228 0.550554
Si Si3 0.188111 0.294031 0.830710
Si Si4 0.167245 0.701378 0.266879
Si Si5 0.956122 0.700492 0.880240
Si Si6 0.129830 0.194611 0.983439
Si Si7 0.196919 0.792688 0.595045
O O1 0.535813 0.271791 0.360203
O O2 0.401742 0.269589 0.220764
O O3 0.377160 0.221635 0.359561
O O4 0.464185 0.000000 0.293831
O O5 0.500000 0.269638 0.500000
O O6 0.338413 0.250221 0.496595
O O7 0.431497 0.000000 0.553743
O O8 0.193900 0.500000 0.819956
O O9 0.259796 0.210237 0.788478
O O10 0.189837 0.258380 0.922979
O O11 0.149086 0.500000 0.280072
O O12 0.085975 0.769636 0.206049
O O13 0.215629 0.772809 0.351111
O O14 0.981498 0.500000 0.873562
O O15 0.036872 0.797698 0.927194
O O16 0.886215 0.704999 0.938838
O O17 0.151318 0.000000 0.008007
O O18 0.199085 0.000000 0.601337
#
# Coordination Sequence:
#
# PCOD9180725 Si02
#       7
#     8   8   8   8   8   8   8
#     4   8  15  26  39  58  87 122 158 192 225 268
#     4   8  13  22  35  54  84 121 156 188 224 268
#     4  10  19  32  51  73  98 130 164 196 236 286
#     4   9  19  33  49  72 101 128 157 199 242 279
#     4  10  20  37  57  73  93 125 163 196 233 286
#     4  11  22  36  53  74  99 123 154 199 244 284
#     4   9  15  23  37  61  91 120 151 188 232 275
#
# _framework density 26.871898000000002
#
# number of rings (size 3 to 8) (size 9 to 14) (size 15 to 20)
#    0.000    2.714    0.000    4.286    0.000    5.429 
#    0.000    0.000    0.000    0.000    0.000    1.000 
#    0.000    0.000    0.000    0.000    0.000    0.000 
#
# Total GULP energy -156561.971911 kJ/mol
# GULP energy per Si atom -5591.498997 kJ/mol
# Density = 2.681074 g / cm^3
# Si number density = 26.871898 Si / 1000 Ang^3
#
#
#
# Elastic Constant Matrix: (Units=GPa)
#
#
# Indices 1 2 3 4 5 6 
#
# 1 93.5103 -1.3522 39.8071 0.0000 18.4110 0.0000
# 2 -1.3522 70.2293 -1.6846 0.0000 -1.9027 0.0000
# 3 39.8071 -1.6846 242.7042 0.0000 10.4646 0.0000
# 4 0.0000 0.0000 0.0000 16.9732 0.0000 10.6342
# 5 18.4110 -1.9027 10.4646 0.0000 68.6253 0.0000
# 6 0.0000 0.0000 0.0000 10.6342 0.0000 -7.1043
#
#
#
# Elastic Compliance Matrix: (Units=1/GPa)
#
#
# Indices 1 2 3 4 5 6 
#
# 1 0.012065 0.000108 -0.001851 0.000000 -0.002951 0.000000
# 2 0.000108 0.014252 0.000066 0.000000 0.000356 0.000000
# 3 -0.001851 0.000066 0.004432 0.000000 -0.000177 0.000000
# 4 0.000000 0.000000 0.000000 0.030403 0.000000 0.045510
# 5 -0.002951 0.000356 -0.000177 0.000000 0.015401 0.000000
# 6 0.000000 0.000000 0.000000 0.045510 0.000000 -0.072638
#
#
# Mechanical properties :
#
#
# Convention : Reuss Voigt Hill
#
# Bulk Modulus (GPa) = 36.50314 53.33160 44.91737
# Shear Modulus (GPa) = 304.86945 40.34375 172.60660
#
# Velocity S-wave (km/s) = 10.66298 3.87891 8.02325
# Velocity P-wave (km/s) = 12.85350 6.32068 10.12826
#
# Compressibility (1/GPa) = 0.02739490
#
# Stress axis : x y z
#
# Youngs Moduli (GPa) = 82.88750 70.16373 225.63677
#
# Poissons Ratio (x) = -0.00757 0.41760
# Poissons Ratio (y) = -0.00895 -0.01486
# Poissons Ratio (z) = 0.15340 -0.00462
#
# Static dielectric constant tensor:
#      x y z
#    x 2.217710 0.000000 0.016240 
#    y 0.000000 1.992650 0.000000 
#    z 0.016240 0.000000 2.128340 
# 
# From -- ./inp_files/323823.got.cif
#   From: 2010.05.17/outbox.cif.g08.bks.cpg/sg12_162_cif.got.tgz:323823.got - 2010.06.03 13:09:07.
