data_PCOD9180163
_publ_section_title
;
Structure prediction by ZEFSAII (Michael W. Deem and Ramdas Pophale) SiO2 
 PCOD9180163
Probable space group: C 2/M
;
_chemical_formula_sum "Si O2"
_cell_formula_units_Z 64
_cell_length_a 20.460873
_cell_length_b 21.277376
_cell_length_c 12.480298
_cell_angle_alpha 90.000000
_cell_angle_beta 34.498349
_cell_angle_gamma 90.000000
_cell_volume 3077.350765
_symmetry_space_group_name_H-M "C 2/M"
_symmetry_group_IT_number 12
_symmetry_cell_setting 'monoclinic'
loop_
_space_group_symop_operation_xyz
x,y,z
-x,y,-z
-x,-y,-z
x,-y,z
1/2+x,1/2+y,z
1/2-x,1/2+y,-z
1/2-x,1/2-y,-z
1/2+x,1/2-y,z
loop_
_atom_site_type_symbol
_atom_site_label
_atom_site_fract_x
_atom_site_fract_y
_atom_site_fract_z
Si Si1 0.296567 0.574659 0.841427
Si Si2 0.567687 0.762843 0.017745
Si Si3 0.298873 0.685604 0.992608
Si Si4 0.101862 0.669129 0.415888
Si Si5 0.901273 0.428324 0.213881
Si Si6 0.778206 0.852552 0.655668
Si Si7 0.645592 0.240132 0.558744
Si Si8 0.971551 0.430360 0.733482
O O1 0.326481 0.500000 0.816101
O O2 0.318980 0.599029 0.690687
O O3 0.344533 0.630607 0.853103
O O4 0.158033 0.580441 0.048545
O O5 0.615617 0.708386 0.029797
O O6 0.676297 0.808135 0.845327
O O7 0.535905 0.788886 0.767571
O O8 0.500000 0.744849 0.000000
O O9 0.192066 0.655722 0.201801
O O10 0.250000 0.750000 0.000000
O O11 0.171309 0.697793 0.421470
O O12 0.027331 0.615200 0.572067
O O13 0.000000 0.711954 0.500000
O O14 0.879621 0.500000 0.207410
O O15 0.786935 0.389352 0.350253
O O16 0.949003 0.429467 0.268252
O O17 0.000000 0.402923 0.000000
O O18 0.871947 0.807502 0.475102
O O19 0.750000 0.250000 0.500000
O O20 0.971622 0.500000 0.686551
#
# Coordination Sequence:
#
# PCOD9180163 Si02
#       8
#     8   8   8   8   8   8   8   8
#     4  11  22  38  62  93 127 167 210 259 321 386
#     4  12  24  40  62  91 129 165 210 266 312 382
#     4  12  23  42  61  89 127 171 210 257 320 373
#     4  12  22  36  57  85 122 161 201 248 300 375
#     4  10  19  31  54  86 121 160 195 238 310 386
#     4  12  21  36  61  90 130 161 202 256 323 380
#     4  12  24  38  59  91 122 164 208 254 316 373
#     4  10  21  34  54  89 128 162 196 247 316 387
#
# _framework density 20.797108999999999
#
# number of rings (size 3 to 8) (size 9 to 14) (size 15 to 20)
#    0.000    0.625    6.250    3.000    0.000    0.750 
#    0.000    0.000    0.000    2.625    0.000    0.000 
#    0.000    0.000    0.000    0.000    0.000    0.000 
#
# Total GULP energy -178503.307635 kJ/mol
# GULP energy per Si atom -5578.228364 kJ/mol
# Density = 2.074977 g / cm^3
# Si number density = 20.797109 Si / 1000 Ang^3
#
#
#
# Elastic Constant Matrix: (Units=GPa)
#
#
# Indices 1 2 3 4 5 6 
#
# 1 85.8217 25.8148 -3.2200 0.0001 25.4318 -0.0001
# 2 25.8148 98.8450 5.7347 0.0000 9.8531 0.0000
# 3 -3.2200 5.7347 57.8195 0.0001 13.8064 -0.0001
# 4 0.0001 0.0000 0.0001 32.5016 -0.0001 5.7860
# 5 25.4318 9.8531 13.8064 -0.0001 26.2383 0.0000
# 6 -0.0001 0.0000 -0.0001 5.7860 0.0000 28.6691
#
#
#
# Elastic Compliance Matrix: (Units=1/GPa)
#
#
# Indices 1 2 3 4 5 6 
#
# 1 0.018912 -0.003269 0.006246 0.000000 -0.020390 0.000000
# 2 -0.003269 0.011076 -0.001194 0.000000 -0.000362 0.000000
# 3 0.006246 -0.001194 0.021845 0.000000 -0.017100 0.000000
# 4 0.000000 0.000000 0.000000 0.031914 0.000000 -0.006441
# 5 -0.020390 -0.000362 -0.017100 0.000000 0.067009 0.000000
# 6 0.000000 0.000000 0.000000 -0.006441 0.000000 0.036181
#
#
# Mechanical properties :
#
#
# Convention : Reuss Voigt Hill
#
# Bulk Modulus (GPa) = 18.05095 33.23835 25.64465
# Shear Modulus (GPa) = 24.77249 31.75892 28.26570
#
# Velocity S-wave (km/s) = 3.45505 3.91203 3.69062
# Velocity P-wave (km/s) = 4.96134 6.03508 5.52436
#
# Compressibility (1/GPa) = 0.05539876
#
# Stress axis : x y z
#
# Youngs Moduli (GPa) = 52.87701 90.28529 45.77755
#
# Poissons Ratio (x) = 0.29514 -0.28593
# Poissons Ratio (y) = 0.17285 0.05466
# Poissons Ratio (z) = -0.33028 0.10781
#
# Static dielectric constant tensor:
#      x y z
#    x 1.804130 0.000000 -0.023580 
#    y 0.000000 1.809360 0.000000 
#    z -0.023580 0.000000 1.767260 
# 
# From -- ./inp_files/169652.got.cif
#   From: 2010.05.17/outbox.cif.g08.bks.cpg/sg12_85_cif.got.tgz:169652.got - 2010.06.03 13:09:07.
