data_PCOD9180944
_publ_section_title
;
Structure prediction by ZEFSAII (Michael W. Deem and Ramdas Pophale) SiO2 
 PCOD9180944
Probable space group: C 2/M
;
_chemical_formula_sum "Si O2"
_cell_formula_units_Z 56
_cell_length_a 24.278387
_cell_length_b 8.712392
_cell_length_c 21.073421
_cell_angle_alpha 90.000000
_cell_angle_beta 125.809871
_cell_angle_gamma 90.000000
_cell_volume 3614.875437
_symmetry_space_group_name_H-M "C 2/M"
_symmetry_group_IT_number 12
_symmetry_cell_setting 'monoclinic'
loop_
_space_group_symop_operation_xyz
x,y,z
-x,y,-z
-x,-y,-z
x,-y,z
1/2+x,1/2+y,z
1/2-x,1/2+y,-z
1/2-x,1/2-y,-z
1/2+x,1/2-y,z
loop_
_atom_site_type_symbol
_atom_site_label
_atom_site_fract_x
_atom_site_fract_y
_atom_site_fract_z
Si Si1 0.953420 0.316489 0.906774
Si Si2 0.036183 0.817744 0.588394
Si Si3 0.673825 0.681002 0.737678
Si Si4 0.812002 0.316047 0.000872
Si Si5 0.687217 0.682662 0.140678
Si Si6 0.544073 0.683012 0.856555
Si Si7 0.055185 0.682132 0.730618
O O1 0.949739 0.500000 0.896422
O O2 0.879441 0.248560 0.870500
O O3 0.989710 0.241623 0.870931
O O4 0.000000 0.285074 0.000000
O O5 0.118369 0.799950 0.643994
O O6 0.016431 0.730518 0.639785
O O7 0.000000 0.765359 0.500000
O O8 0.022918 0.000000 0.587493
O O9 0.685187 0.500000 0.755301
O O10 0.744013 0.767517 0.777469
O O11 0.631018 0.750817 0.767936
O O12 0.810395 0.500000 0.000588
O O13 0.883477 0.257397 0.076736
O O14 0.750000 0.250000 0.000000
O O15 0.807836 0.256299 0.925989
O O16 0.682610 0.500000 0.132112
O O17 0.549582 0.500000 0.862535
O O18 0.526901 0.739407 0.774262
O O19 0.057908 0.500000 0.739255
#
# Coordination Sequence:
#
# PCOD9180944 Si02
#       7
#     8   8   8   8   8   8   8
#     4  11  23  39  57  74  97 134 180 227 267 308
#     4   8  16  32  54  80 110 141 171 205 255 316
#     4   9  18  33  52  76 108 140 171 210 257 307
#     4  12  24  37  52  72  99 135 175 217 265 313
#     4  12  23  36  53  75 102 136 177 220 261 309
#     4  12  23  37  54  74 101 136 178 222 263 309
#     4  10  19  32  51  78 110 139 171 211 258 311
#
# _framework density 15.491543999999999
#
# number of rings (size 3 to 8) (size 9 to 14) (size 15 to 20)
#    0.857    0.571    1.429    6.429    0.000    0.857 
#    0.000    0.000    0.000    0.000    0.000    1.000 
#    0.000    0.000    0.000    0.000    0.000    0.000 
#
# Total GULP energy -156170.116972 kJ/mol
# GULP energy per Si atom -5577.504178 kJ/mol
# Density = 1.545628 g / cm^3
# Si number density = 15.491544 Si / 1000 Ang^3
#
#
#
# Elastic Constant Matrix: (Units=GPa)
#
#
# Indices 1 2 3 4 5 6 
#
# 1 126.9633 56.2784 52.1129 0.0000 -5.2407 0.0000
# 2 56.2784 126.7855 47.9298 0.0000 -3.5882 0.0000
# 3 52.1129 47.9298 91.2899 0.0000 -6.2243 0.0000
# 4 0.0000 0.0000 0.0000 20.5169 0.0000 0.3660
# 5 -5.2407 -3.5882 -6.2243 0.0000 9.3399 0.0000
# 6 0.0000 0.0000 0.0000 0.3660 0.0000 28.6899
#
#
#
# Elastic Compliance Matrix: (Units=1/GPa)
#
#
# Indices 1 2 3 4 5 6 
#
# 1 0.011274 -0.003202 -0.004617 0.000000 0.002019 0.000000
# 2 -0.003202 0.010751 -0.003832 0.000000 -0.000220 0.000000
# 3 -0.004617 -0.003832 0.016054 0.000000 0.006636 0.000000
# 4 0.000000 0.000000 0.000000 0.048751 0.000000 -0.000622
# 5 0.002019 -0.000220 0.006636 0.000000 0.112538 0.000000
# 6 0.000000 0.000000 0.000000 -0.000622 0.000000 0.034863
#
#
# Mechanical properties :
#
#
# Convention : Reuss Voigt Hill
#
# Bulk Modulus (GPa) = 67.66988 73.07566 70.37277
# Shear Modulus (GPa) = 19.05062 24.29053 21.67057
#
# Velocity S-wave (km/s) = 3.51057 3.96408 3.74420
# Velocity P-wave (km/s) = 7.75943 8.25988 8.01356
#
# Compressibility (1/GPa) = 0.01477762
#
# Stress axis : x y z
#
# Youngs Moduli (GPa) = 88.69989 93.01538 62.28977
#
# Poissons Ratio (x) = 0.29782 0.28760
# Poissons Ratio (y) = 0.28400 0.23868
# Poissons Ratio (z) = 0.40953 0.35641
#
# Static dielectric constant tensor:
#      x y z
#    x 1.493380 0.000000 0.003400 
#    y 0.000000 1.513230 0.000000 
#    z 0.003400 0.000000 1.529280 
# 
# From -- ./inp_files/319311.got.cif
#   From: 2010.05.17/outbox.cif.g08.bks.cpg/sg12_160_cif.got.tgz:319311.got - 2010.06.03 13:09:07.
