data_PCOD9180698
_publ_section_title
;
Structure prediction by ZEFSAII (Michael W. Deem and Ramdas Pophale) SiO2 
 PCOD9180698
Probable space group: C 2/M
;
_chemical_formula_sum "Si O2"
_cell_formula_units_Z 52
_cell_length_a 15.059047
_cell_length_b 12.382694
_cell_length_c 23.425310
_cell_angle_alpha 90.000000
_cell_angle_beta 35.193659
_cell_angle_gamma 90.000000
_cell_volume 2517.550285
_symmetry_space_group_name_H-M "C 2/M"
_symmetry_group_IT_number 12
_symmetry_cell_setting 'monoclinic'
loop_
_space_group_symop_operation_xyz
x,y,z
-x,y,-z
-x,-y,-z
x,-y,z
1/2+x,1/2+y,z
1/2-x,1/2+y,-z
1/2-x,1/2-y,-z
1/2+x,1/2-y,z
loop_
_atom_site_type_symbol
_atom_site_label
_atom_site_fract_x
_atom_site_fract_y
_atom_site_fract_z
Si Si1 0.259788 0.878344 0.109428
Si Si2 0.771993 0.882306 0.209738
Si Si3 0.792043 0.120402 0.490114
Si Si4 0.356651 0.339806 0.707399
Si Si5 0.680717 0.308241 0.400967
Si Si6 0.500000 0.286948 0.000000
Si Si7 0.914385 0.877227 0.258482
O O1 0.248118 0.878400 0.185000
O O2 0.389250 0.794141 0.023136
O O3 0.089594 0.844782 0.178675
O O4 0.291289 0.000000 0.073315
O O5 0.645751 0.789904 0.283539
O O6 0.877395 0.878150 0.210741
O O7 0.701970 0.000000 0.241099
O O8 0.884645 0.856215 0.098464
O O9 0.750000 0.250000 0.500000
O O10 0.785550 0.118774 0.562469
O O11 0.971396 0.117983 0.377399
O O12 0.726259 0.000000 0.505540
O O13 0.298645 0.358734 0.673206
O O14 0.500000 0.277170 0.500000
O O15 0.790098 0.204326 0.348816
O O16 0.895462 0.000000 0.289354
#
# Coordination Sequence:
#
# PCOD9180698 Si02
#       7
#     8   8   8   8   8   4   8
#     4  10  19  32  51  73 101 136 177 225 278 334
#     4   9  18  34  54  76 104 138 178 223 276 336
#     4  11  23  37  55  81 113 149 188 229 273 323
#     4   9  19  34  53  77 104 138 179 225 276 327
#     4   9  19  34  53  79 107 138 182 229 273 324
#     4  10  20  32  50  76 102 136 180 226 272 326
#     4   9  18  33  53  77 107 143 179 222 278 332
#
# _framework density 20.654999
#
# number of rings (size 3 to 8) (size 9 to 14) (size 15 to 20)
#    0.000    2.462    0.000    1.846    0.000    6.769 
#    0.000    3.077    0.000    0.923    0.000    0.000 
#    0.000    0.000    0.000    0.000    0.000    0.000 
#
# Total GULP energy -144801.880205 kJ/mol
# GULP energy per Si atom -5569.303085 kJ/mol
# Density = 2.060799 g / cm^3
# Si number density = 20.654999 Si / 1000 Ang^3
#
#
#
# Elastic Constant Matrix: (Units=GPa)
#
#
# Indices 1 2 3 4 5 6 
#
# 1 31.2548 27.1066 -1.9644 0.0000 -8.3911 0.0000
# 2 27.1066 139.0186 17.9483 0.0000 -16.4782 0.0000
# 3 -1.9644 17.9483 26.7255 -0.0002 -0.1982 0.0001
# 4 0.0000 0.0000 -0.0002 7.5538 0.0000 -5.5150
# 5 -8.3911 -16.4782 -0.1982 0.0000 29.6254 0.0000
# 6 0.0000 0.0000 0.0001 -5.5150 0.0000 17.8123
#
#
#
# Elastic Compliance Matrix: (Units=1/GPa)
#
#
# Indices 1 2 3 4 5 6 
#
# 1 0.041793 -0.008429 0.008786 0.000000 0.007208 0.000000
# 2 -0.008429 0.010178 -0.007431 0.000000 0.003224 0.000000
# 3 0.008786 -0.007431 0.043044 0.000001 -0.001357 0.000000
# 4 0.000000 0.000000 0.000001 0.171049 0.000000 0.052960
# 5 0.007208 0.003224 -0.001357 0.000000 0.037581 0.000000
# 6 0.000000 0.000000 0.000000 0.052960 0.000000 0.072538
#
#
# Mechanical properties :
#
#
# Convention : Reuss Voigt Hill
#
# Bulk Modulus (GPa) = 12.36606 31.46445 21.91525
# Shear Modulus (GPa) = 11.98216 21.25886 16.62051
#
# Velocity S-wave (km/s) = 2.41116 3.21165 2.83975
# Velocity P-wave (km/s) = 3.70831 5.38696 4.62444
#
# Compressibility (1/GPa) = 0.08086648
#
# Stress axis : x y z
#
# Youngs Moduli (GPa) = 23.92767 98.24709 23.23212
#
# Poissons Ratio (x) = 0.82812 -0.20412
# Poissons Ratio (y) = 0.20169 0.17264
# Poissons Ratio (z) = -0.21023 0.73010
#
# Static dielectric constant tensor:
#      x y z
#    x 1.760140 0.000000 0.038220 
#    y 0.000000 1.806850 0.000000 
#    z 0.038220 0.000000 1.707320 
# 
# From -- ./inp_files/363619.got.cif
#   From: 2010.05.17/outbox.cif.g08.bks.cpg/sg12_182_cif.got.tgz:363619.got - 2010.06.03 13:09:07.
