data_PCOD9180083
_publ_section_title
;
Structure prediction by ZEFSAII (Michael W. Deem and Ramdas Pophale) SiO2 
 PCOD9180083
Probable space group: C 2/M
;
_chemical_formula_sum "Si O2"
_cell_formula_units_Z 40
_cell_length_a 14.486993
_cell_length_b 18.052360
_cell_length_c 8.969242
_cell_angle_alpha 90.000000
_cell_angle_beta 128.098083
_cell_angle_gamma 90.000000
_cell_volume 1845.942822
_symmetry_space_group_name_H-M "C 2/M"
_symmetry_group_IT_number 12
_symmetry_cell_setting 'monoclinic'
loop_
_space_group_symop_operation_xyz
x,y,z
-x,y,-z
-x,-y,-z
x,-y,z
1/2+x,1/2+y,z
1/2-x,1/2+y,-z
1/2-x,1/2-y,-z
1/2+x,1/2-y,z
loop_
_atom_site_type_symbol
_atom_site_label
_atom_site_fract_x
_atom_site_fract_y
_atom_site_fract_z
Si Si1 0.883832 0.188831 0.477632
Si Si2 0.316635 0.791905 0.935081
Si Si3 0.880443 0.147335 0.820703
Si Si4 0.982018 0.579487 0.157600
Si Si5 0.123167 0.631973 0.540684
O O1 0.773001 0.167308 0.265374
O O2 0.885030 0.158524 0.646551
O O3 0.876482 0.278872 0.478093
O O4 0.000000 0.170083 0.500000
O O5 0.376973 0.728047 0.897398
O O6 0.250000 0.750000 0.000000
O O7 0.401561 0.849264 0.100341
O O8 0.752264 0.112775 0.730430
O O9 0.000000 0.110597 0.000000
O O10 0.932288 0.500000 0.155920
O O11 0.103324 0.593571 0.362483
O O12 0.000000 0.577960 0.000000
O O13 0.000000 0.612243 0.500000
#
# Coordination Sequence:
#
# PCOD9180083 Si02
#       5
#     8   8   8   8   8
#     4  10  19  31  53  83 114 149 192 248 303 354
#     4  11  20  34  56  84 118 154 202 256 305 359
#     4  11  20  32  54  82 116 150 190 254 307 349
#     4  11  22  36  56  83 120 160 196 242 303 371
#     4  10  20  35  53  79 113 151 196 240 293 353
#
# _framework density 21.669143999999999
#
# number of rings (size 3 to 8) (size 9 to 14) (size 15 to 20)
#    0.000    1.400    0.000   11.400    0.000    0.400 
#    0.000    0.000    0.000    1.200    0.000    5.600 
#    0.000    5.600    0.000    0.000    0.000    0.000 
#
# Total GULP energy -111668.928756 kJ/mol
# GULP energy per Si atom -5583.446438 kJ/mol
# Density = 2.161982 g / cm^3
# Si number density = 21.669144 Si / 1000 Ang^3
#
#
#
# Elastic Constant Matrix: (Units=GPa)
#
#
# Indices 1 2 3 4 5 6 
#
# 1 123.2505 10.5802 53.1364 0.0000 10.8726 0.0000
# 2 10.5802 46.6812 12.6071 0.0000 11.3366 0.0000
# 3 53.1364 12.6071 156.5995 0.0000 22.6669 0.0000
# 4 0.0000 0.0000 0.0000 -5.9172 0.0000 -4.2346
# 5 10.8726 11.3366 22.6669 0.0000 44.1193 0.0000
# 6 0.0000 0.0000 0.0000 -4.2346 0.0000 7.4206
#
#
#
# Elastic Compliance Matrix: (Units=1/GPa)
#
#
# Indices 1 2 3 4 5 6 
#
# 1 0.009591 -0.001228 -0.003089 0.000000 -0.000461 0.000000
# 2 -0.001228 0.023172 -0.000682 0.000000 -0.005301 0.000000
# 3 -0.003089 -0.000682 0.007944 0.000000 -0.003145 0.000000
# 4 0.000000 0.000000 0.000000 -0.119996 0.000000 -0.068476
# 5 -0.000461 -0.005301 -0.003145 0.000000 0.025757 0.000000
# 6 0.000000 0.000000 0.000000 -0.068476 0.000000 0.095684
#
#
# Mechanical properties :
#
#
# Convention : Reuss Voigt Hill
#
# Bulk Modulus (GPa) = 32.56189 53.24207 42.90198
# Shear Modulus (GPa) = 80.14677 25.80505 52.97591
#
# Velocity S-wave (km/s) = 6.08826 3.45464 4.94982
# Velocity P-wave (km/s) = 8.03007 6.36683 7.24633
#
# Compressibility (1/GPa) = 0.03071075
#
# Stress axis : x y z
#
# Youngs Moduli (GPa) = 104.26089 43.15621 125.88280
#
# Poissons Ratio (x) = 0.05298 0.38884
# Poissons Ratio (y) = 0.12799 0.08580
# Poissons Ratio (z) = 0.32205 0.02941
#
# Static dielectric constant tensor:
#      x y z
#    x 1.883460 0.000000 0.028210 
#    y 0.000000 1.796720 0.000000 
#    z 0.028210 0.000000 1.892180 
# 
# From -- ./inp_files/61393.got.cif
#   From: 2010.05.17/outbox.cif.g08.bks.cpg/sg12_31_cif.got.tgz:61393.got - 2010.06.03 13:09:07.
