data_PCOD9180927
_publ_section_title
;
Structure prediction by ZEFSAII (Michael W. Deem and Ramdas Pophale) SiO2 
 PCOD9180927
Probable space group: C 2/M
;
_chemical_formula_sum "Si O2"
_cell_formula_units_Z 64
_cell_length_a 33.028606
_cell_length_b 8.898419
_cell_length_c 15.623251
_cell_angle_alpha 90.000000
_cell_angle_beta 134.249205
_cell_angle_gamma 90.000000
_cell_volume 3289.095667
_symmetry_space_group_name_H-M "C 2/M"
_symmetry_group_IT_number 12
_symmetry_cell_setting 'monoclinic'
loop_
_space_group_symop_operation_xyz
x,y,z
-x,y,-z
-x,-y,-z
x,-y,z
1/2+x,1/2+y,z
1/2-x,1/2+y,-z
1/2-x,1/2-y,-z
1/2+x,1/2-y,z
loop_
_atom_site_type_symbol
_atom_site_label
_atom_site_fract_x
_atom_site_fract_y
_atom_site_fract_z
Si Si1 0.909091 0.831658 0.301577
Si Si2 0.841097 0.320424 0.860304
Si Si3 0.065093 0.178385 0.121005
Si Si4 0.225873 0.830050 0.882305
Si Si5 0.029928 0.821431 0.253612
Si Si6 0.102594 0.181162 0.527346
Si Si7 0.725505 0.177186 0.703800
Si Si8 0.915155 0.321552 0.126872
O O1 0.841256 0.843139 0.206199
O O2 0.921974 0.768306 0.415942
O O3 0.919429 0.744542 0.228947
O O4 0.934101 0.000000 0.330894
O O5 0.835337 0.500000 0.852467
O O6 0.890170 0.269967 0.867928
O O7 0.781509 0.247949 0.744572
O O8 0.863316 0.272556 0.988544
O O9 0.068223 0.208391 0.227190
O O10 0.074252 0.000000 0.119209
O O11 0.000000 0.210627 0.000000
O O12 0.235783 0.722363 0.817406
O O13 0.248381 0.000000 0.902103
O O14 0.250000 0.750000 0.000000
O O15 0.061053 0.785891 0.388117
O O16 0.971990 0.731006 0.163635
O O17 0.016731 0.000000 0.232885
O O18 0.164008 0.249996 0.596538
O O19 0.109355 0.000000 0.544581
O O20 0.723103 0.000000 0.686780
O O21 0.912324 0.500000 0.129139
#
# Coordination Sequence:
#
# PCOD9180927 Si02
#       8
#     8   8   8   8   8   8   8   8
#     4   9  19  34  52  75 108 150 192 232 275 331
#     4  11  23  38  58  85 119 154 188 235 289 347
#     4  10  20  37  62  91 117 143 183 235 290 350
#     4  10  19  32  51  77 110 150 194 239 288 343
#     4  10  21  39  63  85 112 151 188 232 289 348
#     4   9  20  40  61  82 112 153 197 234 279 343
#     4  11  22  36  57  83 113 151 192 240 290 338
#     4  11  23  35  53  84 118 150 190 238 285 334
#
# _framework density 19.458234999999998
#
# number of rings (size 3 to 8) (size 9 to 14) (size 15 to 20)
#    0.000    1.875    1.250    3.750    0.000    7.750 
#    0.000    3.125    0.000    0.000    0.000    0.000 
#    0.000    0.000    0.000    0.000    0.000    0.000 
#
# Total GULP energy -178555.076584 kJ/mol
# GULP energy per Si atom -5579.846143 kJ/mol
# Density = 1.941395 g / cm^3
# Si number density = 19.458235 Si / 1000 Ang^3
#
#
#
# Elastic Constant Matrix: (Units=GPa)
#
#
# Indices 1 2 3 4 5 6 
#
# 1 75.3190 24.7475 2.3926 0.0000 -3.5730 0.0000
# 2 24.7475 45.4137 13.0596 0.0000 1.1575 0.0000
# 3 2.3926 13.0596 56.1124 0.0000 -10.0924 0.0000
# 4 0.0000 0.0000 0.0000 17.2345 0.0000 3.3790
# 5 -3.5730 1.1575 -10.0924 0.0000 28.8744 0.0000
# 6 0.0000 0.0000 0.0000 3.3790 0.0000 32.2123
#
#
#
# Elastic Compliance Matrix: (Units=1/GPa)
#
#
# Indices 1 2 3 4 5 6 
#
# 1 0.016551 -0.009712 0.002127 0.000000 0.003181 0.000000
# 2 -0.009712 0.029554 -0.007356 0.000000 -0.004958 0.000000
# 3 0.002127 -0.007356 0.020854 0.000000 0.007847 0.000000
# 4 0.000000 0.000000 0.000000 0.059241 0.000000 -0.006214
# 5 0.003181 -0.004958 0.007847 0.000000 0.037968 0.000000
# 6 0.000000 0.000000 0.000000 -0.006214 0.000000 0.031696
#
#
# Mechanical properties :
#
#
# Convention : Reuss Voigt Hill
#
# Bulk Modulus (GPa) = 26.97102 28.58271 27.77687
# Shear Modulus (GPa) = 20.99907 24.77394 22.88650
#
# Velocity S-wave (km/s) = 3.28866 3.57204 3.43328
# Velocity P-wave (km/s) = 5.32085 5.63328 5.47929
#
# Compressibility (1/GPa) = 0.03707683
#
# Stress axis : x y z
#
# Youngs Moduli (GPa) = 60.41835 33.83649 47.95224
#
# Poissons Ratio (x) = 0.32862 -0.10198
# Poissons Ratio (y) = 0.58678 0.35273
# Poissons Ratio (z) = -0.12849 0.24890
#
# Static dielectric constant tensor:
#      x y z
#    x 1.687960 0.000000 0.013260 
#    y 0.000000 1.664310 0.000000 
#    z 0.013260 0.000000 1.675490 
# 
# From -- ./inp_files/249257.got.cif
#   From: 2010.05.17/outbox.cif.g08.bks.cpg/sg12_125_cif.got.tgz:249257.got - 2010.06.03 13:09:07.
