data_PCOD9180164
_publ_section_title
;
Structure prediction by ZEFSAII (Michael W. Deem and Ramdas Pophale) SiO2 
 PCOD9180164
Probable space group: C 2/M
;
_chemical_formula_sum "Si O2"
_cell_formula_units_Z 44
_cell_length_a 13.120489
_cell_length_b 18.739501
_cell_length_c 7.407005
_cell_angle_alpha 90.000000
_cell_angle_beta 94.465655
_cell_angle_gamma 90.000000
_cell_volume 1815.642077
_symmetry_space_group_name_H-M "C 2/M"
_symmetry_group_IT_number 12
_symmetry_cell_setting 'monoclinic'
loop_
_space_group_symop_operation_xyz
x,y,z
-x,y,-z
-x,-y,-z
x,-y,z
1/2+x,1/2+y,z
1/2-x,1/2+y,-z
1/2-x,1/2-y,-z
1/2+x,1/2-y,z
loop_
_atom_site_type_symbol
_atom_site_label
_atom_site_fract_x
_atom_site_fract_y
_atom_site_fract_z
Si Si1 0.646734 0.500000 0.161357
Si Si2 0.169715 0.685130 0.508912
Si Si3 0.973696 0.101336 0.287118
Si Si4 0.762654 0.580588 0.763913
Si Si5 0.440150 0.745826 0.821364
Si Si6 0.739682 0.147479 0.881692
O O1 0.557312 0.560245 0.185345
O O2 0.729401 0.565235 0.153011
O O3 0.250000 0.750000 0.500000
O O4 0.219364 0.613853 0.429793
O O5 0.082625 0.705886 0.355811
O O6 0.159212 0.672151 0.719554
O O7 0.859905 0.076621 0.227921
O O8 0.000000 0.088165 0.500000
O O9 0.985633 0.183701 0.244717
O O10 0.803315 0.500000 0.785036
O O11 0.797257 0.638824 0.917111
O O12 0.336671 0.701810 0.871397
O O13 0.500000 0.777028 0.000000
#
# Coordination Sequence:
#
# PCOD9180164 Si02
#       6
#     4   8   8   8   8   8
#     4  10  19  31  54  86 129 155 180 233 304 370
#     4  10  24  41  57  84 128 166 202 242 297 366
#     4  11  21  32  55  91 124 159 192 238 301 370
#     4  12  23  36  62  95 122 158 197 245 307 370
#     4  10  20  39  57  80 118 163 206 244 297 352
#     4  10  21  36  57  86 123 159 193 241 301 361
#
# _framework density 24.233851000000001
#
# number of rings (size 3 to 8) (size 9 to 14) (size 15 to 20)
#    0.000    1.455    3.636    3.545    3.818    3.636 
#    3.273    0.000    0.000    0.545    0.000    1.273 
#    0.000    0.000    0.000    0.000    0.000    0.000 
#
# Total GULP energy -122564.581037 kJ/mol
# GULP energy per Si atom -5571.117320 kJ/mol
# Density = 2.417869 g / cm^3
# Si number density = 24.233851 Si / 1000 Ang^3
#
#
#
# Elastic Constant Matrix: (Units=GPa)
#
#
# Indices 1 2 3 4 5 6 
#
# 1 38.9635 18.7670 25.8296 0.0000 12.8248 0.0000
# 2 18.7670 99.8869 23.8901 0.0000 3.4568 0.0000
# 3 25.8296 23.8901 186.0517 0.0000 21.9094 0.0000
# 4 0.0000 0.0000 0.0000 -40.3892 0.0000 -5.8225
# 5 12.8248 3.4568 21.9094 0.0000 39.1741 0.0000
# 6 0.0000 0.0000 0.0000 -5.8225 0.0000 20.4893
#
#
#
# Elastic Compliance Matrix: (Units=1/GPa)
#
#
# Indices 1 2 3 4 5 6 
#
# 1 0.032948 -0.005200 -0.002880 0.000000 -0.008717 0.000000
# 2 -0.005200 0.011150 -0.000850 0.000000 0.001194 0.000000
# 3 -0.002880 -0.000850 0.006170 0.000000 -0.002433 0.000000
# 4 0.000000 0.000000 0.000000 -0.023785 0.000000 -0.006759
# 5 -0.008717 0.001194 -0.002433 0.000000 0.029636 0.000000
# 6 0.000000 0.000000 0.000000 -0.006759 0.000000 0.046885
#
#
# Mechanical properties :
#
#
# Convention : Reuss Voigt Hill
#
# Bulk Modulus (GPa) = 30.85650 51.31948 41.08799
# Shear Modulus (GPa) = 37.97406 20.94921 29.46163
#
# Velocity S-wave (km/s) = 3.96281 2.94336 3.49050
# Velocity P-wave (km/s) = 5.80508 5.72485 5.76510
#
# Compressibility (1/GPa) = 0.03240808
#
# Stress axis : x y z
#
# Youngs Moduli (GPa) = 30.35091 89.68308 162.06397
#
# Poissons Ratio (x) = 0.46634 0.46674
# Poissons Ratio (y) = 0.15782 0.13783
# Poissons Ratio (z) = 0.08741 0.07627
#
# Static dielectric constant tensor:
#      x y z
#    x 1.956550 0.000000 -0.040580 
#    y 0.000000 1.917350 0.000000 
#    z -0.040580 0.000000 2.002380 
# 
# From -- ./inp_files/74655.got.cif
#   From: 2010.05.17/outbox.cif.g08.bks.cpg/sg12_38_cif.got.tgz:74655.got - 2010.06.03 13:09:07.
