data_PCOD9180683
_publ_section_title
;
Structure prediction by ZEFSAII (Michael W. Deem and Ramdas Pophale) SiO2 
 PCOD9180683
Probable space group: C 2/M
;
_chemical_formula_sum "Si O2"
_cell_formula_units_Z 56
_cell_length_a 19.660655
_cell_length_b 7.798682
_cell_length_c 19.984005
_cell_angle_alpha 90.000000
_cell_angle_beta 111.640531
_cell_angle_gamma 90.000000
_cell_volume 2848.121551
_symmetry_space_group_name_H-M "C 2/M"
_symmetry_group_IT_number 12
_symmetry_cell_setting 'monoclinic'
loop_
_space_group_symop_operation_xyz
x,y,z
-x,y,-z
-x,-y,-z
x,-y,z
1/2+x,1/2+y,z
1/2-x,1/2+y,-z
1/2-x,1/2-y,-z
1/2+x,1/2-y,z
loop_
_atom_site_type_symbol
_atom_site_label
_atom_site_fract_x
_atom_site_fract_y
_atom_site_fract_z
Si Si1 0.426959 0.296278 0.509903
Si Si2 0.232288 0.703986 0.570788
Si Si3 0.959852 0.302585 0.919018
Si Si4 0.989841 0.801798 0.205209
Si Si5 0.324374 0.297718 0.942031
Si Si6 0.160334 0.208018 0.899146
Si Si7 0.109062 0.788933 0.352317
O O1 0.500000 0.227295 0.500000
O O2 0.437390 0.500000 0.520147
O O3 0.349267 0.270423 0.443917
O O4 0.413911 0.231860 0.581146
O O5 0.228540 0.500000 0.576020
O O6 0.250000 0.750000 0.500000
O O7 0.307226 0.764798 0.633641
O O8 0.982806 0.500000 0.918656
O O9 0.978936 0.205611 0.858591
O O10 0.874851 0.292464 0.906378
O O11 0.000000 0.232515 0.000000
O O12 0.048975 0.727314 0.277592
O O13 0.908440 0.727104 0.168237
O O14 0.980619 0.000000 0.222108
O O15 0.339029 0.500000 0.944264
O O16 0.238766 0.265594 0.901638
O O17 0.344205 0.235829 0.024586
O O18 0.158751 0.000000 0.899675
O O19 0.110295 0.000000 0.352704
#
# Coordination Sequence:
#
# PCOD9180683 Si02
#       7
#     8   8   8   8   8   8   8
#     4   9  17  31  52  78 106 136 170 205 244 291
#     4   9  16  29  50  75 103 134 168 203 243 292
#     4  11  22  34  50  73 100 127 163 214 258 298
#     4  10  19  34  54  73  99 133 170 209 253 306
#     4  10  19  32  51  72  95 126 167 209 252 303
#     4   9  18  31  49  72  96 127 164 206 254 301
#     4   8  16  31  51  74 100 134 170 206 249 296
#
# _framework density 19.662084
#
# number of rings (size 3 to 8) (size 9 to 14) (size 15 to 20)
#    0.000    2.571    1.429    2.143    0.000    2.000 
#    0.000    5.000    0.000    1.714    0.000    0.000 
#    0.000    0.000    0.000    0.000    0.000    0.000 
#
# Total GULP energy -156047.716942 kJ/mol
# GULP energy per Si atom -5573.132748 kJ/mol
# Density = 1.961733 g / cm^3
# Si number density = 19.662084 Si / 1000 Ang^3
#
#
#
# Elastic Constant Matrix: (Units=GPa)
#
#
# Indices 1 2 3 4 5 6 
#
# 1 132.9587 -0.7073 50.6118 0.0000 31.9476 0.0000
# 2 -0.7073 24.5909 0.9567 0.0000 1.6342 0.0000
# 3 50.6118 0.9567 105.9545 0.0000 38.2197 0.0000
# 4 0.0000 0.0000 0.0000 11.4920 0.0000 4.5510
# 5 31.9476 1.6342 38.2197 0.0000 31.3792 0.0000
# 6 0.0000 0.0000 0.0000 4.5510 0.0000 14.7605
#
#
#
# Elastic Compliance Matrix: (Units=1/GPa)
#
#
# Indices 1 2 3 4 5 6 
#
# 1 0.010211 0.000904 -0.001995 0.000000 -0.008012 0.000000
# 2 0.000904 0.040917 0.000534 0.000000 -0.003702 0.000000
# 3 -0.001995 0.000534 0.017236 0.000000 -0.018990 0.000000
# 4 0.000000 0.000000 0.000000 0.099120 0.000000 -0.030561
# 5 -0.008012 -0.003702 -0.018990 0.000000 0.063349 0.000000
# 6 0.000000 0.000000 0.000000 -0.030561 0.000000 0.077171
#
#
# Mechanical properties :
#
#
# Convention : Reuss Voigt Hill
#
# Bulk Modulus (GPa) = 14.87016 40.58072 27.72544
# Shear Modulus (GPa) = 15.08138 25.70254 20.39196
#
# Velocity S-wave (km/s) = 2.77253 3.61946 3.22393
# Velocity P-wave (km/s) = 4.22238 6.17667 5.29055
#
# Compressibility (1/GPa) = 0.06724877
#
# Stress axis : x y z
#
# Youngs Moduli (GPa) = 97.93621 24.43996 58.01669
#
# Poissons Ratio (x) = -0.02209 0.11576
# Poissons Ratio (y) = -0.08852 -0.03098
# Poissons Ratio (z) = 0.19542 -0.01305
#
# Static dielectric constant tensor:
#      x y z
#    x 1.711830 0.000000 0.042270 
#    y 0.000000 1.727580 0.000000 
#    z 0.042270 0.000000 1.700880 
# 
# From -- ./inp_files/319332.got.cif
#   From: 2010.05.17/outbox.cif.g08.bks.cpg/sg12_160_cif.got.tgz:319332.got - 2010.06.03 13:09:07.
