data_PCOD9180248
_publ_section_title
;
Structure prediction by ZEFSAII (Michael W. Deem and Ramdas Pophale) SiO2 
 PCOD9180248
Probable space group: C 2/M
;
_chemical_formula_sum "Si O2"
_cell_formula_units_Z 56
_cell_length_a 9.436408
_cell_length_b 26.108277
_cell_length_c 17.946731
_cell_angle_alpha 90.000000
_cell_angle_beta 45.116321
_cell_angle_gamma 90.000000
_cell_volume 3132.818160
_symmetry_space_group_name_H-M "C 2/M"
_symmetry_group_IT_number 12
_symmetry_cell_setting 'monoclinic'
loop_
_space_group_symop_operation_xyz
x,y,z
-x,y,-z
-x,-y,-z
x,-y,z
1/2+x,1/2+y,z
1/2-x,1/2+y,-z
1/2-x,1/2-y,-z
1/2+x,1/2-y,z
loop_
_atom_site_type_symbol
_atom_site_label
_atom_site_fract_x
_atom_site_fract_y
_atom_site_fract_z
Si Si1 0.399157 0.440655 0.118932
Si Si2 0.815739 0.861083 0.916750
Si Si3 0.604842 0.838226 0.849268
Si Si4 0.265726 0.785671 0.595479
Si Si5 0.194075 0.169556 0.474300
Si Si6 0.848479 0.782470 0.189621
Si Si7 0.465021 0.863004 0.743348
O O1 0.371365 0.500000 0.148369
O O2 0.555526 0.411196 0.113516
O O3 0.191507 0.409420 0.196274
O O4 0.500000 0.437471 0.000000
O O5 0.769824 0.857223 0.846260
O O6 0.948201 0.813677 0.896826
O O7 0.606700 0.856410 0.037567
O O8 0.626947 0.776652 0.839334
O O9 0.600479 0.858531 0.766772
O O10 0.500000 0.798290 0.500000
O O11 0.153492 0.820788 0.576608
O O12 0.247041 0.726460 0.577646
O O13 0.202987 0.789057 0.703877
O O14 0.385752 0.135832 0.382285
O O15 0.000000 0.153519 0.500000
O O16 0.673513 0.811841 0.210031
#
# Coordination Sequence:
#
# PCOD9180248 Si02
#       7
#     8   8   8   8   8   8   8
#     4  10  21  42  65  82 104 139 188 242 290 344
#     4  10  23  36  52  80 113 151 188 225 276 337
#     4  11  21  34  49  83 120 149 185 221 272 332
#     4  10  19  32  45  74 109 153 194 217 254 311
#     4  10  21  31  50  75 114 149 190 232 265 315
#     4  11  21  32  53  75 118 164 186 220 256 328
#     4  11  21  35  56  82 112 152 192 227 277 334
#
# _framework density 17.87528
#
# number of rings (size 3 to 8) (size 9 to 14) (size 15 to 20)
#    0.000    1.571    4.286    1.286    2.000    1.143 
#    0.000    2.143    0.000    0.429    0.000    8.000 
#    0.000    0.000    0.000    0.000    0.000    0.000 
#
# Total GULP energy -156334.173263 kJ/mol
# GULP energy per Si atom -5583.363331 kJ/mol
# Density = 1.783459 g / cm^3
# Si number density = 17.875280 Si / 1000 Ang^3
#
#
#
# Elastic Constant Matrix: (Units=GPa)
#
#
# Indices 1 2 3 4 5 6 
#
# 1 104.2424 44.7993 11.7824 0.0000 3.8030 0.0000
# 2 44.7993 105.7355 21.4660 0.0000 -5.7141 0.0000
# 3 11.7824 21.4660 39.5219 0.0000 -2.2353 0.0000
# 4 0.0000 0.0000 0.0000 8.4788 0.0000 -1.1010
# 5 3.8030 -5.7141 -2.2353 0.0000 31.8375 0.0000
# 6 0.0000 0.0000 0.0000 -1.1010 0.0000 3.9971
#
#
#
# Elastic Compliance Matrix: (Units=1/GPa)
#
#
# Indices 1 2 3 4 5 6 
#
# 1 0.011934 -0.004986 -0.000985 0.000000 -0.002390 0.000000
# 2 -0.004986 0.012785 -0.005315 0.000000 0.002517 0.000000
# 3 -0.000985 -0.005315 0.028549 0.000000 0.001168 0.000000
# 4 0.000000 0.000000 0.000000 0.122316 0.000000 0.033692
# 5 -0.002390 0.002517 0.001168 0.000000 0.032229 0.000000
# 6 0.000000 0.000000 0.000000 0.033692 0.000000 0.259461
#
#
# Mechanical properties :
#
#
# Convention : Reuss Voigt Hill
#
# Bulk Modulus (GPa) = 32.57735 45.06614 38.82174
# Shear Modulus (GPa) = 9.99842 20.29282 15.14562
#
# Velocity S-wave (km/s) = 2.36761 3.37299 2.91399
# Velocity P-wave (km/s) = 5.07331 6.35890 5.75213
#
# Compressibility (1/GPa) = 0.03069617
#
# Stress axis : x y z
#
# Youngs Moduli (GPa) = 83.79329 78.21653 35.02726
#
# Poissons Ratio (x) = 0.38995 0.03451
# Poissons Ratio (y) = 0.41775 0.18618
# Poissons Ratio (z) = 0.08255 0.41575
#
# Static dielectric constant tensor:
#      x y z
#    x 1.657820 0.000000 0.009380 
#    y 0.000000 1.577080 0.000000 
#    z 0.009380 0.000000 1.640170 
# 
# From -- ./inp_files/199428.got.cif
#   From: 2010.05.17/outbox.cif.g08.bks.cpg/sg12_100_cif.got.tgz:199428.got - 2010.06.03 13:09:07.
