data_PCOD9180276
_publ_section_title
;
Structure prediction by ZEFSAII (Michael W. Deem and Ramdas Pophale) SiO2 
 PCOD9180276
Probable space group: C 2/M
;
_chemical_formula_sum "Si O2"
_cell_formula_units_Z 56
_cell_length_a 31.747602
_cell_length_b 7.416814
_cell_length_c 15.189151
_cell_angle_alpha 90.000000
_cell_angle_beta 132.735830
_cell_angle_gamma 90.000000
_cell_volume 2626.926470
_symmetry_space_group_name_H-M "C 2/M"
_symmetry_group_IT_number 12
_symmetry_cell_setting 'monoclinic'
loop_
_space_group_symop_operation_xyz
x,y,z
-x,y,-z
-x,-y,-z
x,-y,z
1/2+x,1/2+y,z
1/2-x,1/2+y,-z
1/2-x,1/2-y,-z
1/2+x,1/2-y,z
loop_
_atom_site_type_symbol
_atom_site_label
_atom_site_fract_x
_atom_site_fract_y
_atom_site_fract_z
Si Si1 0.932634 0.720271 0.063507
Si Si2 0.695820 0.783888 0.808357
Si Si3 0.675541 0.215734 0.977291
Si Si4 0.246650 0.714088 0.391060
Si Si5 0.618341 0.780157 0.191071
Si Si6 0.560077 0.779040 0.290423
Si Si7 0.140849 0.293576 0.556111
O O1 0.932630 0.500000 0.063776
O O2 0.879182 0.781921 0.046730
O O3 0.994257 0.776489 0.187006
O O4 0.920950 0.775262 0.946316
O O5 0.680282 0.714833 0.883741
O O6 0.657775 0.711972 0.674203
O O7 0.689071 0.000000 0.800249
O O8 0.763423 0.750410 0.890171
O O9 0.669823 0.000000 0.963918
O O10 0.249950 0.500000 0.381167
O O11 0.250000 0.750000 0.500000
O O12 0.184072 0.777555 0.271193
O O13 0.300541 0.795819 0.417376
O O14 0.594433 0.722436 0.251621
O O15 0.618885 0.000000 0.193142
O O16 0.592423 0.714290 0.423772
O O17 0.561750 0.000000 0.293731
O O18 0.123169 0.500000 0.548085
#
# Coordination Sequence:
#
# PCOD9180276 Si02
#       7
#     8   8   8   8   8   8   8
#     4   9  16  26  44  68  92 119 156 200 235 267
#     4   9  18  31  49  70  96 126 151 188 245 291
#     4   9  17  31  49  72  95 117 157 203 236 277
#     4  11  20  31  48  71  98 126 156 194 235 276
#     4   9  16  26  42  66  92 120 154 190 231 275
#     4   9  16  27  42  63  94 126 155 191 233 277
#     4  10  19  32  47  68  97 128 157 188 234 290
#
# _framework density 21.317686999999999
#
# number of rings (size 3 to 8) (size 9 to 14) (size 15 to 20)
#    0.000    2.571    1.429    1.714    0.000    3.429 
#    0.000    0.714    0.000    5.143    0.000    1.000 
#    0.000    5.714    0.000    0.000    0.000    0.000 
#
# Total GULP energy -156382.316073 kJ/mol
# GULP energy per Si atom -5585.082717 kJ/mol
# Density = 2.126917 g / cm^3
# Si number density = 21.317687 Si / 1000 Ang^3
#
#
#
# Elastic Constant Matrix: (Units=GPa)
#
#
# Indices 1 2 3 4 5 6 
#
# 1 47.5579 -1.0038 57.8139 0.0000 2.9710 0.0000
# 2 -1.0038 72.8198 3.1026 0.0000 1.0716 0.0000
# 3 57.8139 3.1026 221.0245 0.0000 3.8001 0.0000
# 4 0.0000 0.0000 0.0000 3.5271 0.0000 5.7206
# 5 2.9710 1.0716 3.8001 0.0000 28.5291 0.0000
# 6 0.0000 0.0000 0.0000 5.7206 0.0000 9.2657
#
#
#
# Elastic Compliance Matrix: (Units=1/GPa)
#
#
# Indices 1 2 3 4 5 6 
#
# 1 0.031009 0.000804 -0.008085 -0.000004 -0.002183 0.000002
# 2 0.000804 0.013768 -0.000394 -0.000025 -0.000548 0.000015
# 3 -0.008085 -0.000394 0.006645 0.000002 -0.000028 -0.000001
# 4 -0.000004 -0.000025 0.000002********** -0.000003129.121038
# 5 -0.002183 -0.000548 -0.000028 -0.000003 0.035304 0.000002
# 6 0.000002 0.000015 -0.000001129.121038 0.000002-79.611119
#
#
# Mechanical properties :
#
#
# Convention : Reuss Voigt Hill
#
# Bulk Modulus (GPa) = 27.72199 51.24752 39.48476
# Shear Modulus (GPa) = -0.01732 27.03035 13.50651
#
# Velocity S-wave (km/s) = -0.09024 3.56473 2.51984
# Velocity P-wave (km/s) = 3.60854 6.40587 5.19888
#
# Compressibility (1/GPa) = 0.03607245
#
# Stress axis : x y z
#
# Youngs Moduli (GPa) = 32.24911 72.62964 150.48556
#
# Poissons Ratio (x) = -0.05840 1.21664
# Poissons Ratio (y) = -0.02593 0.05931
# Poissons Ratio (z) = 0.26073 0.02863
#
# Static dielectric constant tensor:
#      x y z
#    x 1.736190 0.000000 -0.018340 
#    y 0.000000 1.878620 0.000000 
#    z -0.018340 0.000000 1.767630 
# 
# From -- ./inp_files/237442.got.cif
#   From: 2010.05.17/outbox.cif.g08.bks.cpg/sg12_119_cif.got.tgz:237442.got - 2010.06.03 13:09:07.
