data_PCOD9180696
_publ_section_title
;
Structure prediction by ZEFSAII (Michael W. Deem and Ramdas Pophale) SiO2 
 PCOD9180696
Probable space group: C 2/M
;
_chemical_formula_sum "Si O2"
_cell_formula_units_Z 56
_cell_length_a 22.908008
_cell_length_b 8.514655
_cell_length_c 18.351231
_cell_angle_alpha 90.000000
_cell_angle_beta 120.862684
_cell_angle_gamma 90.000000
_cell_volume 3072.620199
_symmetry_space_group_name_H-M "C 2/M"
_symmetry_group_IT_number 12
_symmetry_cell_setting 'monoclinic'
loop_
_space_group_symop_operation_xyz
x,y,z
-x,y,-z
-x,-y,-z
x,-y,z
1/2+x,1/2+y,z
1/2-x,1/2+y,-z
1/2-x,1/2-y,-z
1/2+x,1/2-y,z
loop_
_atom_site_type_symbol
_atom_site_label
_atom_site_fract_x
_atom_site_fract_y
_atom_site_fract_z
Si Si1 0.312940 0.311612 0.452548
Si Si2 0.833828 0.184774 0.633254
Si Si3 0.672507 0.811675 0.949455
Si Si4 0.047774 0.316745 0.966296
Si Si5 0.569101 0.308659 0.583360
Si Si6 0.531300 0.177448 0.235575
Si Si7 0.087432 0.183335 0.759494
O O1 0.302027 0.500000 0.444435
O O2 0.242146 0.227188 0.392424
O O3 0.337576 0.271961 0.549906
O O4 0.369088 0.269745 0.429916
O O5 0.890246 0.279848 0.712480
O O6 0.846255 0.000000 0.648599
O O7 0.620841 0.754496 0.981793
O O8 0.636285 0.765676 0.849811
O O9 0.673799 0.000000 0.955370
O O10 0.750000 0.750000 0.000000
O O11 0.060603 0.500000 0.995004
O O12 0.000412 0.313437 0.864675
O O13 0.000000 0.246789 0.000000
O O14 0.500000 0.253449 0.500000
O O15 0.563981 0.500000 0.584714
O O16 0.584817 0.253849 0.675358
O O17 0.488751 0.294722 0.258684
O O18 0.520203 0.000000 0.255349
O O19 0.106076 0.000000 0.769995
#
# Coordination Sequence:
#
# PCOD9180696 Si02
#       7
#     8   8   8   8   8   8   8
#     4   9  18  33  51  71  99 135 175 215 252 302
#     4  10  19  32  51  73 100 134 171 213 261 309
#     4  10  20  36  58  81 109 143 180 223 274 329
#     4   8  16  33  55  78 100 128 173 222 257 304
#     4   9  17  31  52  77 103 135 177 218 256 305
#     4  10  19  32  53  77 102 133 169 211 259 312
#     4  10  19  33  55  80 106 137 177 220 261 313
#
# _framework density 18.225486
#
# number of rings (size 3 to 8) (size 9 to 14) (size 15 to 20)
#    0.000    2.571    0.000    3.429    0.000    2.857 
#    2.571    1.429    0.000   17.571    0.000    0.000 
#    0.000    0.000    0.000    0.000    0.000    0.000 
#
# Total GULP energy -155996.003763 kJ/mol
# GULP energy per Si atom -5571.285849 kJ/mol
# Density = 1.818400 g / cm^3
# Si number density = 18.225486 Si / 1000 Ang^3
#
#
#
# Elastic Constant Matrix: (Units=GPa)
#
#
# Indices 1 2 3 4 5 6 
#
# 1 118.7355 20.0366 60.8941 0.0000 -11.3603 0.0000
# 2 20.0366 21.2416 17.3571 0.0000 4.7680 0.0000
# 3 60.8941 17.3571 61.9868 0.0000 7.4029 0.0000
# 4 0.0000 0.0000 0.0000 19.8133 0.0000 4.8541
# 5 -11.3603 4.7680 7.4029 0.0000 24.8605 0.0000
# 6 0.0000 0.0000 0.0000 4.8541 0.0000 25.4155
#
#
#
# Elastic Compliance Matrix: (Units=1/GPa)
#
#
# Indices 1 2 3 4 5 6 
#
# 1 0.023348 -0.007377 -0.023137 0.000000 0.018974 0.000000
# 2 -0.007377 0.064526 -0.009271 0.000000 -0.012986 0.000000
# 3 -0.023137 -0.009271 0.044075 0.000000 -0.021919 0.000000
# 4 0.000000 0.000000 0.000000 0.052949 0.000000 -0.010113
# 5 0.018974 -0.012986 -0.021919 0.000000 0.057912 0.000000
# 6 0.000000 0.000000 0.000000 -0.010113 0.000000 0.041277
#
#
# Mechanical properties :
#
#
# Convention : Reuss Voigt Hill
#
# Bulk Modulus (GPa) = 19.09099 44.28214 31.68657
# Shear Modulus (GPa) = 13.11935 20.92960 17.02448
#
# Velocity S-wave (km/s) = 2.68589 3.39244 3.05963
# Velocity P-wave (km/s) = 4.48512 6.30035 5.46858
#
# Compressibility (1/GPa) = 0.05238073
#
# Stress axis : x y z
#
# Youngs Moduli (GPa) = 42.82992 15.49767 22.68850
#
# Poissons Ratio (x) = 0.11432 0.52494
# Poissons Ratio (y) = 0.31594 0.21034
# Poissons Ratio (z) = 0.99095 0.14367
#
# Static dielectric constant tensor:
#      x y z
#    x 1.639730 0.000000 -0.013730 
#    y 0.000000 1.635860 0.000000 
#    z -0.013730 0.000000 1.606060 
# 
# From -- ./inp_files/281661.got.cif
#   From: 2010.05.17/outbox.cif.g08.bks.cpg/sg12_141_cif.got.tgz:281661.got - 2010.06.03 13:09:07.
