data_PCOD9180740
_publ_section_title
;
Structure prediction by ZEFSAII (Michael W. Deem and Ramdas Pophale) SiO2 
 PCOD9180740
Probable space group: C 2/M
;
_chemical_formula_sum "Si O2"
_cell_formula_units_Z 56
_cell_length_a 30.457278
_cell_length_b 7.457669
_cell_length_c 20.118280
_cell_angle_alpha 90.000000
_cell_angle_beta 147.432015
_cell_angle_gamma 90.000000
_cell_volume 2459.854344
_symmetry_space_group_name_H-M "C 2/M"
_symmetry_group_IT_number 12
_symmetry_cell_setting 'monoclinic'
loop_
_space_group_symop_operation_xyz
x,y,z
-x,y,-z
-x,-y,-z
x,-y,z
1/2+x,1/2+y,z
1/2-x,1/2+y,-z
1/2-x,1/2-y,-z
1/2+x,1/2-y,z
loop_
_atom_site_type_symbol
_atom_site_label
_atom_site_fract_x
_atom_site_fract_y
_atom_site_fract_z
Si Si1 0.891638 0.294690 0.036806
Si Si2 0.076484 0.718785 0.643385
Si Si3 0.208196 0.779530 0.302448
Si Si4 0.139818 0.283124 0.420340
Si Si5 0.475964 0.781639 0.278948
Si Si6 0.269099 0.796732 0.239533
Si Si7 0.946517 0.204111 0.826763
O O1 0.867028 0.500000 0.015842
O O2 0.813674 0.198386 0.908103
O O3 0.925360 0.221610 0.149766
O O4 0.968337 0.291527 0.084388
O O5 0.080119 0.500000 0.651808
O O6 0.060183 0.780964 0.697609
O O7 0.158631 0.782876 0.712335
O O8 0.000000 0.765758 0.500000
O O9 0.271886 0.726618 0.441220
O O10 0.244755 0.716085 0.279333
O O11 0.115955 0.719009 0.198877
O O12 0.205191 0.000000 0.298231
O O13 0.139466 0.500000 0.413409
O O14 0.107992 0.207402 0.310230
O O15 0.070376 0.234634 0.386018
O O16 0.473749 0.000000 0.275562
O O17 0.296425 0.000000 0.290339
O O18 0.966353 0.000000 0.870055
#
# Coordination Sequence:
#
# PCOD9180740 Si02
#       7
#     8   8   8   8   8   8   8
#     4  10  21  37  52  69  99 135 170 207 253 300
#     4   9  16  28  51  81 104 124 158 201 243 294
#     4   9  18  31  49  74 103 135 165 203 254 297
#     4   9  16  30  51  75 105 135 163 197 247 304
#     4   8  15  28  48  72  99 131 161 196 243 292
#     4  10  20  34  53  76 101 130 169 210 244 288
#     4  10  19  32  51  74 100 130 169 211 249 292
#
# _framework density 22.765577
#
# number of rings (size 3 to 8) (size 9 to 14) (size 15 to 20)
#    0.000    2.714    0.000    3.000    0.000    4.571 
#    0.000    5.714    0.000    3.857    0.000    0.000 
#    0.000    0.000    0.000    0.000    0.000    0.000 
#
# Total GULP energy -156390.356718 kJ/mol
# GULP energy per Si atom -5585.369883 kJ/mol
# Density = 2.271376 g / cm^3
# Si number density = 22.765577 Si / 1000 Ang^3
#
#
#
# Elastic Constant Matrix: (Units=GPa)
#
#
# Indices 1 2 3 4 5 6 
#
# 1 135.5113 -1.9095 30.0809 0.0000 29.3200 0.0000
# 2 -1.9095 68.2485 -7.1516 0.0000 0.2751 0.0000
# 3 30.0809 -7.1516 83.0514 0.0000 22.9560 0.0000
# 4 0.0000 0.0000 0.0000 8.7780 0.0000 -2.9928
# 5 29.3200 0.2751 22.9560 0.0000 28.8039 0.0000
# 6 0.0000 0.0000 0.0000 -2.9928 0.0000 -2.0461
#
#
#
# Elastic Compliance Matrix: (Units=1/GPa)
#
#
# Indices 1 2 3 4 5 6 
#
# 1 0.009529 0.000201 -0.000965 0.000000 -0.008933 0.000000
# 2 0.000201 0.014840 0.001668 0.000000 -0.001676 0.000000
# 3 -0.000965 0.001668 0.015733 0.000000 -0.011572 0.000000
# 4 0.000000 0.000000 0.000000 0.076014 0.000000 -0.111183
# 5 -0.008933 -0.001676 -0.011572 0.000000 0.053049 0.000000
# 6 0.000000 0.000000 0.000000 -0.111183 0.000000 -0.326107
#
#
# Mechanical properties :
#
#
# Convention : Reuss Voigt Hill
#
# Bulk Modulus (GPa) = 23.86024 36.53899 30.19962
# Shear Modulus (GPa) = -34.53493 24.82658 -4.85417
#
# Velocity S-wave (km/s) = -3.89907 3.30590 -1.46180
# Velocity P-wave (km/s) = 3.12517 5.53687 3.23189
#
# Compressibility (1/GPa) = 0.04191072
#
# Stress axis : x y z
#
# Youngs Moduli (GPa) = 104.93981 67.38758 63.56255
#
# Poissons Ratio (x) = -0.01358 0.06134
# Poissons Ratio (y) = -0.02115 -0.10604
# Poissons Ratio (z) = 0.10127 -0.11242
#
# Static dielectric constant tensor:
#      x y z
#    x 1.849870 0.000000 -0.005670 
#    y 0.000000 1.891580 0.000000 
#    z -0.005670 0.000000 1.790900 
# 
# From -- ./inp_files/329712.got.cif
#   From: 2010.05.17/outbox.cif.g08.bks.cpg/sg12_165_cif.got.tgz:329712.got - 2010.06.03 13:09:07.
