data_PCOD9180180
_publ_section_title
;
Structure prediction by ZEFSAII (Michael W. Deem and Ramdas Pophale) SiO2 
 PCOD9180180
Probable space group: C 2/M
;
_chemical_formula_sum "Si O2"
_cell_formula_units_Z 48
_cell_length_a 24.442339
_cell_length_b 25.152906
_cell_length_c 5.398528
_cell_angle_alpha 90.000000
_cell_angle_beta 41.541508
_cell_angle_gamma 90.000000
_cell_volume 2201.031311
_symmetry_space_group_name_H-M "C 2/M"
_symmetry_group_IT_number 12
_symmetry_cell_setting 'monoclinic'
loop_
_space_group_symop_operation_xyz
x,y,z
-x,y,-z
-x,-y,-z
x,-y,z
1/2+x,1/2+y,z
1/2-x,1/2+y,-z
1/2-x,1/2-y,-z
1/2+x,1/2-y,z
loop_
_atom_site_type_symbol
_atom_site_label
_atom_site_fract_x
_atom_site_fract_y
_atom_site_fract_z
Si Si1 0.155862 0.858864 0.440913
Si Si2 0.823113 0.367761 0.592450
Si Si3 0.553472 0.061671 0.566011
Si Si4 0.426627 0.556874 0.552136
Si Si5 0.305495 0.246736 0.560773
Si Si6 0.266292 0.440591 0.437609
O O1 0.079271 0.890271 0.588040
O O2 0.141593 0.800987 0.603568
O O3 0.196300 0.899791 0.495445
O O4 0.228932 0.854884 0.990248
O O5 0.874611 0.395037 0.636695
O O6 0.853206 0.309719 0.403658
O O7 0.812789 0.413257 0.420230
O O8 0.500000 0.071158 0.500000
O O9 0.582689 0.000000 0.457601
O O10 0.500000 0.066596 0.000000
O O11 0.500000 0.559465 0.500000
O O12 0.432114 0.500000 0.396243
O O13 0.339551 0.554322 0.989385
O O14 0.250000 0.250000 0.500000
O O15 0.250000 0.250000 0.000000
O O16 0.249433 0.500000 0.590068
#
# Coordination Sequence:
#
# PCOD9180180 Si02
#       6
#     8   8   8   8   8   8
#     4  10  20  34  56  85 111 146 194 244 284 342
#     4  10  21  37  58  82 113 150 191 241 290 345
#     4  10  23  40  59  85 119 156 192 237 297 355
#     4   9  19  35  52  77 117 156 187 230 289 347
#     4  10  20  36  59  86 114 151 190 237 294 339
#     4  10  19  31  55  85 110 142 191 238 285 342
#
# _framework density 21.807960999999999
#
# number of rings (size 3 to 8) (size 9 to 14) (size 15 to 20)
#    0.000    2.167    1.667    1.000    2.333    2.667 
#    0.000    3.333    3.667    0.000    0.000    0.000 
#    0.000    0.000    0.000    0.000    0.000    0.000 
#
# Total GULP energy -133836.917492 kJ/mol
# GULP energy per Si atom -5576.538229 kJ/mol
# Density = 2.175833 g / cm^3
# Si number density = 21.807961 Si / 1000 Ang^3
#
#
#
# Elastic Constant Matrix: (Units=GPa)
#
#
# Indices 1 2 3 4 5 6 
#
# 1 120.2760 87.0375 2.2503 0.0000 6.9790 0.0000
# 2 87.0375 221.2165 -5.9798 0.0000 -8.7858 0.0000
# 3 2.2503 -5.9798 60.7176 0.0000 2.9622 0.0000
# 4 0.0000 0.0000 0.0000 13.8411 0.0000 5.5642
# 5 6.9790 -8.7858 2.9622 0.0000 26.6256 0.0000
# 6 0.0000 0.0000 0.0000 5.5642 0.0000 2.4405
#
#
#
# Elastic Compliance Matrix: (Units=1/GPa)
#
#
# Indices 1 2 3 4 5 6 
#
# 1 0.012243 -0.005026 -0.000715 0.000000 -0.004788 0.000000
# 2 -0.005026 0.006653 0.000674 0.000000 0.003438 0.000000
# 3 -0.000715 0.000674 0.016633 0.000000 -0.001441 0.000000
# 4 0.000000 0.000000 0.000000 0.865519 0.000000 -1.973300
# 5 -0.004788 0.003438 -0.001441 0.000000 0.040108 0.000000
# 6 0.000000 0.000000 0.000000 -1.973300 0.000000 4.908678
#
#
# Mechanical properties :
#
#
# Convention : Reuss Voigt Hill
#
# Bulk Modulus (GPa) = 39.38116 63.20289 51.29202
# Shear Modulus (GPa) = 0.85202 29.84160 15.34681
#
# Velocity S-wave (km/s) = 0.62573 3.70318 2.65566
# Velocity P-wave (km/s) = 4.31502 6.87962 5.74232
#
# Compressibility (1/GPa) = 0.02539285
#
# Stress axis : x y z
#
# Youngs Moduli (GPa) = 81.68094 150.31174 60.12202
#
# Poissons Ratio (x) = 0.75553 0.04300
# Poissons Ratio (y) = 0.41056 -0.04051
# Poissons Ratio (z) = 0.05842 -0.10128
#
# Static dielectric constant tensor:
#      x y z
#    x 1.667450 0.000000 -0.477560 
#    y 0.000000 1.871900 0.000000 
#    z -0.477560 0.000000 -0.227580 
# 
# From -- ./inp_files/16643.got.cif
#   From: 2010.05.17/outbox.cif.g08.bks.cpg/sg12_9_cif.got.tgz:16643.got - 2010.06.03 13:09:07.
