data_PCOD9180841
_publ_section_title
;
Structure prediction by ZEFSAII (Michael W. Deem and Ramdas Pophale) SiO2 
 PCOD9180841
Probable space group: C 2/M
;
_chemical_formula_sum "Si O2"
_cell_formula_units_Z 64
_cell_length_a 14.759313
_cell_length_b 7.477180
_cell_length_c 23.504160
_cell_angle_alpha 90.000000
_cell_angle_beta 96.771939
_cell_angle_gamma 90.000000
_cell_volume 2575.776558
_symmetry_space_group_name_H-M "C 2/M"
_symmetry_group_IT_number 12
_symmetry_cell_setting 'monoclinic'
loop_
_space_group_symop_operation_xyz
x,y,z
-x,y,-z
-x,-y,-z
x,-y,z
1/2+x,1/2+y,z
1/2-x,1/2+y,-z
1/2-x,1/2-y,-z
1/2+x,1/2-y,z
loop_
_atom_site_type_symbol
_atom_site_label
_atom_site_fract_x
_atom_site_fract_y
_atom_site_fract_z
Si Si1 0.903615 0.203273 0.263512
Si Si2 0.719957 0.282455 0.415626
Si Si3 0.289029 0.705326 0.789003
Si Si4 0.573957 0.212829 0.049454
Si Si5 0.399138 0.792244 0.481813
Si Si6 0.764461 0.285806 0.091505
Si Si7 0.594243 0.719862 0.302444
Si Si8 0.957901 0.716822 0.140066
O O1 0.989971 0.278151 0.304373
O O2 0.805933 0.295322 0.253486
O O3 0.940861 0.206235 0.201005
O O4 0.887009 0.000000 0.279831
O O5 0.721708 0.500000 0.417379
O O6 0.658417 0.220065 0.464080
O O7 0.824665 0.219148 0.431070
O O8 0.665956 0.226735 0.355598
O O9 0.313483 0.500000 0.800999
O O10 0.265297 0.787065 0.848223
O O11 0.366415 0.785826 0.754973
O O12 0.680196 0.240598 0.044888
O O13 0.544810 0.276967 0.110312
O O14 0.561076 0.000000 0.049817
O O15 0.500000 0.285836 0.000000
O O16 0.500000 0.713156 0.500000
O O17 0.413860 0.000000 0.467422
O O18 0.767005 0.500000 0.093549
O O19 0.869615 0.232998 0.094804
O O20 0.592375 0.500000 0.300979
O O21 0.958601 0.500000 0.146852
#
# Coordination Sequence:
#
# PCOD9180841 Si02
#       8
#     8   8   8   8   8   8   8   8
#     4  10  19  32  51  75  99 125 164 204 235 280
#     4   9  18  33  51  72  99 131 166 201 243 293
#     4   9  18  34  53  73 100 133 164 194 240 296
#     4  10  21  35  51  73  99 126 160 204 249 289
#     4   9  18  33  52  73  97 127 166 210 249 287
#     4   9  18  33  52  72  96 129 164 196 235 291
#     4   9  18  32  50  72 102 136 162 193 242 296
#     4   9  19  36  53  70  98 132 161 194 244 297
#
# _framework density 24.846878
#
# number of rings (size 3 to 8) (size 9 to 14) (size 15 to 20)
#    0.000    2.750    0.000    1.875    0.000    5.500 
#    0.000    4.375    0.000    0.000    0.000    0.000 
#    0.000    0.000    0.000    0.000    0.000    0.000 
#
# Total GULP energy -178667.457464 kJ/mol
# GULP energy per Si atom -5583.358046 kJ/mol
# Density = 2.479033 g / cm^3
# Si number density = 24.846878 Si / 1000 Ang^3
#
#
#
# Elastic Constant Matrix: (Units=GPa)
#
#
# Indices 1 2 3 4 5 6 
#
# 1 134.0276 -2.2928 16.2906 0.0000 47.9641 0.0000
# 2 -2.2928 77.9958 -2.8973 0.0000 5.5878 0.0000
# 3 16.2906 -2.8973 52.4282 0.0000 35.0921 0.0000
# 4 0.0000 0.0000 0.0000 10.9976 0.0000 0.8417
# 5 47.9641 5.5878 35.0921 0.0000 45.5462 0.0000
# 6 0.0000 0.0000 0.0000 0.8417 0.0000 -13.5835
#
#
#
# Elastic Compliance Matrix: (Units=1/GPa)
#
#
# Indices 1 2 3 4 5 6 
#
# 1 0.015605 0.002911 0.013526 0.000000 -0.027213 0.000000
# 2 0.002911 0.013829 0.006292 0.000000 -0.009610 0.000000
# 3 0.013526 0.006292 0.052178 0.000000 -0.055218 0.000000
# 4 0.000000 0.000000 0.000000 0.090500 0.000000 0.005608
# 5 -0.027213 -0.009610 -0.055218 0.000000 0.094336 0.000000
# 6 0.000000 0.000000 0.000000 0.005608 0.000000 -0.073271
#
#
# Mechanical properties :
#
#
# Convention : Reuss Voigt Hill
#
# Bulk Modulus (GPa) = 7.86967 31.85028 19.85997
# Shear Modulus (GPa) = 26.30529 25.48213 25.89371
#
# Velocity S-wave (km/s) = 3.25729 3.20592 3.23171
# Velocity P-wave (km/s) = 4.16182 5.15270 4.68354
#
# Compressibility (1/GPa) = 0.12707018
#
# Stress axis : x y z
#
# Youngs Moduli (GPa) = 64.08055 72.31210 19.16517
#
# Poissons Ratio (x) = -0.21048 -0.25923
# Poissons Ratio (y) = -0.18652 -0.12058
# Poissons Ratio (z) = -0.86677 -0.45498
#
# Static dielectric constant tensor:
#      x y z
#    x 1.959700 0.000000 0.052670 
#    y 0.000000 1.916220 0.000000 
#    z 0.052670 0.000000 2.020880 
# 
# From -- ./inp_files/360009.got.cif
#   From: 2010.05.17/outbox.cif.g08.bks.cpg/sg12_181_cif.got.tgz:360009.got - 2010.06.03 13:09:07.
