data_PCOD9180009
_publ_section_title
;
Structure prediction by ZEFSAII (Michael W. Deem and Ramdas Pophale) SiO2 
 PCOD9180009
Probable space group: C 2/M
;
_chemical_formula_sum "Si O2"
_cell_formula_units_Z 56
_cell_length_a 18.546086
_cell_length_b 12.640799
_cell_length_c 12.714537
_cell_angle_alpha 90.000000
_cell_angle_beta 124.343291
_cell_angle_gamma 90.000000
_cell_volume 2461.132791
_symmetry_space_group_name_H-M "C 2/M"
_symmetry_group_IT_number 12
_symmetry_cell_setting 'monoclinic'
loop_
_space_group_symop_operation_xyz
x,y,z
-x,y,-z
-x,-y,-z
x,-y,z
1/2+x,1/2+y,z
1/2-x,1/2+y,-z
1/2-x,1/2-y,-z
1/2+x,1/2-y,z
loop_
_atom_site_type_symbol
_atom_site_label
_atom_site_fract_x
_atom_site_fract_y
_atom_site_fract_z
Si Si1 0.785729 0.624643 0.006741
Si Si2 0.913567 0.833162 0.381398
Si Si3 0.795539 0.121823 0.718976
Si Si4 0.854196 0.874124 0.549152
Si Si5 0.044923 0.120401 0.802690
Si Si6 0.093832 0.269633 0.038863
Si Si7 0.885393 0.611647 0.302849
O O1 0.747001 0.500000 0.980167
O O2 0.837374 0.642043 0.940998
O O3 0.855091 0.617201 0.158218
O O4 0.750000 0.750000 0.000000
O O5 0.847054 0.832725 0.424007
O O6 0.891043 0.877123 0.247571
O O7 0.938263 0.714288 0.372374
O O8 0.000000 0.887128 0.500000
O O9 0.789492 0.152711 0.591339
O O10 0.703674 0.119202 0.703065
O O11 0.829023 0.000000 0.749494
O O12 0.860815 0.197170 0.835598
O O13 0.950088 0.848712 0.677419
O O14 0.850460 0.000000 0.532288
O O15 0.074261 0.194038 0.921759
O O16 0.038695 0.000000 0.835006
O O17 0.000000 0.310047 0.000000
O O18 0.928795 0.500000 0.358335
#
# Coordination Sequence:
#
# PCOD9180009 Si02
#       7
#     8   8   8   8   8   8   8
#     4  11  24  44  67  94 131 172 214 259 317 386
#     4  10  20  35  55  79 111 152 206 262 316 373
#     4  10  20  34  55  86 122 160 203 256 317 381
#     4   9  18  33  52  79 117 156 194 251 312 365
#     4  10  19  31  52  86 120 154 198 252 308 370
#     4  12  22  35  61  93 128 164 206 253 317 384
#     4  10  21  38  58  82 113 154 205 261 318 376
#
# _framework density 22.753748999999999
#
# number of rings (size 3 to 8) (size 9 to 14) (size 15 to 20)
#    0.000    1.714    4.286    0.857    0.000    4.000 
#    0.000    0.000    0.000    0.857    0.000    0.000 
#    0.000    0.000    0.000    0.000    0.000    0.000 
#
# Total GULP energy -155931.887787 kJ/mol
# GULP energy per Si atom -5568.995992 kJ/mol
# Density = 2.270196 g / cm^3
# Si number density = 22.753749 Si / 1000 Ang^3
#
#
#
# Elastic Constant Matrix: (Units=GPa)
#
#
# Indices 1 2 3 4 5 6 
#
# 1 39.0554 9.7739 -10.1779 0.0000 -20.0456 0.0000
# 2 9.7739 132.9689 25.1095 0.0000 7.5998 0.0000
# 3 -10.1779 25.1095 82.1735 0.0000 -21.4675 0.0000
# 4 0.0000 0.0000 0.0000 6.5521 0.0000 -16.6957
# 5 -20.0456 7.5998 -21.4675 0.0000 38.4840 0.0000
# 6 0.0000 0.0000 0.0000 -16.6957 0.0000 15.0615
#
#
#
# Elastic Compliance Matrix: (Units=1/GPa)
#
#
# Indices 1 2 3 4 5 6 
#
# 1 0.056161 -0.010678 0.021553 0.000000 0.043385 0.000000
# 2 -0.010678 0.010420 -0.007605 0.000000 -0.011862 0.000000
# 3 0.021553 -0.007605 0.023983 0.000000 0.026107 0.000000
# 4 0.000000 0.000000 0.000000 -0.083645 0.000000 -0.092721
# 5 0.043385 -0.011862 0.026107 0.000000 0.065489 0.000000
# 6 0.000000 0.000000 0.000000 -0.092721 0.000000 -0.036387
#
#
# Mechanical properties :
#
#
# Convention : Reuss Voigt Hill
#
# Bulk Modulus (GPa) = 10.29829 33.73433 22.01631
# Shear Modulus (GPa) = 80.84304 27.31900 54.08102
#
# Velocity S-wave (km/s) = 5.96713 3.46878 4.88053
# Velocity P-wave (km/s) = 7.21189 5.55889 6.43866
#
# Compressibility (1/GPa) = 0.09710347
#
# Stress axis : x y z
#
# Youngs Moduli (GPa) = 17.80589 95.97347 41.69608
#
# Poissons Ratio (x) = 1.02478 -0.89867
# Poissons Ratio (y) = 0.19013 0.31711
# Poissons Ratio (z) = -0.38377 0.72990
#
# Static dielectric constant tensor:
#      x y z
#    x 2.032930 0.000000 0.032950 
#    y 0.000000 1.889200 0.000000 
#    z 0.032950 0.000000 1.884780 
# 
# From -- ./inp_files/165052.got.cif
#   From: 2010.05.17/outbox.cif.g08.bks.cpg/sg12_83_cif.got.tgz:165052.got - 2010.06.03 13:09:07.
