data_PCOD9180188
_publ_section_title
;
Structure prediction by ZEFSAII (Michael W. Deem and Ramdas Pophale) SiO2 
 PCOD9180188
Probable space group: C 2/M
;
_chemical_formula_sum "Si O2"
_cell_formula_units_Z 48
_cell_length_a 20.545834
_cell_length_b 7.998783
_cell_length_c 21.423537
_cell_angle_alpha 90.000000
_cell_angle_beta 40.816140
_cell_angle_gamma 90.000000
_cell_volume 2301.300752
_symmetry_space_group_name_H-M "C 2/M"
_symmetry_group_IT_number 12
_symmetry_cell_setting 'monoclinic'
loop_
_space_group_symop_operation_xyz
x,y,z
-x,y,-z
-x,-y,-z
x,-y,z
1/2+x,1/2+y,z
1/2-x,1/2+y,-z
1/2-x,1/2-y,-z
1/2+x,1/2-y,z
loop_
_atom_site_type_symbol
_atom_site_label
_atom_site_fract_x
_atom_site_fract_y
_atom_site_fract_z
Si Si1 0.981917 0.196889 0.399916
Si Si2 0.094889 0.797767 0.122550
Si Si3 0.728611 0.301096 0.913518
Si Si4 0.104553 0.204691 0.668433
Si Si5 0.795374 0.695269 0.600264
Si Si6 0.297190 0.697272 0.732676
O O1 0.930175 0.263767 0.374483
O O2 0.901953 0.219972 0.512483
O O3 0.091142 0.266289 0.334547
O O4 0.997408 0.000000 0.377564
O O5 0.169669 0.739699 0.122867
O O6 0.983289 0.746433 0.220156
O O7 0.097962 0.000000 0.120648
O O8 0.141060 0.740107 0.023327
O O9 0.720215 0.500000 0.913295
O O10 0.734341 0.225223 0.840783
O O11 0.211735 0.264245 0.613923
O O12 0.108893 0.000000 0.664670
O O13 0.809605 0.500000 0.577371
O O14 0.759280 0.718643 0.697150
O O15 0.303557 0.500000 0.715446
#
# Coordination Sequence:
#
# PCOD9180188 Si02
#       6
#     8   8   8   8   8   8
#     4  10  20  37  59  78 102 145 191 219 262 328
#     4   9  17  34  57  81 110 144 178 214 266 329
#     4  10  19  31  55  87 111 134 177 231 270 306
#     4   9  18  36  58  80 108 146 182 215 264 328
#     4  11  23  36  54  81 113 141 178 231 273 311
#     4  11  22  38  58  77 108 150 184 217 268 331
#
# _framework density 20.857769999999999
#
# number of rings (size 3 to 8) (size 9 to 14) (size 15 to 20)
#    0.000    2.000    1.667    2.500    0.000    4.000 
#    0.000    3.333    0.000    5.000    0.000    0.000 
#    0.000    0.000    0.000    0.000    0.000    0.000 
#
# Total GULP energy -134033.157211 kJ/mol
# GULP energy per Si atom -5584.714884 kJ/mol
# Density = 2.081030 g / cm^3
# Si number density = 20.857770 Si / 1000 Ang^3
#
#
#
# Elastic Constant Matrix: (Units=GPa)
#
#
# Indices 1 2 3 4 5 6 
#
# 1 47.5225 2.9408 -5.4263 0.0001 14.4208 -0.0001
# 2 2.9408 17.7061 -9.1175 0.0002 -6.4018 -0.0003
# 3 -5.4263 -9.1175 65.2649 0.0001 10.3891 -0.0001
# 4 0.0001 0.0002 0.0001 23.0243 -0.0001 8.1535
# 5 14.4208 -6.4018 10.3891 -0.0001 26.3345 0.0001
# 6 -0.0001 -0.0003 -0.0001 8.1535 0.0001 17.7952
#
#
#
# Elastic Compliance Matrix: (Units=1/GPa)
#
#
# Indices 1 2 3 4 5 6 
#
# 1 0.027916 -0.009490 0.004050 0.000000 -0.019192 0.000000
# 2 -0.009490 0.067995 0.005603 -0.000001 0.019515 0.000001
# 3 0.004050 0.005603 0.017689 0.000000 -0.007834 0.000000
# 4 0.000000 -0.000001 0.000000 0.051844 0.000000 -0.023754
# 5 -0.019192 0.019515 -0.007834 0.000000 0.056317 0.000000
# 6 0.000000 0.000001 0.000000 -0.023754 0.000000 0.067079
#
#
# Mechanical properties :
#
#
# Convention : Reuss Voigt Hill
#
# Bulk Modulus (GPa) = 8.77748 11.92083 10.34916
# Shear Modulus (GPa) = 15.31451 22.90393 19.10922
#
# Velocity S-wave (km/s) = 2.71262 3.31735 3.03011
# Velocity P-wave (km/s) = 3.74546 4.51673 4.14905
#
# Compressibility (1/GPa) = 0.11392785
#
# Stress axis : x y z
#
# Youngs Moduli (GPa) = 35.82161 14.70693 56.53302
#
# Poissons Ratio (x) = 0.13957 -0.22897
# Poissons Ratio (y) = 0.33994 -0.31678
# Poissons Ratio (z) = -0.14509 -0.08241
#
# Static dielectric constant tensor:
#      x y z
#    x 1.733500 0.000000 0.010410 
#    y 0.000000 1.735470 0.000000 
#    z 0.010410 0.000000 1.756050 
# 
# From -- ./inp_files/229859.got.cif
#   From: 2010.05.17/outbox.cif.g08.bks.cpg/sg12_115_cif.got.tgz:229859.got - 2010.06.03 13:09:07.
