data_PCOD9180549
_publ_section_title
;
Structure prediction by ZEFSAII (Michael W. Deem and Ramdas Pophale) SiO2 
 PCOD9180549
Probable space group: C 2/M
;
_chemical_formula_sum "Si O2"
_cell_formula_units_Z 56
_cell_length_a 23.570215
_cell_length_b 9.130934
_cell_length_c 14.550951
_cell_angle_alpha 90.000000
_cell_angle_beta 51.018857
_cell_angle_gamma 90.000000
_cell_volume 2434.380311
_symmetry_space_group_name_H-M "C 2/M"
_symmetry_group_IT_number 12
_symmetry_cell_setting 'monoclinic'
loop_
_space_group_symop_operation_xyz
x,y,z
-x,y,-z
-x,-y,-z
x,-y,z
1/2+x,1/2+y,z
1/2-x,1/2+y,-z
1/2-x,1/2-y,-z
1/2+x,1/2-y,z
loop_
_atom_site_type_symbol
_atom_site_label
_atom_site_fract_x
_atom_site_fract_y
_atom_site_fract_z
Si Si1 0.176836 0.162750 0.597469
Si Si2 0.542694 0.165987 0.798762
Si Si3 0.151895 0.169227 0.160985
Si Si4 0.012180 0.333410 0.358762
Si Si5 0.098061 0.829397 0.005153
Si Si6 0.123400 0.165681 0.444185
Si Si7 0.754034 0.675422 0.797227
O O1 0.250000 0.250000 0.500000
O O2 0.117668 0.243588 0.720876
O O3 0.139586 0.150368 0.535863
O O4 0.193595 0.000000 0.616288
O O5 0.515633 0.162768 0.719418
O O6 0.476215 0.239045 0.921592
O O7 0.555380 0.000000 0.815524
O O8 0.128305 0.180895 0.079248
O O9 0.214962 0.274118 0.134864
O O10 0.079974 0.222640 0.289304
O O11 0.170709 0.000000 0.159382
O O12 0.033897 0.500000 0.359535
O O13 0.945374 0.273984 0.486858
O O14 0.082243 0.000000 0.002633
O O15 0.169033 0.783114 0.875282
O O16 0.193717 0.239152 0.325892
O O17 0.109527 0.000000 0.424271
O O18 0.760264 0.500000 0.782429
#
# Coordination Sequence:
#
# PCOD9180549 Si02
#       7
#     8   8   8   8   8   8   8
#     4  10  20  35  58  84 108 130 158 199 248 303
#     4   9  17  30  52  79 104 131 165 204 249 297
#     4  10  19  32  50  72  99 133 175 220 258 294
#     4   9  17  31  50  72  99 131 168 211 254 300
#     4   9  19  34  51  72 101 137 176 214 252 293
#     4  10  21  36  52  74 103 134 166 203 252 306
#     4  11  22  34  49  71 101 138 176 214 253 296
#
# _framework density 23.003800999999999
#
# number of rings (size 3 to 8) (size 9 to 14) (size 15 to 20)
#    0.000    2.286    0.000    3.000    0.000    7.429 
#    0.000    2.857    0.000    0.857    0.000    6.000 
#    0.000    0.000    0.000    0.000    0.000    0.000 
#
# Total GULP energy -156559.844353 kJ/mol
# GULP energy per Si atom -5591.423013 kJ/mol
# Density = 2.295144 g / cm^3
# Si number density = 23.003801 Si / 1000 Ang^3
#
#
#
# Elastic Constant Matrix: (Units=GPa)
#
#
# Indices 1 2 3 4 5 6 
#
# 1 53.3863 25.9907 24.5702 0.0000 -4.4251 0.0000
# 2 25.9907 162.5748 78.4275 0.0001 -41.0686 0.0000
# 3 24.5702 78.4275 153.8765 0.0000 -45.7727 0.0000
# 4 0.0000 0.0001 0.0000 30.6144 0.0000 -10.7814
# 5 -4.4251 -41.0686 -45.7727 0.0000 51.6676 0.0000
# 6 0.0000 0.0000 0.0000 -10.7814 0.0000 20.9381
#
#
#
# Elastic Compliance Matrix: (Units=1/GPa)
#
#
# Indices 1 2 3 4 5 6 
#
# 1 0.021130 -0.002737 -0.002835 0.000000 -0.002877 0.000000
# 2 -0.002737 0.009101 -0.002878 0.000000 0.004450 0.000000
# 3 -0.002835 -0.002878 0.010408 0.000000 0.006691 0.000000
# 4 0.000000 0.000000 0.000000 0.039900 0.000000 0.020545
# 5 -0.002877 0.004450 0.006691 0.000000 0.028573 0.000000
# 6 0.000000 0.000000 0.000000 0.020545 0.000000 0.058339
#
#
# Mechanical properties :
#
#
# Convention : Reuss Voigt Hill
#
# Bulk Modulus (GPa) = 42.12336 69.75715 55.94025
# Shear Modulus (GPa) = 26.00590 36.70063 31.35326
#
# Velocity S-wave (km/s) = 3.36595 3.99860 3.69583
# Velocity P-wave (km/s) = 5.78423 7.19086 6.52556
#
# Compressibility (1/GPa) = 0.02373980
#
# Stress axis : x y z
#
# Youngs Moduli (GPa) = 47.32555 109.87702 96.07750
#
# Poissons Ratio (x) = 0.30079 0.27235
# Poissons Ratio (y) = 0.12955 0.27649
# Poissons Ratio (z) = 0.13415 0.31620
#
# Static dielectric constant tensor:
#      x y z
#    x 1.930510 0.000000 0.069870 
#    y 0.000000 1.799210 0.000000 
#    z 0.069870 0.000000 1.866990 
# 
# From -- ./inp_files/280967.got.cif
#   From: 2010.05.17/outbox.cif.g08.bks.cpg/sg12_141_cif.got.tgz:280967.got - 2010.06.03 13:09:07.
