data_PCOD9180888
_publ_section_title
;
Structure prediction by ZEFSAII (Michael W. Deem and Ramdas Pophale) SiO2 
 PCOD9180888
Probable space group: C 2/M
;
_chemical_formula_sum "Si O2"
_cell_formula_units_Z 56
_cell_length_a 26.328075
_cell_length_b 8.150013
_cell_length_c 14.127266
_cell_angle_alpha 90.000000
_cell_angle_beta 133.609705
_cell_angle_gamma 90.000000
_cell_volume 2194.861454
_symmetry_space_group_name_H-M "C 2/M"
_symmetry_group_IT_number 12
_symmetry_cell_setting 'monoclinic'
loop_
_space_group_symop_operation_xyz
x,y,z
-x,y,-z
-x,-y,-z
x,-y,z
1/2+x,1/2+y,z
1/2-x,1/2+y,-z
1/2-x,1/2-y,-z
1/2+x,1/2-y,z
loop_
_atom_site_type_symbol
_atom_site_label
_atom_site_fract_x
_atom_site_fract_y
_atom_site_fract_z
Si Si1 0.788813 0.196413 0.954178
Si Si2 0.545940 0.687426 0.280912
Si Si3 0.059474 0.314423 0.998784
Si Si4 0.581417 0.188533 0.778889
Si Si5 0.337074 0.302617 0.708593
Si Si6 0.787410 0.302712 0.336697
Si Si7 0.575410 0.310640 0.575264
O O1 0.867246 0.264390 0.068513
O O2 0.791042 0.000000 0.952868
O O3 0.750000 0.250000 0.000000
O O4 0.750406 0.254550 0.809367
O O5 0.559784 0.500000 0.325811
O O6 0.500355 0.779640 0.302061
O O7 0.615109 0.760317 0.317784
O O8 0.484572 0.690818 0.123085
O O9 0.072728 0.500000 0.976530
O O10 0.122612 0.240635 0.141642
O O11 0.000000 0.342595 0.000000
O O12 0.605907 0.294977 0.720937
O O13 0.593069 0.000000 0.769222
O O14 0.336624 0.500000 0.697558
O O15 0.257923 0.243624 0.630880
O O16 0.784876 0.500000 0.335103
O O17 0.868112 0.253828 0.426927
O O18 0.500000 0.227502 0.500000
O O19 0.563487 0.500000 0.537669
#
# Coordination Sequence:
#
# PCOD9180888 Si02
#       7
#     8   8   8   8   8   8   8
#     4  11  21  34  55  86 124 159 193 236 288 346
#     4  10  19  32  51  76 111 153 192 235 280 334
#     4   9  16  26  42  69 107 149 192 232 270 322
#     4  12  24  38  59  87 119 156 195 239 288 344
#     4   9  18  32  51  77 111 151 193 231 279 338
#     4  10  21  37  59  87 118 154 193 235 286 344
#     4  11  25  44  65  87 111 144 189 241 296 352
#
# _framework density 25.514140000000001
#
# number of rings (size 3 to 8) (size 9 to 14) (size 15 to 20)
#    0.000    1.714    1.429    3.857    0.000    5.714 
#    0.000    0.000    0.000    0.857    0.000    0.000 
#    0.000    0.000    0.000    0.000    0.000    0.000 
#
# Total GULP energy -156327.854886 kJ/mol
# GULP energy per Si atom -5583.137674 kJ/mol
# Density = 2.545607 g / cm^3
# Si number density = 25.514140 Si / 1000 Ang^3
#
#
#
# Elastic Constant Matrix: (Units=GPa)
#
#
# Indices 1 2 3 4 5 6 
#
# 1 200.8187 26.4687 43.2443 0.0000 43.9705 0.0000
# 2 26.4687 49.2179 -6.9065 0.0000 -0.4107 0.0000
# 3 43.2443 -6.9065 85.0651 0.0000 29.0515 0.0000
# 4 0.0000 0.0000 0.0000 13.4662 0.0000 10.9818
# 5 43.9705 -0.4107 29.0515 0.0000 52.8612 0.0000
# 6 0.0000 0.0000 0.0000 10.9818 0.0000 32.7486
#
#
#
# Elastic Compliance Matrix: (Units=1/GPa)
#
#
# Indices 1 2 3 4 5 6 
#
# 1 0.007039 -0.004153 -0.002345 0.000000 -0.004598 0.000000
# 2 -0.004153 0.023039 0.003374 0.000000 0.001779 0.000000
# 3 -0.002345 0.003374 0.015446 0.000000 -0.006512 0.000000
# 4 0.000000 0.000000 0.000000 0.102212 0.000000 -0.034275
# 5 -0.004598 0.001779 -0.006512 0.000000 0.026335 0.000000
# 6 0.000000 0.000000 0.000000 -0.034275 0.000000 0.042029
#
#
# Mechanical properties :
#
#
# Convention : Reuss Voigt Hill
#
# Bulk Modulus (GPa) = 25.46036 51.19052 38.32544
# Shear Modulus (GPa) = 21.23684 37.96821 29.60252
#
# Velocity S-wave (km/s) = 2.88819 3.86181 3.40992
# Velocity P-wave (km/s) = 4.59595 6.32391 5.52787
#
# Compressibility (1/GPa) = 0.03927675
#
# Stress axis : x y z
#
# Youngs Moduli (GPa) = 142.06960 43.40382 64.74286
#
# Poissons Ratio (x) = 0.18025 0.15182
# Poissons Ratio (y) = 0.58999 -0.21845
# Poissons Ratio (z) = 0.33315 -0.14645
#
# Static dielectric constant tensor:
#      x y z
#    x 2.215940 0.000000 -0.017530 
#    y 0.000000 1.971210 0.000000 
#    z -0.017530 0.000000 2.140620 
# 
# From -- ./inp_files/292513.got.cif
#   From: 2010.05.17/outbox.cif.g08.bks.cpg/sg12_147_cif.got.tgz:292513.got - 2010.06.03 13:09:07.
