data_PCOD9180306
_publ_section_title
;
Structure prediction by ZEFSAII (Michael W. Deem and Ramdas Pophale) SiO2 
 PCOD9180306
Probable space group: C 2/M
;
_chemical_formula_sum "Si O2"
_cell_formula_units_Z 48
_cell_length_a 33.800250
_cell_length_b 11.074895
_cell_length_c 7.456908
_cell_angle_alpha 90.000000
_cell_angle_beta 99.893101
_cell_angle_gamma 90.000000
_cell_volume 2749.868138
_symmetry_space_group_name_H-M "C 2/M"
_symmetry_group_IT_number 12
_symmetry_cell_setting 'monoclinic'
loop_
_space_group_symop_operation_xyz
x,y,z
-x,y,-z
-x,-y,-z
x,-y,z
1/2+x,1/2+y,z
1/2-x,1/2+y,-z
1/2-x,1/2-y,-z
1/2+x,1/2-y,z
loop_
_atom_site_type_symbol
_atom_site_label
_atom_site_fract_x
_atom_site_fract_y
_atom_site_fract_z
Si Si1 0.309827 0.796549 0.663109
Si Si2 0.893975 0.860779 0.098403
Si Si3 0.544950 0.643827 0.546972
Si Si4 0.735948 0.866673 0.720740
Si Si5 0.612817 0.640787 0.329507
Si Si6 0.335268 0.863529 0.066838
O O1 0.291343 0.864967 0.479705
O O2 0.272747 0.721473 0.716423
O O3 0.345529 0.711334 0.619698
O O4 0.327692 0.865736 0.847420
O O5 0.934555 0.843980 0.243030
O O6 0.864220 0.750847 0.125765
O O7 0.879571 0.000000 0.125708
O O8 0.899576 0.853552 0.888995
O O9 0.500000 0.694441 0.500000
O O10 0.541781 0.500000 0.506524
O O11 0.577439 0.690160 0.428225
O O12 0.706243 0.838652 0.860998
O O13 0.752845 0.000000 0.763180
O O14 0.619592 0.500000 0.380590
O O15 0.348709 0.000000 0.132293
#
# Coordination Sequence:
#
# PCOD9180306 Si02
#       6
#     8   8   8   8   8   8
#     4  10  19  32  48  68  94 128 165 200 240 286
#     4   9  18  32  50  73  98 127 162 196 237 287
#     4   9  17  29  47  73 101 125 154 196 243 289
#     4  10  20  32  47  69  97 129 166 205 241 280
#     4   9  17  29  46  68  95 126 160 199 241 285
#     4  10  20  34  51  72  99 130 164 201 240 282
#
# _framework density 17.455383999999999
#
# number of rings (size 3 to 8) (size 9 to 14) (size 15 to 20)
#    0.000    2.500    0.000    2.500    0.000    1.333 
#    0.000    7.500    0.000    0.500    0.000    4.667 
#    0.000    0.000    0.000    0.000    0.000    0.000 
#
# Total GULP energy -133649.240368 kJ/mol
# GULP energy per Si atom -5568.718349 kJ/mol
# Density = 1.741565 g / cm^3
# Si number density = 17.455384 Si / 1000 Ang^3
#
#
#
# Elastic Constant Matrix: (Units=GPa)
#
#
# Indices 1 2 3 4 5 6 
#
# 1 76.8212 42.2906 22.2119 0.0000 8.0758 0.0000
# 2 42.2906 67.0190 17.4053 0.0000 11.2536 0.0000
# 3 22.2119 17.4053 36.1161 0.0000 0.1504 0.0000
# 4 0.0000 0.0000 0.0000 12.4800 0.0000 3.9238
# 5 8.0758 11.2536 0.1504 0.0000 18.0970 0.0000
# 6 0.0000 0.0000 0.0000 3.9238 0.0000 14.1693
#
#
#
# Elastic Compliance Matrix: (Units=1/GPa)
#
#
# Indices 1 2 3 4 5 6 
#
# 1 0.021785 -0.011226 -0.007977 0.000000 -0.002674 0.000000
# 2 -0.011226 0.025119 -0.005157 0.000000 -0.010568 0.000000
# 3 -0.007977 -0.005157 0.035053 0.000000 0.006475 0.000000
# 4 0.000000 0.000000 0.000000 0.087770 0.000000 -0.024306
# 5 -0.002674 -0.010568 0.006475 0.000000 0.062969 0.000000
# 6 0.000000 0.000000 0.000000 -0.024306 0.000000 0.077306
#
#
# Mechanical properties :
#
#
# Convention : Reuss Voigt Hill
#
# Bulk Modulus (GPa) = 30.08748 38.19686 34.14217
# Shear Modulus (GPa) = 13.52082 15.48582 14.50332
#
# Velocity S-wave (km/s) = 2.78617 2.98176 2.88563
# Velocity P-wave (km/s) = 5.25591 5.81245 5.54117
#
# Compressibility (1/GPa) = 0.03323641
#
# Stress axis : x y z
#
# Youngs Moduli (GPa) = 45.90366 39.81059 28.52852
#
# Poissons Ratio (x) = 0.44692 0.22756
# Poissons Ratio (y) = 0.51532 0.14713
# Poissons Ratio (z) = 0.36616 0.20531
#
# Static dielectric constant tensor:
#      x y z
#    x 1.573020 0.000000 -0.005010 
#    y 0.000000 1.612860 0.000000 
#    z -0.005010 0.000000 1.605370 
# 
# From -- ./inp_files/102057.got.cif
#   From: 2010.05.17/outbox.cif.g08.bks.cpg/sg12_52_cif.got.tgz:102057.got - 2010.06.03 13:09:07.
