data_PCOD9180438
_publ_section_title
;
Structure prediction by ZEFSAII (Michael W. Deem and Ramdas Pophale) SiO2 
 PCOD9180438
Probable space group: C 2/M
;
_chemical_formula_sum "Si O2"
_cell_formula_units_Z 52
_cell_length_a 20.862195
_cell_length_b 7.379215
_cell_length_c 14.838970
_cell_angle_alpha 90.000000
_cell_angle_beta 90.116110
_cell_angle_gamma 90.000000
_cell_volume 2284.404619
_symmetry_space_group_name_H-M "C 2/M"
_symmetry_group_IT_number 12
_symmetry_cell_setting 'monoclinic'
loop_
_space_group_symop_operation_xyz
x,y,z
-x,y,-z
-x,-y,-z
x,-y,z
1/2+x,1/2+y,z
1/2-x,1/2+y,-z
1/2-x,1/2-y,-z
1/2+x,1/2-y,z
loop_
_atom_site_type_symbol
_atom_site_label
_atom_site_fract_x
_atom_site_fract_y
_atom_site_fract_z
Si Si1 0.476802 0.721261 0.097374
Si Si2 0.523695 0.280100 0.285213
Si Si3 0.836758 0.793542 0.662759
Si Si4 0.160971 0.782596 0.946944
Si Si5 0.792915 0.286633 0.861409
Si Si6 0.663211 0.000000 0.469425
Si Si7 0.934525 0.785141 0.440919
O O1 0.479336 0.500000 0.097993
O O2 0.517165 0.782290 0.182952
O O3 0.402849 0.776607 0.103301
O O4 0.500000 0.781068 0.000000
O O5 0.528362 0.500000 0.286116
O O6 0.589908 0.218529 0.330217
O O7 0.460890 0.234140 0.341962
O O8 0.812791 0.793084 0.765941
O O9 0.803234 0.658896 0.594456
O O10 0.835927 0.000000 0.630663
O O11 0.225629 0.713407 0.900606
O O12 0.163376 0.000000 0.942534
O O13 0.159722 0.738901 0.053457
O O14 0.786674 0.500000 0.845711
O O15 0.621778 0.840764 0.523635
O O16 0.000000 0.763878 0.500000
O O17 0.918556 0.000000 0.442773
#
# Coordination Sequence:
#
# PCOD9180438 Si02
#       7
#     8   8   8   8   8   4   8
#     4   9  16  29  51  79 109 143 182 219 261 319
#     4   9  18  30  49  77 109 141 181 218 266 326
#     4  11  21  33  51  79 110 140 178 222 275 322
#     4   9  18  32  53  75 103 144 185 220 265 315
#     4  10  19  32  49  75 108 142 181 226 267 315
#     4  12  21  32  52  78 110 144 173 228 274 327
#     4  10  19  32  49  75 111 143 179 221 269 327
#
# _framework density 22.763041999999999
#
# number of rings (size 3 to 8) (size 9 to 14) (size 15 to 20)
#    0.000    2.154    2.308    2.077    0.000    3.077 
#    0.000    0.000    3.385    1.385    0.000    1.077 
#    0.000    0.000    0.000    0.000    0.000    0.000 
#
# Total GULP energy -144739.120746 kJ/mol
# GULP energy per Si atom -5566.889259 kJ/mol
# Density = 2.271123 g / cm^3
# Si number density = 22.763042 Si / 1000 Ang^3
#
#
#
# Elastic Constant Matrix: (Units=GPa)
#
#
# Indices 1 2 3 4 5 6 
#
# 1 14.0365 -3.9131 -4.8151 0.0000 -5.7375 0.0000
# 2 -3.9131 125.4712 7.5948 0.0000 -6.6382 0.0000
# 3 -4.8151 7.5948 90.9010 0.0000 -27.7051 0.0000
# 4 0.0000 0.0000 0.0000 57.1602 0.0000 -26.3168
# 5 -5.7375 -6.6382 -27.7051 0.0000 28.5405 0.0000
# 6 0.0000 0.0000 0.0000 -26.3168 0.0000 7.7341
#
#
#
# Elastic Compliance Matrix: (Units=1/GPa)
#
#
# Indices 1 2 3 4 5 6 
#
# 1 0.090979 0.003716 0.014694 0.000000 0.033417 0.000000
# 2 0.003716 0.008222 0.000455 0.000000 0.003101 0.000000
# 3 0.014694 0.000455 0.017999 0.000000 0.020532 0.000000
# 4 0.000000 0.000000 0.000000 -0.030875 0.000000 -0.105060
# 5 0.033417 0.003101 0.020532 0.000000 0.062408 0.000000
# 6 0.000000 0.000000 0.000000 -0.105060 0.000000 -0.228190
#
#
# Mechanical properties :
#
#
# Convention : Reuss Voigt Hill
#
# Bulk Modulus (GPa) = 6.45452 25.34909 15.90181
# Shear Modulus (GPa) = -76.28555 34.12309 -21.08123
#
# Velocity S-wave (km/s) = -5.79531 3.87597 -3.04652
# Velocity P-wave (km/s) = 6.47605 5.58490 2.31820
#
# Compressibility (1/GPa) = 0.15493013
#
# Stress axis : x y z
#
# Youngs Moduli (GPa) = 10.99156 121.61946 55.55817
#
# Poissons Ratio (x) = -0.45193 -0.81637
# Poissons Ratio (y) = -0.04084 -0.02528
# Poissons Ratio (z) = -0.16151 -0.05534
#
# Static dielectric constant tensor:
#      x y z
#    x 1.886810 0.000000 0.003310 
#    y 0.000000 1.879070 0.000000 
#    z 0.003310 0.000000 1.874970 
# 
# From -- ./inp_files/236676.got.cif
#   From: 2010.05.17/outbox.cif.g08.bks.cpg/sg12_119_cif.got.tgz:236676.got - 2010.06.03 13:09:07.
