data_PCOD9180183
_publ_section_title
;
Structure prediction by ZEFSAII (Michael W. Deem and Ramdas Pophale) SiO2 
 PCOD9180183
Probable space group: C 2/M
;
_chemical_formula_sum "Si O2"
_cell_formula_units_Z 48
_cell_length_a 21.223443
_cell_length_b 7.702073
_cell_length_c 25.712892
_cell_angle_alpha 90.000000
_cell_angle_beta 145.492537
_cell_angle_gamma 90.000000
_cell_volume 2381.138838
_symmetry_space_group_name_H-M "C 2/M"
_symmetry_group_IT_number 12
_symmetry_cell_setting 'monoclinic'
loop_
_space_group_symop_operation_xyz
x,y,z
-x,y,-z
-x,-y,-z
x,-y,z
1/2+x,1/2+y,z
1/2-x,1/2+y,-z
1/2-x,1/2-y,-z
1/2+x,1/2-y,z
loop_
_atom_site_type_symbol
_atom_site_label
_atom_site_fract_x
_atom_site_fract_y
_atom_site_fract_z
Si Si1 0.727332 0.297235 0.398490
Si Si2 0.416090 0.206526 0.602004
Si Si3 0.862128 0.208357 0.106675
Si Si4 0.590180 0.289312 0.209846
Si Si5 0.341305 0.709791 0.210716
Si Si6 0.388472 0.207212 0.896350
O O1 0.750684 0.500000 0.405151
O O2 0.628405 0.284027 0.373845
O O3 0.835616 0.224191 0.501542
O O4 0.682932 0.224648 0.313926
O O5 0.545661 0.241765 0.682823
O O6 0.398506 0.000000 0.594038
O O7 0.854433 0.274163 0.160434
O O8 0.970660 0.272410 0.149959
O O9 0.872204 0.000000 0.116585
O O10 0.750000 0.250000 0.000000
O O11 0.590349 0.500000 0.211868
O O12 0.607674 0.237431 0.162514
O O13 0.336746 0.500000 0.206435
O O14 0.226731 0.775016 0.157764
O O15 0.388042 0.000000 0.905028
O O16 0.500000 0.277070 0.000000
#
# Coordination Sequence:
#
# PCOD9180183 Si02
#       6
#     8   8   8   8   8   8
#     4   9  18  35  55  79 113 146 176 218 277 326
#     4  10  19  31  55  86 110 139 181 226 267 320
#     4  10  20  34  54  78 104 138 178 224 274 320
#     4  10  20  36  57  79 107 143 179 222 274 323
#     4  10  20  37  56  76 110 148 177 219 278 328
#     4  10  22  39  58  78 106 147 187 224 270 323
#
# _framework density 20.158422000000002
#
# number of rings (size 3 to 8) (size 9 to 14) (size 15 to 20)
#    0.000    2.167    1.667    1.500    0.000    5.000 
#    0.000    0.833    0.000    5.000    0.000    0.000 
#    0.000    0.000    0.000    0.000    0.000    0.000 
#
# Total GULP energy -133981.520568 kJ/mol
# GULP energy per Si atom -5582.563357 kJ/mol
# Density = 2.011254 g / cm^3
# Si number density = 20.158422 Si / 1000 Ang^3
#
#
#
# Elastic Constant Matrix: (Units=GPa)
#
#
# Indices 1 2 3 4 5 6 
#
# 1 120.1450 -5.7909 73.4732 0.0000 12.0324 0.0002
# 2 -5.7909 30.9638 -5.7832 0.0001 1.8023 0.0006
# 3 73.4732 -5.7832 168.4065 0.0000 6.6238 0.0000
# 4 0.0000 0.0001 0.0000 22.8893 0.0000 -0.0465
# 5 12.0324 1.8023 6.6238 0.0000 33.1154 0.0000
# 6 0.0002 0.0006 0.0000 -0.0465 0.0000 21.5670
#
#
#
# Elastic Compliance Matrix: (Units=1/GPa)
#
#
# Indices 1 2 3 4 5 6 
#
# 1 0.011756 0.001470 -0.004946 0.000000 -0.003362 0.000000
# 2 0.001470 0.032821 0.000581 0.000000 -0.002437 -0.000001
# 3 -0.004946 0.000581 0.008110 0.000000 0.000143 0.000000
# 4 0.000000 0.000000 0.000000 0.043689 0.000000 0.000094
# 5 -0.003362 -0.002437 0.000143 0.000000 0.031523 0.000000
# 6 0.000000 -0.000001 0.000000 0.000094 0.000000 0.046367
#
#
# Mechanical properties :
#
#
# Convention : Reuss Voigt Hill
#
# Bulk Modulus (GPa) = 21.32256 49.25706 35.28981
# Shear Modulus (GPa) = 25.55096 32.68875 29.11986
#
# Velocity S-wave (km/s) = 3.56407 4.03127 3.80485
# Velocity P-wave (km/s) = 5.24760 6.79384 6.07015
#
# Compressibility (1/GPa) = 0.04689868
#
# Stress axis : x y z
#
# Youngs Moduli (GPa) = 85.06623 30.46808 123.30112
#
# Poissons Ratio (x) = -0.04480 0.60985
# Poissons Ratio (y) = -0.12509 -0.07169
# Poissons Ratio (z) = 0.42074 -0.01771
#
# Static dielectric constant tensor:
#      x y z
#    x 1.674530 0.000000 -0.000760 
#    y 0.000000 1.760440 0.000000 
#    z -0.000760 0.000000 1.732220 
# 
# From -- ./inp_files/221646.got.cif
#   From: 2010.05.17/outbox.cif.g08.bks.cpg/sg12_111_cif.got.tgz:221646.got - 2010.06.03 13:09:07.
