data_PCOD9180718
_publ_section_title
;
Structure prediction by ZEFSAII (Michael W. Deem and Ramdas Pophale) SiO2 
 PCOD9180718
Probable space group: C 2/M
;
_chemical_formula_sum "Si O2"
_cell_formula_units_Z 64
_cell_length_a 29.340720
_cell_length_b 8.819132
_cell_length_c 26.514805
_cell_angle_alpha 90.000000
_cell_angle_beta 33.510486
_cell_angle_gamma 90.000000
_cell_volume 3787.865988
_symmetry_space_group_name_H-M "C 2/M"
_symmetry_group_IT_number 12
_symmetry_cell_setting 'monoclinic'
loop_
_space_group_symop_operation_xyz
x,y,z
-x,y,-z
-x,-y,-z
x,-y,z
1/2+x,1/2+y,z
1/2-x,1/2+y,-z
1/2-x,1/2-y,-z
1/2+x,1/2-y,z
loop_
_atom_site_type_symbol
_atom_site_label
_atom_site_fract_x
_atom_site_fract_y
_atom_site_fract_z
Si Si1 0.768067 0.317075 0.904259
Si Si2 0.786008 0.818334 0.356361
Si Si3 0.859542 0.178731 0.445820
Si Si4 0.432001 0.182021 0.276878
Si Si5 0.877403 0.682540 0.899100
Si Si6 0.675278 0.817412 0.364385
Si Si7 0.154872 0.317082 0.271472
Si Si8 0.473545 0.322161 0.438798
O O1 0.762849 0.500000 0.908903
O O2 0.837286 0.273893 0.882095
O O3 0.795589 0.264624 0.823539
O O4 0.682214 0.251044 0.003532
O O5 0.722634 0.758933 0.457537
O O6 0.874273 0.745644 0.285901
O O7 0.744643 0.773286 0.341191
O O8 0.790926 0.000000 0.354274
O O9 0.894265 0.253028 0.363409
O O10 0.927100 0.195409 0.428006
O O11 0.843631 0.000000 0.452814
O O12 0.527547 0.229587 0.184546
O O13 0.428400 0.000000 0.281225
O O14 0.874287 0.500000 0.905077
O O15 0.692061 0.772162 0.291358
O O16 0.588728 0.748426 0.462885
O O17 0.668118 0.000000 0.373092
O O18 0.152813 0.500000 0.271560
O O19 0.061396 0.258168 0.356214
O O20 0.484208 0.500000 0.439043
#
# Coordination Sequence:
#
# PCOD9180718 Si02
#       8
#     8   8   8   8   8   8   8   8
#     4   9  18  33  53  75  98 123 153 192 236 285
#     4  10  20  34  50  69  96 130 167 204 241 280
#     4  10  20  33  48  70 101 133 164 198 238 285
#     4  11  21  33  51  73  97 127 163 200 241 289
#     4   9  19  34  51  73 100 126 151 187 239 293
#     4   9  19  34  50  68  95 132 168 202 239 282
#     4  10  19  32  51  73  97 128 165 200 240 288
#     4  10  20  31  46  72 103 132 163 199 238 283
#
# _framework density 16.896058
#
# number of rings (size 3 to 8) (size 9 to 14) (size 15 to 20)
#    0.000    2.250    0.000    3.000    0.000    6.500 
#    0.000    2.500    0.000    0.750    0.000    5.250 
#    0.000    0.000    0.000    0.000    0.000    0.000 
#
# Total GULP energy -178619.788538 kJ/mol
# GULP energy per Si atom -5581.868392 kJ/mol
# Density = 1.685760 g / cm^3
# Si number density = 16.896058 Si / 1000 Ang^3
#
#
#
# Elastic Constant Matrix: (Units=GPa)
#
#
# Indices 1 2 3 4 5 6 
#
# 1 100.0890 35.2601 95.8217 0.0015 -0.7081 -0.0001
# 2 35.2601 28.4898 31.7722 0.0055 -0.7617 -0.0021
# 3 95.8217 31.7722 128.6183 -0.0011 5.9037 -0.0004
# 4 0.0015 0.0055 -0.0011 26.3202 -0.0015 -4.2081
# 5 -0.7081 -0.7617 5.9037 -0.0015 31.6294 0.0006
# 6 -0.0001 -0.0021 -0.0004 -4.2081 0.0006 24.6153
#
#
#
# Elastic Compliance Matrix: (Units=1/GPa)
#
#
# Indices 1 2 3 4 5 6 
#
# 1 0.046051 -0.025242 -0.028335 0.000001 0.005712 -0.000002
# 2 -0.025242 0.062655 0.003313 -0.000011 0.000325 0.000004
# 3 -0.028335 0.003313 0.028335 0.000002 -0.005843 0.000001
# 4 0.000001 -0.000011 0.000002 0.039061 0.000001 0.006678
# 5 0.005712 0.000325 -0.005843 0.000001 0.032843 -0.000001
# 6 -0.000002 0.000004 0.000001 0.006678 -0.000001 0.041767
#
#
# Mechanical properties :
#
#
# Convention : Reuss Voigt Hill
#
# Bulk Modulus (GPa) = 27.38806 64.76723 46.07765
# Shear Modulus (GPa) = 13.75855 22.80253 18.28054
#
# Velocity S-wave (km/s) = 2.85670 3.67764 3.29286
# Velocity P-wave (km/s) = 5.20825 7.51328 6.46434
#
# Compressibility (1/GPa) = 0.03651227
#
# Stress axis : x y z
#
# Youngs Moduli (GPa) = 21.71489 15.96053 35.29241
#
# Poissons Ratio (x) = 0.40288 1.00002
# Poissons Ratio (y) = 0.54813 -0.11694
# Poissons Ratio (z) = 0.61530 -0.05288
#
# Static dielectric constant tensor:
#      x y z
#    x 1.596200 0.000000 0.012110 
#    y 0.000000 1.567380 0.000000 
#    z 0.012110 0.000000 1.534760 
# 
# From -- ./inp_files/249131.got.cif
#   From: 2010.05.17/outbox.cif.g08.bks.cpg/sg12_125_cif.got.tgz:249131.got - 2010.06.03 13:09:07.
