data_PCOD9180019
_publ_section_title
;
Structure prediction by ZEFSAII (Michael W. Deem and Ramdas Pophale) SiO2 
 PCOD9180019
Probable space group: C 2/M
;
_chemical_formula_sum "Si O2"
_cell_formula_units_Z 56
_cell_length_a 17.504743
_cell_length_b 14.353466
_cell_length_c 19.789388
_cell_angle_alpha 90.000000
_cell_angle_beta 142.005961
_cell_angle_gamma 90.000000
_cell_volume 3060.758241
_symmetry_space_group_name_H-M "C 2/M"
_symmetry_group_IT_number 12
_symmetry_cell_setting 'monoclinic'
loop_
_space_group_symop_operation_xyz
x,y,z
-x,y,-z
-x,-y,-z
x,-y,z
1/2+x,1/2+y,z
1/2-x,1/2+y,-z
1/2-x,1/2-y,-z
1/2+x,1/2-y,z
loop_
_atom_site_type_symbol
_atom_site_label
_atom_site_fract_x
_atom_site_fract_y
_atom_site_fract_z
Si Si1 0.852279 0.607609 0.052599
Si Si2 0.753912 0.220289 0.580685
Si Si3 0.334803 0.298656 0.978475
Si Si4 0.066260 0.107995 0.212896
Si Si5 0.976779 0.391614 0.606469
Si Si6 0.115733 0.603213 0.301934
Si Si7 0.762637 0.891378 0.797437
O O1 0.817010 0.500000 0.014150
O O2 0.781151 0.646631 0.069058
O O3 0.998278 0.609387 0.170650
O O4 0.821796 0.687522 0.976872
O O5 0.750000 0.250000 0.500000
O O6 0.868700 0.151409 0.676185
O O7 0.624310 0.169192 0.503583
O O8 0.787723 0.314530 0.643576
O O9 0.339309 0.332083 0.905006
O O10 0.450976 0.333265 0.104244
O O11 0.172245 0.113301 0.229358
O O12 0.030617 0.000000 0.196859
O O13 0.966261 0.500000 0.578491
O O14 0.940171 0.387437 0.660719
O O15 0.118907 0.362068 0.696025
O O16 0.170863 0.500000 0.335755
O O17 0.765197 0.000000 0.821390
#
# Coordination Sequence:
#
# PCOD9180019 Si02
#       7
#     8   8   8   8   8   8   8
#     4  10  19  31  53  79 105 138 177 216 261 314
#     4  10  20  33  51  75 102 132 173 217 268 307
#     4  11  20  33  55  79 111 142 176 216 267 317
#     4  11  22  34  51  81 112 137 173 220 267 319
#     4   9  17  31  52  74 103 137 170 207 255 319
#     4   9  16  31  51  73 100 132 173 214 257 314
#     4  10  20  34  53  77 109 149 178 206 261 327
#
# _framework density 18.296120999999999
#
# number of rings (size 3 to 8) (size 9 to 14) (size 15 to 20)
#    0.000    2.000    2.857    2.143    0.000    2.286 
#    0.000    2.143    0.000    3.429    0.000    1.000 
#    0.000    0.000    0.000    0.000    0.000    0.000 
#
# Total GULP energy -156137.901563 kJ/mol
# GULP energy per Si atom -5576.353627 kJ/mol
# Density = 1.825448 g / cm^3
# Si number density = 18.296121 Si / 1000 Ang^3
#
#
#
# Elastic Constant Matrix: (Units=GPa)
#
#
# Indices 1 2 3 4 5 6 
#
# 1 17.5197 13.4114 14.0496 0.0000 4.9699 0.0000
# 2 13.4114 128.2046 38.6236 0.0000 8.3306 0.0000
# 3 14.0496 38.6236 74.9975 0.0000 10.7630 0.0000
# 4 0.0000 0.0000 0.0000 31.3937 0.0000 3.9461
# 5 4.9699 8.3306 10.7630 0.0000 21.3583 0.0000
# 6 0.0000 0.0000 0.0000 3.9461 0.0000 13.8271
#
#
#
# Elastic Compliance Matrix: (Units=1/GPa)
#
#
# Indices 1 2 3 4 5 6 
#
# 1 0.070722 -0.003775 -0.009868 0.000000 -0.010011 0.000000
# 2 -0.003775 0.009467 -0.004058 0.000000 -0.000769 0.000000
# 3 -0.009868 -0.004058 0.018019 0.000000 -0.005201 0.000000
# 4 0.000000 0.000000 0.000000 0.033039 0.000000 -0.009429
# 5 -0.010011 -0.000769 -0.005201 0.000000 0.052071 0.000000
# 6 0.000000 0.000000 0.000000 -0.009429 0.000000 0.075012
#
#
# Mechanical properties :
#
#
# Convention : Reuss Voigt Hill
#
# Bulk Modulus (GPa) = 15.92197 39.21011 27.56604
# Shear Modulus (GPa) = 15.88982 23.62497 19.75740
#
# Velocity S-wave (km/s) = 2.95020 3.59730 3.28970
# Velocity P-wave (km/s) = 4.50845 6.22346 5.43404
#
# Compressibility (1/GPa) = 0.06280629
#
# Stress axis : x y z
#
# Youngs Moduli (GPa) = 14.13995 105.62463 55.49774
#
# Poissons Ratio (x) = 0.39871 0.54764
# Poissons Ratio (y) = 0.05337 0.22522
# Poissons Ratio (z) = 0.13953 0.42865
#
# Static dielectric constant tensor:
#      x y z
#    x 1.629040 0.000000 -0.011010 
#    y 0.000000 1.661140 0.000000 
#    z -0.011010 0.000000 1.656620 
# 
# From -- ./inp_files/189170.got.cif
#   From: 2010.05.17/outbox.cif.g08.bks.cpg/sg12_95_cif.got.tgz:189170.got - 2010.06.03 13:09:07.
