data_PCOD9180552
_publ_section_title
;
Structure prediction by ZEFSAII (Michael W. Deem and Ramdas Pophale) SiO2 
 PCOD9180552
Probable space group: C 2/M
;
_chemical_formula_sum "Si O2"
_cell_formula_units_Z 64
_cell_length_a 29.356960
_cell_length_b 8.676076
_cell_length_c 14.398354
_cell_angle_alpha 90.000000
_cell_angle_beta 75.493133
_cell_angle_gamma 90.000000
_cell_volume 3550.384611
_symmetry_space_group_name_H-M "C 2/M"
_symmetry_group_IT_number 12
_symmetry_cell_setting 'monoclinic'
loop_
_space_group_symop_operation_xyz
x,y,z
-x,y,-z
-x,-y,-z
x,-y,z
1/2+x,1/2+y,z
1/2-x,1/2+y,-z
1/2-x,1/2-y,-z
1/2+x,1/2-y,z
loop_
_atom_site_type_symbol
_atom_site_label
_atom_site_fract_x
_atom_site_fract_y
_atom_site_fract_z
Si Si1 0.113568 0.184124 0.253155
Si Si2 0.012914 0.186173 0.389047
Si Si3 0.302954 0.684403 0.475587
Si Si4 0.393893 0.313532 0.130927
Si Si5 0.802244 0.187016 0.271071
Si Si6 0.805846 0.316283 0.666904
Si Si7 0.529033 0.816837 0.773933
Si Si8 0.935052 0.814176 0.911944
O O1 0.066496 0.228478 0.334434
O O2 0.159122 0.265059 0.270712
O O3 0.101722 0.218449 0.152048
O O4 0.119341 0.000000 0.259517
O O5 0.000000 0.233949 0.500000
O O6 0.979943 0.254507 0.325424
O O7 0.009658 0.000000 0.385367
O O8 0.302198 0.500000 0.482381
O O9 0.250000 0.750000 0.500000
O O10 0.321729 0.727493 0.364113
O O11 0.324312 0.750957 0.558833
O O12 0.394572 0.500000 0.131213
O O13 0.340222 0.261971 0.176228
O O14 0.426102 0.254359 0.198024
O O15 0.415684 0.264296 0.021476
O O16 0.748123 0.240340 0.290013
O O17 0.800240 0.000000 0.268882
O O18 0.804223 0.500000 0.660609
O O19 0.483746 0.763553 0.857362
O O20 0.532017 0.000000 0.770949
O O21 0.942664 0.000000 0.909258
#
# Coordination Sequence:
#
# PCOD9180552 Si02
#       8
#     8   8   8   8   8   8   8   8
#     4   9  18  33  52  75  99 127 168 211 251 295
#     4   9  19  37  58  78 103 137 176 212 245 293
#     4   9  16  29  48  70  97 129 164 202 245 292
#     4  10  19  35  57  75  96 131 174 216 255 298
#     4   8  17  32  50  73  99 129 168 210 248 292
#     4  10  19  32  50  73 101 136 173 204 246 303
#     4  11  22  34  51  78 110 136 161 202 258 314
#     4   9  19  36  57  76  95 128 175 216 250 301
#
# _framework density 18.026216000000002
#
# number of rings (size 3 to 8) (size 9 to 14) (size 15 to 20)
#    0.000    2.625    0.000    3.750    0.000    5.250 
#    0.000    9.375    0.000    0.000    0.000    0.000 
#    0.000    0.000    0.000    0.000    0.000    0.000 
#
# Total GULP energy -178393.520049 kJ/mol
# GULP energy per Si atom -5574.797502 kJ/mol
# Density = 1.798519 g / cm^3
# Si number density = 18.026216 Si / 1000 Ang^3
#
#
#
# Elastic Constant Matrix: (Units=GPa)
#
#
# Indices 1 2 3 4 5 6 
#
# 1 85.4676 19.5289 44.5127 0.0000 11.1072 0.0000
# 2 19.5289 22.0163 21.5715 0.0000 2.6618 0.0000
# 3 44.5127 21.5715 119.0359 0.0000 -0.2376 0.0000
# 4 0.0000 0.0000 0.0000 12.9237 0.0000 4.3651
# 5 11.1072 2.6618 -0.2376 0.0000 13.6505 0.0000
# 6 0.0000 0.0000 0.0000 4.3651 0.0000 24.2077
#
#
#
# Elastic Compliance Matrix: (Units=1/GPa)
#
#
# Indices 1 2 3 4 5 6 
#
# 1 0.018256 -0.009604 -0.005112 0.000000 -0.013071 0.000000
# 2 -0.009604 0.061964 -0.007646 0.000000 -0.004401 0.000000
# 3 -0.005112 -0.007646 0.011710 0.000000 0.005855 0.000000
# 4 0.000000 0.000000 0.000000 0.082395 0.000000 -0.014857
# 5 -0.013071 -0.004401 0.005855 0.000000 0.084853 0.000000
# 6 0.000000 0.000000 0.000000 -0.014857 0.000000 0.043988
#
#
# Mechanical properties :
#
#
# Convention : Reuss Voigt Hill
#
# Bulk Modulus (GPa) = 21.18456 44.19400 32.68928
# Shear Modulus (GPa) = 13.75034 19.55015 16.65025
#
# Velocity S-wave (km/s) = 2.76487 3.29681 3.04249
# Velocity P-wave (km/s) = 4.68725 6.24993 5.52413
#
# Compressibility (1/GPa) = 0.04720419
#
# Stress axis : x y z
#
# Youngs Moduli (GPa) = 54.77615 16.13840 85.39755
#
# Poissons Ratio (x) = 0.15500 0.43659
# Poissons Ratio (y) = 0.52608 0.65298
# Poissons Ratio (z) = 0.28004 0.12340
#
# Static dielectric constant tensor:
#      x y z
#    x 1.603700 0.000000 -0.009100 
#    y 0.000000 1.608350 0.000000 
#    z -0.009100 0.000000 1.637030 
# 
# From -- ./inp_files/243795.got.cif
#   From: 2010.05.17/outbox.cif.g08.bks.cpg/sg12_122_cif.got.tgz:243795.got - 2010.06.03 13:09:07.
