data_PCOD9180809
_publ_section_title
;
Structure prediction by ZEFSAII (Michael W. Deem and Ramdas Pophale) SiO2 
 PCOD9180809
Probable space group: C 2/M
;
_chemical_formula_sum "Si O2"
_cell_formula_units_Z 56
_cell_length_a 20.478165
_cell_length_b 7.445991
_cell_length_c 16.566876
_cell_angle_alpha 90.000000
_cell_angle_beta 99.815035
_cell_angle_gamma 90.000000
_cell_volume 2489.146771
_symmetry_space_group_name_H-M "C 2/M"
_symmetry_group_IT_number 12
_symmetry_cell_setting 'monoclinic'
loop_
_space_group_symop_operation_xyz
x,y,z
-x,y,-z
-x,-y,-z
x,-y,z
1/2+x,1/2+y,z
1/2-x,1/2+y,-z
1/2-x,1/2-y,-z
1/2+x,1/2-y,z
loop_
_atom_site_type_symbol
_atom_site_label
_atom_site_fract_x
_atom_site_fract_y
_atom_site_fract_z
Si Si1 0.592873 0.287191 0.289280
Si Si2 0.499406 0.784812 0.408604
Si Si3 0.267709 0.708216 0.744269
Si Si4 0.886036 0.719523 0.092937
Si Si5 0.031741 0.294064 0.115241
Si Si6 0.672675 0.782628 0.078125
Si Si7 0.375594 0.779603 0.275962
O O1 0.593092 0.500000 0.274795
O O2 0.566030 0.253523 0.372602
O O3 0.665707 0.214119 0.281737
O O4 0.540857 0.208404 0.213951
O O5 0.500000 0.716084 0.500000
O O6 0.437186 0.718350 0.342572
O O7 0.492620 0.000000 0.411053
O O8 0.266924 0.500000 0.720589
O O9 0.276416 0.716530 0.843684
O O10 0.196015 0.781892 0.707044
O O11 0.886897 0.500000 0.093028
O O12 0.878972 0.778164 0.183321
O O13 0.959581 0.780005 0.080082
O O14 0.830405 0.773955 0.016141
O O15 0.031779 0.500000 0.088135
O O16 0.100642 0.218909 0.096685
O O17 0.675836 0.000000 0.081895
O O18 0.376082 0.000000 0.275330
#
# Coordination Sequence:
#
# PCOD9180809 Si02
#       7
#     8   8   8   8   8   8   8
#     4  10  19  32  51  75 103 134 165 197 246 302
#     4  10  20  36  60  84  99 119 161 211 252 294
#     4   9  19  34  50  69 101 143 173 194 237 302
#     4   9  15  25  46  72  97 129 172 214 251 286
#     4   9  15  27  47  70  98 131 172 212 247 287
#     4   9  17  27  44  72 101 131 171 216 249 280
#     4   9  17  32  53  74  98 131 169 206 246 298
#
# _framework density 22.497669999999999
#
# number of rings (size 3 to 8) (size 9 to 14) (size 15 to 20)
#    0.000    2.714    1.429    0.857    0.000    3.143 
#    0.000    2.143    0.000    3.429    0.000    0.000 
#    0.000    0.000    0.000    0.000    0.000    0.000 
#
# Total GULP energy -156292.504417 kJ/mol
# GULP energy per Si atom -5581.875158 kJ/mol
# Density = 2.244646 g / cm^3
# Si number density = 22.497670 Si / 1000 Ang^3
#
#
#
# Elastic Constant Matrix: (Units=GPa)
#
#
# Indices 1 2 3 4 5 6 
#
# 1 108.9863 -0.6462 44.4518 0.0000 13.7324 0.0000
# 2 -0.6462 72.7216 0.6215 0.0000 1.6030 0.0000
# 3 44.4518 0.6215 121.3301 0.0000 -13.9868 0.0000
# 4 0.0000 0.0000 0.0000 -8.5892 0.0000 5.0630
# 5 13.7324 1.6030 -13.9868 0.0000 18.0099 0.0000
# 6 0.0000 0.0000 0.0000 5.0630 0.0000 1.2025
#
#
#
# Elastic Compliance Matrix: (Units=1/GPa)
#
#
# Indices 1 2 3 4 5 6 
#
# 1 0.014103 0.000544 -0.007046 0.000000 -0.016274 0.000000
# 2 0.000544 0.013805 -0.000505 0.000000 -0.002036 0.000000
# 3 -0.007046 -0.000505 0.012576 0.000000 0.015184 0.000000
# 4 0.000000 0.000000 0.000000 -0.033436 0.000000 0.140787
# 5 -0.016274 -0.002036 0.015184 0.000000 0.079907 0.000000
# 6 0.000000 0.000000 0.000000 0.140787 0.000000 0.238839
#
#
# Mechanical properties :
#
#
# Convention : Reuss Voigt Hill
#
# Bulk Modulus (GPa) = 37.77598 43.54359 40.65979
# Shear Modulus (GPa) = 14.34181 19.36534 16.85358
#
# Velocity S-wave (km/s) = 2.52758 2.93707 2.73998
# Velocity P-wave (km/s) = 5.03445 5.55865 5.30303
#
# Compressibility (1/GPa) = 0.02647185
#
# Stress axis : x y z
#
# Youngs Moduli (GPa) = 70.90745 72.43698 79.51457
#
# Poissons Ratio (x) = -0.03942 0.56023
# Poissons Ratio (y) = -0.03859 0.04014
# Poissons Ratio (z) = 0.49959 0.03657
#
# Static dielectric constant tensor:
#      x y z
#    x 1.863970 0.000000 -0.027740 
#    y 0.000000 1.852150 0.000000 
#    z -0.027740 0.000000 1.822110 
# 
# From -- ./inp_files/280363.got.cif
#   From: 2010.05.17/outbox.cif.g08.bks.cpg/sg12_141_cif.got.tgz:280363.got - 2010.06.03 13:09:07.
