data_PCOD9180466
_publ_section_title
;
Structure prediction by ZEFSAII (Michael W. Deem and Ramdas Pophale) SiO2 
 PCOD9180466
Probable space group: C 2/M
;
_chemical_formula_sum "Si O2"
_cell_formula_units_Z 64
_cell_length_a 12.726212
_cell_length_b 14.531555
_cell_length_c 19.331209
_cell_angle_alpha 90.000000
_cell_angle_beta 90.589878
_cell_angle_gamma 90.000000
_cell_volume 3574.762910
_symmetry_space_group_name_H-M "C 2/M"
_symmetry_group_IT_number 12
_symmetry_cell_setting 'monoclinic'
loop_
_space_group_symop_operation_xyz
x,y,z
-x,y,-z
-x,-y,-z
x,-y,z
1/2+x,1/2+y,z
1/2-x,1/2+y,-z
1/2-x,1/2-y,-z
1/2+x,1/2-y,z
loop_
_atom_site_type_symbol
_atom_site_label
_atom_site_fract_x
_atom_site_fract_y
_atom_site_fract_z
Si Si1 0.261823 0.109279 0.550273
Si Si2 0.465157 0.866629 0.075342
Si Si3 0.401070 0.773158 0.447798
Si Si4 0.010971 0.152186 0.078377
Si Si5 0.271477 0.392292 0.951704
Si Si6 0.792289 0.893111 0.107851
Si Si7 0.961032 0.390810 0.653538
Si Si8 0.382934 0.896493 0.798546
O O1 0.321251 0.154877 0.484597
O O2 0.164273 0.178571 0.565176
O O3 0.351373 0.114063 0.610342
O O4 0.235742 0.000000 0.540776
O O5 0.485352 0.758627 0.074988
O O6 0.342010 0.881458 0.081401
O O7 0.533837 0.902514 0.138652
O O8 0.500000 0.901720 0.000000
O O9 0.500000 0.755048 0.500000
O O10 0.453371 0.826421 0.383411
O O11 0.133198 0.142931 0.094252
O O12 0.916674 0.110254 0.121680
O O13 0.000000 0.112961 0.000000
O O14 0.292249 0.500000 0.960331
O O15 0.272392 0.352056 0.030623
O O16 0.719413 0.851183 0.166780
O O17 0.759512 0.000000 0.103393
O O18 0.993091 0.500000 0.653731
O O19 0.936309 0.356254 0.730921
O O20 0.352450 0.000000 0.775518
#
# Coordination Sequence:
#
# PCOD9180466 Si02
#       8
#     8   8   8   8   8   8   8   8
#     4   9  17  31  54  83 112 143 176 211 252 298
#     4  11  21  31  50  71  98 126 166 220 275 319
#     4   9  17  31  54  83 113 140 173 213 252 300
#     4   9  20  31  47  67  94 118 154 206 265 320
#     4  10  19  32  50  69  91 122 160 207 265 323
#     4   9  17  31  50  68  91 121 162 209 258 314
#     4   9  18  34  52  73 104 142 181 216 254 306
#     4  10  20  33  50  73  99 132 174 218 263 313
#
# _framework density 17.903285
#
# number of rings (size 3 to 8) (size 9 to 14) (size 15 to 20)
#    0.000    2.500    1.250    1.125    1.750    5.250 
#    2.250    0.000    0.000    0.000    0.000    0.000 
#    0.000    0.000    0.000    0.000    0.000    0.000 
#
# Total GULP energy -178148.898219 kJ/mol
# GULP energy per Si atom -5567.153069 kJ/mol
# Density = 1.786254 g / cm^3
# Si number density = 17.903285 Si / 1000 Ang^3
#
#
#
# Elastic Constant Matrix: (Units=GPa)
#
#
# Indices 1 2 3 4 5 6 
#
# 1 110.0609 34.9030 37.8577 0.0000 -26.7566 0.0000
# 2 34.9030 98.7690 24.9806 0.0000 -10.1389 0.0000
# 3 37.8577 24.9806 89.1886 0.0000 -25.7591 0.0000
# 4 0.0000 0.0000 0.0000 13.0818 0.0000 -1.2178
# 5 -26.7566 -10.1389 -25.7591 0.0000 22.0921 0.0000
# 6 0.0000 0.0000 0.0000 -1.2178 0.0000 28.3131
#
#
#
# Elastic Compliance Matrix: (Units=1/GPa)
#
#
# Indices 1 2 3 4 5 6 
#
# 1 0.013888 -0.003220 -0.000847 0.000000 0.014355 0.000000
# 2 -0.003220 0.011713 -0.002243 0.000000 -0.001140 0.000000
# 3 -0.000847 -0.002243 0.017499 0.000000 0.018348 0.000000
# 4 0.000000 0.000000 0.000000 0.076750 0.000000 0.003301
# 5 0.014355 -0.001140 0.018348 0.000000 0.083522 0.000000
# 6 0.000000 0.000000 0.000000 0.003301 0.000000 0.035461
#
#
# Mechanical properties :
#
#
# Convention : Reuss Voigt Hill
#
# Bulk Modulus (GPa) = 32.80858 54.83348 43.82103
# Shear Modulus (GPa) = 19.11217 26.04922 22.58070
#
# Velocity S-wave (km/s) = 3.27084 3.81858 3.55527
# Velocity P-wave (km/s) = 5.71225 7.08069 6.43296
#
# Compressibility (1/GPa) = 0.03047984
#
# Stress axis : x y z
#
# Youngs Moduli (GPa) = 72.00340 85.37661 57.14476
#
# Poissons Ratio (x) = 0.27491 0.04842
# Poissons Ratio (y) = 0.23185 0.12818
# Poissons Ratio (z) = 0.06101 0.19150
#
# Static dielectric constant tensor:
#      x y z
#    x 1.657580 0.000000 -0.028560 
#    y 0.000000 1.647730 0.000000 
#    z -0.028560 0.000000 1.636530 
# 
# From -- ./inp_files/263360.got.cif
#   From: 2010.05.17/outbox.cif.g08.bks.cpg/sg12_132_cif.got.tgz:263360.got - 2010.06.03 13:09:07.
