data_PCOD9180419
_publ_section_title
;
Structure prediction by ZEFSAII (Michael W. Deem and Ramdas Pophale) SiO2 
 PCOD9180419
Probable space group: C 2/M
;
_chemical_formula_sum "Si O2"
_cell_formula_units_Z 56
_cell_length_a 13.542027
_cell_length_b 14.379745
_cell_length_c 16.321438
_cell_angle_alpha 90.000000
_cell_angle_beta 43.704060
_cell_angle_gamma 90.000000
_cell_volume 2195.986253
_symmetry_space_group_name_H-M "C 2/M"
_symmetry_group_IT_number 12
_symmetry_cell_setting 'monoclinic'
loop_
_space_group_symop_operation_xyz
x,y,z
-x,y,-z
-x,-y,-z
x,-y,z
1/2+x,1/2+y,z
1/2-x,1/2+y,-z
1/2-x,1/2-y,-z
1/2+x,1/2-y,z
loop_
_atom_site_type_symbol
_atom_site_label
_atom_site_fract_x
_atom_site_fract_y
_atom_site_fract_z
Si Si1 0.681113 0.608479 0.708712
Si Si2 0.566946 0.221554 0.371701
Si Si3 0.661441 0.397528 0.228375
Si Si4 0.381194 0.106182 0.248421
Si Si5 0.598270 0.399404 0.023204
Si Si6 0.114481 0.696889 0.007020
Si Si7 0.692101 0.889945 0.535199
O O1 0.729897 0.500000 0.688481
O O2 0.777449 0.676160 0.706616
O O3 0.518429 0.609339 0.834526
O O4 0.706841 0.638973 0.599948
O O5 0.500000 0.247913 0.500000
O O6 0.569870 0.308828 0.309474
O O7 0.464866 0.141692 0.398036
O O8 0.593152 0.500000 0.263378
O O9 0.772554 0.399579 0.238082
O O10 0.761224 0.374729 0.090885
O O11 0.295401 0.142410 0.378947
O O12 0.430480 0.000000 0.234466
O O13 0.516538 0.167126 0.141687
O O14 0.672542 0.500000 0.982321
O O15 0.500000 0.402010 0.000000
O O16 0.676982 0.301059 0.973566
O O17 0.000000 0.695993 0.000000
O O18 0.707257 0.000000 0.529082
#
# Coordination Sequence:
#
# PCOD9180419 Si02
#       7
#     8   8   8   8   8   8   8
#     4   9  16  28  47  71 100 132 164 199 244 299
#     4  10  19  32  49  72  99 133 171 205 245 294
#     4  10  20  34  53  74  97 131 173 211 246 290
#     4   9  17  31  52  77 100 126 166 212 252 291
#     4   9  16  26  44  71 100 127 157 199 248 294
#     4   9  16  29  49  72  97 125 163 208 250 294
#     4   9  18  32  51  76 104 132 164 205 252 297
#
# _framework density 25.501069999999999
#
# number of rings (size 3 to 8) (size 9 to 14) (size 15 to 20)
#    0.000    2.714    0.000    3.429    0.000    3.714 
#    0.000    7.857    0.000    0.857    0.000    0.000 
#    0.000    0.000    0.000    0.000    0.000    0.000 
#
# Total GULP energy -156711.833451 kJ/mol
# GULP energy per Si atom -5596.851195 kJ/mol
# Density = 2.544303 g / cm^3
# Si number density = 25.501070 Si / 1000 Ang^3
#
#
#
# Elastic Constant Matrix: (Units=GPa)
#
#
# Indices 1 2 3 4 5 6 
#
# 1 80.5414 17.9842 19.1966 0.0000 -5.6895 0.0000
# 2 17.9842 141.0841 11.8511 0.0000 -0.1429 0.0000
# 3 19.1966 11.8511 83.1897 0.0000 27.7933 0.0000
# 4 0.0000 0.0000 0.0000 34.9313 0.0000 0.0505
# 5 -5.6895 -0.1429 27.7933 0.0000 31.8551 0.0000
# 6 0.0000 0.0000 0.0000 0.0505 0.0000 22.2421
#
#
#
# Elastic Compliance Matrix: (Units=1/GPa)
#
#
# Indices 1 2 3 4 5 6 
#
# 1 0.014621 -0.001376 -0.005714 0.000000 0.007591 0.000000
# 2 -0.001376 0.007342 -0.000928 0.000000 0.000597 0.000000
# 3 -0.005714 -0.000928 0.019497 0.000000 -0.018036 0.000000
# 4 0.000000 0.000000 0.000000 0.028628 0.000000 -0.000065
# 5 0.007591 0.000597 -0.018036 0.000000 0.048487 0.000000
# 6 0.000000 0.000000 0.000000 -0.000065 0.000000 0.044960
#
#
# Mechanical properties :
#
#
# Convention : Reuss Voigt Hill
#
# Bulk Modulus (GPa) = 39.33161 44.76432 42.04796
# Shear Modulus (GPa) = 26.58938 34.85791 30.72365
#
# Velocity S-wave (km/s) = 3.23255 3.70120 3.47479
# Velocity P-wave (km/s) = 5.42121 5.98809 5.71169
#
# Compressibility (1/GPa) = 0.02542484
#
# Stress axis : x y z
#
# Youngs Moduli (GPa) = 68.39316 136.20416 51.28985
#
# Poissons Ratio (x) = 0.18744 0.29307
# Poissons Ratio (y) = 0.09412 0.04758
# Poissons Ratio (z) = 0.39079 0.12635
#
# Static dielectric constant tensor:
#      x y z
#    x 2.061060 0.000000 0.061460 
#    y 0.000000 2.004830 0.000000 
#    z 0.061460 0.000000 1.979860 
# 
# From -- ./inp_files/277818.got.cif
#   From: 2010.05.17/outbox.cif.g08.bks.cpg/sg12_139_cif.got.tgz:277818.got - 2010.06.03 13:09:07.
