data_PCOD9180106
_publ_section_title
;
Structure prediction by ZEFSAII (Michael W. Deem and Ramdas Pophale) SiO2 
 PCOD9180106
Probable space group: C 2/M
;
_chemical_formula_sum "Si O2"
_cell_formula_units_Z 40
_cell_length_a 20.114170
_cell_length_b 18.855781
_cell_length_c 13.268747
_cell_angle_alpha 90.000000
_cell_angle_beta 152.493833
_cell_angle_gamma 90.000000
_cell_volume 2324.191666
_symmetry_space_group_name_H-M "C 2/M"
_symmetry_group_IT_number 12
_symmetry_cell_setting 'monoclinic'
loop_
_space_group_symop_operation_xyz
x,y,z
-x,y,-z
-x,-y,-z
x,-y,z
1/2+x,1/2+y,z
1/2-x,1/2+y,-z
1/2-x,1/2-y,-z
1/2+x,1/2-y,z
loop_
_atom_site_type_symbol
_atom_site_label
_atom_site_fract_x
_atom_site_fract_y
_atom_site_fract_z
Si Si1 0.616955 0.702382 0.419495
Si Si2 0.951015 0.415944 0.220139
Si Si3 0.699169 0.672105 0.971332
Si Si4 0.630622 0.183689 0.604848
Si Si5 0.424125 0.827725 0.790600
O O1 0.472162 0.666125 0.264696
O O2 0.670075 0.756471 0.577845
O O3 0.572589 0.753224 0.266364
O O4 0.754126 0.655975 0.574797
O O5 0.952716 0.500000 0.225867
O O6 0.062219 0.381562 0.450826
O O7 0.998521 0.384537 0.176729
O O8 0.795369 0.383974 0.040196
O O9 0.750000 0.750000 0.000000
O O10 0.744760 0.665589 0.149733
O O11 0.500000 0.210759 0.500000
O O12 0.500000 0.822818 0.000000
#
# Coordination Sequence:
#
# PCOD9180106 Si02
#       5
#     8   8   8   8   8
#     4  10  19  31  53  86 108 131 180 231 273 313
#     4  10  22  38  53  77 112 151 185 214 268 333
#     4  11  18  33  56  86 109 135 178 233 272 316
#     4   9  17  30  54  80 109 138 172 222 278 317
#     4  10  20  34  54  77 108 149 178 222 268 321
#
# _framework density 17.210284000000001
#
# number of rings (size 3 to 8) (size 9 to 14) (size 15 to 20)
#    0.000    2.000    6.000    1.200    0.000    4.000 
#    0.000    1.000    0.000    2.400    0.000    0.000 
#    0.000    0.000    0.000    0.000    0.000    0.000 
#
# Total GULP energy -111505.030171 kJ/mol
# GULP energy per Si atom -5575.251509 kJ/mol
# Density = 1.717111 g / cm^3
# Si number density = 17.210284 Si / 1000 Ang^3
#
#
#
# Elastic Constant Matrix: (Units=GPa)
#
#
# Indices 1 2 3 4 5 6 
#
# 1 117.5665 46.2560 55.2884 0.0000 -0.8841 0.0000
# 2 46.2560 65.8026 37.7271 0.0000 3.8385 0.0000
# 3 55.2884 37.7271 75.3437 0.0000 14.7629 0.0000
# 4 0.0000 0.0000 0.0000 11.3706 0.0000 5.9893
# 5 -0.8841 3.8385 14.7629 0.0000 39.6499 0.0000
# 6 0.0000 0.0000 0.0000 5.9893 0.0000 11.1907
#
#
#
# Elastic Compliance Matrix: (Units=1/GPa)
#
#
# Indices 1 2 3 4 5 6 
#
# 1 0.014986 -0.005612 -0.009017 0.000000 0.004235 0.000000
# 2 -0.005612 0.023576 -0.007783 0.000000 0.000490 0.000000
# 3 -0.009017 -0.007783 0.025541 0.000000 -0.008957 0.000000
# 4 0.000000 0.000000 0.000000 0.122471 0.000000 -0.065546
# 5 0.004235 0.000490 -0.008957 0.000000 0.028603 0.000000
# 6 0.000000 0.000000 0.000000 -0.065546 0.000000 0.124440
#
#
# Mechanical properties :
#
#
# Convention : Reuss Voigt Hill
#
# Bulk Modulus (GPa) = 51.86770 59.69507 55.78138
# Shear Modulus (GPa) = 12.79209 20.40501 16.59855
#
# Velocity S-wave (km/s) = 2.72928 3.44703 3.10894
# Velocity P-wave (km/s) = 6.33522 7.11363 6.73568
#
# Compressibility (1/GPa) = 0.01927982
#
# Stress axis : x y z
#
# Youngs Moduli (GPa) = 66.72954 42.41687 39.15217
#
# Poissons Ratio (x) = 0.23804 0.35302
# Poissons Ratio (y) = 0.37447 0.30472
# Poissons Ratio (z) = 0.60167 0.33013
#
# Static dielectric constant tensor:
#      x y z
#    x 1.615750 0.000000 0.001420 
#    y 0.000000 1.541540 0.000000 
#    z 0.001420 0.000000 1.622960 
# 
# From -- ./inp_files/159667.got.cif
#   From: 2010.05.17/outbox.cif.g08.bks.cpg/sg12_80_cif.got.tgz:159667.got - 2010.06.03 13:09:07.
