data_PCOD9180016
_publ_section_title
;
Structure prediction by ZEFSAII (Michael W. Deem and Ramdas Pophale) SiO2 
 PCOD9180016
Probable space group: C 2/M
;
_chemical_formula_sum "Si O2"
_cell_formula_units_Z 56
_cell_length_a 19.613464
_cell_length_b 8.581293
_cell_length_c 26.194435
_cell_angle_alpha 90.000000
_cell_angle_beta 147.170379
_cell_angle_gamma 90.000000
_cell_volume 2390.174898
_symmetry_space_group_name_H-M "C 2/M"
_symmetry_group_IT_number 12
_symmetry_cell_setting 'monoclinic'
loop_
_space_group_symop_operation_xyz
x,y,z
-x,y,-z
-x,-y,-z
x,-y,z
1/2+x,1/2+y,z
1/2-x,1/2+y,-z
1/2-x,1/2-y,-z
1/2+x,1/2-y,z
loop_
_atom_site_type_symbol
_atom_site_label
_atom_site_fract_x
_atom_site_fract_y
_atom_site_fract_z
Si Si1 0.009203 0.500000 0.937383
Si Si2 0.927071 0.314922 0.399927
Si Si3 0.784554 0.328441 0.158223
Si Si4 0.169306 0.685955 0.496779
Si Si5 0.948635 0.166055 0.058641
Si Si6 0.083618 0.317127 0.867846
Si Si7 0.210798 0.314510 0.324325
Si Si8 0.269347 0.000000 0.857111
O O1 0.981465 0.329302 0.897807
O O2 0.899589 0.500000 0.909905
O O3 0.161768 0.500000 0.043465
O O4 0.908480 0.500000 0.382749
O O5 0.793168 0.236812 0.327130
O O6 0.000000 0.289637 0.500000
O O7 0.023959 0.261778 0.416431
O O8 0.813167 0.500000 0.199205
O O9 0.861373 0.311258 0.154148
O O10 0.798985 0.163539 0.195313
O O11 0.640089 0.334530 0.047036
O O12 0.164880 0.500000 0.488822
O O13 0.250000 0.750000 0.500000
O O14 0.237954 0.732091 0.592477
O O15 0.868900 0.191489 0.060528
O O16 0.015721 0.000000 0.102597
O O17 0.095758 0.500000 0.891444
O O18 0.935964 0.277285 0.769946
O O19 0.224569 0.500000 0.338668
#
# Coordination Sequence:
#
# PCOD9180016 Si02
#       8
#     4   8   8   8   8   8   8   4
#     4   9  18  34  50  74 108 128 177 236 265 322
#     4   8  16  32  52  76 105 135 167 209 255 303
#     4   9  19  33  50  78 107 138 185 231 272 323
#     4  10  20  35  57  82 109 139 174 218 261 312
#     4  10  19  31  53  78 102 142 184 226 280 323
#     4  10  20  34  51  74 112 140 169 228 277 316
#     4  10  20  33  54  81 109 142 175 215 268 319
#     4   9  18  32  54  74  98 144 175 219 282 325
#
# _framework density 23.429248000000001
#
# number of rings (size 3 to 8) (size 9 to 14) (size 15 to 20)
#    0.000    2.571    0.714    2.143    1.000    4.857 
#    0.000    2.857    3.143    0.000    0.000    0.000 
#    0.000    0.000    0.000    0.000    0.000    0.000 
#
# Total GULP energy -155967.623843 kJ/mol
# GULP energy per Si atom -5570.272280 kJ/mol
# Density = 2.337592 g / cm^3
# Si number density = 23.429248 Si / 1000 Ang^3
#
#
#
# Elastic Constant Matrix: (Units=GPa)
#
#
# Indices 1 2 3 4 5 6 
#
# 1 106.5419 33.3604 17.2855 0.0000 27.0410 0.0000
# 2 33.3604 152.5299 3.6318 0.0000 16.4625 0.0000
# 3 17.2855 3.6318 49.3205 0.0000 10.4576 0.0000
# 4 0.0000 0.0000 0.0000 -1.2734 0.0000 11.3902
# 5 27.0410 16.4625 10.4576 0.0000 14.2870 0.0000
# 6 0.0000 0.0000 0.0000 11.3902 0.0000 24.9508
#
#
#
# Elastic Compliance Matrix: (Units=1/GPa)
#
#
# Indices 1 2 3 4 5 6 
#
# 1 0.018120 -0.000233 0.001043 0.000000 -0.034790 0.000000
# 2 -0.000233 0.007587 0.001519 0.000000 -0.009413 0.000000
# 3 0.001043 0.001519 0.024370 0.000000 -0.021563 0.000000
# 4 0.000000 0.000000 0.000000 -0.154486 0.000000 0.070524
# 5 -0.034790 -0.009413 -0.021563 0.000000 0.162470 0.000000
# 6 0.000000 0.000000 0.000000 0.070524 0.000000 0.007884
#
#
# Mechanical properties :
#
#
# Convention : Reuss Voigt Hill
#
# Bulk Modulus (GPa) = 18.26986 46.32752 32.29869
# Shear Modulus (GPa) = 62.86827 24.53387 43.70107
#
# Velocity S-wave (km/s) = 5.18570 3.23948 4.32352
# Velocity P-wave (km/s) = 6.60834 5.81451 6.22409
#
# Compressibility (1/GPa) = 0.05473496
#
# Stress axis : x y z
#
# Youngs Moduli (GPa) = 55.18898 131.80777 41.03390
#
# Poissons Ratio (x) = 0.03071 -0.04281
# Poissons Ratio (y) = 0.01286 -0.06232
# Poissons Ratio (z) = -0.05758 -0.20019
#
# Static dielectric constant tensor:
#      x y z
#    x 3.811650 0.000000 -1.122170 
#    y 0.000000 1.880660 0.000000 
#    z -1.122170 0.000000 2.619850 
# 
# From -- ./inp_files/380872.got.cif
#   From: 2010.05.17/outbox.cif.g08.bks.cpg/sg12_191_cif.got.tgz:380872.got - 2010.06.03 13:09:07.
