data_PCOD9180965
_publ_section_title
;
Structure prediction by ZEFSAII (Michael W. Deem and Ramdas Pophale) SiO2 
 PCOD9180965
Probable space group: C 2/M
;
_chemical_formula_sum "Si O2"
_cell_formula_units_Z 56
_cell_length_a 31.753772
_cell_length_b 8.497505
_cell_length_c 19.173305
_cell_angle_alpha 90.000000
_cell_angle_beta 38.023840
_cell_angle_gamma 90.000000
_cell_volume 3186.815362
_symmetry_space_group_name_H-M "C 2/M"
_symmetry_group_IT_number 12
_symmetry_cell_setting 'monoclinic'
loop_
_space_group_symop_operation_xyz
x,y,z
-x,y,-z
-x,-y,-z
x,-y,z
1/2+x,1/2+y,z
1/2-x,1/2+y,-z
1/2-x,1/2-y,-z
1/2+x,1/2-y,z
loop_
_atom_site_type_symbol
_atom_site_label
_atom_site_fract_x
_atom_site_fract_y
_atom_site_fract_z
Si Si1 0.909784 0.809074 0.843494
Si Si2 0.805067 0.187232 0.250784
Si Si3 0.204927 0.810909 0.493814
Si Si4 0.300514 0.810568 0.099944
Si Si5 0.449699 0.689620 0.278127
Si Si6 0.445946 0.188653 0.129360
Si Si7 0.804715 0.810515 0.872343
O O1 0.876702 0.760291 0.812299
O O2 0.987316 0.757074 0.755924
O O3 0.907849 0.000000 0.849350
O O4 0.860700 0.746384 0.969439
O O5 0.739976 0.253235 0.377216
O O6 0.807453 0.241420 0.167679
O O7 0.871610 0.252825 0.203518
O O8 0.805489 0.000000 0.254348
O O9 0.250000 0.750000 0.500000
O O10 0.126465 0.755291 0.602923
O O11 0.205764 0.000000 0.494893
O O12 0.228149 0.761508 0.158365
O O13 0.303423 0.000000 0.100075
O O14 0.448309 0.500000 0.281923
O O15 0.464505 0.742639 0.180107
O O16 0.445854 0.000000 0.133452
O O17 0.500000 0.238029 0.000000
O O18 0.804395 0.000000 0.872289
O O19 0.750000 0.750000 0.000000
#
# Coordination Sequence:
#
# PCOD9180965 Si02
#       7
#     8   8   8   8   8   8   8
#     4   9  17  32  53  80 110 140 171 208 255 314
#     4  12  24  37  54  75 101 138 178 219 262 308
#     4  11  22  38  57  77 100 134 178 222 262 309
#     4  10  19  32  51  79 110 140 173 213 258 309
#     4  10  21  35  54  77 103 135 172 212 257 309
#     4  11  23  36  52  76 106 137 168 208 259 313
#     4   8  15  28  49  75 106 139 171 206 251 305
#
# _framework density 17.572403000000001
#
# number of rings (size 3 to 8) (size 9 to 14) (size 15 to 20)
#    0.000    1.857    1.429    3.429    0.000    5.143 
#    0.000    0.000    0.000    0.857    0.000    6.000 
#    0.000    0.000    0.000    0.000    0.000    0.000 
#
# Total GULP energy -156199.919483 kJ/mol
# GULP energy per Si atom -5578.568553 kJ/mol
# Density = 1.753241 g / cm^3
# Si number density = 17.572403 Si / 1000 Ang^3
#
#
#
# Elastic Constant Matrix: (Units=GPa)
#
#
# Indices 1 2 3 4 5 6 
#
# 1 97.8518 -10.6586 7.4588 0.0002 -34.1857 -0.0018
# 2 -10.6586 -46.1959 6.8217 -0.0037 -9.6916 -0.0010
# 3 7.4588 6.8217 59.2659 0.0032 -27.5871 -0.0041
# 4 0.0002 -0.0037 0.0032 21.5211 -0.0022 2.4674
# 5 -34.1857 -9.6916 -27.5871 -0.0022 27.1166 0.0008
# 6 -0.0018 -0.0010 -0.0041 2.4674 0.0008 20.3579
#
#
#
# Elastic Compliance Matrix: (Units=1/GPa)
#
#
# Indices 1 2 3 4 5 6 
#
# 1 0.022786 -0.011648 0.018818 -0.000001 0.043708 0.000004
# 2 -0.011648 -0.014063 -0.011569 -0.000004 -0.031481 -0.000002
# 3 0.018818 -0.011569 0.047403 -0.000003 0.067814 0.000008
# 4 -0.000001 -0.000004 -0.000003 0.047121 -0.000002 -0.005711
# 5 0.043708 -0.031481 0.067814 -0.000002 0.149720 0.000010
# 6 0.000004 -0.000002 0.000008 -0.005711 0.000010 0.049813
#
#
# Mechanical properties :
#
#
# Convention : Reuss Voigt Hill
#
# Bulk Modulus (GPa) = 21.12917 13.12950 17.12934
# Shear Modulus (GPa) = 15.27402 20.95245 18.11324
#
# Velocity S-wave (km/s) = 2.95143 3.45679 3.21406
# Velocity P-wave (km/s) = 4.86464 4.83946 4.85207
#
# Compressibility (1/GPa) = 0.04732793
#
# Stress axis : x y z
#
# Youngs Moduli (GPa) = 43.88600 -71.10717 21.09587
#
# Poissons Ratio (x) = -0.82827 -0.39699
# Poissons Ratio (y) = 0.51119 0.24406
# Poissons Ratio (z) = -0.82586 -0.82264
#
# Static dielectric constant tensor:
#      x y z
#    x 1.628170 0.000000 -0.029860 
#    y 0.000000 1.597990 0.000000 
#    z -0.029860 0.000000 1.573590 
# 
# From -- ./inp_files/287912.got.cif
#   From: 2010.05.17/outbox.cif.g08.bks.cpg/sg12_144_cif.got.tgz:287912.got - 2010.06.03 13:09:07.
