data_PCOD9180993
_publ_section_title
;
Structure prediction by ZEFSAII (Michael W. Deem and Ramdas Pophale) SiO2 
 PCOD9180993
Probable space group: C 2/M
;
_chemical_formula_sum "Si O2"
_cell_formula_units_Z 64
_cell_length_a 12.153974
_cell_length_b 20.240755
_cell_length_c 21.006702
_cell_angle_alpha 90.000000
_cell_angle_beta 39.217798
_cell_angle_gamma 90.000000
_cell_volume 3267.423730
_symmetry_space_group_name_H-M "C 2/M"
_symmetry_group_IT_number 12
_symmetry_cell_setting 'monoclinic'
loop_
_space_group_symop_operation_xyz
x,y,z
-x,y,-z
-x,-y,-z
x,-y,z
1/2+x,1/2+y,z
1/2-x,1/2+y,-z
1/2-x,1/2-y,-z
1/2+x,1/2-y,z
loop_
_atom_site_type_symbol
_atom_site_label
_atom_site_fract_x
_atom_site_fract_y
_atom_site_fract_z
Si Si1 0.881065 0.338006 0.791211
Si Si2 0.233264 0.192531 0.199204
Si Si3 0.876876 0.425178 0.616419
Si Si4 0.426363 0.214438 0.898434
Si Si5 0.521973 0.651162 0.794257
Si Si6 0.628936 0.158353 0.577221
Si Si7 0.996479 0.797069 0.424674
Si Si8 0.433647 0.578528 0.099272
O O1 0.794229 0.268597 0.809965
O O2 0.883023 0.340545 0.865834
O O3 0.763406 0.394717 0.813540
O O4 0.072975 0.333319 0.675608
O O5 0.441229 0.185171 0.109481
O O6 0.120624 0.151048 0.198342
O O7 0.152870 0.184502 0.306477
O O8 0.812492 0.500000 0.654355
O O9 0.710138 0.376682 0.688264
O O10 0.000000 0.421779 0.500000
O O11 0.018149 0.403394 0.604781
O O12 0.529526 0.273048 0.814748
O O13 0.250000 0.250000 0.000000
O O14 0.477658 0.610343 0.878347
O O15 0.833188 0.157599 0.477332
O O16 0.556161 0.221966 0.571310
O O17 0.000000 0.800331 0.500000
O O18 0.444707 0.500000 0.097568
O O19 0.500000 0.600903 0.000000
#
# Coordination Sequence:
#
# PCOD9180993 Si02
#       8
#     8   8   8   8   8   8   8   8
#     4  10  20  33  55  83 118 153 204 249 304 367
#     4  10  21  35  55  87 120 162 199 249 311 382
#     4  11  22  36  57  86 119 161 211 257 302 364
#     4  11  22  37  59  86 124 159 201 258 321 390
#     4  11  21  38  59  86 127 160 205 260 320 374
#     4  10  19  32  51  82 115 159 199 249 304 366
#     4  10  19  33  54  81 122 161 202 246 309 376
#     4  11  22  38  61  87 117 159 210 260 309 366
#
# _framework density 19.587295999999998
#
# number of rings (size 3 to 8) (size 9 to 14) (size 15 to 20)
#    0.000    1.500    2.500    3.750    0.000    5.500 
#    0.000    0.000    0.000    1.875    0.000    5.250 
#    0.000    0.000    0.000    0.000    0.000    0.000 
#
# Total GULP energy -178365.876718 kJ/mol
# GULP energy per Si atom -5573.933647 kJ/mol
# Density = 1.954271 g / cm^3
# Si number density = 19.587296 Si / 1000 Ang^3
#
#
#
# Elastic Constant Matrix: (Units=GPa)
#
#
# Indices 1 2 3 4 5 6 
#
# 1 127.0739 20.9804 55.6401 -0.0010 2.8342 0.0007
# 2 20.9804 32.9399 12.8179 -0.0023 -0.8938 0.0014
# 3 55.6401 12.8179 95.0511 -0.0115 -0.4846 0.0043
# 4 -0.0010 -0.0023 -0.0115 20.4538 0.0029 -1.1408
# 5 2.8342 -0.8938 -0.4846 0.0029 36.5881 -0.0008
# 6 0.0007 0.0014 0.0043 -1.1408 -0.0008 20.2114
#
#
#
# Elastic Compliance Matrix: (Units=1/GPa)
#
#
# Indices 1 2 3 4 5 6 
#
# 1 0.011318 -0.004916 -0.005968 -0.000003 -0.001076 0.000001
# 2 -0.004916 0.034194 -0.001728 0.000002 0.001193 -0.000002
# 3 -0.005968 -0.001728 0.014250 0.000007 0.000609 -0.000002
# 4 -0.000003 0.000002 0.000007 0.049045 -0.000003 0.002768
# 5 -0.001076 0.001193 0.000609 -0.000003 0.027452 0.000001
# 6 0.000001 -0.000002 -0.000002 0.002768 0.000001 0.049633
#
#
# Mechanical properties :
#
#
# Convention : Reuss Voigt Hill
#
# Bulk Modulus (GPa) = 28.95203 48.21576 38.58389
# Shear Modulus (GPa) = 22.45898 26.49241 24.47569
#
# Velocity S-wave (km/s) = 3.38984 3.68167 3.53876
# Velocity P-wave (km/s) = 5.48948 6.53775 6.03641
#
# Compressibility (1/GPa) = 0.03453989
#
# Stress axis : x y z
#
# Youngs Moduli (GPa) = 88.35391 29.24491 70.17470
#
# Poissons Ratio (x) = 0.14376 0.41879
# Poissons Ratio (y) = 0.43433 0.12123
# Poissons Ratio (z) = 0.52729 0.05052
#
# Static dielectric constant tensor:
#      x y z
#    x 1.766280 0.000000 0.035030 
#    y 0.000000 1.660420 0.000000 
#    z 0.035030 0.000000 1.829010 
# 
# From -- ./inp_files/306780.got.cif
#   From: 2010.05.17/outbox.cif.g08.bks.cpg/sg12_154_cif.got.tgz:306780.got - 2010.06.03 13:09:07.
