data_PCOD9180626
_publ_section_title
;
Structure prediction by ZEFSAII (Michael W. Deem and Ramdas Pophale) SiO2 
 PCOD9180626
Probable space group: C 2/M
;
_chemical_formula_sum "Si O2"
_cell_formula_units_Z 56
_cell_length_a 19.168733
_cell_length_b 9.083921
_cell_length_c 20.879113
_cell_angle_alpha 90.000000
_cell_angle_beta 57.936764
_cell_angle_gamma 90.000000
_cell_volume 3081.054669
_symmetry_space_group_name_H-M "C 2/M"
_symmetry_group_IT_number 12
_symmetry_cell_setting 'monoclinic'
loop_
_space_group_symop_operation_xyz
x,y,z
-x,y,-z
-x,-y,-z
x,-y,z
1/2+x,1/2+y,z
1/2-x,1/2+y,-z
1/2-x,1/2-y,-z
1/2+x,1/2-y,z
loop_
_atom_site_type_symbol
_atom_site_label
_atom_site_fract_x
_atom_site_fract_y
_atom_site_fract_z
Si Si1 0.786359 0.828809 0.288712
Si Si2 0.546178 0.825505 0.815609
Si Si3 0.511468 0.174366 0.681468
Si Si4 0.876800 0.672779 0.960613
Si Si5 0.742610 0.828379 0.104803
Si Si6 0.340451 0.325037 0.734744
Si Si7 0.819458 0.172583 0.424122
O O1 0.870585 0.765865 0.217109
O O2 0.710217 0.734668 0.300886
O O3 0.796090 0.816451 0.360412
O O4 0.775631 0.000000 0.277253
O O5 0.517015 0.805243 0.756010
O O6 0.470126 0.784303 0.898296
O O7 0.562921 0.000000 0.815720
O O8 0.430017 0.252469 0.695889
O O9 0.593167 0.246060 0.612162
O O10 0.508579 0.000000 0.670865
O O11 0.875670 0.500000 0.979576
O O12 0.829122 0.769439 0.035684
O O13 0.823224 0.684719 0.921295
O O14 0.710311 0.732022 0.178940
O O15 0.746671 0.000000 0.120733
O O16 0.346303 0.500000 0.731972
O O17 0.750000 0.250000 0.500000
O O18 0.826621 0.000000 0.436679
#
# Coordination Sequence:
#
# PCOD9180626 Si02
#       7
#     8   8   8   8   8   8   8
#     4  10  22  38  57  82 113 146 183 225 274 328
#     4   9  17  33  55  79 108 143 185 229 277 329
#     4  10  19  35  59  85 113 147 184 227 273 325
#     4   9  17  31  50  77 108 142 185 232 280 329
#     4  10  19  32  50  76 109 146 185 232 283 328
#     4  12  23  36  55  81 113 149 188 230 278 330
#     4  10  21  39  63  91 117 146 181 221 268 325
#
# _framework density 18.175594
#
# number of rings (size 3 to 8) (size 9 to 14) (size 15 to 20)
#    0.000    2.000    1.429    3.000    0.000    3.429 
#    0.000    1.429    0.000    8.571    0.000    0.000 
#    0.000    0.000    0.000    0.000    0.000    0.000 
#
# Total GULP energy -156388.100186 kJ/mol
# GULP energy per Si atom -5585.289292 kJ/mol
# Density = 1.813423 g / cm^3
# Si number density = 18.175594 Si / 1000 Ang^3
#
#
#
# Elastic Constant Matrix: (Units=GPa)
#
#
# Indices 1 2 3 4 5 6 
#
# 1 96.3100 81.2244 41.7714 0.0000 -25.0981 0.0002
# 2 81.2244 141.3029 49.5777 0.0000 -20.7057 0.0003
# 3 41.7714 49.5777 70.1711 0.0000 -37.1682 0.0000
# 4 0.0000 0.0000 0.0000 30.3155 0.0000 -6.6182
# 5 -25.0981 -20.7057 -37.1682 0.0000 28.4777 0.0000
# 6 0.0002 0.0003 0.0000 -6.6182 0.0000 33.6682
#
#
#
# Elastic Compliance Matrix: (Units=1/GPa)
#
#
# Indices 1 2 3 4 5 6 
#
# 1 0.023533 -0.012272 0.002985 0.000000 0.015713 0.000000
# 2 -0.012272 0.016131 -0.011688 0.000000 -0.014343 0.000000
# 3 0.002985 -0.011688 0.057096 0.000000 0.068651 0.000000
# 4 0.000000 0.000000 0.000000 0.034465 0.000000 0.006775
# 5 0.015713 -0.014343 0.068651 0.000000 0.128136 0.000000
# 6 0.000000 0.000000 0.000000 0.006775 0.000000 0.031033
#
#
# Mechanical properties :
#
#
# Convention : Reuss Voigt Hill
#
# Bulk Modulus (GPa) = 18.24575 72.54790 45.39683
# Shear Modulus (GPa) = 14.26061 27.50632 20.88346
#
# Velocity S-wave (km/s) = 2.80411 3.89442 3.39334
# Velocity P-wave (km/s) = 4.53260 7.76039 6.35485
#
# Compressibility (1/GPa) = 0.05480728
#
# Stress axis : x y z
#
# Youngs Moduli (GPa) = 42.49270 61.99350 17.51450
#
# Poissons Ratio (x) = 0.76080 -0.05227
# Poissons Ratio (y) = 0.52148 0.20472
# Poissons Ratio (z) = -0.12682 0.72461
#
# Static dielectric constant tensor:
#      x y z
#    x 1.616810 0.000000 0.012630 
#    y 0.000000 1.602950 0.000000 
#    z 0.012630 0.000000 1.608100 
# 
# From -- ./inp_files/275209.got.cif
#   From: 2010.05.17/outbox.cif.g08.bks.cpg/sg12_138_cif.got.tgz:275209.got - 2010.06.03 13:09:07.
