data_PCOD9180274
_publ_section_title
;
Structure prediction by ZEFSAII (Michael W. Deem and Ramdas Pophale) SiO2 
 PCOD9180274
Probable space group: C 2/M
;
_chemical_formula_sum "Si O2"
_cell_formula_units_Z 56
_cell_length_a 12.286194
_cell_length_b 29.260996
_cell_length_c 8.549993
_cell_angle_alpha 90.000000
_cell_angle_beta 51.773008
_cell_angle_gamma 90.000000
_cell_volume 2414.652397
_symmetry_space_group_name_H-M "C 2/M"
_symmetry_group_IT_number 12
_symmetry_cell_setting 'monoclinic'
loop_
_space_group_symop_operation_xyz
x,y,z
-x,y,-z
-x,-y,-z
x,-y,z
1/2+x,1/2+y,z
1/2-x,1/2+y,-z
1/2-x,1/2-y,-z
1/2+x,1/2-y,z
loop_
_atom_site_type_symbol
_atom_site_label
_atom_site_fract_x
_atom_site_fract_y
_atom_site_fract_z
Si Si1 0.759444 0.098272 0.522144
Si Si2 0.307827 0.715853 0.277995
Si Si3 0.357166 0.577722 0.085681
Si Si4 0.645069 0.000000 0.597746
Si Si5 0.832487 0.500000 0.805152
Si Si6 0.733364 0.196278 0.008301
Si Si7 0.017500 0.148658 0.269742
Si Si8 0.908436 0.310059 0.287796
O O1 0.784189 0.095491 0.310135
O O2 0.710464 0.047013 0.604745
O O3 0.654841 0.138920 0.662062
O O4 0.907123 0.116058 0.453570
O O5 0.287867 0.688527 0.136847
O O6 0.421063 0.688942 0.281961
O O7 0.159063 0.711779 0.495012
O O8 0.358257 0.768581 0.217708
O O9 0.251900 0.545738 0.086709
O O10 0.500000 0.551346 0.000000
O O11 0.417472 0.615517 0.917684
O O12 0.479422 0.000000 0.758065
O O13 0.661483 0.000000 0.392196
O O14 0.573025 0.183942 0.137061
O O15 0.750000 0.250000 0.000000
O O16 0.844824 0.173990 0.791651
#
# Coordination Sequence:
#
# PCOD9180274 Si02
#       8
#     8   8   8   4   4   8   8   8
#     4   9  18  33  48  64  95 134 170 208 258 300
#     4  10  20  37  49  72 105 140 176 207 246 306
#     4   9  16  27  45  63  91 130 169 203 252 307
#     4   9  18  30  42  64  94 128 169 213 253 306
#     4   9  17  26  38  66  97 121 163 219 248 299
#     4  12  22  32  52  76 104 137 171 213 256 297
#     4  10  19  32  47  68  96 135 172 203 245 310
#     4  10  21  34  53  72 102 142 175 210 251 305
#
# _framework density 23.191744
#
# number of rings (size 3 to 8) (size 9 to 14) (size 15 to 20)
#    0.000    2.143    1.429    4.500    2.000    1.714 
#    7.714    0.000    0.000    0.000    0.000    0.000 
#    0.000    5.714    0.000    0.357    0.000    0.071 
#
# Total GULP energy -156051.764043 kJ/mol
# GULP energy per Si atom -5573.277287 kJ/mol
# Density = 2.313896 g / cm^3
# Si number density = 23.191744 Si / 1000 Ang^3
#
#
#
# Elastic Constant Matrix: (Units=GPa)
#
#
# Indices 1 2 3 4 5 6 
#
# 1 84.2931 67.1344 49.5815 0.0000 -43.3731 0.0000
# 2 67.1344 193.4958 66.2482 0.0000 -43.5767 0.0000
# 3 49.5815 66.2482 95.9529 0.0000 -50.9993 0.0000
# 4 0.0000 0.0000 0.0000 432.2540 0.0000 163.9101
# 5 -43.3731 -43.5767 -50.9993 0.0000 51.3672 0.0000
# 6 0.0000 0.0000 0.0000 163.9101 0.0000 105.6505
#
#
#
# Elastic Compliance Matrix: (Units=1/GPa)
#
#
# Indices 1 2 3 4 5 6 
#
# 1 0.023988 -0.004476 -0.001181 0.000000 0.015285 0.000000
# 2 -0.004476 0.007738 -0.003280 0.000000 -0.000472 0.000000
# 3 -0.001181 -0.003280 0.023899 0.000000 0.019948 0.000000
# 4 0.000000 0.000000 0.000000 0.005619 0.000000 -0.008718
# 5 0.015285 -0.000472 0.019948 0.000000 0.051779 0.000000
# 6 0.000000 0.000000 0.000000 -0.008718 0.000000 0.022991
#
#
# Mechanical properties :
#
#
# Convention : Reuss Voigt Hill
#
# Bulk Modulus (GPa) = 26.48946 82.18555 54.33750
# Shear Modulus (GPa) = 30.03509 130.57286 80.30398
#
# Velocity S-wave (km/s) = 3.60262 7.51157 5.89078
# Velocity P-wave (km/s) = 5.36208 10.52359 8.35158
#
# Compressibility (1/GPa) = 0.03775087
#
# Stress axis : x y z
#
# Youngs Moduli (GPa) = 41.68782 129.23392 41.84223
#
# Poissons Ratio (x) = 0.57847 0.04940
# Poissons Ratio (y) = 0.18660 0.13726
# Poissons Ratio (z) = 0.04921 0.42394
#
# Static dielectric constant tensor:
#      x y z
#    x 0.188000 0.000000 0.044720 
#    y 0.000000 1.896380 0.000000 
#    z 0.044720 0.000000 1.947250 
# 
# From -- ./inp_files/150122.got.cif
#   From: 2010.05.17/outbox.cif.g08.bks.cpg/sg12_76_cif.got.tgz:150122.got - 2010.06.03 13:09:07.
