data_PCOD9180074
_publ_section_title
;
Structure prediction by ZEFSAII (Michael W. Deem and Ramdas Pophale) SiO2 
 PCOD9180074
Probable space group: C 2/M
;
_chemical_formula_sum "Si O2"
_cell_formula_units_Z 56
_cell_length_a 19.766738
_cell_length_b 9.014331
_cell_length_c 21.495502
_cell_angle_alpha 90.000000
_cell_angle_beta 124.792008
_cell_angle_gamma 90.000000
_cell_volume 3145.431810
_symmetry_space_group_name_H-M "C 2/M"
_symmetry_group_IT_number 12
_symmetry_cell_setting 'monoclinic'
loop_
_space_group_symop_operation_xyz
x,y,z
-x,y,-z
-x,-y,-z
x,-y,z
1/2+x,1/2+y,z
1/2-x,1/2+y,-z
1/2-x,1/2-y,-z
1/2+x,1/2-y,z
loop_
_atom_site_type_symbol
_atom_site_label
_atom_site_fract_x
_atom_site_fract_y
_atom_site_fract_z
Si Si1 0.578920 0.319496 0.501975
Si Si2 0.142029 0.823186 0.201528
Si Si3 0.261331 0.821997 0.638724
Si Si4 0.402272 0.328562 0.959812
Si Si5 0.338613 0.174666 0.047275
Si Si6 0.596139 0.678994 0.367877
Si Si7 0.021477 0.823841 0.805764
O O1 0.500000 0.267215 0.500000
O O2 0.576287 0.500000 0.501124
O O3 0.667114 0.276474 0.576946
O O4 0.578953 0.275034 0.429509
O O5 0.205830 0.735685 0.277751
O O6 0.141163 0.789112 0.128116
O O7 0.051185 0.793224 0.182302
O O8 0.155467 0.000000 0.216137
O O9 0.322901 0.753253 0.619454
O O10 0.266542 0.000000 0.638552
O O11 0.380750 0.500000 0.964764
O O12 0.500000 0.325706 0.000000
O O13 0.379737 0.221825 0.003792
O O14 0.397462 0.237286 0.132291
O O15 0.330933 0.000000 0.048909
O O16 0.250000 0.250000 0.000000
O O17 0.607512 0.500000 0.371849
O O18 0.519792 0.713596 0.282039
O O19 0.038062 0.000000 0.816324
#
# Coordination Sequence:
#
# PCOD9180074 Si02
#       7
#     8   8   8   8   8   8   8
#     4   9  18  34  54  78 109 143 179 220 268 322
#     4   9  18  34  58  83 111 145 178 220 275 333
#     4  10  19  31  53  83 112 138 178 231 267 310
#     4  10  19  37  62  83 109 146 186 226 274 329
#     4  12  25  39  56  80 113 150 188 231 276 327
#     4   9  18  34  58  80 103 143 184 218 268 328
#     4   9  17  34  56  80 107 142 186 225 271 327
#
# _framework density 17.803597
#
# number of rings (size 3 to 8) (size 9 to 14) (size 15 to 20)
#    0.000    2.286    1.429    3.000    0.000    3.143 
#    2.571    0.714    0.000    3.857    0.000    0.000 
#    0.000    0.000    0.000    0.000    0.000    0.000 
#
# Total GULP energy -156234.498278 kJ/mol
# GULP energy per Si atom -5579.803510 kJ/mol
# Density = 1.776307 g / cm^3
# Si number density = 17.803597 Si / 1000 Ang^3
#
#
#
# Elastic Constant Matrix: (Units=GPa)
#
#
# Indices 1 2 3 4 5 6 
#
# 1 84.7592 38.9334 74.6725 0.0000 19.5262 0.0000
# 2 38.9334 51.7199 54.3399 0.0000 16.8709 0.0000
# 3 74.6725 54.3399 144.8045 0.0000 18.3706 0.0000
# 4 0.0000 0.0000 0.0000 24.4366 0.0000 4.0191
# 5 19.5262 16.8709 18.3706 0.0000 25.1445 0.0000
# 6 0.0000 0.0000 0.0000 4.0191 0.0000 23.6764
#
#
#
# Elastic Compliance Matrix: (Units=1/GPa)
#
#
# Indices 1 2 3 4 5 6 
#
# 1 0.024846 -0.006003 -0.009504 0.000000 -0.008323 0.000000
# 2 -0.006003 0.038536 -0.009563 0.000000 -0.014207 0.000000
# 3 -0.009504 -0.009563 0.015039 0.000000 0.002809 0.000000
# 4 0.000000 0.000000 0.000000 0.042098 0.000000 -0.007146
# 5 -0.008323 -0.014207 0.002809 0.000000 0.053713 0.000000
# 6 0.000000 0.000000 0.000000 -0.007146 0.000000 0.043449
#
#
# Mechanical properties :
#
#
# Convention : Reuss Voigt Hill
#
# Bulk Modulus (GPa) = 35.35978 68.57505 51.96742
# Shear Modulus (GPa) = 18.03444 22.20737 20.12090
#
# Velocity S-wave (km/s) = 3.18617 3.53562 3.36543
# Velocity P-wave (km/s) = 5.78271 7.43429 6.65989
#
# Compressibility (1/GPa) = 0.02828072
#
# Stress axis : x y z
#
# Youngs Moduli (GPa) = 40.24834 25.94994 66.49369
#
# Poissons Ratio (x) = 0.15578 0.63194
# Poissons Ratio (y) = 0.24162 0.63588
# Poissons Ratio (z) = 0.38251 0.24816
#
# Static dielectric constant tensor:
#      x y z
#    x 1.601220 0.000000 -0.007540 
#    y 0.000000 1.596520 0.000000 
#    z -0.007540 0.000000 1.614710 
# 
# From -- ./inp_files/314367.got.cif
#   From: 2010.05.17/outbox.cif.g08.bks.cpg/sg12_158_cif.got.tgz:314367.got - 2010.06.03 13:09:07.
