data_PCOD9180211
_publ_section_title
;
Structure prediction by ZEFSAII (Michael W. Deem and Ramdas Pophale) SiO2 
 PCOD9180211
Probable space group: C 2/M
;
_chemical_formula_sum "Si O2"
_cell_formula_units_Z 40
_cell_length_a 8.304357
_cell_length_b 23.879492
_cell_length_c 8.937256
_cell_angle_alpha 90.000000
_cell_angle_beta 87.757762
_cell_angle_gamma 90.000000
_cell_volume 1770.935101
_symmetry_space_group_name_H-M "C 2/M"
_symmetry_group_IT_number 12
_symmetry_cell_setting 'monoclinic'
loop_
_space_group_symop_operation_xyz
x,y,z
-x,y,-z
-x,-y,-z
x,-y,z
1/2+x,1/2+y,z
1/2-x,1/2+y,-z
1/2-x,1/2-y,-z
1/2+x,1/2-y,z
loop_
_atom_site_type_symbol
_atom_site_label
_atom_site_fract_x
_atom_site_fract_y
_atom_site_fract_z
Si Si1 0.771323 0.263826 0.824433
Si Si2 0.525522 0.326298 0.321307
Si Si3 0.660037 0.938468 0.597711
Si Si4 0.356018 0.565743 0.297323
Si Si5 0.542928 0.875876 0.170040
O O1 0.617050 0.293309 0.758623
O O2 0.908403 0.311622 0.804517
O O3 0.818975 0.207850 0.735424
O O4 0.750000 0.250000 0.000000
O O5 0.500000 0.321613 0.500000
O O6 0.501293 0.390658 0.269487
O O7 0.500000 0.941606 0.500000
O O8 0.799060 0.926885 0.472596
O O9 0.606692 0.895141 0.723791
O O10 0.688019 0.000000 0.663065
O O11 0.388047 0.500000 0.271252
O O12 0.200387 0.586902 0.208959
O O13 0.500000 0.883736 0.000000
#
# Coordination Sequence:
#
# PCOD9180211 Si02
#       5
#     8   8   8   8   8
#     4  11  24  43  63  89 129 168 202 254 323 374
#     4  11  24  41  67  95 121 160 214 260 301 369
#     4   8  15  30  51  78 115 155 194 242 296 347
#     4   9  20  38  59  87 125 163 200 252 316 369
#     4  10  19  31  56  89 122 163 210 252 299 364
#
# _framework density 22.586939000000001
#
# number of rings (size 3 to 8) (size 9 to 14) (size 15 to 20)
#    0.000    2.200    0.000    4.200    0.000    9.200 
#    0.000    0.000    0.000   10.800    0.000    1.400 
#    0.000    0.800    0.000    0.000    0.000    0.000 
#
# Total GULP energy -111831.599621 kJ/mol
# GULP energy per Si atom -5591.579981 kJ/mol
# Density = 2.253553 g / cm^3
# Si number density = 22.586939 Si / 1000 Ang^3
#
#
#
# Elastic Constant Matrix: (Units=GPa)
#
#
# Indices 1 2 3 4 5 6 
#
# 1 48.2812 46.5923 -3.5217 0.0000 13.8191 0.0000
# 2 46.5923 184.3381 43.6291 0.0000 -3.7926 0.0000
# 3 -3.5217 43.6291 66.4205 0.0000 22.5375 0.0000
# 4 0.0000 0.0000 0.0000 30.6630 0.0000 -0.3781
# 5 13.8191 -3.7926 22.5375 0.0000 33.2040 0.0000
# 6 0.0000 0.0000 0.0000 -0.3781 0.0000 29.1884
#
#
#
# Elastic Compliance Matrix: (Units=1/GPa)
#
#
# Indices 1 2 3 4 5 6 
#
# 1 0.070968 -0.029871 0.044906 0.000000 -0.063428 0.000000
# 2 -0.029871 0.019608 -0.025259 0.000000 0.031816 0.000000
# 3 0.044906 -0.025259 0.053722 0.000000 -0.058039 0.000000
# 4 0.000000 0.000000 0.000000 0.032618 0.000000 0.000423
# 5 -0.063428 0.031816 -0.058039 0.000000 0.099543 0.000000
# 6 0.000000 0.000000 0.000000 0.000423 0.000000 0.034266
#
#
# Mechanical properties :
#
#
# Convention : Reuss Voigt Hill
#
# Bulk Modulus (GPa) = 8.07434 52.49326 30.28380
# Shear Modulus (GPa) = 13.42446 32.76709 23.09578
#
# Velocity S-wave (km/s) = 2.44057 3.81295 3.20117
# Velocity P-wave (km/s) = 3.39475 6.53267 5.20577
#
# Compressibility (1/GPa) = 0.12384916
#
# Stress axis : x y z
#
# Youngs Moduli (GPa) = 14.09093 51.00043 18.61445
#
# Poissons Ratio (x) = 1.52342 -0.83590
# Poissons Ratio (y) = 0.42091 0.47018
# Poissons Ratio (z) = -0.63277 1.28822
#
# Static dielectric constant tensor:
#      x y z
#    x 1.848180 0.000000 0.005930 
#    y 0.000000 1.856900 0.000000 
#    z 0.005930 0.000000 1.765220 
# 
# From -- ./inp_files/39319.got.cif
#   From: 2010.05.17/outbox.cif.g08.bks.cpg/sg12_20_cif.got.tgz:39319.got - 2010.06.03 13:09:07.
