data_PCOD9180926
_publ_section_title
;
Structure prediction by ZEFSAII (Michael W. Deem and Ramdas Pophale) SiO2 
 PCOD9180926
Probable space group: C 2/M
;
_chemical_formula_sum "Si O2"
_cell_formula_units_Z 56
_cell_length_a 32.219395
_cell_length_b 7.730287
_cell_length_c 12.305912
_cell_angle_alpha 90.000000
_cell_angle_beta 123.469386
_cell_angle_gamma 90.000000
_cell_volume 2556.741942
_symmetry_space_group_name_H-M "C 2/M"
_symmetry_group_IT_number 12
_symmetry_cell_setting 'monoclinic'
loop_
_space_group_symop_operation_xyz
x,y,z
-x,y,-z
-x,-y,-z
x,-y,z
1/2+x,1/2+y,z
1/2-x,1/2+y,-z
1/2-x,1/2-y,-z
1/2+x,1/2-y,z
loop_
_atom_site_type_symbol
_atom_site_label
_atom_site_fract_x
_atom_site_fract_y
_atom_site_fract_z
Si Si1 0.073282 0.206359 0.856812
Si Si2 0.242133 0.708314 0.862922
Si Si3 0.634452 0.208126 0.333687
Si Si4 0.521489 0.791307 0.146463
Si Si5 0.650081 0.206913 0.592594
Si Si6 0.443221 0.708886 0.405503
Si Si7 0.337099 0.291938 0.864602
O O1 0.078301 0.272664 0.741293
O O2 0.017735 0.239947 0.818599
O O3 0.080256 0.000000 0.862459
O O4 0.113575 0.274946 0.001370
O O5 0.241716 0.500000 0.855086
O O6 0.190695 0.775028 0.736659
O O7 0.288464 0.771547 0.857567
O O8 0.250000 0.750000 0.000000
O O9 0.577429 0.272428 0.243737
O O10 0.657201 0.272412 0.479929
O O11 0.661394 0.250313 0.260292
O O12 0.632399 0.000000 0.337280
O O13 0.523029 0.000000 0.145532
O O14 0.500000 0.729326 0.000000
O O15 0.594429 0.241435 0.553883
O O16 0.656076 0.000000 0.598118
O O17 0.500000 0.770458 0.500000
O O18 0.444895 0.500000 0.404730
O O19 0.337573 0.500000 0.873016
#
# Coordination Sequence:
#
# PCOD9180926 Si02
#       7
#     8   8   8   8   8   8   8
#     4  10  20  33  52  79 109 143 183 229 278 327
#     4  10  22  41  62  85 112 144 186 233 283 336
#     4  10  21  37  55  80 114 146 183 228 276 331
#     4  10  19  32  51  77 110 147 184 224 270 324
#     4  10  22  39  59  83 113 149 186 231 283 335
#     4  10  21  37  57  83 115 149 188 232 278 333
#     4  10  21  36  55  80 110 143 183 230 277 329
#
# _framework density 21.902875000000002
#
# number of rings (size 3 to 8) (size 9 to 14) (size 15 to 20)
#    0.000    2.000    1.429    1.714    0.000    5.143 
#    0.000    0.000    0.000    0.000    0.000    0.000 
#    0.000    0.000    0.000    0.000    0.000    0.000 
#
# Total GULP energy -156461.359748 kJ/mol
# GULP energy per Si atom -5587.905705 kJ/mol
# Density = 2.185302 g / cm^3
# Si number density = 21.902875 Si / 1000 Ang^3
#
#
#
# Elastic Constant Matrix: (Units=GPa)
#
#
# Indices 1 2 3 4 5 6 
#
# 1 146.1724 -3.0713 77.2280 0.0000 -13.8887 0.0000
# 2 -3.0713 31.2405 13.4422 0.0000 3.0387 0.0000
# 3 77.2280 13.4422 163.9097 0.0000 -16.8939 0.0000
# 4 0.0000 0.0000 0.0000 -2.6824 0.0000 46.1751
# 5 -13.8887 3.0387 -16.8939 0.0000 39.9642 0.0000
# 6 0.0000 0.0000 0.0000 46.1751 0.0000 -181.5989
#
#
#
# Elastic Compliance Matrix: (Units=1/GPa)
#
#
# Indices 1 2 3 4 5 6 
#
# 1 0.009407 0.002768 -0.004542 0.000000 0.001139 0.000000
# 2 0.002768 0.034569 -0.004508 0.000000 -0.003572 0.000000
# 3 -0.004542 -0.004508 0.008870 0.000000 0.002514 0.000000
# 4 0.000000 0.000000 0.000000 0.110393 0.000000 0.028070
# 5 0.001139 -0.003572 0.002514 0.000000 0.026752 0.000000
# 6 0.000000 0.000000 0.000000 0.028070 0.000000 0.001631
#
#
# Mechanical properties :
#
#
# Convention : Reuss Voigt Hill
#
# Bulk Modulus (GPa) = 24.82397 57.39115 41.10756
# Shear Modulus (GPa) = 22.97670 -11.94849 5.51411
#
# Velocity S-wave (km/s) = 3.24238 -2.33817 1.58839
# Velocity P-wave (km/s) = 5.03743 4.35546 4.70881
#
# Compressibility (1/GPa) = 0.04028365
#
# Stress axis : x y z
#
# Youngs Moduli (GPa) = 106.30018 28.92778 112.74344
#
# Poissons Ratio (x) = -0.08009 0.51208
# Poissons Ratio (y) = -0.29429 0.50819
# Poissons Ratio (z) = 0.48282 0.13039
#
# Static dielectric constant tensor:
#      x y z
#    x 1.763290 0.000000 0.008460 
#    y 0.000000 1.807310 0.000000 
#    z 0.008460 0.000000 1.821880 
# 
# From -- ./inp_files/180743.got.cif
#   From: 2010.05.17/outbox.cif.g08.bks.cpg/sg12_91_cif.got.tgz:180743.got - 2010.06.03 13:09:07.
