data_PCOD9180187
_publ_section_title
;
Structure prediction by ZEFSAII (Michael W. Deem and Ramdas Pophale) SiO2 
 PCOD9180187
Probable space group: C 2/M
;
_chemical_formula_sum "Si O2"
_cell_formula_units_Z 52
_cell_length_a 21.228537
_cell_length_b 22.342223
_cell_length_c 12.295474
_cell_angle_alpha 90.000000
_cell_angle_beta 150.198665
_cell_angle_gamma 90.000000
_cell_volume 2898.297926
_symmetry_space_group_name_H-M "C 2/M"
_symmetry_group_IT_number 12
_symmetry_cell_setting 'monoclinic'
loop_
_space_group_symop_operation_xyz
x,y,z
-x,y,-z
-x,-y,-z
x,-y,z
1/2+x,1/2+y,z
1/2-x,1/2+y,-z
1/2-x,1/2-y,-z
1/2+x,1/2-y,z
loop_
_atom_site_type_symbol
_atom_site_label
_atom_site_fract_x
_atom_site_fract_y
_atom_site_fract_z
Si Si1 0.829989 0.117463 0.803156
Si Si2 0.272268 0.500000 0.579714
Si Si3 0.484923 0.000000 0.231997
Si Si4 0.992531 0.696624 0.161716
Si Si5 0.676102 0.138033 0.260717
Si Si6 0.543014 0.878119 0.441662
Si Si7 0.569076 0.667273 0.253173
Si Si8 0.179533 0.500000 0.221633
O O1 0.823003 0.057595 0.719509
O O2 0.695748 0.123172 0.659829
O O3 0.860562 0.168188 0.759134
O O4 0.949796 0.122737 0.062007
O O5 0.296367 0.500000 0.486241
O O6 0.117284 0.500000 0.360311
O O7 0.494192 0.941338 0.320316
O O8 0.362983 0.000000 0.969914
O O9 0.102189 0.662758 0.255984
O O10 0.991879 0.671199 0.281499
O O11 0.019275 0.766659 0.201696
O O12 0.869316 0.677507 0.908897
O O13 0.824596 0.145727 0.504173
O O14 0.638687 0.068833 0.186650
O O15 0.500000 0.870079 0.500000
#
# Coordination Sequence:
#
# PCOD9180187 Si02
#       8
#     8   4   4   8   8   8   8   4
#     4  10  21  36  55  88 117 158 190 236 300 352
#     4  10  19  31  55  86 126 150 191 243 300 360
#     4  10  20  36  55  84 116 151 197 243 300 346
#     4  11  23  35  58  88 115 156 197 240 297 350
#     4  11  21  34  57  89 118 149 187 247 302 352
#     4  11  22  39  60  85 117 154 200 243 286 350
#     4  11  22  37  58  83 125 154 190 240 296 369
#     4  12  19  30  53  89 125 144 183 252 311 351
#
# _framework density 17.941565000000001
#
# number of rings (size 3 to 8) (size 9 to 14) (size 15 to 20)
#    0.000    1.231    4.615    3.692    4.308    1.846 
#    0.000    0.769    0.000    0.000    0.000    1.077 
#    0.000    0.000    0.000    0.000    0.000    0.000 
#
# Total GULP energy -144837.465411 kJ/mol
# GULP energy per Si atom -5570.671747 kJ/mol
# Density = 1.790073 g / cm^3
# Si number density = 17.941565 Si / 1000 Ang^3
#
#
#
# Elastic Constant Matrix: (Units=GPa)
#
#
# Indices 1 2 3 4 5 6 
#
# 1 98.4830 41.2679 59.5715 0.0000 -19.9036 0.0000
# 2 41.2679 105.7563 45.1843 0.0000 -12.2170 0.0000
# 3 59.5715 45.1843 163.4941 0.0000 -13.0254 0.0000
# 4 0.0000 0.0000 0.0000 17.0591 0.0000 5.3819
# 5 -19.9036 -12.2170 -13.0254 0.0000 21.3452 0.0000
# 6 0.0000 0.0000 0.0000 5.3819 0.0000 4.7260
#
#
#
# Elastic Compliance Matrix: (Units=1/GPa)
#
#
# Indices 1 2 3 4 5 6 
#
# 1 0.016208 -0.003323 -0.004136 0.000000 0.010688 0.000000
# 2 -0.003323 0.011840 -0.001859 0.000000 0.002544 0.000000
# 3 -0.004136 -0.001859 0.008141 0.000000 0.000047 0.000000
# 4 0.000000 0.000000 0.000000 0.091489 0.000000 -0.104188
# 5 0.010688 0.002544 0.000047 0.000000 0.058300 0.000000
# 6 0.000000 0.000000 0.000000 -0.104188 0.000000 0.330246
#
#
# Mechanical properties :
#
#
# Convention : Reuss Voigt Hill
#
# Bulk Modulus (GPa) = 56.96644 73.30899 65.13771
# Shear Modulus (GPa) = 9.24707 23.40671 16.32689
#
# Velocity S-wave (km/s) = 2.27270 3.61585 3.01990
# Velocity P-wave (km/s) = 6.22149 7.64075 6.96735
#
# Compressibility (1/GPa) = 0.01755420
#
# Stress axis : x y z
#
# Youngs Moduli (GPa) = 61.69680 84.45601 122.83686
#
# Poissons Ratio (x) = 0.28065 0.50804
# Poissons Ratio (y) = 0.20502 0.22833
# Poissons Ratio (z) = 0.25517 0.15699
#
# Static dielectric constant tensor:
#      x y z
#    x 1.594920 0.000000 0.003030 
#    y 0.000000 1.637170 0.000000 
#    z 0.003030 0.000000 1.690770 
# 
# From -- ./inp_files/169895.got.cif
#   From: 2010.05.17/outbox.cif.g08.bks.cpg/sg12_85_cif.got.tgz:169895.got - 2010.06.03 13:09:07.
