data_PCOD9180304
_publ_section_title
;
Structure prediction by ZEFSAII (Michael W. Deem and Ramdas Pophale) SiO2 
 PCOD9180304
Probable space group: C 2/M
;
_chemical_formula_sum "Si O2"
_cell_formula_units_Z 48
_cell_length_a 25.308115
_cell_length_b 8.915413
_cell_length_c 15.663009
_cell_angle_alpha 90.000000
_cell_angle_beta 61.178660
_cell_angle_gamma 90.000000
_cell_volume 3096.304193
_symmetry_space_group_name_H-M "C 2/M"
_symmetry_group_IT_number 12
_symmetry_cell_setting 'monoclinic'
loop_
_space_group_symop_operation_xyz
x,y,z
-x,y,-z
-x,-y,-z
x,-y,z
1/2+x,1/2+y,z
1/2-x,1/2+y,-z
1/2-x,1/2-y,-z
1/2+x,1/2-y,z
loop_
_atom_site_type_symbol
_atom_site_label
_atom_site_fract_x
_atom_site_fract_y
_atom_site_fract_z
Si Si1 0.037654 0.322104 0.668260
Si Si2 0.045187 0.181149 0.839632
Si Si3 0.684061 0.319025 0.050652
Si Si4 0.087526 0.818098 0.988746
Si Si5 0.429527 0.326822 0.526101
Si Si6 0.407525 0.681234 0.728279
O O1 0.034739 0.500000 0.673952
O O2 0.062345 0.255457 0.737331
O O3 0.074546 0.269260 0.556115
O O4 0.970121 0.255290 0.708957
O O5 0.975821 0.222892 0.916897
O O6 0.047275 0.000000 0.830046
O O7 0.083745 0.227305 0.892700
O O8 0.688340 0.500000 0.044098
O O9 0.643853 0.267449 0.001051
O O10 0.645534 0.280436 0.165230
O O11 0.750000 0.250000 0.000000
O O12 0.088115 0.000000 0.988452
O O13 0.500000 0.322896 0.500000
O O14 0.414720 0.500000 0.518610
O O15 0.395574 0.277388 0.638735
O O16 0.416373 0.500000 0.723557
#
# Coordination Sequence:
#
# PCOD9180304 Si02
#       6
#     8   8   8   8   8   8
#     4  11  19  25  39  67  97 120 140 177 232 277
#     4   9  15  28  48  65  84 118 154 185 217 260
#     4  10  19  32  48  68  91 118 152 187 221 262
#     4   8  15  28  48  66  83 114 157 190 215 253
#     4   8  15  27  43  61  82 116 154 183 214 261
#     4   9  17  31  47  60  84 121 158 188 212 255
#
# _framework density 15.502352
#
# number of rings (size 3 to 8) (size 9 to 14) (size 15 to 20)
#    0.000    2.833    1.667    3.500    0.000    3.667 
#    0.000    2.500    0.000    0.000    0.000    1.167 
#    0.000    0.000    0.000    0.000    0.000    0.000 
#
# Total GULP energy -133647.386834 kJ/mol
# GULP energy per Si atom -5568.641118 kJ/mol
# Density = 1.546707 g / cm^3
# Si number density = 15.502352 Si / 1000 Ang^3
#
#
#
# Elastic Constant Matrix: (Units=GPa)
#
#
# Indices 1 2 3 4 5 6 
#
# 1 85.5880 22.0108 65.3450 0.0000 13.9264 0.0000
# 2 22.0108 31.7594 44.9875 0.0000 10.5503 0.0000
# 3 65.3450 44.9875 140.1930 0.0000 31.4773 0.0000
# 4 0.0000 0.0000 0.0000 1.1528 0.0000 -6.5230
# 5 13.9264 10.5503 31.4773 0.0000 24.0173 0.0000
# 6 0.0000 0.0000 0.0000 -6.5230 0.0000 15.2231
#
#
#
# Elastic Compliance Matrix: (Units=1/GPa)
#
#
# Indices 1 2 3 4 5 6 
#
# 1 0.018171 -0.001114 -0.008298 0.000000 0.000829 0.000000
# 2 -0.001114 0.057835 -0.017684 0.000000 -0.001582 0.000000
# 3 -0.008298 -0.017684 0.019627 0.000000 -0.013143 0.000000
# 4 0.000000 0.000000 0.000000 -0.608918 0.000000 -0.260916
# 5 0.000829 -0.001582 -0.013143 0.000000 0.059076 0.000000
# 6 0.000000 0.000000 0.000000 -0.260916 0.000000 -0.046111
#
#
# Mechanical properties :
#
#
# Convention : Reuss Voigt Hill
#
# Bulk Modulus (GPa) = 24.13190 58.02523 41.07857
# Shear Modulus (GPa) = -11.56569 16.42510 2.42970
#
# Velocity S-wave (km/s) = -2.73437 3.25856 1.25328
# Velocity P-wave (km/s) = 2.37304 7.18811 5.35258
#
# Compressibility (1/GPa) = 0.04143893
#
# Stress axis : x y z
#
# Youngs Moduli (GPa) = 55.03230 17.29061 50.95112
#
# Poissons Ratio (x) = 0.01927 0.42280
# Poissons Ratio (y) = 0.06132 0.90104
# Poissons Ratio (z) = 0.45667 0.30577
#
# Static dielectric constant tensor:
#      x y z
#    x 1.494050 0.000000 0.029150 
#    y 0.000000 1.514940 0.000000 
#    z 0.029150 0.000000 1.547510 
# 
# From -- ./inp_files/229965.got.cif
#   From: 2010.05.17/outbox.cif.g08.bks.cpg/sg12_115_cif.got.tgz:229965.got - 2010.06.03 13:09:07.
