data_PCOD9180630
_publ_section_title
;
Structure prediction by ZEFSAII (Michael W. Deem and Ramdas Pophale) SiO2 
 PCOD9180630
Probable space group: C 2/M
;
_chemical_formula_sum "Si O2"
_cell_formula_units_Z 48
_cell_length_a 15.156445
_cell_length_b 12.140806
_cell_length_c 28.385666
_cell_angle_alpha 90.000000
_cell_angle_beta 29.167345
_cell_angle_gamma 90.000000
_cell_volume 2545.632349
_symmetry_space_group_name_H-M "C 2/M"
_symmetry_group_IT_number 12
_symmetry_cell_setting 'monoclinic'
loop_
_space_group_symop_operation_xyz
x,y,z
-x,y,-z
-x,-y,-z
x,-y,z
1/2+x,1/2+y,z
1/2-x,1/2+y,-z
1/2-x,1/2-y,-z
1/2+x,1/2-y,z
loop_
_atom_site_type_symbol
_atom_site_label
_atom_site_fract_x
_atom_site_fract_y
_atom_site_fract_z
Si Si1 0.160655 0.381680 0.387700
Si Si2 0.493939 0.243716 0.244986
Si Si3 0.015903 0.806151 0.388389
Si Si4 0.910180 0.375474 0.188173
Si Si5 0.145806 0.376117 0.604083
Si Si6 0.648810 0.130312 0.889773
O O1 0.178967 0.500000 0.355650
O O2 0.352303 0.343882 0.318276
O O3 0.097829 0.286672 0.383328
O O4 0.000000 0.388433 0.500000
O O5 0.488256 0.202538 0.193208
O O6 0.407720 0.145745 0.316866
O O7 0.685758 0.288925 0.173724
O O8 0.190276 0.876462 0.293999
O O9 0.937390 0.731892 0.382642
O O10 0.856159 0.867493 0.490699
O O11 0.978736 0.500000 0.162838
O O12 0.937243 0.340515 0.121147
O O13 0.084815 0.500000 0.618883
O O14 0.705121 0.000000 0.860707
O O15 0.500000 0.138199 0.000000
#
# Coordination Sequence:
#
# PCOD9180630 Si02
#       6
#     8   8   8   8   8   8
#     4  10  19  32  50  76 113 150 190 234 276 330
#     4  11  21  37  57  87 117 152 193 236 291 343
#     4  10  20  35  50  80 114 157 195 230 275 342
#     4  10  21  37  61  87 116 152 191 236 289 348
#     4  11  21  33  52  80 117 157 193 234 281 338
#     4  10  22  42  65  87 112 148 196 246 294 344
#
# _framework density 18.855826
#
# number of rings (size 3 to 8) (size 9 to 14) (size 15 to 20)
#    0.000    1.667    3.333    2.000    0.000    0.667 
#    0.000    2.500    0.000    2.000    0.000    0.000 
#    0.000    0.000    0.000    0.000    0.000    0.000 
#
# Total GULP energy -133653.671458 kJ/mol
# GULP energy per Si atom -5568.902977 kJ/mol
# Density = 1.881291 g / cm^3
# Si number density = 18.855826 Si / 1000 Ang^3
#
#
#
# Elastic Constant Matrix: (Units=GPa)
#
#
# Indices 1 2 3 4 5 6 
#
# 1 69.7981 25.3734 25.1615 -0.0026 17.8126 -0.0030
# 2 25.3734 88.8382 18.6784 -0.0008 8.4705 -0.0009
# 3 25.1615 18.6784 60.7980 -0.0117 19.2627 -0.0133
# 4 -0.0026 -0.0008 -0.0117 -50.4388 0.0014 -88.3829
# 5 17.8126 8.4705 19.2627 0.0014 24.2110 0.0019
# 6 -0.0030 -0.0009 -0.0133 -88.3829 0.0019 -101.2400
#
#
#
# Elastic Compliance Matrix: (Units=1/GPa)
#
#
# Indices 1 2 3 4 5 6 
#
# 1 0.019668 -0.003864 -0.003739 0.000000 -0.010144 0.000000
# 2 -0.003864 0.012845 -0.002439 0.000000 0.000289 0.000000
# 3 -0.003739 -0.002439 0.023535 0.000000 -0.015121 -0.000003
# 4 0.000000 0.000000 0.000000 0.037425 0.000000 -0.032673
# 5 -0.010144 0.000289 -0.015121 0.000000 0.060696 0.000003
# 6 0.000000 0.000000 -0.000003 -0.032673 0.000003 0.018646
#
#
# Mechanical properties :
#
#
# Convention : Reuss Voigt Hill
#
# Bulk Modulus (GPa) = 27.80452 39.76234 33.78343
# Shear Modulus (GPa) = 24.40358 -15.47882 4.46238
#
# Velocity S-wave (km/s) = 3.60143 -2.86825 1.54004
# Velocity P-wave (km/s) = 5.66318 3.18813 4.59542
#
# Compressibility (1/GPa) = 0.03596538
#
# Stress axis : x y z
#
# Youngs Moduli (GPa) = 50.84332 77.84961 42.48937
#
# Poissons Ratio (x) = 0.30083 0.15886
# Poissons Ratio (y) = 0.19647 0.10362
# Poissons Ratio (z) = 0.19009 0.18986
#
# Static dielectric constant tensor:
#      x y z
#    x 1.739600 0.000000 0.038800 
#    y 0.000000 1.666770 0.000000 
#    z 0.038800 0.000000 1.717660 
# 
# From -- ./inp_files/212515.got.cif
#   From: 2010.05.17/outbox.cif.g08.bks.cpg/sg12_107_cif.got.tgz:212515.got - 2010.06.03 13:09:07.
