data_PCOD9180309
_publ_section_title
;
Structure prediction by ZEFSAII (Michael W. Deem and Ramdas Pophale) SiO2 
 PCOD9180309
Probable space group: C 2/M
;
_chemical_formula_sum "Si O2"
_cell_formula_units_Z 56
_cell_length_a 24.392689
_cell_length_b 9.001258
_cell_length_c 21.122011
_cell_angle_alpha 90.000000
_cell_angle_beta 53.519220
_cell_angle_gamma 90.000000
_cell_volume 3728.933507
_symmetry_space_group_name_H-M "C 2/M"
_symmetry_group_IT_number 12
_symmetry_cell_setting 'monoclinic'
loop_
_space_group_symop_operation_xyz
x,y,z
-x,y,-z
-x,-y,-z
x,-y,z
1/2+x,1/2+y,z
1/2-x,1/2+y,-z
1/2-x,1/2-y,-z
1/2+x,1/2-y,z
loop_
_atom_site_type_symbol
_atom_site_label
_atom_site_fract_x
_atom_site_fract_y
_atom_site_fract_z
Si Si1 0.415667 0.173331 0.260641
Si Si2 0.296478 0.323296 0.278965
Si Si3 0.794382 0.821354 0.913827
Si Si4 0.719199 0.174134 0.582594
Si Si5 0.569367 0.322708 0.988943
Si Si6 0.790390 0.322342 0.152118
Si Si7 0.444308 0.676952 0.851239
O O1 0.374834 0.267148 0.235404
O O2 0.363542 0.186681 0.355737
O O3 0.490046 0.237384 0.219249
O O4 0.417584 0.000000 0.241349
O O5 0.293878 0.500000 0.280876
O O6 0.259832 0.255047 0.366241
O O7 0.270990 0.254747 0.231260
O O8 0.761079 0.783137 0.869428
O O9 0.873122 0.777268 0.868262
O O10 0.791434 0.000000 0.922941
O O11 0.750000 0.750000 0.000000
O O12 0.750000 0.250000 0.500000
O O13 0.736230 0.000000 0.573005
O O14 0.580719 0.500000 0.971849
O O15 0.634867 0.235513 0.918905
O O16 0.500000 0.282240 0.000000
O O17 0.561253 0.295997 0.069498
O O18 0.791357 0.500000 0.159061
O O19 0.453596 0.500000 0.835929
#
# Coordination Sequence:
#
# PCOD9180309 Si02
#       7
#     8   8   8   8   8   8   8
#     4   9  19  32  49  75 105 129 160 202 245 294
#     4  10  19  32  51  73 102 134 163 200 248 298
#     4  10  21  35  50  68  92 131 177 221 257 295
#     4   9  18  32  52  80 109 134 161 193 240 301
#     4  10  20  31  46  67  92 127 169 208 252 301
#     4  11  21  33  48  69  96 128 171 217 255 293
#     4  10  19  32  48  68  97 132 173 210 251 302
#
# _framework density 15.017699
#
# number of rings (size 3 to 8) (size 9 to 14) (size 15 to 20)
#    0.857    1.286    1.429    3.000    0.000    3.143 
#    0.000    0.000    0.000    0.000    0.000    1.000 
#    0.000    8.000    0.000    0.000    0.000    0.000 
#
# Total GULP energy -155984.003606 kJ/mol
# GULP energy per Si atom -5570.857272 kJ/mol
# Density = 1.498352 g / cm^3
# Si number density = 15.017699 Si / 1000 Ang^3
#
#
#
# Elastic Constant Matrix: (Units=GPa)
#
#
# Indices 1 2 3 4 5 6 
#
# 1 119.3094 52.6307 55.8659 -0.0001 14.0767 0.0001
# 2 52.6307 85.7584 62.9257 0.0001 10.1910 0.0005
# 3 55.8659 62.9257 96.3665 0.0000 16.3932 0.0000
# 4 -0.0001 0.0001 0.0000 28.7844 0.0000 -1.6838
# 5 14.0767 10.1910 16.3932 0.0000 12.8114 0.0000
# 6 0.0001 0.0005 0.0000 -1.6838 0.0000 18.3831
#
#
#
# Elastic Compliance Matrix: (Units=1/GPa)
#
#
# Indices 1 2 3 4 5 6 
#
# 1 0.012687 -0.004657 -0.003289 0.000000 -0.006027 0.000000
# 2 -0.004657 0.024109 -0.013615 0.000000 0.003360 -0.000001
# 3 -0.003289 -0.013615 0.023925 0.000000 -0.016170 0.000000
# 4 0.000000 0.000000 0.000000 0.034928 0.000000 0.003199
# 5 -0.006027 0.003360 -0.016170 0.000000 0.102695 0.000000
# 6 0.000000 -0.000001 0.000000 0.003199 0.000000 0.054691
#
#
# Mechanical properties :
#
#
# Convention : Reuss Voigt Hill
#
# Bulk Modulus (GPa) = 56.81831 71.58653 64.20242
# Shear Modulus (GPa) = 16.55505 20.66325 18.60915
#
# Velocity S-wave (km/s) = 3.32380 3.71337 3.52397
# Velocity P-wave (km/s) = 7.25579 8.13370 7.70726
#
# Compressibility (1/GPa) = 0.01759996
#
# Stress axis : x y z
#
# Youngs Moduli (GPa) = 78.82185 41.47794 41.79785
#
# Poissons Ratio (x) = 0.19314 0.13747
# Poissons Ratio (y) = 0.36704 0.56908
# Poissons Ratio (z) = 0.25923 0.56472
#
# Static dielectric constant tensor:
#      x y z
#    x 1.496440 0.000000 0.002870 
#    y 0.000000 1.502600 0.000000 
#    z 0.002870 0.000000 1.485080 
# 
# From -- ./inp_files/319004.got.cif
#   From: 2010.05.17/outbox.cif.g08.bks.cpg/sg12_160_cif.got.tgz:319004.got - 2010.06.03 13:09:07.
