data_PCOD9180656
_publ_section_title
;
Structure prediction by ZEFSAII (Michael W. Deem and Ramdas Pophale) SiO2 
 PCOD9180656
Probable space group: C 2/M
;
_chemical_formula_sum "Si O2"
_cell_formula_units_Z 56
_cell_length_a 11.669995
_cell_length_b 25.297058
_cell_length_c 18.726871
_cell_angle_alpha 90.000000
_cell_angle_beta 29.888071
_cell_angle_gamma 90.000000
_cell_volume 2754.882645
_symmetry_space_group_name_H-M "C 2/M"
_symmetry_group_IT_number 12
_symmetry_cell_setting 'monoclinic'
loop_
_space_group_symop_operation_xyz
x,y,z
-x,y,-z
-x,-y,-z
x,-y,z
1/2+x,1/2+y,z
1/2-x,1/2+y,-z
1/2-x,1/2-y,-z
1/2+x,1/2-y,z
loop_
_atom_site_type_symbol
_atom_site_label
_atom_site_fract_x
_atom_site_fract_y
_atom_site_fract_z
Si Si1 0.070314 0.797370 0.110625
Si Si2 0.275753 0.887711 0.355508
Si Si3 0.893605 0.091079 0.958124
Si Si4 0.692448 0.716874 0.336493
Si Si5 0.946659 0.560056 0.125047
Si Si6 0.360254 0.060480 0.758402
Si Si7 0.250138 0.336597 0.840330
O O1 0.104467 0.845454 0.038043
O O2 0.101487 0.825312 0.170584
O O3 0.826085 0.769332 0.243906
O O4 0.250000 0.750000 0.000000
O O5 0.349193 0.829397 0.288248
O O6 0.343965 0.930563 0.259364
O O7 0.413130 0.903450 0.352561
O O8 0.000000 0.885782 0.500000
O O9 0.159902 0.074085 0.809882
O O10 0.717300 0.073235 0.991167
O O11 0.778118 0.067598 0.091928
O O12 0.500000 0.727350 0.500000
O O13 0.635279 0.690410 0.290901
O O14 0.913569 0.500000 0.120401
O O15 0.816395 0.604021 0.148344
O O16 0.431061 0.000000 0.711204
O O17 0.000000 0.313256 0.000000
#
# Coordination Sequence:
#
# PCOD9180656 Si02
#       7
#     8   8   8   8   8   8   8
#     4  12  22  37  60  85 119 157 202 249 299 353
#     4   9  18  35  56  83 115 150 199 245 286 350
#     4  10  19  32  50  81 115 151 192 240 290 348
#     4  10  23  41  62  87 118 155 197 248 302 354
#     4  10  19  34  54  81 119 154 187 241 304 347
#     4  10  19  32  52  83 121 156 195 241 297 352
#     4  11  21  39  58  90 118 150 201 247 289 354
#
# _framework density 20.327546000000002
#
# number of rings (size 3 to 8) (size 9 to 14) (size 15 to 20)
#    0.000    1.714    2.857    4.714    0.000    5.429 
#    0.000    2.857    0.000    0.000    0.000    0.000 
#    0.000   16.000    0.000    0.000    0.000    0.000 
#
# Total GULP energy -155909.152254 kJ/mol
# GULP energy per Si atom -5568.184009 kJ/mol
# Density = 2.028128 g / cm^3
# Si number density = 20.327546 Si / 1000 Ang^3
#
#
#
# Elastic Constant Matrix: (Units=GPa)
#
#
# Indices 1 2 3 4 5 6 
#
# 1 67.6025 15.0939 3.7571 0.0033 -10.0444 -0.0005
# 2 15.0939 75.0530 -5.4201 -0.0082 -6.5196 0.0075
# 3 3.7571 -5.4201 60.5166 0.0572 -0.4234 0.0012
# 4 0.0033 -0.0082 0.0572 22.1367 -0.0205 -1.2654
# 5 -10.0444 -6.5196 -0.4234 -0.0205 34.7988 0.0027
# 6 -0.0005 0.0075 0.0012 -1.2654 0.0027 19.7004
#
#
#
# Elastic Compliance Matrix: (Units=1/GPa)
#
#
# Indices 1 2 3 4 5 6 
#
# 1 0.016133 -0.002979 -0.001240 0.000004 0.004083 0.000001
# 2 -0.002979 0.014187 0.001468 0.000003 0.001816 -0.000006
# 3 -0.001240 0.001468 0.016734 -0.000043 0.000121 -0.000004
# 4 0.000004 0.000003 -0.000043 0.045341 0.000028 0.002912
# 5 0.004083 0.001816 0.000121 0.000028 0.030257 -0.000003
# 6 0.000001 -0.000006 -0.000004 0.002912 -0.000003 0.050947
#
#
# Mechanical properties :
#
#
# Convention : Reuss Voigt Hill
#
# Bulk Modulus (GPa) = 24.06629 25.55933 24.81281
# Shear Modulus (GPa) = 25.91327 27.97659 26.94493
#
# Velocity S-wave (km/s) = 3.57429 3.71386 3.64474
# Velocity P-wave (km/s) = 5.37578 5.56699 5.47222
#
# Compressibility (1/GPa) = 0.04155190
#
# Stress axis : x y z
#
# Youngs Moduli (GPa) = 61.98395 70.48767 59.75945
#
# Poissons Ratio (x) = 0.21001 0.07410
# Poissons Ratio (y) = 0.18467 -0.08775
# Poissons Ratio (z) = 0.07685 -0.10350
#
# Static dielectric constant tensor:
#      x y z
#    x 1.811910 -0.000010 -0.015610 
#    y -0.000010 1.737210 0.000020 
#    z -0.015610 0.000020 1.782310 
# 
# From -- ./inp_files/307195.got.cif
#   From: 2010.05.17/outbox.cif.g08.bks.cpg/sg12_154_cif.got.tgz:307195.got - 2010.06.03 13:09:07.
