data_PCOD9180018
_publ_section_title
;
Structure prediction by ZEFSAII (Michael W. Deem and Ramdas Pophale) SiO2 
 PCOD9180018
Probable space group: C 2/M
;
_chemical_formula_sum "Si O2"
_cell_formula_units_Z 48
_cell_length_a 15.395840
_cell_length_b 7.446019
_cell_length_c 15.402453
_cell_angle_alpha 90.000000
_cell_angle_beta 88.001167
_cell_angle_gamma 90.000000
_cell_volume 1764.627687
_symmetry_space_group_name_H-M "C 2/M"
_symmetry_group_IT_number 12
_symmetry_cell_setting 'monoclinic'
loop_
_space_group_symop_operation_xyz
x,y,z
-x,y,-z
-x,-y,-z
x,-y,z
1/2+x,1/2+y,z
1/2-x,1/2+y,-z
1/2-x,1/2-y,-z
1/2+x,1/2-y,z
loop_
_atom_site_type_symbol
_atom_site_label
_atom_site_fract_x
_atom_site_fract_y
_atom_site_fract_z
Si Si1 0.930246 0.287484 0.433646
Si Si2 0.657886 0.702678 0.783811
Si Si3 0.827560 0.218929 0.877674
Si Si4 0.248343 0.203613 0.390995
Si Si5 0.921751 0.783903 0.699022
Si Si6 0.588926 0.718750 0.951811
O O1 0.922360 0.500000 0.449346
O O2 0.830143 0.218656 0.444169
O O3 0.000000 0.211038 0.500000
O O4 0.983570 0.265931 0.341279
O O5 0.635033 0.500000 0.756677
O O6 0.738611 0.698213 0.847911
O O7 0.697920 0.803185 0.701736
O O8 0.590160 0.785093 0.852968
O O9 0.895903 0.266682 0.798122
O O10 0.822619 0.000000 0.877408
O O11 0.845862 0.277517 0.974901
O O12 0.155944 0.285756 0.363326
O O13 0.233788 0.000000 0.417882
O O14 0.916519 0.000000 0.695841
O O15 0.591983 0.500000 0.944316
O O16 0.500000 0.766018 0.000000
#
# Coordination Sequence:
#
# PCOD9180018 Si02
#       6
#     8   8   8   8   8   8
#     4  10  22  39  59  83 111 142 175 219 276 330
#     4  10  19  31  53  79 102 135 183 227 258 305
#     4   9  18  34  54  73 104 145 177 215 269 317
#     4   9  20  39  58  78 111 149 178 215 276 332
#     4   9  19  35  57  82 108 144 184 219 263 324
#     4   9  18  30  47  74 105 140 180 219 259 307
#
# _framework density 27.201205999999999
#
# number of rings (size 3 to 8) (size 9 to 14) (size 15 to 20)
#    0.000    2.667    0.000    2.000    2.333    4.333 
#    0.000    0.833    0.000    2.500    0.000    0.000 
#    0.000    0.000    0.000    0.000    0.000    0.000 
#
# Total GULP energy -134029.190901 kJ/mol
# GULP energy per Si atom -5584.549621 kJ/mol
# Density = 2.713929 g / cm^3
# Si number density = 27.201206 Si / 1000 Ang^3
#
#
#
# Elastic Constant Matrix: (Units=GPa)
#
#
# Indices 1 2 3 4 5 6 
#
# 1 145.2293 12.5216 -25.9882 0.0000 7.1507 0.0000
# 2 12.5216 100.2901 38.8160 0.0000 -8.1304 0.0000
# 3 -25.9882 38.8160 75.1250 0.0000 -3.1109 0.0000
# 4 0.0000 0.0000 0.0000 9.8879 0.0000 -0.3625
# 5 7.1507 -8.1304 -3.1109 0.0000 51.0997 0.0000
# 6 0.0000 0.0000 0.0000 -0.3625 0.0000 14.0593
#
#
#
# Elastic Compliance Matrix: (Units=1/GPa)
#
#
# Indices 1 2 3 4 5 6 
#
# 1 0.007904 -0.002661 0.004056 0.000000 -0.001282 0.000000
# 2 -0.002661 0.013490 -0.007806 0.000000 0.002043 0.000000
# 3 0.004056 -0.007806 0.018720 0.000000 -0.000670 0.000000
# 4 0.000000 0.000000 0.000000 0.101229 0.000000 0.002610
# 5 -0.001282 0.002043 -0.000670 0.000000 0.020033 0.000000
# 6 0.000000 0.000000 0.000000 0.002610 0.000000 0.071195
#
#
# Mechanical properties :
#
#
# Convention : Reuss Voigt Hill
#
# Bulk Modulus (GPa) = 36.64019 41.26033 38.95026
# Shear Modulus (GPa) = 19.64716 34.69573 27.17145
#
# Velocity S-wave (km/s) = 2.69046 3.57532 3.16398
# Velocity P-wave (km/s) = 4.81152 5.67850 5.26289
#
# Compressibility (1/GPa) = 0.02729243
#
# Stress axis : x y z
#
# Youngs Moduli (GPa) = 126.51870 74.12850 53.41986
#
# Poissons Ratio (x) = 0.19722 -0.21666
# Poissons Ratio (y) = 0.33661 0.41699
# Poissons Ratio (z) = -0.51314 0.57864
#
# Static dielectric constant tensor:
#      x y z
#    x 2.258390 0.000000 -0.002330 
#    y 0.000000 2.028790 0.000000 
#    z -0.002330 0.000000 2.383200 
# 
# From -- ./inp_files/267638.got.cif
#   From: 2010.05.17/outbox.cif.g08.bks.cpg/sg12_134_cif.got.tgz:267638.got - 2010.06.03 13:09:07.
