data_PCOD9180301
_publ_section_title
;
Structure prediction by ZEFSAII (Michael W. Deem and Ramdas Pophale) SiO2 
 PCOD9180301
Probable space group: C 2/M
;
_chemical_formula_sum "Si O2"
_cell_formula_units_Z 64
_cell_length_a 33.583592
_cell_length_b 9.383379
_cell_length_c 14.457728
_cell_angle_alpha 90.000000
_cell_angle_beta 53.199374
_cell_angle_gamma 90.000000
_cell_volume 3648.125305
_symmetry_space_group_name_H-M "C 2/M"
_symmetry_group_IT_number 12
_symmetry_cell_setting 'monoclinic'
loop_
_space_group_symop_operation_xyz
x,y,z
-x,y,-z
-x,-y,-z
x,-y,z
1/2+x,1/2+y,z
1/2-x,1/2+y,-z
1/2-x,1/2-y,-z
1/2+x,1/2-y,z
loop_
_atom_site_type_symbol
_atom_site_label
_atom_site_fract_x
_atom_site_fract_y
_atom_site_fract_z
Si Si1 0.798223 0.834187 0.819144
Si Si2 0.607365 0.665523 0.992726
Si Si3 0.356775 0.166594 0.593493
Si Si4 0.441916 0.170286 0.102169
Si Si5 0.572351 0.170170 0.662241
Si Si6 0.681009 0.166631 0.024844
Si Si7 0.944825 0.659547 0.619027
Si Si8 0.475661 0.662185 0.738700
O O1 0.815929 0.764657 0.698629
O O2 0.820999 0.743475 0.872516
O O3 0.813194 0.000000 0.804895
O O4 0.738722 0.826788 0.913549
O O5 0.621908 0.500000 0.960392
O O6 0.593573 0.742987 0.916794
O O7 0.647666 0.751269 0.996699
O O8 0.556920 0.667895 0.123562
O O9 0.377850 0.208705 0.463594
O O10 0.404504 0.177267 0.595226
O O11 0.341364 0.000000 0.613470
O O12 0.428921 0.201297 0.226992
O O13 0.436246 0.000000 0.094635
O O14 0.500000 0.204424 0.000000
O O15 0.525035 0.246158 0.683022
O O16 0.566203 0.000000 0.659065
O O17 0.666919 0.000000 0.052223
O O18 0.939049 0.500000 0.666271
O O19 0.942515 0.773700 0.702962
O O20 0.000000 0.669663 0.500000
O O21 0.489037 0.500000 0.699256
#
# Coordination Sequence:
#
# PCOD9180301 Si02
#       8
#     8   8   8   8   8   8   8   8
#     4  10  21  37  58  85 115 142 177 226 275 326
#     4  11  23  36  54  81 113 143 177 229 282 326
#     4  10  20  34  54  77 105 146 185 220 267 323
#     4  10  20  35  58  81 105 144 189 231 273 323
#     4  10  20  36  54  75 104 142 187 223 259 317
#     4  10  21  38  60  84 110 144 183 223 271 329
#     4  10  19  32  48  68 100 141 180 216 252 308
#     4  11  22  32  46  73 107 142 176 217 269 317
#
# _framework density 17.543258000000002
#
# number of rings (size 3 to 8) (size 9 to 14) (size 15 to 20)
#    0.000    1.750    2.500    2.250    0.000    7.000 
#    0.000    0.000    0.000    0.750    0.000    0.000 
#    0.000    0.000    0.000    0.000    0.000    0.000 
#
# Total GULP energy -178675.274074 kJ/mol
# GULP energy per Si atom -5583.602315 kJ/mol
# Density = 1.750333 g / cm^3
# Si number density = 17.543258 Si / 1000 Ang^3
#
#
#
# Elastic Constant Matrix: (Units=GPa)
#
#
# Indices 1 2 3 4 5 6 
#
# 1 67.1223 50.2425 26.7888 0.0000 13.6160 0.0000
# 2 50.2425 91.2737 54.6818 0.0000 14.6823 0.0000
# 3 26.7888 54.6818 107.7905 0.0000 16.8535 0.0000
# 4 0.0000 0.0000 0.0000 23.7736 0.0000 3.5945
# 5 13.6160 14.6823 16.8535 0.0000 25.1508 0.0000
# 6 0.0000 0.0000 0.0000 3.5945 0.0000 13.8060
#
#
#
# Elastic Compliance Matrix: (Units=1/GPa)
#
#
# Indices 1 2 3 4 5 6 
#
# 1 0.026499 -0.014600 0.001934 0.000000 -0.007119 0.000000
# 2 -0.014600 0.024209 -0.008577 0.000000 -0.000481 0.000000
# 3 0.001934 -0.008577 0.013995 0.000000 -0.005418 0.000000
# 4 0.000000 0.000000 0.000000 0.043787 0.000000 -0.011400
# 5 -0.007119 -0.000481 -0.005418 0.000000 0.047525 0.000000
# 6 0.000000 0.000000 0.000000 -0.011400 0.000000 0.075400
#
#
# Mechanical properties :
#
#
# Convention : Reuss Voigt Hill
#
# Bulk Modulus (GPa) = 45.01342 58.84584 51.92963
# Shear Modulus (GPa) = 17.77413 21.51096 19.64254
#
# Velocity S-wave (km/s) = 3.18647 3.50547 3.34977
# Velocity P-wave (km/s) = 6.26517 7.07110 6.68030
#
# Compressibility (1/GPa) = 0.02221560
#
# Stress axis : x y z
#
# Youngs Moduli (GPa) = 37.73746 41.30725 71.45399
#
# Poissons Ratio (x) = 0.60309 -0.13819
# Poissons Ratio (y) = 0.55097 0.61289
# Poissons Ratio (z) = -0.07298 0.35431
#
# Static dielectric constant tensor:
#      x y z
#    x 1.567590 0.000000 0.001050 
#    y 0.000000 1.599430 0.000000 
#    z 0.001050 0.000000 1.625890 
# 
# From -- ./inp_files/249702.got.cif
#   From: 2010.05.17/outbox.cif.g08.bks.cpg/sg12_125_cif.got.tgz:249702.got - 2010.06.03 13:09:07.
