data_PCOD9180110
_publ_section_title
;
Structure prediction by ZEFSAII (Michael W. Deem and Ramdas Pophale) SiO2 
 PCOD9180110
Probable space group: C 2/M
;
_chemical_formula_sum "Si O2"
_cell_formula_units_Z 50
_cell_length_a 28.208732
_cell_length_b 7.813359
_cell_length_c 11.441458
_cell_angle_alpha 90.000000
_cell_angle_beta 70.049267
_cell_angle_gamma 90.000000
_cell_volume 2370.414360
_symmetry_space_group_name_H-M "C 2/M"
_symmetry_group_IT_number 12
_symmetry_cell_setting 'monoclinic'
loop_
_space_group_symop_operation_xyz
x,y,z
-x,y,-z
-x,-y,-z
x,-y,z
1/2+x,1/2+y,z
1/2-x,1/2+y,-z
1/2-x,1/2-y,-z
1/2+x,1/2-y,z
loop_
_atom_site_type_symbol
_atom_site_label
_atom_site_fract_x
_atom_site_fract_y
_atom_site_fract_z
Si Si1 0.561413 0.701633 0.692795
Si Si2 0.216665 0.707858 0.194096
Si Si3 0.000000 0.500000 0.000000
Si Si4 0.323131 0.201966 0.026026
Si Si5 0.573838 0.698893 0.948208
Si Si6 0.626146 0.198771 0.417695
Si Si7 0.033292 0.195126 0.353148
O O1 0.552043 0.500000 0.705288
O O2 0.579270 0.751649 0.806085
O O3 0.601506 0.728042 0.555797
O O4 0.507257 0.778517 0.700130
O O5 0.216718 0.500000 0.194663
O O6 0.274176 0.767678 0.148184
O O7 0.179037 0.770138 0.326849
O O8 0.193363 0.763821 0.088934
O O9 0.963561 0.345587 0.976664
O O10 0.372783 0.289548 0.032972
O O11 0.332948 0.000000 0.010622
O O12 0.556591 0.500000 0.970941
O O13 0.584946 0.217265 0.348079
O O14 0.633231 0.000000 0.435500
O O15 0.000000 0.185487 0.500000
O O16 0.046073 0.000000 0.306981
#
# Coordination Sequence:
#
# PCOD9180110 Si02
#       7
#     8   8   2   8   8   8   8
#     4   9  20  37  56  81 117 162 200 242 306 370
#     4   9  20  37  58  89 123 157 204 263 316 370
#     4  12  26  44  64  94 122 164 222 248 290 386
#     4  10  20  39  63  88 120 162 210 257 317 373
#     4  11  24  44  66  91 127 166 204 260 313 361
#     4  10  19  31  53  86 118 152 199 251 307 365
#     4   8  15  30  48  71 109 152 194 237 290 356
#
# _framework density 21.093359
#
# number of rings (size 3 to 8) (size 9 to 14) (size 15 to 20)
#    0.000    2.400    0.800    2.160    1.120    6.080 
#    2.880    2.400    0.000    0.000    0.000    0.000 
#    0.000    0.000    0.000    0.000    0.000    0.000 
#
# Total GULP energy -139221.221414 kJ/mol
# GULP energy per Si atom -5568.848857 kJ/mol
# Density = 2.104535 g / cm^3
# Si number density = 21.093359 Si / 1000 Ang^3
#
#
#
# Elastic Constant Matrix: (Units=GPa)
#
#
# Indices 1 2 3 4 5 6 
#
# 1 106.1619 22.6675 19.7973 0.0000 -3.3691 0.0000
# 2 22.6675 66.6941 12.8734 0.0000 2.3968 0.0000
# 3 19.7973 12.8734 77.8385 0.0000 -7.0027 0.0000
# 4 0.0000 0.0000 0.0000 9.1130 0.0000 -2.6295
# 5 -3.3691 2.3968 -7.0027 0.0000 25.4854 0.0000
# 6 0.0000 0.0000 0.0000 -2.6295 0.0000 33.0112
#
#
#
# Elastic Compliance Matrix: (Units=1/GPa)
#
#
# Indices 1 2 3 4 5 6 
#
# 1 0.010525 -0.003224 -0.002042 0.000000 0.001133 0.000000
# 2 -0.003224 0.016599 -0.002157 0.000000 -0.002580 0.000000
# 3 -0.002042 -0.002157 0.014065 0.000000 0.003798 0.000000
# 4 0.000000 0.000000 0.000000 0.112314 0.000000 0.008946
# 5 0.001133 -0.002580 0.003798 0.000000 0.040674 0.000000
# 6 0.000000 0.000000 0.000000 0.008946 0.000000 0.031005
#
#
# Mechanical properties :
#
#
# Convention : Reuss Voigt Hill
#
# Bulk Modulus (GPa) = 37.96134 40.15230 39.05682
# Shear Modulus (GPa) = 20.09579 26.54568 23.32073
#
# Velocity S-wave (km/s) = 3.08994 3.55136 3.32866
# Velocity P-wave (km/s) = 5.54673 5.99108 5.77318
#
# Compressibility (1/GPa) = 0.02634259
#
# Stress axis : x y z
#
# Youngs Moduli (GPa) = 95.01549 60.24599 71.09927
#
# Poissons Ratio (x) = 0.19421 0.14516
# Poissons Ratio (y) = 0.30630 0.15339
# Poissons Ratio (z) = 0.19399 0.12997
#
# Static dielectric constant tensor:
#      x y z
#    x 1.758740 0.000000 0.002910 
#    y 0.000000 1.766790 0.000000 
#    z 0.002910 0.000000 1.822870 
# 
# From -- ./inp_files/179803.got.cif
#   From: 2010.05.17/outbox.cif.g08.bks.cpg/sg12_90_cif.got.tgz:179803.got - 2010.06.03 13:09:07.
