data_PCOD9180781
_publ_section_title
;
Structure prediction by ZEFSAII (Michael W. Deem and Ramdas Pophale) SiO2 
 PCOD9180781
Probable space group: C 2/M
;
_chemical_formula_sum "Si O2"
_cell_formula_units_Z 64
_cell_length_a 10.428214
_cell_length_b 14.262842
_cell_length_c 25.421290
_cell_angle_alpha 90.000000
_cell_angle_beta 127.975446
_cell_angle_gamma 90.000000
_cell_volume 2980.513415
_symmetry_space_group_name_H-M "C 2/M"
_symmetry_group_IT_number 12
_symmetry_cell_setting 'monoclinic'
loop_
_space_group_symop_operation_xyz
x,y,z
-x,y,-z
-x,-y,-z
x,-y,z
1/2+x,1/2+y,z
1/2-x,1/2+y,-z
1/2-x,1/2-y,-z
1/2+x,1/2-y,z
loop_
_atom_site_type_symbol
_atom_site_label
_atom_site_fract_x
_atom_site_fract_y
_atom_site_fract_z
Si Si1 0.541735 0.336094 0.928057
Si Si2 0.821800 0.832587 0.783553
Si Si3 0.028859 0.332587 0.783553
Si Si4 0.237802 0.891498 0.641315
Si Si5 0.086852 0.885520 0.391234
Si Si6 0.813857 0.391498 0.358685
Si Si7 0.179948 0.385294 0.453298
Si Si8 0.742435 0.163906 0.928057
O O1 0.448155 0.383495 0.855424
O O2 0.641727 0.250000 0.927818
O O3 0.393034 0.304323 0.928689
O O4 0.668821 0.385573 0.000000
O O5 0.923086 0.750000 0.782057
O O6 0.674120 0.797342 0.782747
O O7 0.740769 0.887863 0.715405
O O8 0.905446 0.387862 0.715405
O O9 0.118116 0.383495 0.855424
O O10 0.255294 0.852300 0.587010
O O11 0.093563 0.850597 0.640671
O O12 0.194217 0.000000 0.621759
O O13 0.171550 0.850597 0.359329
O O14 0.203996 0.860555 0.469331
O O15 0.077819 0.000000 0.385213
O O16 0.828940 0.500000 0.378241
O O17 0.994265 0.352300 0.412990
O O18 0.176552 0.500000 0.451035
#
# Coordination Sequence:
#
# PCOD9180781 Si02
#       8
#     8   8   8   8   8   8   8   8
#     4   8  14  26  44  66  91 119 155 194 228 268
#     4  10  20  32  49  72  99 130 158 192 238 284
#     4  10  20  32  49  72  99 130 158 192 238 284
#     4  10  19  32  51  74  97 124 158 198 240 282
#     4   9  18  30  49  75  96 119 158 204 241 273
#     4  10  19  32  51  74  97 124 158 198 240 282
#     4   9  16  30  51  73  94 119 158 202 239 277
#     4   8  14  26  44  66  91 119 155 194 228 268
#
# _framework density 21.472811
#
# number of rings (size 3 to 8) (size 9 to 14) (size 15 to 20)
#    0.000    2.750    1.250    0.750    1.750    3.000 
#    0.000    0.000    0.000    5.250    0.000    3.500 
#    0.000    3.000    0.000    0.000    0.000    0.000 
#
# Total GULP energy -178217.926304 kJ/mol
# GULP energy per Si atom -5569.310197 kJ/mol
# Density = 2.142394 g / cm^3
# Si number density = 21.472811 Si / 1000 Ang^3
#
#
#
# Elastic Constant Matrix: (Units=GPa)
#
#
# Indices 1 2 3 4 5 6 
#
# 1 147.8326 9.1037 52.3622 0.0000 1.6557 0.0000
# 2 9.1037 41.8276 -19.6542 0.0000 1.5577 0.0000
# 3 52.3622 -19.6542 139.4574 0.0000 -1.2023 0.0000
# 4 0.0000 0.0000 0.0000 126.0091 0.0000 -6.6577
# 5 1.6557 1.5577 -1.2023 0.0000 32.6045 0.0000
# 6 0.0000 0.0000 0.0000 -6.6577 0.0000 3.0882
#
#
#
# Elastic Compliance Matrix: (Units=1/GPa)
#
#
# Indices 1 2 3 4 5 6 
#
# 1 0.008255 -0.003470 -0.003592 0.000000 -0.000386 0.000000
# 2 -0.003470 0.027101 0.005114 0.000000 -0.000930 0.000000
# 3 -0.003592 0.005114 0.009242 0.000000 0.000279 0.000000
# 4 0.000000 0.000000 0.000000 0.008956 0.000000 0.019308
# 5 -0.000386 -0.000930 0.000279 0.000000 0.030745 0.000000
# 6 0.000000 0.000000 0.000000 0.019308 0.000000 0.365436
#
#
# Mechanical properties :
#
#
# Convention : Reuss Voigt Hill
#
# Bulk Modulus (GPa) = 24.56835 45.86012 35.21423
# Shear Modulus (GPa) = 10.70211 51.49408 31.09810
#
# Velocity S-wave (km/s) = 2.23492 4.90236 3.80972
# Velocity P-wave (km/s) = 4.25749 7.31080 5.98223
#
# Compressibility (1/GPa) = 0.04070277
#
# Stress axis : x y z
#
# Youngs Moduli (GPa) = 121.14471 36.89952 108.19702
#
# Poissons Ratio (x) = 0.12804 0.38861
# Poissons Ratio (y) = 0.42036 -0.55334
# Poissons Ratio (z) = 0.43512 -0.18871
#
# Static dielectric constant tensor:
#      x y z
#    x 1.784670 0.000000 -0.001370 
#    y 0.000000 1.786770 0.000000 
#    z -0.001370 0.000000 1.809930 
# 
# From -- ./inp_files/333751.got.cif
#   From: 2010.05.17/outbox.cif.g08.bks.cpg/sg12_167_cif.got.tgz:333751.got - 2010.06.03 13:09:07.
