data_PCOD9180941
_publ_section_title
;
Structure prediction by ZEFSAII (Michael W. Deem and Ramdas Pophale) SiO2 
 PCOD9180941
Probable space group: C 2/M
;
_chemical_formula_sum "Si O2"
_cell_formula_units_Z 40
_cell_length_a 28.536570
_cell_length_b 17.915564
_cell_length_c 8.889544
_cell_angle_alpha 90.000000
_cell_angle_beta 29.273515
_cell_angle_gamma 90.000000
_cell_volume 2222.297517
_symmetry_space_group_name_H-M "C 2/M"
_symmetry_group_IT_number 12
_symmetry_cell_setting 'monoclinic'
loop_
_space_group_symop_operation_xyz
x,y,z
-x,y,-z
-x,-y,-z
x,-y,z
1/2+x,1/2+y,z
1/2-x,1/2+y,-z
1/2-x,1/2-y,-z
1/2+x,1/2-y,z
loop_
_atom_site_type_symbol
_atom_site_label
_atom_site_fract_x
_atom_site_fract_y
_atom_site_fract_z
Si Si1 0.608822 0.500000 0.129788
Si Si2 0.392670 0.789858 0.261343
Si Si3 0.058382 0.259301 0.197997
Si Si4 0.289606 0.347304 0.066456
Si Si5 0.392792 0.336581 0.492843
Si Si6 0.520328 0.500000 0.770929
O O1 0.500000 0.500000 0.500000
O O2 0.580509 0.500000 0.034712
O O3 0.666397 0.427879 0.019688
O O4 0.314149 0.835965 0.572391
O O5 0.382474 0.705245 0.361089
O O6 0.500000 0.814322 0.000000
O O7 0.388345 0.797170 0.093046
O O8 0.000000 0.298187 0.500000
O O9 0.978549 0.207774 0.338001
O O10 0.138763 0.209686 0.051804
O O11 0.299575 0.331591 0.860387
O O12 0.422965 0.422910 0.413068
O O13 0.500000 0.500000 0.000000
#
# Coordination Sequence:
#
# PCOD9180941 Si02
#       6
#     4   8   8   8   8   4
#     4  12  20  36  57  82 106 137 170 220 274 313
#     4  10  21  34  49  75 108 143 180 213 261 311
#     4   9  17  31  51  73 102 135 172 220 264 306
#     4  11  19  33  53  77 105 139 179 216 261 323
#     4  10  19  32  51  78 109 138 168 218 270 309
#     4  12  20  32  54  80 116 137 164 211 274 320
#
# _framework density 17.999389000000001
#
# number of rings (size 3 to 8) (size 9 to 14) (size 15 to 20)
#    0.000    1.600    4.000    3.600    0.000    0.000 
#    0.000    0.500    0.000    0.000    0.000    0.700 
#    0.000    0.000    0.000    0.000    0.000    0.000 
#
# Total GULP energy -111359.496986 kJ/mol
# GULP energy per Si atom -5567.974849 kJ/mol
# Density = 1.795842 g / cm^3
# Si number density = 17.999389 Si / 1000 Ang^3
#
#
#
# Elastic Constant Matrix: (Units=GPa)
#
#
# Indices 1 2 3 4 5 6 
#
# 1 43.8173 3.1213 22.5546 0.0000 25.1844 0.0000
# 2 3.1213 47.8568 32.4918 0.0000 -6.5574 0.0000
# 3 22.5546 32.4918 158.6605 0.0000 17.5265 0.0000
# 4 0.0000 0.0000 0.0000 9.6004 0.0000 -4.1124
# 5 25.1844 -6.5574 17.5265 0.0000 35.2543 0.0000
# 6 0.0000 0.0000 0.0000 -4.1124 0.0000 10.9191
#
#
#
# Elastic Compliance Matrix: (Units=1/GPa)
#
#
# Indices 1 2 3 4 5 6 
#
# 1 0.041007 -0.005824 -0.001355 0.000000 -0.029703 0.000000
# 2 -0.005824 0.027065 -0.006063 0.000000 0.012209 0.000000
# 3 -0.001355 -0.006063 0.008205 0.000000 -0.004239 0.000000
# 4 0.000000 0.000000 0.000000 0.124199 0.000000 0.046777
# 5 -0.029703 0.012209 -0.004239 0.000000 0.053963 0.000000
# 6 0.000000 0.000000 0.000000 0.046777 0.000000 0.109200
#
#
# Mechanical properties :
#
#
# Convention : Reuss Voigt Hill
#
# Bulk Modulus (GPa) = 20.08389 40.74111 30.41250
# Shear Modulus (GPa) = 12.29339 23.96588 18.12963
#
# Velocity S-wave (km/s) = 2.61624 3.65291 3.17714
# Velocity P-wave (km/s) = 4.50651 6.36204 5.51290
#
# Compressibility (1/GPa) = 0.04979116
#
# Stress axis : x y z
#
# Youngs Moduli (GPa) = 24.38621 36.94794 121.87100
#
# Poissons Ratio (x) = 0.21519 0.16519
# Poissons Ratio (y) = 0.14203 0.73895
# Poissons Ratio (z) = 0.03305 0.22403
#
# Static dielectric constant tensor:
#      x y z
#    x 1.761010 0.000000 0.073550 
#    y 0.000000 1.698010 0.000000 
#    z 0.073550 0.000000 1.690150 
# 
# From -- ./inp_files/62602.got.cif
#   From: 2010.05.17/outbox.cif.g08.bks.cpg/sg12_32_cif.got.tgz:62602.got - 2010.06.03 13:09:07.
