data_PCOD9180998
_publ_section_title
;
Structure prediction by ZEFSAII (Michael W. Deem and Ramdas Pophale) SiO2 
 PCOD9180998
Probable space group: C 2/M
;
_chemical_formula_sum "Si O2"
_cell_formula_units_Z 60
_cell_length_a 9.110435
_cell_length_b 20.981778
_cell_length_c 22.385085
_cell_angle_alpha 90.000000
_cell_angle_beta 45.614624
_cell_angle_gamma 90.000000
_cell_volume 3057.977592
_symmetry_space_group_name_H-M "C 2/M"
_symmetry_group_IT_number 12
_symmetry_cell_setting 'monoclinic'
loop_
_space_group_symop_operation_xyz
x,y,z
-x,y,-z
-x,-y,-z
x,-y,z
1/2+x,1/2+y,z
1/2-x,1/2+y,-z
1/2-x,1/2-y,-z
1/2+x,1/2-y,z
loop_
_atom_site_type_symbol
_atom_site_label
_atom_site_fract_x
_atom_site_fract_y
_atom_site_fract_z
Si Si1 0.520132 0.705908 0.423681
Si Si2 0.887211 0.648337 0.471593
Si Si3 0.930397 0.146128 0.798300
Si Si4 0.997169 0.382055 0.142042
Si Si5 0.293367 0.816450 0.020687
Si Si6 0.427020 0.000000 0.789598
Si Si7 0.861889 0.393263 0.705227
Si Si8 0.014354 0.290015 0.746104
O O1 0.500000 0.695356 0.500000
O O2 0.351854 0.658169 0.445142
O O3 0.458736 0.779813 0.432420
O O4 0.749380 0.695939 0.337292
O O5 0.000000 0.630016 0.500000
O O6 0.960280 0.605573 0.395727
O O7 0.731230 0.117775 0.821806
O O8 0.872645 0.160087 0.884063
O O9 0.138358 0.105241 0.738242
O O10 0.974165 0.215175 0.757105
O O11 0.020825 0.321124 0.179295
O O12 0.038641 0.443819 0.169452
O O13 0.156538 0.369871 0.042970
O O14 0.500000 0.806392 0.000000
O O15 0.250000 0.750000 0.000000
O O16 0.394562 0.945058 0.746643
O O17 0.878027 0.325741 0.735674
#
# Coordination Sequence:
#
# PCOD9180998 Si02
#       8
#     8   8   8   8   8   4   8   8
#     4  10  19  32  51  88 134 161 186 239 320 393
#     4  10  21  32  54  89 128 158 195 255 316 373
#     4  11  22  35  63  98 125 156 204 263 330 364
#     4  10  23  41  63  87 127 171 209 257 303 382
#     4  10  21  37  59  97 135 160 196 251 320 386
#     4  10  26  48  63  83 119 175 232 255 302 368
#     4  11  23  40  61  89 126 166 212 265 303 381
#     4  11  20  34  60  95 131 162 199 250 325 380
#
# _framework density 19.620811
#
# number of rings (size 3 to 8) (size 9 to 14) (size 15 to 20)
#    0.000    1.600    4.000    0.800    3.733    0.533 
#    0.000    4.667    0.000    6.400    0.000    0.000 
#    0.000    0.000    0.000    0.000    0.000    0.000 
#
# Total GULP energy -167014.265165 kJ/mol
# GULP energy per Si atom -5567.142172 kJ/mol
# Density = 1.957615 g / cm^3
# Si number density = 19.620811 Si / 1000 Ang^3
#
#
#
# Elastic Constant Matrix: (Units=GPa)
#
#
# Indices 1 2 3 4 5 6 
#
# 1 61.8726 34.3103 19.4936 -0.0002 15.8675 0.0001
# 2 34.3103 86.0706 23.6636 0.0000 16.7688 0.0001
# 3 19.4936 23.6636 70.3663 0.0000 7.1164 0.0000
# 4 -0.0002 0.0000 0.0000 5.8657 0.0001 9.3966
# 5 15.8675 16.7688 7.1164 0.0001 34.1150 -0.0001
# 6 0.0001 0.0001 0.0000 9.3966 -0.0001 9.2638
#
#
#
# Elastic Compliance Matrix: (Units=1/GPa)
#
#
# Indices 1 2 3 4 5 6 
#
# 1 0.022676 -0.006865 -0.003318 -0.000002 -0.006481 0.000001
# 2 -0.006865 0.015981 -0.003066 -0.000001 -0.004023 0.000000
# 3 -0.003318 -0.003066 0.016195 0.000000 -0.000328 0.000000
# 4 -0.000002 -0.000001 0.000000 -0.272814 0.000003 0.276724
# 5 -0.006481 -0.004023 -0.000328 0.000003 0.034373 -0.000003
# 6 0.000001 0.000000 0.000000 0.276724 -0.000003 -0.172742
#
#
# Mechanical properties :
#
#
# Convention : Reuss Voigt Hill
#
# Bulk Modulus (GPa) = 35.26654 41.47160 38.36907
# Shear Modulus (GPa) = -15.60635 19.23837 1.81601
#
# Velocity S-wave (km/s) = -2.82334 3.13470 0.96310
# Velocity P-wave (km/s) = 2.71749 5.85528 4.56448
#
# Compressibility (1/GPa) = 0.02835549
#
# Stress axis : x y z
#
# Youngs Moduli (GPa) = 44.09892 62.57236 61.74843
#
# Poissons Ratio (x) = 0.42953 0.20489
# Poissons Ratio (y) = 0.30272 0.18931
# Poissons Ratio (z) = 0.14632 0.19184
#
# Static dielectric constant tensor:
#      x y z
#    x 1.756640 0.000000 -0.028560 
#    y 0.000000 1.659400 0.000000 
#    z -0.028560 0.000000 1.724640 
# 
# From -- ./inp_files/301894.got.cif
#   From: 2010.05.17/outbox.cif.g08.bks.cpg/sg12_151_cif.got.tgz:301894.got - 2010.06.03 13:09:07.
