data_PCOD9180812
_publ_section_title
;
Structure prediction by ZEFSAII (Michael W. Deem and Ramdas Pophale) SiO2 
 PCOD9180812
Probable space group: C 2/M
;
_chemical_formula_sum "Si O2"
_cell_formula_units_Z 48
_cell_length_a 27.938974
_cell_length_b 8.644351
_cell_length_c 24.324902
_cell_angle_alpha 90.000000
_cell_angle_beta 150.002062
_cell_angle_gamma 90.000000
_cell_volume 2937.222710
_symmetry_space_group_name_H-M "C 2/M"
_symmetry_group_IT_number 12
_symmetry_cell_setting 'monoclinic'
loop_
_space_group_symop_operation_xyz
x,y,z
-x,y,-z
-x,-y,-z
x,-y,z
1/2+x,1/2+y,z
1/2-x,1/2+y,-z
1/2-x,1/2-y,-z
1/2+x,1/2-y,z
loop_
_atom_site_type_symbol
_atom_site_label
_atom_site_fract_x
_atom_site_fract_y
_atom_site_fract_z
Si Si1 0.855095 0.185037 0.380056
Si Si2 0.360482 0.185835 0.166875
Si Si3 0.537591 0.813813 0.618971
Si Si4 0.960210 0.684110 0.041257
Si Si5 0.354871 0.685064 0.831137
Si Si6 0.136502 0.184042 0.948669
O O1 0.892183 0.246238 0.357835
O O2 0.749553 0.249297 0.285474
O O3 0.933072 0.248464 0.500796
O O4 0.855639 0.000000 0.380590
O O5 0.424020 0.227818 0.282629
O O6 0.389619 0.266472 0.139160
O O7 0.365019 0.000000 0.163902
O O8 0.249111 0.225073 0.067599
O O9 0.537053 0.000000 0.613430
O O10 0.961330 0.500000 0.035664
O O11 0.924957 0.731239 0.066303
O O12 0.064203 0.751740 0.129653
O O13 0.888350 0.756481 0.924578
O O14 0.354385 0.500000 0.830174
O O15 0.126915 0.000000 0.945897
#
# Coordination Sequence:
#
# PCOD9180812 Si02
#       6
#     8   8   8   8   8   8
#     4  11  21  33  50  75 104 133 168 208 252 298
#     4   9  19  33  50  73 101 133 169 208 247 291
#     4  10  19  33  52  74 102 136 171 207 251 298
#     4  11  21  34  52  76 104 132 165 205 250 296
#     4  11  21  35  53  74 101 133 169 205 248 299
#     4  10  19  32  51  75 103 135 168 203 247 296
#
# _framework density 16.341968000000001
#
# number of rings (size 3 to 8) (size 9 to 14) (size 15 to 20)
#    0.000    1.667    0.000    8.500    0.000    3.333 
#    0.000    0.000    0.000    1.000    0.000    0.000 
#    0.000    0.000    0.000    0.000    0.000    0.000 
#
# Total GULP energy -134063.891033 kJ/mol
# GULP energy per Si atom -5585.995460 kJ/mol
# Density = 1.630477 g / cm^3
# Si number density = 16.341968 Si / 1000 Ang^3
#
#
#
# Elastic Constant Matrix: (Units=GPa)
#
#
# Indices 1 2 3 4 5 6 
#
# 1 104.3160 55.4573 73.9520 0.0000 -9.0270 0.0000
# 2 55.4573 125.3797 56.5174 0.0000 -4.4986 0.0000
# 3 73.9520 56.5174 119.9655 0.0000 -4.0935 0.0000
# 4 0.0000 0.0000 0.0000 25.6404 0.0000 -1.1139
# 5 -9.0270 -4.4986 -4.0935 0.0000 19.8720 0.0000
# 6 0.0000 0.0000 0.0000 -1.1139 0.0000 30.4402
#
#
#
# Elastic Compliance Matrix: (Units=1/GPa)
#
#
# Indices 1 2 3 4 5 6 
#
# 1 0.019006 -0.003818 -0.009721 0.000000 0.005767 0.000000
# 2 -0.003818 0.010928 -0.002789 0.000000 0.000165 0.000000
# 3 -0.009721 -0.002789 0.015579 0.000000 -0.001838 0.000000
# 4 0.000000 0.000000 0.000000 0.039063 0.000000 0.001429
# 5 0.005767 0.000165 -0.001838 0.000000 0.052601 0.000000
# 6 0.000000 0.000000 0.000000 0.001429 0.000000 0.032904
#
#
# Mechanical properties :
#
#
# Convention : Reuss Voigt Hill
#
# Bulk Modulus (GPa) = 77.77455 80.16827 78.97141
# Shear Modulus (GPa) = 24.15199 26.10614 25.12907
#
# Velocity S-wave (km/s) = 3.84853 4.00120 3.92561
# Velocity P-wave (km/s) = 8.21240 8.39698 8.30520
#
# Compressibility (1/GPa) = 0.01285768
#
# Stress axis : x y z
#
# Youngs Moduli (GPa) = 52.61371 91.51122 64.18763
#
# Poissons Ratio (x) = 0.34939 0.62396
# Poissons Ratio (y) = 0.20088 0.17901
# Poissons Ratio (z) = 0.51145 0.25522
#
# Static dielectric constant tensor:
#      x y z
#    x 1.524690 0.000000 -0.000560 
#    y 0.000000 1.545250 0.000000 
#    z -0.000560 0.000000 1.536660 
# 
# From -- ./inp_files/351150.got.cif
#   From: 2010.05.17/outbox.cif.g08.bks.cpg/sg12_176_cif.got.tgz:351150.got - 2010.06.03 13:09:07.
