data_PCOD9180108
_publ_section_title
;
Structure prediction by ZEFSAII (Michael W. Deem and Ramdas Pophale) SiO2 
 PCOD9180108
Probable space group: C 2/M
;
_chemical_formula_sum "Si O2"
_cell_formula_units_Z 32
_cell_length_a 8.438705
_cell_length_b 25.266472
_cell_length_c 14.550137
_cell_angle_alpha 90.000000
_cell_angle_beta 33.361984
_cell_angle_gamma 90.000000
_cell_volume 1706.052115
_symmetry_space_group_name_H-M "C 2/M"
_symmetry_group_IT_number 12
_symmetry_cell_setting 'monoclinic'
loop_
_space_group_symop_operation_xyz
x,y,z
-x,y,-z
-x,-y,-z
x,-y,z
1/2+x,1/2+y,z
1/2-x,1/2+y,-z
1/2-x,1/2-y,-z
1/2+x,1/2-y,z
loop_
_atom_site_type_symbol
_atom_site_label
_atom_site_fract_x
_atom_site_fract_y
_atom_site_fract_z
Si Si1 0.626984 0.605745 0.835551
Si Si2 0.666792 0.000000 0.690375
Si Si3 0.214451 0.500000 0.310524
Si Si4 0.335848 0.190551 0.983723
Si Si5 0.665602 0.883187 0.686178
O O1 0.603851 0.553653 0.784622
O O2 0.963110 0.617252 0.693410
O O3 0.500000 0.595682 0.000000
O O4 0.450057 0.654162 0.879931
O O5 0.471268 0.000000 0.693704
O O6 0.619021 0.941645 0.755751
O O7 0.000000 0.000000 0.500000
O O8 0.000000 0.500000 0.500000
O O9 0.546097 0.163094 0.807759
O O10 0.500000 0.189714 0.000000
O O11 0.250000 0.250000 0.000000
O O12 0.000000 0.877835 0.500000
#
# Coordination Sequence:
#
# PCOD9180108 Si02
#       5
#     8   4   4   8   8
#     4   9  19  36  56  79 114 152 181 219 274 328
#     4   8  16  31  53  80 115 145 172 215 270 319
#     4  10  19  31  53  86 117 145 181 223 265 319
#     4  11  23  40  58  79 108 144 186 232 278 327
#     4   9  18  36  60  85 111 146 183 221 270 326
#
# _framework density 18.756754999999998
#
# number of rings (size 3 to 8) (size 9 to 14) (size 15 to 20)
#    0.000    2.500    0.000    2.625    0.000    9.000 
#    0.000    7.500    0.000    0.000    0.000    0.000 
#    0.000    0.000    0.000    0.000    0.000    0.000 
#
# Total GULP energy -89162.663536 kJ/mol
# GULP energy per Si atom -5572.666471 kJ/mol
# Density = 1.871406 g / cm^3
# Si number density = 18.756755 Si / 1000 Ang^3
#
#
#
# Elastic Constant Matrix: (Units=GPa)
#
#
# Indices 1 2 3 4 5 6 
#
# 1 70.9399 63.2275 34.9821 0.0000 -20.3095 0.0000
# 2 63.2275 219.4405 69.7124 0.0000 -4.5832 0.0000
# 3 34.9821 69.7124 65.6983 0.0000 -26.3850 0.0000
# 4 0.0000 0.0000 0.0000 26.8699 0.0000 -7.4324
# 5 -20.3095 -4.5832 -26.3850 0.0000 37.9272 0.0000
# 6 0.0000 0.0000 0.0000 -7.4324 0.0000 27.5414
#
#
#
# Elastic Compliance Matrix: (Units=1/GPa)
#
#
# Indices 1 2 3 4 5 6 
#
# 1 0.023266 -0.005838 -0.002044 0.000000 0.010331 0.000000
# 2 -0.005838 0.009439 -0.010692 0.000000 -0.009424 0.000000
# 3 -0.002044 -0.010692 0.037046 0.000000 0.023385 0.000000
# 4 0.000000 0.000000 0.000000 0.040218 0.000000 0.010853
# 5 0.010331 -0.009424 0.023385 0.000000 0.047028 0.000000
# 6 0.000000 0.000000 0.000000 0.010853 0.000000 0.039238
#
#
# Mechanical properties :
#
#
# Convention : Reuss Voigt Hill
#
# Bulk Modulus (GPa) = 30.67219 76.88028 53.77624
# Shear Modulus (GPa) = 20.47074 31.01148 25.74111
#
# Velocity S-wave (km/s) = 3.30719 4.07055 3.70856
# Velocity P-wave (km/s) = 5.56520 7.94793 6.86079
#
# Compressibility (1/GPa) = 0.03260282
#
# Stress axis : x y z
#
# Youngs Moduli (GPa) = 42.98151 105.94377 26.99345
#
# Poissons Ratio (x) = 0.61855 0.05518
# Poissons Ratio (y) = 0.25095 0.28860
# Poissons Ratio (z) = 0.08786 1.13270
#
# Static dielectric constant tensor:
#      x y z
#    x 1.641370 0.000000 0.003730 
#    y 0.000000 1.688870 0.000000 
#    z 0.003730 0.000000 1.646170 
# 
# From -- ./inp_files/38370.got.cif
#   From: 2010.05.17/outbox.cif.g08.bks.cpg/sg12_20_cif.got.tgz:38370.got - 2010.06.03 13:09:07.
