data_PCOD9180132
_publ_section_title
;
Structure prediction by ZEFSAII (Michael W. Deem and Ramdas Pophale) SiO2 
 PCOD9180132
Probable space group: C 2/M
;
_chemical_formula_sum "Si O2"
_cell_formula_units_Z 36
_cell_length_a 5.218666
_cell_length_b 14.195899
_cell_length_c 24.895518
_cell_angle_alpha 90.000000
_cell_angle_beta 108.584087
_cell_angle_gamma 90.000000
_cell_volume 1748.180910
_symmetry_space_group_name_H-M "C 2/M"
_symmetry_group_IT_number 12
_symmetry_cell_setting 'monoclinic'
loop_
_space_group_symop_operation_xyz
x,y,z
-x,y,-z
-x,-y,-z
x,-y,z
1/2+x,1/2+y,z
1/2-x,1/2+y,-z
1/2-x,1/2-y,-z
1/2+x,1/2-y,z
loop_
_atom_site_type_symbol
_atom_site_label
_atom_site_fract_x
_atom_site_fract_y
_atom_site_fract_z
Si Si1 0.312867 0.192649 0.755724
Si Si2 0.426478 0.115204 0.435374
Si Si3 0.809639 0.500000 0.039187
Si Si4 0.322256 0.387516 0.367527
Si Si5 0.082671 0.683909 0.882085
O O1 0.511868 0.280150 0.754950
O O2 0.287813 0.139494 0.698051
O O3 0.466398 0.148000 0.816783
O O4 0.500000 0.148239 0.500000
O O5 0.637002 0.145416 0.404172
O O6 0.128506 0.143691 0.397276
O O7 0.431845 0.000000 0.437470
O O8 0.866027 0.594597 0.077011
O O9 0.500000 0.500000 0.000000
O O10 0.000000 0.500000 0.000000
O O11 0.323880 0.500000 0.370376
O O12 0.853706 0.754955 0.889903
#
# Coordination Sequence:
#
# PCOD9180132 Si02
#       5
#     8   8   4   8   8
#     4  10  21  38  58  81 113 151 187 235 297 348
#     4   9  17  30  48  75 108 139 181 234 288 345
#     4  12  26  42  68 102 130 170 213 254 305 360
#     4  10  19  31  54  81 101 139 188 237 287 339
#     4  10  23  43  65  93 130 171 209 256 312 365
#
# _framework density 20.592835999999998
#
# number of rings (size 3 to 8) (size 9 to 14) (size 15 to 20)
#    0.000    2.000    0.000    3.333    1.556    5.333 
#    0.000    0.000    0.000   13.333    0.000    0.000 
#    0.000    0.000    0.000    0.000    0.000    0.000 
#
# Total GULP energy -100573.134780 kJ/mol
# GULP energy per Si atom -5587.396377 kJ/mol
# Density = 2.054597 g / cm^3
# Si number density = 20.592836 Si / 1000 Ang^3
#
#
#
# Elastic Constant Matrix: (Units=GPa)
#
#
# Indices 1 2 3 4 5 6 
#
# 1 204.8891 54.3660 130.0514 0.0000 -1.6567 0.0000
# 2 54.3660 99.8301 99.6590 0.0000 4.1811 0.0000
# 3 130.0514 99.6590 248.9901 0.0000 -7.4576 0.0000
# 4 0.0000 0.0000 0.0000 55.9214 0.0000 5.3070
# 5 -1.6567 4.1811 -7.4576 0.0000 33.6671 0.0000
# 6 0.0000 0.0000 0.0000 5.3070 0.0000 -20.0518
#
#
#
# Elastic Compliance Matrix: (Units=1/GPa)
#
#
# Indices 1 2 3 4 5 6 
#
# 1 0.007312 -0.000229 -0.003741 0.000000 -0.000440 0.000000
# 2 -0.000229 0.017129 -0.006845 0.000000 -0.003655 0.000000
# 3 -0.003741 -0.006845 0.008788 0.000000 0.002613 0.000000
# 4 0.000000 0.000000 0.000000 0.017444 0.000000 0.004617
# 5 -0.000440 -0.003655 0.002613 0.000000 0.030714 0.000000
# 6 0.000000 0.000000 0.000000 0.004617 0.000000 -0.048649
#
#
# Mechanical properties :
#
#
# Convention : Reuss Voigt Hill
#
# Bulk Modulus (GPa) = 86.22092 124.65134 105.43613
# Shear Modulus (GPa) = 85.85809 31.88286 58.87047
#
# Velocity S-wave (km/s) = 6.46403 3.93905 5.35256
# Velocity P-wave (km/s) = 9.88291 9.01948 9.46105
#
# Compressibility (1/GPa) = 0.01159811
#
# Stress axis : x y z
#
# Youngs Moduli (GPa) = 136.75395 58.38127 113.78854
#
# Poissons Ratio (x) = 0.01340 0.42565
# Poissons Ratio (y) = 0.03138 0.77893
# Poissons Ratio (z) = 0.51156 0.39965
#
# Static dielectric constant tensor:
#      x y z
#    x 1.643370 0.000000 0.013810 
#    y 0.000000 1.739280 0.000000 
#    z 0.013810 0.000000 1.710380 
# 
# From -- ./inp_files/297404.got.cif
#   From: 2010.05.17/outbox.cif.g08.bks.cpg/sg12_149_cif.got.tgz:297404.got - 2010.06.03 13:09:07.
