data_PCOD9180407
_publ_section_title
;
Structure prediction by ZEFSAII (Michael W. Deem and Ramdas Pophale) SiO2 
 PCOD9180407
Probable space group: C 2/M
;
_chemical_formula_sum "Si O2"
_cell_formula_units_Z 56
_cell_length_a 31.309228
_cell_length_b 7.391626
_cell_length_c 14.650009
_cell_angle_alpha 90.000000
_cell_angle_beta 47.550724
_cell_angle_gamma 90.000000
_cell_volume 2501.687846
_symmetry_space_group_name_H-M "C 2/M"
_symmetry_group_IT_number 12
_symmetry_cell_setting 'monoclinic'
loop_
_space_group_symop_operation_xyz
x,y,z
-x,y,-z
-x,-y,-z
x,-y,z
1/2+x,1/2+y,z
1/2-x,1/2+y,-z
1/2-x,1/2-y,-z
1/2+x,1/2-y,z
loop_
_atom_site_type_symbol
_atom_site_label
_atom_site_fract_x
_atom_site_fract_y
_atom_site_fract_z
Si Si1 0.683584 0.717302 0.626998
Si Si2 0.621620 0.707007 0.543073
Si Si3 0.816851 0.714152 0.882403
Si Si4 0.487168 0.278238 0.414357
Si Si5 0.160294 0.778499 0.867192
Si Si6 0.713037 0.218842 0.267501
Si Si7 0.081805 0.202726 0.134116
O O1 0.678168 0.500000 0.636344
O O2 0.750000 0.750000 0.500000
O O3 0.638364 0.788611 0.616559
O O4 0.667959 0.779746 0.751467
O O5 0.603559 0.500000 0.585647
O O6 0.573524 0.781900 0.543163
O O7 0.681764 0.711437 0.401829
O O8 0.827634 0.500000 0.871966
O O9 0.822756 0.776793 0.769500
O O10 0.860251 0.806420 0.888469
O O11 0.750000 0.750000 0.000000
O O12 0.500000 0.218363 0.500000
O O13 0.488463 0.500000 0.416495
O O14 0.535017 0.217251 0.271112
O O15 0.220198 0.724097 0.830299
O O16 0.158389 0.000000 0.871298
O O17 0.105107 0.715357 0.005606
O O18 0.712706 0.000000 0.270176
O O19 0.060635 0.000000 0.143276
#
# Coordination Sequence:
#
# PCOD9180407 Si02
#       7
#     8   8   8   8   8   8   8
#     4  10  19  32  51  75 106 134 169 216 260 308
#     4  10  20  33  52  80 103 131 178 221 254 303
#     4  11  21  32  48  74 105 134 169 211 257 311
#     4   9  18  33  53  76 104 136 173 217 262 306
#     4   9  17  31  49  72 102 134 166 205 259 313
#     4  10  19  32  49  72 104 137 167 204 259 318
#     4  10  19  35  55  72 100 143 176 209 260 311
#
# _framework density 22.384888
#
# number of rings (size 3 to 8) (size 9 to 14) (size 15 to 20)
#    0.000    2.143    2.857    1.286    0.000    2.286 
#    0.000    2.143    0.000    6.857    0.000    0.000 
#    0.000    3.429    0.000    0.000    0.000    0.000 
#
# Total GULP energy -156242.816052 kJ/mol
# GULP energy per Si atom -5580.100573 kJ/mol
# Density = 2.233394 g / cm^3
# Si number density = 22.384888 Si / 1000 Ang^3
#
#
#
# Elastic Constant Matrix: (Units=GPa)
#
#
# Indices 1 2 3 4 5 6 
#
# 1 118.3840 2.5031 57.3475 0.0000 22.5347 -0.0001
# 2 2.5031 83.1740 -2.3970 -0.0001 5.2930 -0.0002
# 3 57.3475 -2.3970 166.4640 0.0000 20.0816 0.0001
# 4 0.0000 -0.0001 0.0000 6.7621 0.0000 -0.7929
# 5 22.5347 5.2930 20.0816 0.0000 44.1922 0.0000
# 6 -0.0001 -0.0002 0.0001 -0.7929 0.0000 2.9320
#
#
#
# Elastic Compliance Matrix: (Units=1/GPa)
#
#
# Indices 1 2 3 4 5 6 
#
# 1 0.010779 -0.000162 -0.003232 0.000000 -0.004008 0.000000
# 2 -0.000162 0.012139 0.000419 0.000000 -0.001562 0.000001
# 3 -0.003232 0.000419 0.007336 0.000000 -0.001736 0.000000
# 4 0.000000 0.000000 0.000000 0.152727 0.000000 0.041303
# 5 -0.004008 -0.001562 -0.001736 0.000000 0.025648 0.000000
# 6 0.000000 0.000001 0.000000 0.041303 0.000000 0.352237
#
#
# Mechanical properties :
#
#
# Convention : Reuss Voigt Hill
#
# Bulk Modulus (GPa) = 41.14602 53.65881 47.40241
# Shear Modulus (GPa) = 8.69687 31.48181 20.08934
#
# Velocity S-wave (km/s) = 1.97322 3.75425 2.99900
# Velocity P-wave (km/s) = 4.85927 6.54336 5.76316
#
# Compressibility (1/GPa) = 0.02430369
#
# Stress axis : x y z
#
# Youngs Moduli (GPa) = 92.77023 82.37683 136.30910
#
# Poissons Ratio (x) = 0.01338 0.44059
# Poissons Ratio (y) = 0.01507 -0.05714
# Poissons Ratio (z) = 0.29986 -0.03453
#
# Static dielectric constant tensor:
#      x y z
#    x 1.813610 0.000000 0.029410 
#    y 0.000000 1.857100 0.000000 
#    z 0.029410 0.000000 1.866520 
# 
# From -- ./inp_files/237311.got.cif
#   From: 2010.05.17/outbox.cif.g08.bks.cpg/sg12_119_cif.got.tgz:237311.got - 2010.06.03 13:09:07.
