data_PCOD9180655
_publ_section_title
;
Structure prediction by ZEFSAII (Michael W. Deem and Ramdas Pophale) SiO2 
 PCOD9180655
Probable space group: C 2/M
;
_chemical_formula_sum "Si O2"
_cell_formula_units_Z 58
_cell_length_a 13.906144
_cell_length_b 7.602131
_cell_length_c 23.007023
_cell_angle_alpha 90.000000
_cell_angle_beta 118.872784
_cell_angle_gamma 90.000000
_cell_volume 2129.878688
_symmetry_space_group_name_H-M "C 2/M"
_symmetry_group_IT_number 12
_symmetry_cell_setting 'monoclinic'
loop_
_space_group_symop_operation_xyz
x,y,z
-x,y,-z
-x,-y,-z
x,-y,z
1/2+x,1/2+y,z
1/2-x,1/2+y,-z
1/2-x,1/2-y,-z
1/2+x,1/2-y,z
loop_
_atom_site_type_symbol
_atom_site_label
_atom_site_fract_x
_atom_site_fract_y
_atom_site_fract_z
Si Si1 0.264657 0.711115 0.071612
Si Si2 0.931152 0.197739 0.900474
Si Si3 0.326348 0.197725 0.380255
Si Si4 0.252055 0.786009 0.234945
Si Si5 0.096997 0.702317 0.353487
Si Si6 0.441366 0.696803 0.206533
Si Si7 0.624854 0.789988 0.483991
Si Si8 0.500000 0.000000 0.000000
O O1 0.245023 0.500000 0.074203
O O2 0.173841 0.804974 0.085182
O O3 0.387583 0.756562 0.130199
O O4 0.250000 0.750000 0.000000
O O5 0.873363 0.245677 0.821588
O O6 0.977587 0.000000 0.912383
O O7 0.002727 0.346410 0.950388
O O8 0.298783 0.278921 0.309945
O O9 0.202046 0.184915 0.368388
O O10 0.387097 0.281105 0.453687
O O11 0.369705 0.000000 0.382280
O O12 0.328652 0.695053 0.210645
O O13 0.264392 0.000000 0.236381
O O14 0.132260 0.500000 0.371323
O O15 0.055009 0.759968 0.405680
O O16 0.018634 0.706524 0.275000
O O17 0.485879 0.500000 0.213381
O O18 0.750000 0.750000 0.500000
O O19 0.614227 0.000000 0.488835
#
# Coordination Sequence:
#
# PCOD9180655 Si02
#       8
#     8   8   8   8   8   8   8   2
#     4  10  20  38  60  83 108 142 187 231 281 339
#     4  10  21  39  60  84 114 150 186 231 280 340
#     4   9  17  33  55  79 106 140 179 221 272 327
#     4   9  19  36  58  79 105 143 183 220 272 331
#     4  10  19  32  50  80 110 138 179 226 268 317
#     4  10  21  36  56  77 105 144 181 221 272 324
#     4   8  15  28  49  73 104 140 174 216 269 321
#     4  12  22  40  60  86 116 148 192 222 288 340
#
# _framework density 27.231598999999999
#
# number of rings (size 3 to 8) (size 9 to 14) (size 15 to 20)
#    0.000    2.483    0.690    1.448    0.966    2.759 
#    2.483    0.690    0.000    4.138    0.000    0.000 
#    0.000    0.000    0.000    0.000    0.000    0.000 
#
# Total GULP energy -161788.651125 kJ/mol
# GULP energy per Si atom -5578.919004 kJ/mol
# Density = 2.716962 g / cm^3
# Si number density = 27.231599 Si / 1000 Ang^3
#
#
#
# Elastic Constant Matrix: (Units=GPa)
#
#
# Indices 1 2 3 4 5 6 
#
# 1 44.8909 15.7265 26.6040 0.0000 4.3157 0.0000
# 2 15.7265 110.9703 46.1588 0.0000 8.6903 0.0000
# 3 26.6040 46.1588 286.9313 0.0000 -11.9123 0.0000
# 4 0.0000 0.0000 0.0000 8.8707 0.0000 1.4376
# 5 4.3157 8.6903 -11.9123 0.0000 49.7820 0.0000
# 6 0.0000 0.0000 0.0000 1.4376 0.0000 20.8486
#
#
#
# Elastic Compliance Matrix: (Units=1/GPa)
#
#
# Indices 1 2 3 4 5 6 
#
# 1 0.024519 -0.002489 -0.001963 0.000000 -0.002161 0.000000
# 2 -0.002489 0.010128 -0.001478 0.000000 -0.001906 0.000000
# 3 -0.001963 -0.001478 0.003962 0.000000 0.001376 0.000000
# 4 0.000000 0.000000 0.000000 0.114005 0.000000 -0.007861
# 5 -0.002161 -0.001906 0.001376 0.000000 0.020937 0.000000
# 6 0.000000 0.000000 0.000000 -0.007861 0.000000 0.048507
#
#
# Mechanical properties :
#
#
# Convention : Reuss Voigt Hill
#
# Bulk Modulus (GPa) = 37.38296 68.86346 53.12321
# Shear Modulus (GPa) = 20.59023 39.52046 30.05535
#
# Velocity S-wave (km/s) = 2.75274 3.81369 3.32579
# Velocity P-wave (km/s) = 4.88477 6.68844 5.85646
#
# Compressibility (1/GPa) = 0.02675016
#
# Stress axis : x y z
#
# Youngs Moduli (GPa) = 40.78449 98.73548 252.39968
#
# Poissons Ratio (x) = 0.24577 0.49537
# Poissons Ratio (y) = 0.10152 0.37295
# Poissons Ratio (z) = 0.08005 0.14589
#
# Static dielectric constant tensor:
#      x y z
#    x 2.275430 0.000000 0.052760 
#    y 0.000000 1.988790 0.000000 
#    z 0.052760 0.000000 2.292830 
# 
# From -- ./inp_files/314827.got.cif
#   From: 2010.05.17/outbox.cif.g08.bks.cpg/sg12_158_cif.got.tgz:314827.got - 2010.06.03 13:09:07.
