data_PCOD9180382
_publ_section_title
;
Structure prediction by ZEFSAII (Michael W. Deem and Ramdas Pophale) SiO2 
 PCOD9180382
Probable space group: C 2/M
;
_chemical_formula_sum "Si O2"
_cell_formula_units_Z 64
_cell_length_a 26.542334
_cell_length_b 7.351716
_cell_length_c 18.311155
_cell_angle_alpha 90.000000
_cell_angle_beta 55.128550
_cell_angle_gamma 90.000000
_cell_volume 2931.492175
_symmetry_space_group_name_H-M "C 2/M"
_symmetry_group_IT_number 12
_symmetry_cell_setting 'monoclinic'
loop_
_space_group_symop_operation_xyz
x,y,z
-x,y,-z
-x,-y,-z
x,-y,z
1/2+x,1/2+y,z
1/2-x,1/2+y,-z
1/2-x,1/2-y,-z
1/2+x,1/2-y,z
loop_
_atom_site_type_symbol
_atom_site_label
_atom_site_fract_x
_atom_site_fract_y
_atom_site_fract_z
Si Si1 0.849555 0.777428 0.212030
Si Si2 0.279699 0.718537 0.125119
Si Si3 0.972740 0.777660 0.599178
Si Si4 0.440522 0.279687 0.342327
Si Si5 0.862989 0.214400 0.784249
Si Si6 0.017592 0.219731 0.855697
Si Si7 0.188508 0.216669 0.595450
Si Si8 0.114693 0.222848 0.069723
O O1 0.809334 0.717529 0.176732
O O2 0.921597 0.720047 0.150824
O O3 0.819517 0.718617 0.314243
O O4 0.850231 0.000000 0.210867
O O5 0.282762 0.500000 0.123602
O O6 0.208938 0.764654 0.171119
O O7 0.324167 0.780553 0.023108
O O8 0.905573 0.717946 0.682616
O O9 0.000000 0.714531 0.500000
O O10 0.018359 0.718209 0.625524
O O11 0.972319 0.000000 0.595867
O O12 0.441266 0.500000 0.345001
O O13 0.467322 0.234298 0.240981
O O14 0.370471 0.216621 0.400643
O O15 0.882175 0.285066 0.848592
O O16 0.875844 0.000000 0.778179
O O17 0.947114 0.279867 0.922346
O O18 0.016799 0.000000 0.864098
O O19 0.250000 0.250000 0.500000
O O20 0.182317 0.000000 0.606269
O O21 0.113643 0.000000 0.071554
#
# Coordination Sequence:
#
# PCOD9180382 Si02
#       8
#     8   8   8   8   8   8   8   8
#     4   8  16  29  44  66  96 125 153 190 238 283
#     4  10  20  32  46  69 101 131 157 189 234 289
#     4   9  16  26  43  68  92 114 149 197 239 271
#     4   8  13  24  41  61  85 113 144 184 231 271
#     4  10  19  32  49  70  96 125 160 199 239 281
#     4   8  12  23  44  66  88 114 148 194 236 268
#     4   9  17  29  47  68  90 120 155 188 230 281
#     4   9  16  27  47  72  94 121 159 200 240 280
#
# _framework density 21.831885
#
# number of rings (size 3 to 8) (size 9 to 14) (size 15 to 20)
#    0.000    3.125    1.250    1.875    0.000    1.500 
#    0.000    4.375    0.000    1.125    0.000    3.500 
#    0.000    0.000    0.000    0.000    0.000    0.000 
#
# Total GULP energy -178487.228507 kJ/mol
# GULP energy per Si atom -5577.725891 kJ/mol
# Density = 2.178219 g / cm^3
# Si number density = 21.831885 Si / 1000 Ang^3
#
#
#
# Elastic Constant Matrix: (Units=GPa)
#
#
# Indices 1 2 3 4 5 6 
#
# 1 111.9823 -5.7712 61.8281 0.0006 -19.5864 -0.0010
# 2 -5.7712 76.7760 1.9333 0.0024 3.5689 -0.0018
# 3 61.8281 1.9333 139.4186 0.0013 -30.4110 0.0000
# 4 0.0006 0.0024 0.0013 4.6342 -0.0001 -13.2545
# 5 -19.5864 3.5689 -30.4110 -0.0001 36.9229 0.0002
# 6 -0.0010 -0.0018 0.0000 -13.2545 0.0002 3.4338
#
#
#
# Elastic Compliance Matrix: (Units=1/GPa)
#
#
# Indices 1 2 3 4 5 6 
#
# 1 0.012064 0.000922 -0.004859 -0.000001 0.002308 0.000000
# 2 0.000922 0.013190 -0.000930 -0.000001 -0.001552 0.000002
# 3 -0.004859 -0.000930 0.010725 0.000001 0.006345 0.000001
# 4 -0.000001 -0.000001 0.000001 -0.021492 0.000001 -0.082961
# 5 0.002308 -0.001552 0.006345 0.000001 0.033684 0.000000
# 6 0.000000 0.000002 0.000001 -0.082961 0.000000 -0.029006
#
#
# Mechanical properties :
#
#
# Convention : Reuss Voigt Hill
#
# Bulk Modulus (GPa) = 38.10536 49.35082 43.72809
# Shear Modulus (GPa) = 132.80921 27.01062 79.90992
#
# Velocity S-wave (km/s) = 7.80799 3.52122 6.05655
# Velocity P-wave (km/s) = 9.93872 6.25987 8.30554
#
# Compressibility (1/GPa) = 0.02624303
#
# Stress axis : x y z
#
# Youngs Moduli (GPa) = 82.88976 75.81628 93.24306
#
# Poissons Ratio (x) = -0.06990 0.45311
# Poissons Ratio (y) = -0.07642 0.08674
# Poissons Ratio (z) = 0.40280 0.07053
#
# Static dielectric constant tensor:
#      x y z
#    x 1.776690 0.000000 -0.019470 
#    y 0.000000 1.881400 0.000000 
#    z -0.019470 0.000000 1.788380 
# 
# From -- ./inp_files/289092.got.cif
#   From: 2010.05.17/outbox.cif.g08.bks.cpg/sg12_145_cif.got.tgz:289092.got - 2010.06.03 13:09:07.
