data_PCOD9180536
_publ_section_title
;
Structure prediction by ZEFSAII (Michael W. Deem and Ramdas Pophale) SiO2 
 PCOD9180536
Probable space group: C 2/M
;
_chemical_formula_sum "Si O2"
_cell_formula_units_Z 64
_cell_length_a 19.508867
_cell_length_b 7.358343
_cell_length_c 20.010215
_cell_angle_alpha 90.000000
_cell_angle_beta 101.338711
_cell_angle_gamma 90.000000
_cell_volume 2816.459281
_symmetry_space_group_name_H-M "C 2/M"
_symmetry_group_IT_number 12
_symmetry_cell_setting 'monoclinic'
loop_
_space_group_symop_operation_xyz
x,y,z
-x,y,-z
-x,-y,-z
x,-y,z
1/2+x,1/2+y,z
1/2-x,1/2+y,-z
1/2-x,1/2-y,-z
1/2+x,1/2-y,z
loop_
_atom_site_type_symbol
_atom_site_label
_atom_site_fract_x
_atom_site_fract_y
_atom_site_fract_z
Si Si1 0.919611 0.778317 0.982805
Si Si2 0.550686 0.277627 0.289233
Si Si3 0.310725 0.716262 0.065165
Si Si4 0.224046 0.780435 0.793316
Si Si5 0.881989 0.788314 0.830026
Si Si6 0.321351 0.279918 0.592179
Si Si7 0.903860 0.222505 0.324903
Si Si8 0.837196 0.210905 0.444437
O O1 0.886833 0.713916 0.906237
O O2 0.914920 0.000000 0.983273
O O3 0.879265 0.713706 0.040709
O O4 0.000000 0.727942 0.000000
O O5 0.550131 0.500000 0.288316
O O6 0.566428 0.214609 0.216803
O O7 0.616625 0.222761 0.347267
O O8 0.477202 0.220281 0.306877
O O9 0.318545 0.500000 0.075221
O O10 0.291987 0.786854 0.134590
O O11 0.250000 0.750000 0.000000
O O12 0.302363 0.723857 0.789656
O O13 0.162100 0.721547 0.732800
O O14 0.224362 0.000000 0.793314
O O15 0.900449 0.000000 0.840187
O O16 0.319704 0.500000 0.591214
O O17 0.243108 0.220733 0.596263
O O18 0.336065 0.213192 0.519271
O O19 0.888178 0.285284 0.397372
O O20 0.904266 0.000000 0.325759
O O21 0.856231 0.000000 0.455885
#
# Coordination Sequence:
#
# PCOD9180536 Si02
#       8
#     8   8   8   8   8   8   8   8
#     4   9  18  30  47  71  94 118 153 194 233 276
#     4   9  18  30  47  72  98 122 156 200 238 273
#     4  10  19  32  50  72  95 121 155 195 236 278
#     4  10  20  32  50  71  95 125 156 194 235 279
#     4  10  19  32  51  71  93 124 158 195 237 279
#     4   9  17  30  49  73  97 124 158 196 233 274
#     4   9  18  31  47  72  99 124 157 196 237 278
#     4   9  17  30  50  72  96 127 159 191 232 280
#
# _framework density 22.723566000000002
#
# number of rings (size 3 to 8) (size 9 to 14) (size 15 to 20)
#    0.000    2.625    1.250    0.750    1.750    0.500 
#    0.000    2.500    0.000    4.500    0.000    3.500 
#    0.000    0.000    0.000    0.000    0.000    0.000 
#
# Total GULP energy -178747.308027 kJ/mol
# GULP energy per Si atom -5585.853376 kJ/mol
# Density = 2.267185 g / cm^3
# Si number density = 22.723566 Si / 1000 Ang^3
#
#
#
# Elastic Constant Matrix: (Units=GPa)
#
#
# Indices 1 2 3 4 5 6 
#
# 1 96.2741 -12.1235 28.1420 0.0000 -38.6435 0.0000
# 2 -12.1235 83.4144 0.7160 0.0000 -5.4847 0.0000
# 3 28.1420 0.7160 79.3025 0.0000 -31.9874 0.0000
# 4 0.0000 0.0000 0.0000 -0.9362 0.0000 16.2532
# 5 -38.6435 -5.4847 -31.9874 0.0000 47.8992 0.0000
# 6 0.0000 0.0000 0.0000 16.2532 0.0000 -32.4984
#
#
#
# Elastic Compliance Matrix: (Units=1/GPa)
#
#
# Indices 1 2 3 4 5 6 
#
# 1 0.016198 0.003220 -0.000489 0.000000 0.013110 0.000000
# 2 0.003220 0.012741 0.000518 0.000000 0.004403 0.000000
# 3 -0.000489 0.000518 0.017305 0.000000 0.011221 0.000000
# 4 0.000000 0.000000 0.000000 0.139035 0.000000 0.069535
# 5 0.013110 0.004403 0.011221 0.000000 0.039451 0.000000
# 6 0.000000 0.000000 0.000000 0.069535 0.000000 0.004005
#
#
# Mechanical properties :
#
#
# Convention : Reuss Voigt Hill
#
# Bulk Modulus (GPa) = 18.95987 32.49556 25.72771
# Shear Modulus (GPa) = 20.84918 19.04336 19.94627
#
# Velocity S-wave (km/s) = 3.03233 2.89804 2.96595
# Velocity P-wave (km/s) = 4.54113 5.05268 4.80372
#
# Compressibility (1/GPa) = 0.05274299
#
# Stress axis : x y z
#
# Youngs Moduli (GPa) = 61.73722 78.48395 57.78677
#
# Poissons Ratio (x) = -0.25275 0.02827
# Poissons Ratio (y) = -0.19882 -0.02994
# Poissons Ratio (z) = 0.03020 -0.04067
#
# Static dielectric constant tensor:
#      x y z
#    x 1.798480 0.000000 -0.024780 
#    y 0.000000 1.900460 0.000000 
#    z -0.024780 0.000000 1.839330 
# 
# From -- ./inp_files/315090.got.cif
#   From: 2010.05.17/outbox.cif.g08.bks.cpg/sg12_158_cif.got.tgz:315090.got - 2010.06.03 13:09:07.
