data_PCOD9180405
_publ_section_title
;
Structure prediction by ZEFSAII (Michael W. Deem and Ramdas Pophale) SiO2 
 PCOD9180405
Probable space group: C 2/M
;
_chemical_formula_sum "Si O2"
_cell_formula_units_Z 56
_cell_length_a 34.233872
_cell_length_b 7.386075
_cell_length_c 11.865655
_cell_angle_alpha 90.000000
_cell_angle_beta 53.278718
_cell_angle_gamma 90.000000
_cell_volume 2404.883403
_symmetry_space_group_name_H-M "C 2/M"
_symmetry_group_IT_number 12
_symmetry_cell_setting 'monoclinic'
loop_
_space_group_symop_operation_xyz
x,y,z
-x,y,-z
-x,-y,-z
x,-y,z
1/2+x,1/2+y,z
1/2-x,1/2+y,-z
1/2-x,1/2-y,-z
1/2+x,1/2-y,z
loop_
_atom_site_type_symbol
_atom_site_label
_atom_site_fract_x
_atom_site_fract_y
_atom_site_fract_z
Si Si1 0.476853 0.779235 0.418440
Si Si2 0.810243 0.276686 0.192985
Si Si3 0.304286 0.784130 0.950491
Si Si4 0.620601 0.798229 0.751249
Si Si5 0.480165 0.780327 0.159650
Si Si6 0.795095 0.792085 0.552822
Si Si7 0.635704 0.780402 0.360760
O O1 0.500000 0.722114 0.500000
O O2 0.496640 0.722306 0.258559
O O3 0.419689 0.727086 0.519984
O O4 0.479605 0.000000 0.414007
O O5 0.810130 0.500000 0.195675
O O6 0.858814 0.211706 0.171522
O O7 0.759422 0.221310 0.338405
O O8 0.809132 0.214011 0.067495
O O9 0.344976 0.719170 0.793792
O O10 0.310183 0.000000 0.946446
O O11 0.250000 0.750000 0.000000
O O12 0.576568 0.722980 0.754868
O O13 0.669040 0.807813 0.593121
O O14 0.603713 0.000000 0.811112
O O15 0.485212 0.000000 0.154487
O O16 0.500000 0.725041 0.000000
O O17 0.823817 0.785274 0.621200
O O18 0.792421 0.000000 0.520440
O O19 0.636599 0.000000 0.365185
#
# Coordination Sequence:
#
# PCOD9180405 Si02
#       7
#     8   8   8   8   8   8   8
#     4   9  17  30  49  76 104 125 161 216 261 302
#     4   9  19  32  48  74 105 136 169 210 252 296
#     4  10  19  32  49  72 103 136 172 205 248 299
#     4  10  19  34  53  73 103 135 170 211 253 306
#     4   9  17  29  49  76 101 128 163 207 260 308
#     4  11  20  32  51  74 102 134 172 210 249 297
#     4  10  19  32  53  77 100 135 171 204 252 306
#
# _framework density 23.285952999999999
#
# number of rings (size 3 to 8) (size 9 to 14) (size 15 to 20)
#    0.000    2.286    2.857    0.857    0.000    1.143 
#    0.000    7.143    0.000    0.857    0.000    0.000 
#    0.000    0.000    0.000    0.000    0.000    0.000 
#
# Total GULP energy -156157.161349 kJ/mol
# GULP energy per Si atom -5577.041477 kJ/mol
# Density = 2.323295 g / cm^3
# Si number density = 23.285953 Si / 1000 Ang^3
#
#
#
# Elastic Constant Matrix: (Units=GPa)
#
#
# Indices 1 2 3 4 5 6 
#
# 1 136.2290 0.3460 50.9188 0.0000 36.3231 0.0000
# 2 0.3460 82.7618 3.0221 0.0000 1.0019 0.0000
# 3 50.9188 3.0221 134.1261 0.0000 29.4132 0.0000
# 4 0.0000 0.0000 0.0000 1.2868 0.0000 3.1314
# 5 36.3231 1.0019 29.4132 0.0000 37.5876 0.0000
# 6 0.0000 0.0000 0.0000 3.1314 0.0000 -15.3673
#
#
#
# Elastic Compliance Matrix: (Units=1/GPa)
#
#
# Indices 1 2 3 4 5 6 
#
# 1 0.010356 0.000135 -0.002099 0.000000 -0.008369 0.000000
# 2 0.000135 0.012095 -0.000271 0.000000 -0.000241 0.000000
# 3 -0.002099 -0.000271 0.009431 0.000000 -0.005344 0.000000
# 4 0.000000 0.000000 0.000000 0.519523 0.000000 0.105862
# 5 -0.008369 -0.000241 -0.005344 0.000000 0.038880 0.000000
# 6 0.000000 0.000000 0.000000 0.105862 0.000000 -0.043502
#
#
# Mechanical properties :
#
#
# Convention : Reuss Voigt Hill
#
# Bulk Modulus (GPa) = 36.48206 51.29896 43.89051
# Shear Modulus (GPa) = 8.92235 24.62340 16.77287
#
# Velocity S-wave (km/s) = 1.95958 3.25535 2.68675
# Velocity P-wave (km/s) = 4.56300 6.01727 5.33987
#
# Compressibility (1/GPa) = 0.02741073
#
# Stress axis : x y z
#
# Youngs Moduli (GPa) = 96.55945 82.67800 106.03747
#
# Poissons Ratio (x) = -0.01113 0.22262
# Poissons Ratio (y) = -0.01300 0.02873
# Poissons Ratio (z) = 0.20272 0.02240
#
# Static dielectric constant tensor:
#      x y z
#    x 1.860620 0.000000 0.057080 
#    y 0.000000 1.884910 0.000000 
#    z 0.057080 0.000000 1.903040 
# 
# From -- ./inp_files/187199.got.cif
#   From: 2010.05.17/outbox.cif.g08.bks.cpg/sg12_94_cif.got.tgz:187199.got - 2010.06.03 13:09:07.
