data_PCOD9180641
_publ_section_title
;
Structure prediction by ZEFSAII (Michael W. Deem and Ramdas Pophale) SiO2 
 PCOD9180641
Probable space group: C 2/M
;
_chemical_formula_sum "Si O2"
_cell_formula_units_Z 64
_cell_length_a 33.172472
_cell_length_b 8.697549
_cell_length_c 15.650079
_cell_angle_alpha 90.000000
_cell_angle_beta 134.392094
_cell_angle_gamma 90.000000
_cell_volume 3226.528885
_symmetry_space_group_name_H-M "C 2/M"
_symmetry_group_IT_number 12
_symmetry_cell_setting 'monoclinic'
loop_
_space_group_symop_operation_xyz
x,y,z
-x,y,-z
-x,-y,-z
x,-y,z
1/2+x,1/2+y,z
1/2-x,1/2+y,-z
1/2-x,1/2-y,-z
1/2+x,1/2-y,z
loop_
_atom_site_type_symbol
_atom_site_label
_atom_site_fract_x
_atom_site_fract_y
_atom_site_fract_z
Si Si1 0.414650 0.183451 0.626829
Si Si2 0.409434 0.327844 0.804983
Si Si3 0.099780 0.814730 0.019642
Si Si4 0.274625 0.326112 0.619842
Si Si5 0.724422 0.179402 0.200995
Si Si6 0.658083 0.184320 0.637900
Si Si7 0.563595 0.683786 0.622752
Si Si8 0.460486 0.183905 0.234755
O O1 0.420002 0.244536 0.731244
O O2 0.363812 0.236807 0.489436
O O3 0.472960 0.221170 0.665420
O O4 0.409876 0.000000 0.625924
O O5 0.434051 0.500000 0.836122
O O6 0.422228 0.261402 0.918701
O O7 0.341625 0.338906 0.708824
O O8 0.164480 0.763042 0.098129
O O9 0.098124 0.000000 0.018758
O O10 0.063205 0.746035 0.889536
O O11 0.252647 0.500000 0.603202
O O12 0.250000 0.250000 0.500000
O O13 0.264323 0.213281 0.682725
O O14 0.781329 0.248061 0.245074
O O15 0.718514 0.000000 0.173588
O O16 0.609967 0.236844 0.632202
O O17 0.661797 0.000000 0.641972
O O18 0.500000 0.727414 0.500000
O O19 0.569009 0.500000 0.623776
O O20 0.569167 0.737211 0.728868
O O21 0.453923 0.000000 0.229542
#
# Coordination Sequence:
#
# PCOD9180641 Si02
#       8
#     8   8   8   8   8   8   8   8
#     4  10  22  36  56  87 122 157 199 246 298 354
#     4   9  20  35  53  78 114 156 200 246 294 346
#     4  10  22  42  62  85 118 161 207 250 297 356
#     4  10  19  32  50  77 112 155 201 249 300 355
#     4  11  22  37  58  86 118 157 200 248 299 358
#     4  11  22  39  62  90 125 161 196 247 303 359
#     4  11  23  40  64  94 123 155 195 243 299 361
#     4  11  23  41  63  89 119 158 201 247 301 359
#
# _framework density 19.835557999999999
#
# number of rings (size 3 to 8) (size 9 to 14) (size 15 to 20)
#    0.000    1.625    1.250    4.500    0.000    8.000 
#    0.000    3.125    0.000    0.000    0.000    0.000 
#    0.000    0.000    0.000    0.000    0.000    0.000 
#
# Total GULP energy -178631.516834 kJ/mol
# GULP energy per Si atom -5582.234901 kJ/mol
# Density = 1.979041 g / cm^3
# Si number density = 19.835558 Si / 1000 Ang^3
#
#
#
# Elastic Constant Matrix: (Units=GPa)
#
#
# Indices 1 2 3 4 5 6 
#
# 1 82.6174 12.2737 0.0392 0.0000 -4.4351 0.0000
# 2 12.2737 31.7376 -0.2453 0.0000 8.7338 0.0000
# 3 0.0392 -0.2453 53.8570 0.0000 -10.0912 0.0000
# 4 0.0000 0.0000 0.0000 26.6951 0.0000 -1.9040
# 5 -4.4351 8.7338 -10.0912 0.0000 29.6883 0.0000
# 6 0.0000 0.0000 0.0000 -1.9040 0.0000 33.1408
#
#
#
# Elastic Compliance Matrix: (Units=1/GPa)
#
#
# Indices 1 2 3 4 5 6 
#
# 1 0.013248 -0.006235 0.000722 0.000000 0.004059 0.000000
# 2 -0.006235 0.037392 -0.002201 0.000000 -0.012679 0.000000
# 3 0.000722 -0.002201 0.019971 0.000000 0.007543 0.000000
# 4 0.000000 0.000000 0.000000 0.037614 0.000000 0.002161
# 5 0.004059 -0.012679 0.007543 0.000000 0.040584 0.000000
# 6 0.000000 0.000000 0.000000 0.002161 0.000000 0.030298
#
#
# Mechanical properties :
#
#
# Convention : Reuss Voigt Hill
#
# Bulk Modulus (GPa) = 18.12121 21.37190 19.74656
# Shear Modulus (GPa) = 23.48223 28.31447 25.89835
#
# Velocity S-wave (km/s) = 3.44444 3.78227 3.61730
# Velocity P-wave (km/s) = 4.99744 5.46553 5.23672
#
# Compressibility (1/GPa) = 0.05518395
#
# Stress axis : x y z
#
# Youngs Moduli (GPa) = 75.48451 26.74392 50.07376
#
# Poissons Ratio (x) = 0.16674 -0.03618
# Poissons Ratio (y) = 0.47061 0.11021
# Poissons Ratio (z) = -0.05453 0.05886
#
# Static dielectric constant tensor:
#      x y z
#    x 1.690150 0.000000 0.045100 
#    y 0.000000 1.688310 0.000000 
#    z 0.045100 0.000000 1.659000 
# 
# From -- ./inp_files/250011.got.cif
#   From: 2010.05.17/outbox.cif.g08.bks.cpg/sg12_126_cif.got.tgz:250011.got - 2010.06.03 13:09:07.
