data_PCOD9180181
_publ_section_title
;
Structure prediction by ZEFSAII (Michael W. Deem and Ramdas Pophale) SiO2 
 PCOD9180181
Probable space group: C 2/M
;
_chemical_formula_sum "Si O2"
_cell_formula_units_Z 56
_cell_length_a 13.032150
_cell_length_b 16.802416
_cell_length_c 14.432600
_cell_angle_alpha 90.000000
_cell_angle_beta 105.169290
_cell_angle_gamma 90.000000
_cell_volume 3050.213874
_symmetry_space_group_name_H-M "C 2/M"
_symmetry_group_IT_number 12
_symmetry_cell_setting 'monoclinic'
loop_
_space_group_symop_operation_xyz
x,y,z
-x,y,-z
-x,-y,-z
x,-y,z
1/2+x,1/2+y,z
1/2-x,1/2+y,-z
1/2-x,1/2-y,-z
1/2+x,1/2-y,z
loop_
_atom_site_type_symbol
_atom_site_label
_atom_site_fract_x
_atom_site_fract_y
_atom_site_fract_z
Si Si1 0.172733 0.909536 0.368277
Si Si2 0.575243 0.409899 0.641090
Si Si3 0.742982 0.669041 0.556305
Si Si4 0.793916 0.144039 0.153803
Si Si5 0.383608 0.084741 0.019006
Si Si6 0.448438 0.249268 0.089484
Si Si7 0.340175 0.249048 0.743961
O O1 0.245972 0.897087 0.476755
O O2 0.190876 0.836346 0.301900
O O3 0.049790 0.898053 0.372323
O O4 0.182761 0.000000 0.335213
O O5 0.591074 0.500000 0.609109
O O6 0.633452 0.348600 0.586058
O O7 0.636016 0.401201 0.753359
O O8 0.750000 0.750000 0.500000
O O9 0.828015 0.684334 0.657860
O O10 0.701993 0.094384 0.082864
O O11 0.869593 0.179575 0.093311
O O12 0.737476 0.216854 0.194564
O O13 0.366426 0.000000 0.063564
O O14 0.500000 0.082918 0.000000
O O15 0.385815 0.165500 0.077998
O O16 0.542264 0.250276 0.186735
O O17 0.500000 0.256727 0.000000
#
# Coordination Sequence:
#
# PCOD9180181 Si02
#       7
#     8   8   8   8   8   8   8
#     4  10  19  35  56  82 119 148 181 234 291 341
#     4  10  19  31  55  85 112 142 183 237 288 333
#     4   9  19  32  51  78 114 146 183 221 271 335
#     4  11  20  36  58  79 112 149 192 235 283 342
#     4  10  20  34  53  79 107 140 184 232 278 323
#     4  11  21  37  59  81 110 152 192 234 286 343
#     4  10  20  36  54  85 112 147 193 226 281 342
#
# _framework density 18.359366999999999
#
# number of rings (size 3 to 8) (size 9 to 14) (size 15 to 20)
#    0.000    1.857    4.286    1.714    0.000    1.143 
#    0.000    1.429    0.000    2.143    0.000    1.000 
#    0.000    0.000    0.000    0.000    0.000    0.000 
#
# Total GULP energy -155952.786509 kJ/mol
# GULP energy per Si atom -5569.742375 kJ/mol
# Density = 1.831758 g / cm^3
# Si number density = 18.359367 Si / 1000 Ang^3
#
#
#
# Elastic Constant Matrix: (Units=GPa)
#
#
# Indices 1 2 3 4 5 6 
#
# 1 50.8078 27.6487 22.6019 0.0000 7.1920 0.0000
# 2 27.6487 90.2850 24.6179 0.0000 -6.4073 0.0000
# 3 22.6019 24.6179 82.3826 0.0000 20.9551 0.0000
# 4 0.0000 0.0000 0.0000 22.2134 0.0000 -11.8863
# 5 7.1920 -6.4073 20.9551 0.0000 29.0078 0.0000
# 6 0.0000 0.0000 0.0000 -11.8863 0.0000 -3.8714
#
#
#
# Elastic Compliance Matrix: (Units=1/GPa)
#
#
# Indices 1 2 3 4 5 6 
#
# 1 0.026073 -0.007418 -0.003522 0.000000 -0.005558 0.000000
# 2 -0.007418 0.015243 -0.004709 0.000000 0.008608 0.000000
# 3 -0.003522 -0.004709 0.017831 0.000000 -0.013048 0.000000
# 4 0.000000 0.000000 0.000000 0.017033 0.000000 -0.052298
# 5 -0.005558 0.008608 -0.013048 0.000000 0.047179 0.000000
# 6 0.000000 0.000000 0.000000 -0.052298 0.000000 -0.097735
#
#
# Mechanical properties :
#
#
# Convention : Reuss Voigt Hill
#
# Bulk Modulus (GPa) = 35.91147 41.46805 38.68976
# Shear Modulus (GPa) = 75.52231 19.37710 47.44970
#
# Velocity S-wave (km/s) = 6.42066 3.25227 5.08931
# Velocity P-wave (km/s) = 8.63535 6.06126 7.46017
#
# Compressibility (1/GPa) = 0.02784626
#
# Stress axis : x y z
#
# Youngs Moduli (GPa) = 38.35420 65.60473 56.08200
#
# Poissons Ratio (x) = 0.48669 0.19755
# Poissons Ratio (y) = 0.28453 0.26410
# Poissons Ratio (z) = 0.13510 0.30895
#
# Static dielectric constant tensor:
#      x y z
#    x 1.627510 0.000000 0.005570 
#    y 0.000000 1.651320 0.000000 
#    z 0.005570 0.000000 1.663390 
# 
# From -- ./inp_files/206250.got.cif
#   From: 2010.05.17/outbox.cif.g08.bks.cpg/sg12_104_cif.got.tgz:206250.got - 2010.06.03 13:09:07.
