data_PCOD9180249
_publ_section_title
;
Structure prediction by ZEFSAII (Michael W. Deem and Ramdas Pophale) SiO2 
 PCOD9180249
Probable space group: C 2/M
;
_chemical_formula_sum "Si O2"
_cell_formula_units_Z 64
_cell_length_a 24.384615
_cell_length_b 9.025540
_cell_length_c 24.784469
_cell_angle_alpha 90.000000
_cell_angle_beta 130.231413
_cell_angle_gamma 90.000000
_cell_volume 4164.326624
_symmetry_space_group_name_H-M "C 2/M"
_symmetry_group_IT_number 12
_symmetry_cell_setting 'monoclinic'
loop_
_space_group_symop_operation_xyz
x,y,z
-x,y,-z
-x,-y,-z
x,-y,z
1/2+x,1/2+y,z
1/2-x,1/2+y,-z
1/2-x,1/2-y,-z
1/2+x,1/2-y,z
loop_
_atom_site_type_symbol
_atom_site_label
_atom_site_fract_x
_atom_site_fract_y
_atom_site_fract_z
Si Si1 0.412517 0.675211 0.004816
Si Si2 0.282740 0.824009 0.762005
Si Si3 0.446873 0.330051 0.518536
Si Si4 0.422783 0.325358 0.882140
Si Si5 0.169331 0.329679 0.620335
Si Si6 0.770988 0.677173 0.956747
Si Si7 0.697112 0.179078 0.807404
Si Si8 0.062414 0.329925 0.656313
O O1 0.397662 0.500000 0.004772
O O2 0.493584 0.706896 0.075609
O O3 0.411723 0.696961 0.939513
O O4 0.352028 0.774463 0.993286
O O5 0.365046 0.771898 0.814101
O O6 0.237145 0.766683 0.681965
O O7 0.247070 0.744223 0.791506
O O8 0.276339 0.000000 0.763418
O O9 0.500000 0.324251 0.500000
O O10 0.426990 0.500000 0.514323
O O11 0.377452 0.235241 0.458211
O O12 0.494177 0.267784 0.597667
O O13 0.410171 0.500000 0.863666
O O14 0.189654 0.500000 0.624317
O O15 0.115349 0.326668 0.637750
O O16 0.763971 0.500000 0.953508
O O17 0.721881 0.747898 0.878507
O O18 0.750000 0.750000 0.000000
O O19 0.614944 0.214496 0.738401
O O20 0.704838 0.000000 0.813388
O O21 0.039832 0.500000 0.649332
#
# Coordination Sequence:
#
# PCOD9180249 Si02
#       8
#     8   8   8   8   8   8   8   8
#     4   9  18  33  51  69  89 115 148 184 225 273
#     4  11  19  26  40  64  89 114 146 185 223 262
#     4   9  15  22  33  51  75 102 136 178 215 252
#     4   9  17  30  49  68  90 119 146 181 227 271
#     4   9  16  25  36  50  75 111 146 177 212 258
#     4  12  24  36  51  69  90 118 150 189 232 274
#     4  10  19  32  46  61  84 112 147 186 223 267
#     4   8  15  25  38  53  72 104 140 175 214 257
#
# _framework density 15.368631000000001
#
# number of rings (size 3 to 8) (size 9 to 14) (size 15 to 20)
#    0.000    2.375    1.250    4.875    0.000    5.500 
#    0.000    1.250    0.000    0.000    0.000    0.000 
#    0.000    0.000    0.000    1.125    0.000   15.125 
#
# Total GULP energy -178340.580561 kJ/mol
# GULP energy per Si atom -5573.143143 kJ/mol
# Density = 1.533365 g / cm^3
# Si number density = 15.368631 Si / 1000 Ang^3
#
#
#
# Elastic Constant Matrix: (Units=GPa)
#
#
# Indices 1 2 3 4 5 6 
#
# 1 33.6060 34.4981 36.5949 0.0000 2.9141 0.0000
# 2 34.4981 110.8628 73.3496 0.0000 14.6474 0.0000
# 3 36.5949 73.3496 122.5212 0.0000 23.4192 0.0000
# 4 0.0000 0.0000 0.0000 21.1868 0.0000 2.4125
# 5 2.9141 14.6474 23.4192 0.0000 14.1065 0.0000
# 6 0.0000 0.0000 0.0000 2.4125 0.0000 15.0583
#
#
#
# Elastic Compliance Matrix: (Units=1/GPa)
#
#
# Indices 1 2 3 4 5 6 
#
# 1 0.054123 -0.010399 -0.014454 0.000000 0.023612 0.000000
# 2 -0.010399 0.016943 -0.005984 0.000000 -0.005510 0.000000
# 3 -0.014454 -0.005984 0.020952 0.000000 -0.025584 0.000000
# 4 0.000000 0.000000 0.000000 0.048076 0.000000 -0.007702
# 5 0.023612 -0.005510 -0.025584 0.000000 0.114206 0.000000
# 6 0.000000 0.000000 0.000000 -0.007702 0.000000 0.067642
#
#
# Mechanical properties :
#
#
# Convention : Reuss Voigt Hill
#
# Bulk Modulus (GPa) = 32.95461 61.76391 47.35926
# Shear Modulus (GPa) = 12.69901 18.24015 15.46958
#
# Velocity S-wave (km/s) = 2.87765 3.44880 3.17609
# Velocity P-wave (km/s) = 5.70355 7.49229 6.65826
#
# Compressibility (1/GPa) = 0.03034477
#
# Stress axis : x y z
#
# Youngs Moduli (GPa) = 18.47643 59.01996 47.72875
#
# Poissons Ratio (x) = 0.61374 0.68985
# Poissons Ratio (y) = 0.19213 0.28563
# Poissons Ratio (z) = 0.26705 0.35320
#
# Static dielectric constant tensor:
#      x y z
#    x 1.481570 0.000000 0.020270 
#    y 0.000000 1.511360 0.000000 
#    z 0.020270 0.000000 1.532060 
# 
# From -- ./inp_files/348615.got.cif
#   From: 2010.05.17/outbox.cif.g08.bks.cpg/sg12_175_cif.got.tgz:348615.got - 2010.06.03 13:09:07.
