data_PCOD9180895
_publ_section_title
;
Structure prediction by ZEFSAII (Michael W. Deem and Ramdas Pophale) SiO2 
 PCOD9180895
Probable space group: C 2/M
;
_chemical_formula_sum "Si O2"
_cell_formula_units_Z 64
_cell_length_a 25.588309
_cell_length_b 7.357287
_cell_length_c 15.322856
_cell_angle_alpha 90.000000
_cell_angle_beta 72.264707
_cell_angle_gamma 90.000000
_cell_volume 2747.591374
_symmetry_space_group_name_H-M "C 2/M"
_symmetry_group_IT_number 12
_symmetry_cell_setting 'monoclinic'
loop_
_space_group_symop_operation_xyz
x,y,z
-x,y,-z
-x,-y,-z
x,-y,z
1/2+x,1/2+y,z
1/2-x,1/2+y,-z
1/2-x,1/2-y,-z
1/2+x,1/2-y,z
loop_
_atom_site_type_symbol
_atom_site_label
_atom_site_fract_x
_atom_site_fract_y
_atom_site_fract_z
Si Si1 0.510162 0.277880 0.274585
Si Si2 0.650622 0.719953 0.856430
Si Si3 0.132953 0.221654 0.236740
Si Si4 0.473980 0.721249 0.103995
Si Si5 0.899770 0.207227 0.419229
Si Si6 0.801205 0.291767 0.347755
Si Si7 0.318851 0.276815 0.605906
Si Si8 0.314689 0.283473 0.970777
O O1 0.508405 0.500000 0.275580
O O2 0.569501 0.224052 0.279501
O O3 0.504257 0.221475 0.176531
O O4 0.456547 0.213624 0.354494
O O5 0.652943 0.500000 0.855113
O O6 0.589393 0.775143 0.860976
O O7 0.691183 0.784657 0.760527
O O8 0.663499 0.784905 0.947359
O O9 0.168752 0.278175 0.301433
O O10 0.156522 0.285120 0.131833
O O11 0.134092 0.000000 0.235088
O O12 0.475544 0.500000 0.102087
O O13 0.500000 0.782886 0.000000
O O14 0.853720 0.202779 0.366496
O O15 0.867711 0.285968 0.518157
O O16 0.913180 0.000000 0.437041
O O17 0.803004 0.500000 0.375641
O O18 0.740807 0.215833 0.396935
O O19 0.317389 0.500000 0.604015
O O20 0.324507 0.500000 0.966640
O O21 0.250000 0.250000 0.000000
#
# Coordination Sequence:
#
# PCOD9180895 Si02
#       8
#     8   8   8   8   8   8   8   8
#     4   9  16  27  48  75 103 132 163 210 263 304
#     4  10  19  32  51  77 104 134 172 214 257 302
#     4   9  17  31  49  77 109 135 169 213 262 312
#     4   9  15  25  44  72 101 126 159 205 255 301
#     4  10  19  34  54  78 104 132 171 220 265 308
#     4  11  21  34  52  76 106 141 173 211 264 315
#     4   9  19  32  49  73 105 139 171 213 264 312
#     4  10  20  33  52  76 106 142 177 212 252 303
#
# _framework density 23.293126999999998
#
# number of rings (size 3 to 8) (size 9 to 14) (size 15 to 20)
#    0.000    2.375    1.250    2.250    0.000    5.000 
#    0.000    3.125    0.000    1.875    0.000    0.875 
#    0.000    0.000    0.000    0.000    0.000    0.000 
#
# Total GULP energy -178870.101549 kJ/mol
# GULP energy per Si atom -5589.690673 kJ/mol
# Density = 2.324011 g / cm^3
# Si number density = 23.293127 Si / 1000 Ang^3
#
#
#
# Elastic Constant Matrix: (Units=GPa)
#
#
# Indices 1 2 3 4 5 6 
#
# 1 97.7949 -7.1700 9.4141 0.0000 -10.4709 0.0000
# 2 -7.1700 86.9009 -5.6825 0.0000 -1.0068 0.0000
# 3 9.4141 -5.6825 101.2775 0.0000 -10.0941 0.0000
# 4 0.0000 0.0000 0.0000 6.2605 0.0000 4.0792
# 5 -10.4709 -1.0068 -10.0941 0.0000 44.2393 0.0000
# 6 0.0000 0.0000 0.0000 4.0792 0.0000 10.2583
#
#
#
# Elastic Compliance Matrix: (Units=1/GPa)
#
#
# Indices 1 2 3 4 5 6 
#
# 1 0.010610 0.000857 -0.000702 0.000000 0.002371 0.000000
# 2 0.000857 0.011627 0.000634 0.000000 0.000612 0.000000
# 3 -0.000702 0.000634 0.010191 0.000000 0.002174 0.000000
# 4 0.000000 0.000000 0.000000 0.215592 0.000000 -0.085730
# 5 0.002371 0.000612 0.002174 0.000000 0.023675 0.000000
# 6 0.000000 0.000000 0.000000 -0.085730 0.000000 0.131573
#
#
# Mechanical properties :
#
#
# Convention : Reuss Voigt Hill
#
# Bulk Modulus (GPa) = 29.40733 31.01074 30.20904
# Shear Modulus (GPa) = 12.10580 31.44573 21.77576
#
# Velocity S-wave (km/s) = 2.28220 3.67822 3.06086
# Velocity P-wave (km/s) = 4.42684 5.60190 5.04867
#
# Compressibility (1/GPa) = 0.03400513
#
# Stress axis : x y z
#
# Youngs Moduli (GPa) = 94.25343 86.00975 98.12290
#
# Poissons Ratio (x) = -0.07371 0.06887
# Poissons Ratio (y) = -0.08077 -0.06218
# Poissons Ratio (z) = 0.06615 -0.05450
#
# Static dielectric constant tensor:
#      x y z
#    x 1.825830 0.000000 -0.006530 
#    y 0.000000 1.928720 0.000000 
#    z -0.006530 0.000000 1.857680 
# 
# From -- ./inp_files/239621.got.cif
#   From: 2010.05.17/outbox.cif.g08.bks.cpg/sg12_120_cif.got.tgz:239621.got - 2010.06.03 13:09:07.
