data_PCOD9180620
_publ_section_title
;
Structure prediction by ZEFSAII (Michael W. Deem and Ramdas Pophale) SiO2 
 PCOD9180620
Probable space group: C 2/M
;
_chemical_formula_sum "Si O2"
_cell_formula_units_Z 64
_cell_length_a 10.593928
_cell_length_b 28.087265
_cell_length_c 12.683199
_cell_angle_alpha 90.000000
_cell_angle_beta 109.944927
_cell_angle_gamma 90.000000
_cell_volume 3547.584940
_symmetry_space_group_name_H-M "C 2/M"
_symmetry_group_IT_number 12
_symmetry_cell_setting 'monoclinic'
loop_
_space_group_symop_operation_xyz
x,y,z
-x,y,-z
-x,-y,-z
x,-y,z
1/2+x,1/2+y,z
1/2-x,1/2+y,-z
1/2-x,1/2-y,-z
1/2+x,1/2-y,z
loop_
_atom_site_type_symbol
_atom_site_label
_atom_site_fract_x
_atom_site_fract_y
_atom_site_fract_z
Si Si1 0.008175 0.554346 0.622106
Si Si2 0.175361 0.945736 0.242376
Si Si3 0.261756 0.777963 0.112571
Si Si4 0.446720 0.790661 0.863099
Si Si5 0.222750 0.886672 0.057783
Si Si6 0.457058 0.896199 0.816107
Si Si7 0.726767 0.444964 0.854798
Si Si8 0.996852 0.943096 0.380275
O O1 0.953286 0.500000 0.610886
O O2 0.165253 0.552172 0.695117
O O3 0.000000 0.571328 0.500000
O O4 0.941830 0.587058 0.691291
O O5 0.152565 0.915026 0.132181
O O6 0.108851 0.925611 0.329589
O O7 0.126131 0.000000 0.212396
O O8 0.423152 0.780803 0.173635
O O9 0.170034 0.748884 0.168684
O O10 0.205391 0.830692 0.073552
O O11 0.250000 0.750000 0.000000
O O12 0.399010 0.843722 0.821466
O O13 0.500000 0.793070 0.000000
O O14 0.384652 0.894467 0.112556
O O15 0.183033 0.909046 0.934644
O O16 0.378891 0.933185 0.866688
O O17 0.711895 0.500000 0.883650
O O18 0.640500 0.437159 0.723954
O O19 0.000000 0.923585 0.500000
O O20 0.021151 0.000000 0.396928
#
# Coordination Sequence:
#
# PCOD9180620 Si02
#       8
#     8   8   8   8   8   8   8   8
#     4   9  18  30  50  77 101 134 181 220 250 298
#     4   9  18  34  51  69 103 142 172 209 256 304
#     4   9  17  32  50  72 103 135 169 209 256 317
#     4   9  17  32  51  72 103 133 168 210 260 315
#     4  10  20  34  50  77 112 135 163 210 267 317
#     4  10  19  32  50  76 108 138 165 212 266 312
#     4  11  21  31  49  76 107 143 176 207 252 312
#     4   9  20  36  50  66  97 144 186 218 248 284
#
# _framework density 18.040443
#
# number of rings (size 3 to 8) (size 9 to 14) (size 15 to 20)
#    0.000    2.500    0.000    3.375    1.750    2.500 
#    9.000    1.875    0.000    0.000    0.000    8.750 
#    0.000    0.000    0.000    0.000    0.000    0.000 
#
# Total GULP energy -178319.293954 kJ/mol
# GULP energy per Si atom -5572.477936 kJ/mol
# Density = 1.799938 g / cm^3
# Si number density = 18.040443 Si / 1000 Ang^3
#
#
#
# Elastic Constant Matrix: (Units=GPa)
#
#
# Indices 1 2 3 4 5 6 
#
# 1 57.2505 41.0401 16.6254 0.0000 -21.4265 0.0000
# 2 41.0401 86.9666 35.9805 0.0000 -14.7201 0.0000
# 3 16.6254 35.9805 86.0276 0.0000 -26.7337 0.0000
# 4 0.0000 0.0000 0.0000 7.5629 0.0000 -6.8217
# 5 -21.4265 -14.7201 -26.7337 0.0000 19.4824 0.0000
# 6 0.0000 0.0000 0.0000 -6.8217 0.0000 24.7455
#
#
#
# Elastic Compliance Matrix: (Units=1/GPa)
#
#
# Indices 1 2 3 4 5 6 
#
# 1 0.053908 -0.022034 0.021005 0.000000 0.071462 0.000000
# 2 -0.022034 0.023131 -0.013103 0.000000 -0.024736 0.000000
# 3 0.021005 -0.013103 0.029895 0.000000 0.054223 0.000000
# 4 0.000000 0.000000 0.000000 0.175985 0.000000 0.048515
# 5 0.071462 -0.024736 0.054223 0.000000 0.185637 0.000000
# 6 0.000000 0.000000 0.000000 0.048515 0.000000 0.053786
#
#
# Mechanical properties :
#
#
# Convention : Reuss Voigt Hill
#
# Bulk Modulus (GPa) = 12.71136 46.39297 29.55216
# Shear Modulus (GPa) = 8.66808 19.46474 14.06641
#
# Velocity S-wave (km/s) = 2.19436 3.28830 2.79537
# Velocity P-wave (km/s) = 3.67174 6.33949 5.18029
#
# Compressibility (1/GPa) = 0.07866981
#
# Stress axis : x y z
#
# Youngs Moduli (GPa) = 18.55022 43.23225 33.45008
#
# Poissons Ratio (x) = 0.95258 -0.70261
# Poissons Ratio (y) = 0.40873 0.43830
# Poissons Ratio (z) = -0.38965 0.56647
#
# Static dielectric constant tensor:
#      x y z
#    x 1.713010 0.000000 0.001210 
#    y 0.000000 1.620800 0.000000 
#    z 0.001210 0.000000 1.611470 
# 
# From -- ./inp_files/136699.got.cif
#   From: 2010.05.17/outbox.cif.g08.bks.cpg/sg12_69_cif.got.tgz:136699.got - 2010.06.03 13:09:07.
