data_PCOD9180383
_publ_section_title
;
Structure prediction by ZEFSAII (Michael W. Deem and Ramdas Pophale) SiO2 
 PCOD9180383
Probable space group: C 2/M
;
_chemical_formula_sum "Si O2"
_cell_formula_units_Z 40
_cell_length_a 13.846571
_cell_length_b 8.348898
_cell_length_c 15.091962
_cell_angle_alpha 90.000000
_cell_angle_beta 66.507956
_cell_angle_gamma 90.000000
_cell_volume 1600.077793
_symmetry_space_group_name_H-M "C 2/M"
_symmetry_group_IT_number 12
_symmetry_cell_setting 'monoclinic'
loop_
_space_group_symop_operation_xyz
x,y,z
-x,y,-z
-x,-y,-z
x,-y,z
1/2+x,1/2+y,z
1/2-x,1/2+y,-z
1/2-x,1/2-y,-z
1/2+x,1/2-y,z
loop_
_atom_site_type_symbol
_atom_site_label
_atom_site_fract_x
_atom_site_fract_y
_atom_site_fract_z
Si Si1 0.079648 0.812407 0.219871
Si Si2 0.367766 0.807655 0.982137
Si Si3 0.173529 0.307832 0.813061
Si Si4 0.277163 0.180486 0.392687
Si Si5 0.418999 0.823845 0.608270
O O1 0.064632 0.747544 0.126814
O O2 0.203975 0.785976 0.200505
O O3 0.025462 0.719813 0.320291
O O4 0.058748 0.000000 0.230077
O O5 0.370451 0.000000 0.983655
O O6 0.250000 0.750000 0.000000
O O7 0.386863 0.750059 0.076060
O O8 0.156185 0.500000 0.812330
O O9 0.162182 0.243375 0.716208
O O10 0.250000 0.250000 0.500000
O O11 0.161128 0.186622 0.391045
O O12 0.314800 0.000000 0.392952
O O13 0.500000 0.834164 0.500000
O O14 0.632959 0.000000 0.364345
#
# Coordination Sequence:
#
# PCOD9180383 Si02
#       5
#     8   8   8   8   8
#     4   9  16  26  40  61  89 119 150 186 232 282
#     4   9  14  22  37  58  85 116 149 186 230 276
#     4   7  13  24  38  58  85 116 148 184 224 269
#     4  10  19  32  49  70  97 127 160 195 234 280
#     4  10  20  33  49  70  95 124 160 199 237 280
#
# _framework density 24.998784000000001
#
# number of rings (size 3 to 8) (size 9 to 14) (size 15 to 20)
#    0.000    3.000    0.000    4.800    0.000    1.600 
#    0.000    3.000    0.000    0.000    0.000    1.400 
#    0.000   11.200    0.000    0.000    0.000    0.000 
#
# Total GULP energy -111472.157717 kJ/mol
# GULP energy per Si atom -5573.607886 kJ/mol
# Density = 2.494189 g / cm^3
# Si number density = 24.998784 Si / 1000 Ang^3
#
#
#
# Elastic Constant Matrix: (Units=GPa)
#
#
# Indices 1 2 3 4 5 6 
#
# 1 73.7599 5.8190 34.8123 0.0000 34.9138 0.0000
# 2 5.8190 75.3066 57.6641 0.0000 5.4617 0.0000
# 3 34.8123 57.6641 334.3046 0.0000 49.5179 0.0000
# 4 0.0000 0.0000 0.0000 36.7929 0.0000 1.0607
# 5 34.9138 5.4617 49.5179 0.0000 39.5995 0.0000
# 6 0.0000 0.0000 0.0000 1.0607 0.0000 10.1553
#
#
#
# Elastic Compliance Matrix: (Units=1/GPa)
#
#
# Indices 1 2 3 4 5 6 
#
# 1 0.023484 -0.000958 0.000942 0.000000 -0.021751 0.000000
# 2 -0.000958 0.015408 -0.002907 0.000000 0.002354 0.000000
# 3 0.000942 -0.002907 0.004244 0.000000 -0.005737 0.000000
# 4 0.000000 0.000000 0.000000 0.027261 0.000000 -0.002847
# 5 -0.021751 0.002354 -0.005737 0.000000 0.051278 0.000000
# 6 0.000000 0.000000 0.000000 -0.002847 0.000000 0.098768
#
#
# Mechanical properties :
#
#
# Convention : Reuss Voigt Hill
#
# Bulk Modulus (GPa) = 26.81679 75.55132 51.18405
# Shear Modulus (GPa) = 20.94494 42.98126 31.96310
#
# Velocity S-wave (km/s) = 2.89768 4.15098 3.57961
# Velocity P-wave (km/s) = 4.68465 7.29807 6.13220
#
# Compressibility (1/GPa) = 0.03729006
#
# Stress axis : x y z
#
# Youngs Moduli (GPa) = 42.58186 64.90120 235.60840
#
# Poissons Ratio (x) = 0.06218 -0.22183
# Poissons Ratio (y) = 0.04080 0.68484
# Poissons Ratio (z) = -0.04009 0.18865
#
# Static dielectric constant tensor:
#      x y z
#    x 2.107380 0.000000 -0.048850 
#    y 0.000000 1.906680 0.000000 
#    z -0.048850 0.000000 2.125550 
# 
# From -- ./inp_files/220182.got.cif
#   From: 2010.05.17/outbox.cif.g08.bks.cpg/sg12_111_cif.got.tgz:220182.got - 2010.06.03 13:09:07.
