data_PCOD9180818
_publ_section_title
;
Structure prediction by ZEFSAII (Michael W. Deem and Ramdas Pophale) SiO2 
 PCOD9180818
Probable space group: C 2/M
;
_chemical_formula_sum "Si O2"
_cell_formula_units_Z 48
_cell_length_a 28.279059
_cell_length_b 9.012742
_cell_length_c 11.180094
_cell_angle_alpha 90.000000
_cell_angle_beta 100.904347
_cell_angle_gamma 90.000000
_cell_volume 2798.042003
_symmetry_space_group_name_H-M "C 2/M"
_symmetry_group_IT_number 12
_symmetry_cell_setting 'monoclinic'
loop_
_space_group_symop_operation_xyz
x,y,z
-x,y,-z
-x,-y,-z
x,-y,z
1/2+x,1/2+y,z
1/2-x,1/2+y,-z
1/2-x,1/2-y,-z
1/2+x,1/2-y,z
loop_
_atom_site_type_symbol
_atom_site_label
_atom_site_fract_x
_atom_site_fract_y
_atom_site_fract_z
Si Si1 0.295114 0.823065 0.589277
Si Si2 0.013868 0.329895 0.365342
Si Si3 0.680913 0.676531 0.894658
Si Si4 0.609924 0.325499 0.467304
Si Si5 0.082100 0.824894 0.732559
Si Si6 0.272353 0.675434 0.825693
O O1 0.250000 0.750000 0.500000
O O2 0.344022 0.766117 0.552021
O O3 0.292709 0.765157 0.723916
O O4 0.291753 0.000000 0.582571
O O5 0.023190 0.500000 0.336397
O O6 0.061843 0.232281 0.378515
O O7 0.000000 0.327026 0.500000
O O8 0.967283 0.264319 0.277148
O O9 0.685806 0.500000 0.870339
O O10 0.626307 0.719298 0.838527
O O11 0.719096 0.765639 0.832930
O O12 0.696046 0.698677 0.039423
O O13 0.617444 0.500000 0.448706
O O14 0.600670 0.305641 0.604856
O O15 0.072202 0.000000 0.743645
O O16 0.271062 0.500000 0.798642
#
# Coordination Sequence:
#
# PCOD9180818 Si02
#       6
#     8   8   8   8   8   8
#     4  12  24  37  53  74 102 134 169 207 250 301
#     4   9  17  29  46  71 102 133 166 204 246 293
#     4   9  18  33  53  76 103 134 169 210 252 297
#     4  10  19  32  51  75 104 135 166 203 250 300
#     4   9  17  30  50  75 101 130 165 205 249 296
#     4  10  20  34  52  75 103 135 170 207 252 301
#
# _framework density 17.154852999999999
#
# number of rings (size 3 to 8) (size 9 to 14) (size 15 to 20)
#    0.000    2.167    0.000    4.000    0.000    5.333 
#    0.000    0.000    0.000    1.000    0.000    7.000 
#    0.000    0.000    0.000    0.000    0.000    0.000 
#
# Total GULP energy -133951.950263 kJ/mol
# GULP energy per Si atom -5581.331261 kJ/mol
# Density = 1.711581 g / cm^3
# Si number density = 17.154853 Si / 1000 Ang^3
#
#
#
# Elastic Constant Matrix: (Units=GPa)
#
#
# Indices 1 2 3 4 5 6 
#
# 1 97.6998 54.9753 29.2877 0.0000 26.2908 0.0000
# 2 54.9753 110.5385 35.8829 0.0000 4.3711 0.0000
# 3 29.2877 35.8829 30.5300 0.0000 14.8940 0.0000
# 4 0.0000 0.0000 0.0000 22.2774 0.0000 0.8598
# 5 26.2908 4.3711 14.8940 0.0000 30.6002 0.0000
# 6 0.0000 0.0000 0.0000 0.8598 0.0000 36.0422
#
#
#
# Elastic Compliance Matrix: (Units=1/GPa)
#
#
# Indices 1 2 3 4 5 6 
#
# 1 0.019532 -0.008748 -0.001152 0.000000 -0.014971 0.000000
# 2 -0.008748 0.020319 -0.023265 0.000000 0.015937 0.000000
# 3 -0.001152 -0.023265 0.077502 0.000000 -0.033410 0.000000
# 4 0.000000 0.000000 0.000000 0.044930 0.000000 -0.001072
# 5 -0.014971 0.015937 -0.033410 0.000000 0.059527 0.000000
# 6 0.000000 0.000000 0.000000 -0.001072 0.000000 0.027771
#
#
# Mechanical properties :
#
#
# Convention : Reuss Voigt Hill
#
# Bulk Modulus (GPa) = 19.59848 53.22891 36.41369
# Shear Modulus (GPa) = 15.01872 25.69214 20.35543
#
# Velocity S-wave (km/s) = 2.96206 3.87416 3.44840
# Velocity P-wave (km/s) = 4.81120 7.14899 6.09326
#
# Compressibility (1/GPa) = 0.05102437
#
# Stress axis : x y z
#
# Youngs Moduli (GPa) = 51.19834 49.21406 12.90290
#
# Poissons Ratio (x) = 0.43053 0.01486
# Poissons Ratio (y) = 0.44789 0.30018
# Poissons Ratio (z) = 0.05895 1.14495
#
# Static dielectric constant tensor:
#      x y z
#    x 1.558750 0.000000 0.014080 
#    y 0.000000 1.575520 0.000000 
#    z 0.014080 0.000000 1.577040 
# 
# From -- ./inp_files/172383.got.cif
#   From: 2010.05.17/outbox.cif.g08.bks.cpg/sg12_87_cif.got.tgz:172383.got - 2010.06.03 13:09:07.
