data_PCOD9180213
_publ_section_title
;
Structure prediction by ZEFSAII (Michael W. Deem and Ramdas Pophale) SiO2 
 PCOD9180213
Probable space group: C 2/M
;
_chemical_formula_sum "Si O2"
_cell_formula_units_Z 52
_cell_length_a 25.049734
_cell_length_b 7.525555
_cell_length_c 12.404192
_cell_angle_alpha 90.000000
_cell_angle_beta 63.096511
_cell_angle_gamma 90.000000
_cell_volume 2085.273286
_symmetry_space_group_name_H-M "C 2/M"
_symmetry_group_IT_number 12
_symmetry_cell_setting 'monoclinic'
loop_
_space_group_symop_operation_xyz
x,y,z
-x,y,-z
-x,-y,-z
x,-y,z
1/2+x,1/2+y,z
1/2-x,1/2+y,-z
1/2-x,1/2-y,-z
1/2+x,1/2-y,z
loop_
_atom_site_type_symbol
_atom_site_label
_atom_site_fract_x
_atom_site_fract_y
_atom_site_fract_z
Si Si1 0.155379 0.203966 0.716648
Si Si2 0.518299 0.214055 0.863139
Si Si3 0.724325 0.500000 0.238041
Si Si4 0.160506 0.198698 0.484313
Si Si5 0.705126 0.702754 0.898253
Si Si6 0.601254 0.785248 0.155467
Si Si7 0.563649 0.202850 0.414412
O O1 0.083599 0.215286 0.775068
O O2 0.179702 0.279572 0.581070
O O3 0.174360 0.280321 0.814842
O O4 0.175567 0.000000 0.705395
O O5 0.464231 0.259559 0.832885
O O6 0.523316 0.000000 0.859141
O O7 0.500000 0.272263 0.000000
O O8 0.707268 0.654931 0.347197
O O9 0.742659 0.343239 0.134698
O O10 0.105905 0.297985 0.478761
O O11 0.136924 0.000000 0.532992
O O12 0.726059 0.500000 0.868770
O O13 0.652236 0.709285 0.033063
O O14 0.599304 0.717852 0.280544
O O15 0.609037 0.000000 0.143915
O O16 0.500000 0.287454 0.500000
O O17 0.550539 0.000000 0.392490
#
# Coordination Sequence:
#
# PCOD9180213 Si02
#       7
#     8   8   4   8   8   8   8
#     4  10  21  37  57  90 127 161 211 263 316 393
#     4  10  19  31  56  90 127 169 201 242 325 388
#     4  10  24  46  67  89 130 168 218 290 311 369
#     4   9  22  43  60  87 125 164 213 266 320 373
#     4  11  23  40  66  95 127 171 217 262 331 383
#     4  10  20  37  61  93 134 169 209 264 318 387
#     4  10  21  39  67  98 130 167 211 261 318 390
#
# _framework density 24.936778
#
# number of rings (size 3 to 8) (size 9 to 14) (size 15 to 20)
#    0.462    1.538    2.308    0.923    1.077    4.923 
#    0.000    0.769    0.000    0.000    0.000    0.000 
#    0.000    0.000    0.000    0.000    0.000    0.000 
#
# Total GULP energy -144779.420262 kJ/mol
# GULP energy per Si atom -5568.439241 kJ/mol
# Density = 2.488002 g / cm^3
# Si number density = 24.936778 Si / 1000 Ang^3
#
#
#
# Elastic Constant Matrix: (Units=GPa)
#
#
# Indices 1 2 3 4 5 6 
#
# 1 84.8052 0.5798 46.7455 0.0000 7.5402 0.0000
# 2 0.5798 103.6616 13.5859 0.0000 -7.1430 0.0000
# 3 46.7455 13.5859 126.5028 0.0000 -11.0688 0.0000
# 4 0.0000 0.0000 0.0000 29.9659 0.0000 0.9659
# 5 7.5402 -7.1430 -11.0688 0.0000 43.5742 0.0000
# 6 0.0000 0.0000 0.0000 0.9659 0.0000 0.3795
#
#
#
# Elastic Compliance Matrix: (Units=1/GPa)
#
#
# Indices 1 2 3 4 5 6 
#
# 1 0.015557 0.000432 -0.006161 0.000000 -0.004186 0.000000
# 2 0.000432 0.009877 -0.001110 0.000000 0.001262 0.000000
# 3 -0.006161 -0.001110 0.010614 0.000000 0.003581 0.000000
# 4 0.000000 0.000000 0.000000 0.036354 0.000000 -0.092525
# 5 -0.004186 0.001262 0.003581 0.000000 0.024790 0.000000
# 6 0.000000 0.000000 0.000000 -0.092525 0.000000 2.870353
#
#
# Mechanical properties :
#
#
# Convention : Reuss Voigt Hill
#
# Bulk Modulus (GPa) = 44.70346 48.53246 46.61796
# Shear Modulus (GPa) = 1.67298 31.72115 16.69706
#
# Velocity S-wave (km/s) = 0.81997 3.57047 2.59042
# Velocity P-wave (km/s) = 4.34305 6.04170 5.26138
#
# Compressibility (1/GPa) = 0.02236963
#
# Stress axis : x y z
#
# Youngs Moduli (GPa) = 64.27872 101.24731 94.21305
#
# Poissons Ratio (x) = -0.04374 0.58049
# Poissons Ratio (y) = -0.02777 0.10457
# Poissons Ratio (z) = 0.39605 0.11238
#
# Static dielectric constant tensor:
#      x y z
#    x 2.046140 0.000000 0.031730 
#    y 0.000000 2.006290 0.000000 
#    z 0.031730 0.000000 2.009360 
# 
# From -- ./inp_files/180553.got.cif
#   From: 2010.05.17/outbox.cif.g08.bks.cpg/sg12_91_cif.got.tgz:180553.got - 2010.06.03 13:09:07.
