data_PCOD9180918
_publ_section_title
;
Structure prediction by ZEFSAII (Michael W. Deem and Ramdas Pophale) SiO2 
 PCOD9180918
Probable space group: C 2/M
;
_chemical_formula_sum "Si O2"
_cell_formula_units_Z 56
_cell_length_a 29.683677
_cell_length_b 8.978055
_cell_length_c 22.238320
_cell_angle_alpha 90.000000
_cell_angle_beta 148.638688
_cell_angle_gamma 90.000000
_cell_volume 3084.373056
_symmetry_space_group_name_H-M "C 2/M"
_symmetry_group_IT_number 12
_symmetry_cell_setting 'monoclinic'
loop_
_space_group_symop_operation_xyz
x,y,z
-x,y,-z
-x,-y,-z
x,-y,z
1/2+x,1/2+y,z
1/2-x,1/2+y,-z
1/2-x,1/2-y,-z
1/2+x,1/2-y,z
loop_
_atom_site_type_symbol
_atom_site_label
_atom_site_fract_x
_atom_site_fract_y
_atom_site_fract_z
Si Si1 0.885827 0.677324 0.639795
Si Si2 0.425971 0.679288 0.141577
Si Si3 0.121188 0.821431 0.779072
Si Si4 0.544966 0.324795 0.486115
Si Si5 0.277179 0.320501 0.882393
Si Si6 0.742248 0.823102 0.395988
Si Si7 0.731619 0.177855 0.696598
O O1 0.887950 0.500000 0.632860
O O2 0.829918 0.753030 0.523302
O O3 0.832773 0.707826 0.640860
O O4 0.981293 0.743317 0.752784
O O5 0.438076 0.500000 0.154393
O O6 0.377893 0.715996 0.149490
O O7 0.364877 0.723547 0.016558
O O8 0.196060 0.744731 0.826310
O O9 0.027165 0.781105 0.644897
O O10 0.129792 0.000000 0.782110
O O11 0.500000 0.309940 0.500000
O O12 0.566584 0.500000 0.502140
O O13 0.631753 0.230122 0.582524
O O14 0.271559 0.500000 0.878240
O O15 0.271267 0.275423 0.806000
O O16 0.724728 0.752609 0.311345
O O17 0.752787 0.000000 0.403001
O O18 0.736508 0.000000 0.697236
#
# Coordination Sequence:
#
# PCOD9180918 Si02
#       7
#     8   8   8   8   8   8   8
#     4  10  21  38  61  89 112 136 177 226 275 328
#     4  10  21  37  56  79 110 149 188 227 275 327
#     4  10  20  34  54  78 104 143 189 229 276 330
#     4  10  19  32  51  77 109 142 180 228 282 334
#     4  10  22  37  52  76 112 150 189 231 272 319
#     4  10  21  38  61  86 113 142 174 220 279 337
#     4  11  22  35  54  81 112 148 189 230 276 324
#
# _framework density 18.156040999999998
#
# number of rings (size 3 to 8) (size 9 to 14) (size 15 to 20)
#    0.000    1.857    1.429    2.571    0.000    5.429 
#    0.000    0.714    0.000    4.286    0.000    0.000 
#    0.000    0.000    0.000    0.000    0.000    0.000 
#
# Total GULP energy -156428.471597 kJ/mol
# GULP energy per Si atom -5586.731128 kJ/mol
# Density = 1.811472 g / cm^3
# Si number density = 18.156041 Si / 1000 Ang^3
#
#
#
# Elastic Constant Matrix: (Units=GPa)
#
#
# Indices 1 2 3 4 5 6 
#
# 1 95.6872 41.7357 60.7777 0.0000 -25.5634 0.0000
# 2 41.7357 34.9290 37.3521 0.0000 -11.8995 0.0000
# 3 60.7777 37.3521 111.3912 0.0000 -25.8086 0.0000
# 4 0.0000 0.0000 0.0000 18.0791 0.0000 3.8480
# 5 -25.5634 -11.8995 -25.8086 0.0000 24.1176 0.0000
# 6 0.0000 0.0000 0.0000 3.8480 0.0000 32.7359
#
#
#
# Elastic Compliance Matrix: (Units=1/GPa)
#
#
# Indices 1 2 3 4 5 6 
#
# 1 0.026187 -0.023161 -0.003641 0.000000 0.012433 0.000000
# 2 -0.023161 0.066306 -0.010245 0.000000 -0.002797 0.000000
# 3 -0.003641 -0.010245 0.016401 0.000000 0.008636 0.000000
# 4 0.000000 0.000000 0.000000 0.056732 0.000000 -0.006669
# 5 0.012433 -0.002797 0.008636 0.000000 0.062503 0.000000
# 6 0.000000 0.000000 0.000000 -0.006669 0.000000 0.031331
#
#
# Mechanical properties :
#
#
# Convention : Reuss Voigt Hill
#
# Bulk Modulus (GPa) = 28.73597 57.97091 43.35344
# Shear Modulus (GPa) = 14.48627 21.79598 18.14112
#
# Velocity S-wave (km/s) = 2.82773 3.46855 3.16441
# Velocity P-wave (km/s) = 5.15005 6.93107 6.10585
#
# Compressibility (1/GPa) = 0.03479959
#
# Stress axis : x y z
#
# Youngs Moduli (GPa) = 38.18690 15.08149 60.97362
#
# Poissons Ratio (x) = 0.34930 0.22203
# Poissons Ratio (y) = 0.88443 0.62469
# Poissons Ratio (z) = 0.13905 0.15451
#
# Static dielectric constant tensor:
#      x y z
#    x 1.619470 0.000000 -0.025270 
#    y 0.000000 1.608510 0.000000 
#    z -0.025270 0.000000 1.607510 
# 
# From -- ./inp_files/237381.got.cif
#   From: 2010.05.17/outbox.cif.g08.bks.cpg/sg12_119_cif.got.tgz:237381.got - 2010.06.03 13:09:07.
