data_PCOD9180130
_publ_section_title
;
Structure prediction by ZEFSAII (Michael W. Deem and Ramdas Pophale) SiO2 
 PCOD9180130
Probable space group: C 2/M
;
_chemical_formula_sum "Si O2"
_cell_formula_units_Z 40
_cell_length_a 10.037185
_cell_length_b 25.559260
_cell_length_c 15.185591
_cell_angle_alpha 90.000000
_cell_angle_beta 143.553368
_cell_angle_gamma 90.000000
_cell_volume 2314.367314
_symmetry_space_group_name_H-M "C 2/M"
_symmetry_group_IT_number 12
_symmetry_cell_setting 'monoclinic'
loop_
_space_group_symop_operation_xyz
x,y,z
-x,y,-z
-x,-y,-z
x,-y,z
1/2+x,1/2+y,z
1/2-x,1/2+y,-z
1/2-x,1/2-y,-z
1/2+x,1/2-y,z
loop_
_atom_site_type_symbol
_atom_site_label
_atom_site_fract_x
_atom_site_fract_y
_atom_site_fract_z
Si Si1 0.505576 0.606782 0.150731
Si Si2 0.956414 0.500000 0.632791
Si Si3 0.150672 0.000000 0.307600
Si Si4 0.735063 0.313548 0.588921
Si Si5 0.876834 0.603511 0.192549
Si Si6 0.756279 0.806188 0.615755
O O1 0.527570 0.554183 0.220132
O O2 0.698906 0.608586 0.178144
O O3 0.564245 0.657370 0.240289
O O4 0.272277 0.603597 0.974663
O O5 0.739175 0.500000 0.454701
O O6 0.150163 0.500000 0.660139
O O7 0.991118 0.550595 0.712065
O O8 0.500000 0.334785 0.500000
O O9 0.768890 0.255210 0.646409
O O10 0.711712 0.309286 0.471463
O O11 0.946986 0.349782 0.718709
O O12 0.500000 0.824344 0.500000
#
# Coordination Sequence:
#
# PCOD9180130 Si02
#       6
#     8   4   4   8   8   8
#     4  10  19  31  54  80 110 136 173 223 268 312
#     4   9  17  29  52  76 108 138 174 217 259 317
#     4   9  17  27  49  84 105 133 174 223 266 302
#     4  10  21  35  54  77 106 141 181 220 259 312
#     4  10  19  33  51  80 110 139 173 219 269 311
#     4  10  19  35  56  77 102 141 185 221 257 308
#
# _framework density 17.283342000000001
#
# number of rings (size 3 to 8) (size 9 to 14) (size 15 to 20)
#    0.000    2.200    2.000    1.800    2.800    3.200 
#    0.000    1.500    0.000    0.000    0.000    4.200 
#    0.000    0.000    0.000    0.000    0.000    0.000 
#
# Total GULP energy -111444.624133 kJ/mol
# GULP energy per Si atom -5572.231207 kJ/mol
# Density = 1.724400 g / cm^3
# Si number density = 17.283342 Si / 1000 Ang^3
#
#
#
# Elastic Constant Matrix: (Units=GPa)
#
#
# Indices 1 2 3 4 5 6 
#
# 1 38.3514 8.5706 23.6918 0.0000 1.1695 0.0000
# 2 8.5706 113.5365 93.1675 0.0000 -12.5107 0.0000
# 3 23.6918 93.1675 160.0478 0.0000 -17.1884 0.0000
# 4 0.0000 0.0000 0.0000 -11.0007 0.0000 -5.0335
# 5 1.1695 -12.5107 -17.1884 0.0000 21.9973 0.0000
# 6 0.0000 0.0000 0.0000 -5.0335 0.0000 7.2311
#
#
#
# Elastic Compliance Matrix: (Units=1/GPa)
#
#
# Indices 1 2 3 4 5 6 
#
# 1 0.029607 0.002389 -0.006327 0.000000 -0.005160 0.000000
# 2 0.002389 0.017145 -0.010152 0.000000 0.001691 0.000000
# 3 -0.006327 -0.010152 0.013657 0.000000 0.005234 0.000000
# 4 0.000000 0.000000 0.000000 -0.068944 0.000000 -0.047992
# 5 -0.005160 0.001691 0.005234 0.000000 0.050786 0.000000
# 6 0.000000 0.000000 0.000000 -0.047992 0.000000 0.104884
#
#
# Mechanical properties :
#
#
# Convention : Reuss Voigt Hill
#
# Bulk Modulus (GPa) = 31.03044 62.53282 46.78163
# Shear Modulus (GPa) = 26.87334 16.07927 21.47630
#
# Velocity S-wave (km/s) = 3.94746 3.05345 3.52888
# Velocity P-wave (km/s) = 6.22652 6.97789 6.61288
#
# Compressibility (1/GPa) = 0.03222642
#
# Stress axis : x y z
#
# Youngs Moduli (GPa) = 33.77587 58.32704 73.22400
#
# Poissons Ratio (x) = -0.13932 0.46331
# Poissons Ratio (y) = -0.08068 0.74339
# Poissons Ratio (z) = 0.21371 0.59215
#
# Static dielectric constant tensor:
#      x y z
#    x 1.570070 0.000000 0.001920 
#    y 0.000000 1.600000 0.000000 
#    z 0.001920 0.000000 1.572770 
# 
# From -- ./inp_files/40364.got.cif
#   From: 2010.05.17/outbox.cif.g08.bks.cpg/sg12_21_cif.got.tgz:40364.got - 2010.06.03 13:09:07.
