data_PCOD9180049
_publ_section_title
;
Structure prediction by ZEFSAII (Michael W. Deem and Ramdas Pophale) SiO2 
 PCOD9180049
Probable space group: C 2/M
;
_chemical_formula_sum "Si O2"
_cell_formula_units_Z 64
_cell_length_a 31.340329
_cell_length_b 9.052160
_cell_length_c 25.317408
_cell_angle_alpha 90.000000
_cell_angle_beta 151.769406
_cell_angle_gamma 90.000000
_cell_volume 3397.470509
_symmetry_space_group_name_H-M "C 2/M"
_symmetry_group_IT_number 12
_symmetry_cell_setting 'monoclinic'
loop_
_space_group_symop_operation_xyz
x,y,z
-x,y,-z
-x,-y,-z
x,-y,z
1/2+x,1/2+y,z
1/2-x,1/2+y,-z
1/2-x,1/2-y,-z
1/2+x,1/2-y,z
loop_
_atom_site_type_symbol
_atom_site_label
_atom_site_fract_x
_atom_site_fract_y
_atom_site_fract_z
Si Si1 0.833512 0.322295 0.736676
Si Si2 0.807742 0.326330 0.828370
Si Si3 0.818720 0.678158 0.116251
Si Si4 0.799638 0.338305 0.211432
Si Si5 0.016060 0.821756 0.349439
Si Si6 0.510047 0.166843 0.450965
Si Si7 0.984552 0.831325 0.046823
Si Si8 0.798334 0.177936 0.502289
O O1 0.842316 0.500000 0.746097
O O2 0.803615 0.276093 0.763127
O O3 0.931402 0.250726 0.835326
O O4 0.761859 0.280691 0.614358
O O5 0.821356 0.500000 0.842848
O O6 0.721514 0.277972 0.766760
O O7 0.890462 0.251710 0.949546
O O8 0.827535 0.500000 0.119143
O O9 0.771738 0.703714 0.122219
O O10 0.919253 0.751575 0.226961
O O11 0.750000 0.750000 0.000000
O O12 0.762759 0.500000 0.186355
O O13 0.906127 0.351650 0.322218
O O14 0.097718 0.782860 0.398211
O O15 0.045285 0.763196 0.440181
O O16 0.007570 0.000000 0.342436
O O17 0.500000 0.226483 0.500000
O O18 0.551436 0.000000 0.499014
O O19 0.979913 0.000000 0.059158
O O20 0.000000 0.828863 0.000000
O O21 0.750000 0.250000 0.500000
O O22 0.795467 0.000000 0.504859
#
# Coordination Sequence:
#
# PCOD9180049 Si02
#       8
#     8   8   8   8   8   8   8   8
#     4   9  19  36  55  77 109 146 186 234 286 337
#     4  10  19  31  53  81 112 147 183 225 281 342
#     4  10  21  40  64  87 116 152 193 239 289 345
#     4   9  19  34  51  79 116 146 180 229 274 327
#     4  10  21  38  61  88 119 154 194 243 298 349
#     4   9  19  35  55  83 119 156 191 230 282 344
#     4   9  17  31  51  76 106 140 181 225 273 330
#     4  10  23  42  61  84 116 152 197 249 294 345
#
# _framework density 18.837544000000001
#
# number of rings (size 3 to 8) (size 9 to 14) (size 15 to 20)
#    0.000    2.500    0.000    2.250    1.750    6.250 
#    2.250    0.000    0.000    0.000    0.000    0.000 
#    0.000    0.000    0.000    0.000    0.000    0.000 
#
# Total GULP energy -178202.923318 kJ/mol
# GULP energy per Si atom -5568.841354 kJ/mol
# Density = 1.879467 g / cm^3
# Si number density = 18.837544 Si / 1000 Ang^3
#
#
#
# Elastic Constant Matrix: (Units=GPa)
#
#
# Indices 1 2 3 4 5 6 
#
# 1 96.7607 42.3741 44.1871 0.0000 -1.1194 0.0000
# 2 42.3741 49.9192 33.4191 0.0000 -0.8298 0.0000
# 3 44.1871 33.4191 88.6225 0.0000 -8.7769 0.0000
# 4 0.0000 0.0000 0.0000 24.0858 0.0000 0.1366
# 5 -1.1194 -0.8298 -8.7769 0.0000 27.9795 0.0000
# 6 0.0000 0.0000 0.0000 0.1366 0.0000 23.5481
#
#
#
# Elastic Compliance Matrix: (Units=1/GPa)
#
#
# Indices 1 2 3 4 5 6 
#
# 1 0.017567 -0.012037 -0.004320 0.000000 -0.001009 0.000000
# 2 -0.012037 0.035209 -0.007451 0.000000 -0.001775 0.000000
# 3 -0.004320 -0.007451 0.016728 0.000000 0.004854 0.000000
# 4 0.000000 0.000000 0.000000 0.041520 0.000000 -0.000241
# 5 -0.001009 -0.001775 0.004854 0.000000 0.037170 0.000000
# 6 0.000000 0.000000 0.000000 -0.000241 0.000000 0.042468
#
#
# Mechanical properties :
#
#
# Convention : Reuss Voigt Hill
#
# Bulk Modulus (GPa) = 45.68666 52.80700 49.24683
# Shear Modulus (GPa) = 20.36057 22.81081 21.58569
#
# Velocity S-wave (km/s) = 3.29120 3.48361 3.38877
# Velocity P-wave (km/s) = 6.22481 6.65390 6.44293
#
# Compressibility (1/GPa) = 0.02188823
#
# Stress axis : x y z
#
# Youngs Moduli (GPa) = 56.92495 28.40222 59.77898
#
# Poissons Ratio (x) = 0.34186 0.25824
# Poissons Ratio (y) = 0.68518 0.44543
# Poissons Ratio (z) = 0.24591 0.21163
#
# Static dielectric constant tensor:
#      x y z
#    x 1.698170 0.000000 0.000700 
#    y 0.000000 1.673330 0.000000 
#    z 0.000700 0.000000 1.671310 
# 
# From -- ./inp_files/353573.got.cif
#   From: 2010.05.17/outbox.cif.g08.bks.cpg/sg12_177_cif.got.tgz:353573.got - 2010.06.03 13:09:07.
