data_PCOD9180442
_publ_section_title
;
Structure prediction by ZEFSAII (Michael W. Deem and Ramdas Pophale) SiO2 
 PCOD9180442
Probable space group: C 2/M
;
_chemical_formula_sum "Si O2"
_cell_formula_units_Z 48
_cell_length_a 9.639705
_cell_length_b 23.240363
_cell_length_c 12.694099
_cell_angle_alpha 90.000000
_cell_angle_beta 103.456017
_cell_angle_gamma 90.000000
_cell_volume 2765.794769
_symmetry_space_group_name_H-M "C 2/M"
_symmetry_group_IT_number 12
_symmetry_cell_setting 'monoclinic'
loop_
_space_group_symop_operation_xyz
x,y,z
-x,y,-z
-x,-y,-z
x,-y,z
1/2+x,1/2+y,z
1/2-x,1/2+y,-z
1/2-x,1/2-y,-z
1/2+x,1/2-y,z
loop_
_atom_site_type_symbol
_atom_site_label
_atom_site_fract_x
_atom_site_fract_y
_atom_site_fract_z
Si Si1 0.010152 0.369058 0.184392
Si Si2 0.581856 0.067862 0.623865
Si Si3 0.244517 0.068475 0.053717
Si Si4 0.902427 0.245870 0.082063
Si Si5 0.110112 0.932038 0.257831
Si Si6 0.162695 0.130773 0.826381
O O1 0.178057 0.372679 0.191173
O O2 0.980218 0.390416 0.297629
O O3 0.907642 0.410730 0.097365
O O4 0.955995 0.305242 0.143374
O O5 0.500000 0.074083 0.500000
O O6 0.751294 0.079818 0.646303
O O7 0.569789 0.000000 0.655751
O O8 0.163389 0.083349 0.148479
O O9 0.237223 0.000000 0.037999
O O10 0.175826 0.100559 0.943157
O O11 0.888151 0.195740 0.164281
O O12 0.750000 0.250000 0.000000
O O13 0.000000 0.230193 0.000000
O O14 0.963531 0.900749 0.257807
O O15 0.083983 0.000000 0.253907
#
# Coordination Sequence:
#
# PCOD9180442 Si02
#       6
#     8   8   8   8   8   8
#     4  11  22  35  52  82 109 144 192 230 276 329
#     4   9  20  41  64  82 106 144 188 235 289 341
#     4  10  19  32  49  75 115 152 179 214 268 338
#     4  12  22  37  53  80 117 158 195 222 266 331
#     4   9  19  33  53  81 107 143 185 222 278 337
#     4  12  22  32  52  80 117 148 183 228 271 329
#
# _framework density 17.354866999999999
#
# number of rings (size 3 to 8) (size 9 to 14) (size 15 to 20)
#    0.000    1.500    3.333    4.000    2.333    4.667 
#    0.000    0.833    0.000    7.000    0.000    0.000 
#    0.000    0.000    0.000    0.000    0.000    0.000 
#
# Total GULP energy -133913.059592 kJ/mol
# GULP energy per Si atom -5579.710816 kJ/mol
# Density = 1.731537 g / cm^3
# Si number density = 17.354867 Si / 1000 Ang^3
#
#
#
# Elastic Constant Matrix: (Units=GPa)
#
#
# Indices 1 2 3 4 5 6 
#
# 1 140.8054 42.1310 33.2627 0.0000 32.2939 0.0000
# 2 42.1310 64.3576 26.2722 0.0000 11.8065 0.0000
# 3 33.2627 26.2722 66.3628 0.0000 24.4372 0.0000
# 4 0.0000 0.0000 0.0000 8.3239 0.0000 4.9774
# 5 32.2939 11.8065 24.4372 0.0000 22.7495 0.0000
# 6 0.0000 0.0000 0.0000 4.9774 0.0000 25.5157
#
#
#
# Elastic Compliance Matrix: (Units=1/GPa)
#
#
# Indices 1 2 3 4 5 6 
#
# 1 0.012129 -0.005848 0.002413 0.000000 -0.016774 0.000000
# 2 -0.005848 0.021467 -0.007481 0.000000 0.005196 0.000000
# 3 0.002413 -0.007481 0.027550 0.000000 -0.029136 0.000000
# 4 0.000000 0.000000 0.000000 0.136000 0.000000 -0.026530
# 5 -0.016774 0.005196 -0.029136 0.000000 0.096370 0.000000
# 6 0.000000 0.000000 0.000000 -0.026530 0.000000 0.044367
#
#
# Mechanical properties :
#
#
# Convention : Reuss Voigt Hill
#
# Bulk Modulus (GPa) = 25.43612 52.76197 39.09904
# Shear Modulus (GPa) = 13.41130 22.64180 18.02655
#
# Velocity S-wave (km/s) = 2.78289 3.61589 3.22639
# Velocity P-wave (km/s) = 5.00142 6.92104 6.03800
#
# Compressibility (1/GPa) = 0.03931417
#
# Stress axis : x y z
#
# Youngs Moduli (GPa) = 82.44686 46.58316 36.29757
#
# Poissons Ratio (x) = 0.27241 -0.08757
# Poissons Ratio (y) = 0.48213 0.27154
# Poissons Ratio (z) = -0.19891 0.34848
#
# Static dielectric constant tensor:
#      x y z
#    x 1.598470 0.000000 0.015760 
#    y 0.000000 1.617510 0.000000 
#    z 0.015760 0.000000 1.579640 
# 
# From -- ./inp_files/121845.got.cif
#   From: 2010.05.17/outbox.cif.g08.bks.cpg/sg12_61_cif.got.tgz:121845.got - 2010.06.03 13:09:07.
