data_PCOD9180159
_publ_section_title
;
Structure prediction by ZEFSAII (Michael W. Deem and Ramdas Pophale) SiO2 
 PCOD9180159
Probable space group: C 2/M
;
_chemical_formula_sum "Si O2"
_cell_formula_units_Z 64
_cell_length_a 21.253436
_cell_length_b 12.585782
_cell_length_c 21.314853
_cell_angle_alpha 90.000000
_cell_angle_beta 143.785316
_cell_angle_gamma 90.000000
_cell_volume 3368.537169
_symmetry_space_group_name_H-M "C 2/M"
_symmetry_group_IT_number 12
_symmetry_cell_setting 'monoclinic'
loop_
_space_group_symop_operation_xyz
x,y,z
-x,y,-z
-x,-y,-z
x,-y,z
1/2+x,1/2+y,z
1/2-x,1/2+y,-z
1/2-x,1/2-y,-z
1/2+x,1/2-y,z
loop_
_atom_site_type_symbol
_atom_site_label
_atom_site_fract_x
_atom_site_fract_y
_atom_site_fract_z
Si Si1 0.642864 0.618833 0.297443
Si Si2 0.163276 0.709127 0.481164
Si Si3 0.332893 0.379932 0.176088
Si Si4 0.495442 0.211847 0.251669
Si Si5 0.761906 0.618983 0.767791
Si Si6 0.559328 0.288007 0.106612
Si Si7 0.907832 0.123556 0.475166
Si Si8 0.412398 0.119573 0.060726
O O1 0.614873 0.500000 0.294970
O O2 0.766155 0.640196 0.414124
O O3 0.573491 0.706964 0.277533
O O4 0.613087 0.635789 0.200829
O O5 0.250000 0.750000 0.500000
O O6 0.109817 0.804097 0.478357
O O7 0.068644 0.658388 0.363965
O O8 0.370866 0.500000 0.191440
O O9 0.406382 0.287241 0.209931
O O10 0.320626 0.372486 0.241346
O O11 0.213503 0.369352 0.052383
O O12 0.443854 0.135616 0.158624
O O13 0.808460 0.500000 0.809807
O O14 0.849260 0.708794 0.843997
O O15 0.700901 0.628031 0.652916
O O16 0.475533 0.210085 0.074027
O O17 0.500000 0.339891 0.000000
O O18 0.000000 0.156711 0.500000
O O19 0.928293 0.000000 0.508460
O O20 0.442622 0.000000 0.064943
#
# Coordination Sequence:
#
# PCOD9180159 Si02
#       8
#     8   8   8   8   8   8   8   8
#     4  10  22  39  57  79 107 145 190 233 277 326
#     4  10  21  37  55  82 113 152 191 232 284 334
#     4  10  19  33  55  84 115 147 180 222 279 338
#     4  10  21  36  56  81 110 147 189 229 275 326
#     4  10  19  31  54  86 114 141 174 221 285 340
#     4  11  20  35  57  81 110 140 182 230 280 331
#     4  10  20  35  58  90 120 144 180 236 295 349
#     4  10  21  34  53  82 114 147 183 226 279 333
#
# _framework density 18.999345999999999
#
# number of rings (size 3 to 8) (size 9 to 14) (size 15 to 20)
#    0.000    1.875    2.500    1.875    0.000    4.750 
#    0.000    0.000    0.000    1.125    0.000    0.000 
#    0.000    0.000    0.000    0.000    0.000    0.000 
#
# Total GULP energy -178504.423286 kJ/mol
# GULP energy per Si atom -5578.263228 kJ/mol
# Density = 1.895610 g / cm^3
# Si number density = 18.999346 Si / 1000 Ang^3
#
#
#
# Elastic Constant Matrix: (Units=GPa)
#
#
# Indices 1 2 3 4 5 6 
#
# 1 57.5251 2.0381 13.3272 0.0000 -4.8159 0.0000
# 2 2.0381 28.7642 13.6144 0.0000 -0.3336 0.0000
# 3 13.3272 13.6144 105.9511 0.0000 -24.7203 0.0000
# 4 0.0000 0.0000 0.0000 13.6595 0.0000 10.4844
# 5 -4.8159 -0.3336 -24.7203 0.0000 27.8115 0.0000
# 6 0.0000 0.0000 0.0000 10.4844 0.0000 85.6165
#
#
#
# Elastic Compliance Matrix: (Units=1/GPa)
#
#
# Indices 1 2 3 4 5 6 
#
# 1 0.017952 -0.000368 -0.001876 0.000000 0.001437 0.000000
# 2 -0.000368 0.037534 -0.005913 0.000000 -0.004869 0.000000
# 3 -0.001876 -0.005913 0.013048 0.000000 0.011202 0.000000
# 4 0.000000 0.000000 0.000000 0.080804 0.000000 -0.009895
# 5 0.001437 -0.004869 0.011202 0.000000 0.046103 0.000000
# 6 0.000000 0.000000 0.000000 -0.009895 0.000000 0.012892
#
#
# Mechanical properties :
#
#
# Convention : Reuss Voigt Hill
#
# Bulk Modulus (GPa) = 19.14940 27.79999 23.47469
# Shear Modulus (GPa) = 20.65685 36.30156 28.47920
#
# Velocity S-wave (km/s) = 3.30091 4.37587 3.87584
# Velocity P-wave (km/s) = 4.96275 6.33994 5.69314
#
# Compressibility (1/GPa) = 0.05222096
#
# Stress axis : x y z
#
# Youngs Moduli (GPa) = 55.70550 26.64279 76.64279
#
# Poissons Ratio (x) = 0.00979 0.14375
# Poissons Ratio (y) = 0.02048 0.45317
# Poissons Ratio (z) = 0.10448 0.15753
#
# Static dielectric constant tensor:
#      x y z
#    x 1.704590 0.000000 -0.054470 
#    y 0.000000 1.625040 0.000000 
#    z -0.054470 0.000000 1.738930 
# 
# From -- ./inp_files/321279.got.cif
#   From: 2010.05.17/outbox.cif.g08.bks.cpg/sg12_161_cif.got.tgz:321279.got - 2010.06.03 13:09:07.
