data_PCOD9180503
_publ_section_title
;
Structure prediction by ZEFSAII (Michael W. Deem and Ramdas Pophale) SiO2 
 PCOD9180503
Probable space group: C 2/M
;
_chemical_formula_sum "Si O2"
_cell_formula_units_Z 64
_cell_length_a 29.064845
_cell_length_b 9.931845
_cell_length_c 12.186889
_cell_angle_alpha 90.000000
_cell_angle_beta 94.948563
_cell_angle_gamma 90.000000
_cell_volume 3504.846162
_symmetry_space_group_name_H-M "C 2/M"
_symmetry_group_IT_number 12
_symmetry_cell_setting 'monoclinic'
loop_
_space_group_symop_operation_xyz
x,y,z
-x,y,-z
-x,-y,-z
x,-y,z
1/2+x,1/2+y,z
1/2-x,1/2+y,-z
1/2-x,1/2-y,-z
1/2+x,1/2-y,z
loop_
_atom_site_type_symbol
_atom_site_label
_atom_site_fract_x
_atom_site_fract_y
_atom_site_fract_z
Si Si1 0.961868 0.148671 0.399052
Si Si2 0.508635 0.848213 0.241953
Si Si3 0.569893 0.152498 0.933867
Si Si4 0.625416 0.346405 0.097023
Si Si5 0.883789 0.653176 0.461584
Si Si6 0.655062 0.152033 0.783015
Si Si7 0.210127 0.844804 0.944235
Si Si8 0.619568 0.846748 0.287242
O O1 0.985422 0.233531 0.308749
O O2 0.921330 0.235357 0.442563
O O3 0.000000 0.135277 0.500000
O O4 0.946645 0.000000 0.359594
O O5 0.482329 0.836510 0.120505
O O6 0.563679 0.837277 0.262232
O O7 0.496754 0.000000 0.279570
O O8 0.605242 0.165154 0.835870
O O9 0.576554 0.000000 0.979050
O O10 0.586169 0.262055 0.024530
O O11 0.611207 0.500000 0.117178
O O12 0.638328 0.264640 0.208740
O O13 0.669153 0.348491 0.025379
O O14 0.903447 0.500000 0.465355
O O15 0.850465 0.659353 0.349280
O O16 0.867047 0.674312 0.582661
O O17 0.687958 0.267416 0.836114
O O18 0.671497 0.000000 0.814613
O O19 0.224143 0.000000 0.925328
O O20 0.250000 0.750000 0.000000
O O21 0.632674 0.000000 0.259362
#
# Coordination Sequence:
#
# PCOD9180503 Si02
#       8
#     8   8   8   8   8   8   8   8
#     4  11  21  29  42  69 103 140 183 233 279 312
#     4  10  19  32  50  71  98 139 190 236 269 305
#     4   9  17  31  52  74  99 136 182 228 269 306
#     4  10  22  38  54  75 108 140 169 211 267 324
#     4  10  19  33  53  75 103 142 186 224 262 308
#     4   9  17  31  54  83 110 136 168 215 267 312
#     4  10  21  38  62  89 110 133 162 204 260 318
#     4  10  21  34  52  74 102 145 191 227 257 303
#
# _framework density 18.260431000000001
#
# number of rings (size 3 to 8) (size 9 to 14) (size 15 to 20)
#    0.000    2.125    2.500    1.125    0.000    4.500 
#    0.000    2.500    0.000    0.750    0.000    0.000 
#    0.000    0.000    0.000    0.000    0.000    0.000 
#
# Total GULP energy -178410.868921 kJ/mol
# GULP energy per Si atom -5575.339654 kJ/mol
# Density = 1.821887 g / cm^3
# Si number density = 18.260431 Si / 1000 Ang^3
#
#
#
# Elastic Constant Matrix: (Units=GPa)
#
#
# Indices 1 2 3 4 5 6 
#
# 1 22.6331 23.3592 6.6440 0.0000 15.8208 0.0000
# 2 23.3592 147.3363 63.3600 0.0000 9.0041 0.0000
# 3 6.6440 63.3600 105.4586 0.0000 8.9109 0.0000
# 4 0.0000 0.0000 0.0000 11.9130 0.0000 -2.3460
# 5 15.8208 9.0041 8.9109 0.0000 15.5936 0.0000
# 6 0.0000 0.0000 0.0000 -2.3460 0.0000 21.4254
#
#
#
# Elastic Compliance Matrix: (Units=1/GPa)
#
#
# Indices 1 2 3 4 5 6 
#
# 1 0.233926 -0.033704 0.025135 0.000000 -0.232237 0.000000
# 2 -0.033704 0.014084 -0.008974 0.000000 0.031191 0.000000
# 3 0.025135 -0.008974 0.015769 0.000000 -0.029330 0.000000
# 4 0.000000 0.000000 0.000000 0.085792 0.000000 0.009394
# 5 -0.232237 0.031191 -0.029330 0.000000 0.298500 0.000000
# 6 0.000000 0.000000 0.000000 0.009394 0.000000 0.047702
#
#
# Mechanical properties :
#
#
# Convention : Reuss Voigt Hill
#
# Bulk Modulus (GPa) = 4.37267 51.35048 27.86157
# Shear Modulus (GPa) = 6.19511 21.92405 14.05958
#
# Velocity S-wave (km/s) = 1.84391 3.46877 2.77780
# Velocity P-wave (km/s) = 2.63309 6.65022 5.05760
#
# Compressibility (1/GPa) = 0.22869335
#
# Stress axis : x y z
#
# Youngs Moduli (GPa) = 4.27485 71.00499 63.41742
#
# Poissons Ratio (x) = 2.39314 -1.59399
# Poissons Ratio (y) = 0.14408 0.56908
# Poissons Ratio (z) = -0.10745 0.63717
#
# Static dielectric constant tensor:
#      x y z
#    x 1.618460 0.000000 0.002650 
#    y 0.000000 1.650180 0.000000 
#    z 0.002650 0.000000 1.654420 
# 
# From -- ./inp_files/187506.got.cif
#   From: 2010.05.17/outbox.cif.g08.bks.cpg/sg12_94_cif.got.tgz:187506.got - 2010.06.03 13:09:07.
