data_PCOD9180053
_publ_section_title
;
Structure prediction by ZEFSAII (Michael W. Deem and Ramdas Pophale) SiO2 
 PCOD9180053
Probable space group: C 2/M
;
_chemical_formula_sum "Si O2"
_cell_formula_units_Z 56
_cell_length_a 20.414917
_cell_length_b 8.268027
_cell_length_c 25.231426
_cell_angle_alpha 90.000000
_cell_angle_beta 135.182760
_cell_angle_gamma 90.000000
_cell_volume 3001.833349
_symmetry_space_group_name_H-M "C 2/M"
_symmetry_group_IT_number 12
_symmetry_cell_setting 'monoclinic'
loop_
_space_group_symop_operation_xyz
x,y,z
-x,y,-z
-x,-y,-z
x,-y,z
1/2+x,1/2+y,z
1/2-x,1/2+y,-z
1/2-x,1/2-y,-z
1/2+x,1/2-y,z
loop_
_atom_site_type_symbol
_atom_site_label
_atom_site_fract_x
_atom_site_fract_y
_atom_site_fract_z
Si Si1 0.588681 0.694312 0.800499
Si Si2 0.433779 0.695198 0.796336
Si Si3 0.520933 0.698113 0.952951
Si Si4 0.439731 0.304908 0.630536
Si Si5 0.210730 0.307637 0.371837
Si Si6 0.273043 0.692416 0.954538
Si Si7 0.576318 0.302104 0.500160
O O1 0.592193 0.500000 0.800646
O O2 0.526222 0.738693 0.815834
O O3 0.528834 0.751816 0.715788
O O4 0.692076 0.756172 0.868019
O O5 0.426330 0.500000 0.790735
O O6 0.450491 0.749028 0.866087
O O7 0.347673 0.763599 0.714081
O O8 0.519761 0.500000 0.951415
O O9 0.500000 0.751309 0.000000
O O10 0.624730 0.754050 0.999978
O O11 0.441471 0.500000 0.631124
O O12 0.347700 0.257883 0.611189
O O13 0.443506 0.250321 0.571889
O O14 0.213261 0.500000 0.379326
O O15 0.317114 0.250111 0.428138
O O16 0.277076 0.500000 0.956948
O O17 0.250000 0.750000 0.000000
O O18 0.500000 0.249072 0.500000
O O19 0.574846 0.500000 0.500172
#
# Coordination Sequence:
#
# PCOD9180053 Si02
#       7
#     8   8   8   8   8   8   8
#     4   9  17  31  50  77 102 129 170 210 252 297
#     4   9  17  33  54  74 101 136 172 205 250 309
#     4   9  18  34  53  72  97 135 177 208 242 302
#     4   9  18  34  56  76 100 137 174 205 247 306
#     4  10  19  31  53  82 104 127 169 218 255 292
#     4  11  20  32  53  77 101 132 171 211 253 297
#     4   9  18  34  54  76 104 139 172 203 249 308
#
# _framework density 18.655266000000001
#
# number of rings (size 3 to 8) (size 9 to 14) (size 15 to 20)
#    0.000    2.571    1.429    2.143    0.000    2.286 
#    2.571    0.714    0.000    6.857    0.000    0.000 
#    0.000    0.000    0.000    0.000    0.000    0.000 
#
# Total GULP energy -156095.917363 kJ/mol
# GULP energy per Si atom -5574.854192 kJ/mol
# Density = 1.861281 g / cm^3
# Si number density = 18.655266 Si / 1000 Ang^3
#
#
#
# Elastic Constant Matrix: (Units=GPa)
#
#
# Indices 1 2 3 4 5 6 
#
# 1 139.5250 9.0073 96.0272 0.0000 -12.6327 0.0000
# 2 9.0073 4.3646 14.0442 0.0000 -2.0882 0.0000
# 3 96.0272 14.0442 151.3531 0.0000 -10.3950 0.0000
# 4 0.0000 0.0000 0.0000 21.0605 0.0000 4.1055
# 5 -12.6327 -2.0882 -10.3950 0.0000 28.4390 0.0000
# 6 0.0000 0.0000 0.0000 4.1055 0.0000 15.7390
#
#
#
# Elastic Compliance Matrix: (Units=1/GPa)
#
#
# Indices 1 2 3 4 5 6 
#
# 1 0.012940 0.000634 -0.008074 0.000000 0.002844 0.000000
# 2 0.000634 0.331604 -0.030240 0.000000 0.013577 0.000000
# 3 -0.008074 -0.030240 0.014501 0.000000 -0.000506 0.000000
# 4 0.000000 0.000000 0.000000 0.050026 0.000000 -0.013049
# 5 0.002844 0.013577 -0.000506 0.000000 0.037238 0.000000
# 6 0.000000 0.000000 0.000000 -0.013049 0.000000 0.066940
#
#
# Mechanical properties :
#
#
# Convention : Reuss Voigt Hill
#
# Bulk Modulus (GPa) = 3.52501 59.26667 31.39584
# Shear Modulus (GPa) = 7.31882 24.79197 16.05539
#
# Velocity S-wave (km/s) = 1.98285 3.64944 2.93684
# Velocity P-wave (km/s) = 2.67132 7.04246 5.32598
#
# Compressibility (1/GPa) = 0.28368701
#
# Stress axis : x y z
#
# Youngs Moduli (GPa) = 77.27776 3.01564 68.96245
#
# Poissons Ratio (x) = -0.00191 0.55678
# Poissons Ratio (y) = -0.04901 2.08541
# Poissons Ratio (z) = 0.62391 0.09119
#
# Static dielectric constant tensor:
#      x y z
#    x 1.629520 0.000000 -0.002070 
#    y 0.000000 1.658230 0.000000 
#    z -0.002070 0.000000 1.658780 
# 
# From -- ./inp_files/342478.got.cif
#   From: 2010.05.17/outbox.cif.g08.bks.cpg/sg12_172_cif.got.tgz:342478.got - 2010.06.03 13:09:07.
