data_PCOD9180903
_publ_section_title
;
Structure prediction by ZEFSAII (Michael W. Deem and Ramdas Pophale) SiO2 
 PCOD9180903
Probable space group: C 2/M
;
_chemical_formula_sum "Si O2"
_cell_formula_units_Z 64
_cell_length_a 16.092471
_cell_length_b 7.620201
_cell_length_c 27.101374
_cell_angle_alpha 90.000000
_cell_angle_beta 64.806109
_cell_angle_gamma 90.000000
_cell_volume 3007.238238
_symmetry_space_group_name_H-M "C 2/M"
_symmetry_group_IT_number 12
_symmetry_cell_setting 'monoclinic'
loop_
_space_group_symop_operation_xyz
x,y,z
-x,y,-z
-x,-y,-z
x,-y,z
1/2+x,1/2+y,z
1/2-x,1/2+y,-z
1/2-x,1/2-y,-z
1/2+x,1/2-y,z
loop_
_atom_site_type_symbol
_atom_site_label
_atom_site_fract_x
_atom_site_fract_y
_atom_site_fract_z
Si Si1 0.427395 0.714654 0.059220
Si Si2 0.113274 0.712876 0.562381
Si Si3 0.801625 0.715726 0.757020
Si Si4 0.094470 0.790920 0.825807
Si Si5 0.798303 0.793046 0.564810
Si Si6 0.908712 0.705583 0.634171
Si Si7 0.910647 0.289165 0.826832
Si Si8 0.263384 0.210036 0.939416
O O1 0.431037 0.500000 0.057971
O O2 0.440678 0.775524 0.111933
O O3 0.326238 0.769355 0.067651
O O4 0.500000 0.775184 0.000000
O O5 0.113359 0.500000 0.563841
O O6 0.142081 0.762837 0.499608
O O7 0.195897 0.774443 0.577341
O O8 0.011492 0.778594 0.600848
O O9 0.799867 0.500000 0.757105
O O10 0.696123 0.775499 0.787848
O O11 0.851778 0.777528 0.694776
O O12 0.859133 0.770577 0.790581
O O13 0.016795 0.757091 0.805213
O O14 0.103474 0.000000 0.828825
O O15 0.849548 0.718204 0.599261
O O16 0.790759 0.000000 0.575229
O O17 0.922300 0.500000 0.641475
O O18 0.905564 0.500000 0.827946
O O19 0.854095 0.222394 0.888982
O O20 0.265419 0.000000 0.935031
O O21 0.250000 0.250000 0.000000
#
# Coordination Sequence:
#
# PCOD9180903 Si02
#       8
#     8   8   8   8   8   8   8   8
#     4   9  16  28  49  74 100 131 169 208 252 313
#     4   9  19  35  54  78 110 147 182 216 262 322
#     4   9  19  37  57  76 103 143 184 221 262 320
#     4  10  19  35  57  78 101 135 179 220 261 318
#     4  10  20  34  54  82 114 143 175 222 272 313
#     4  10  20  35  56  78 104 143 187 222 261 317
#     4  10  20  36  56  78 106 139 175 219 271 320
#     4  10  19  32  51  77 106 136 171 215 264 319
#
# _framework density 21.281987000000001
#
# number of rings (size 3 to 8) (size 9 to 14) (size 15 to 20)
#    0.000    2.375    1.250    1.500    0.000    5.000 
#    0.000    3.750    0.000    2.250    0.000    0.000 
#    0.000    0.000    0.000    0.000    0.000    0.000 
#
# Total GULP energy -178670.608934 kJ/mol
# GULP energy per Si atom -5583.456529 kJ/mol
# Density = 2.123355 g / cm^3
# Si number density = 21.281987 Si / 1000 Ang^3
#
#
#
# Elastic Constant Matrix: (Units=GPa)
#
#
# Indices 1 2 3 4 5 6 
#
# 1 179.5402 -6.9021 94.3977 0.0001 -12.7003 0.0002
# 2 -6.9021 37.0178 -3.8914 0.0001 -3.1562 0.0004
# 3 94.3977 -3.8914 130.8610 0.0000 -17.0429 0.0000
# 4 0.0001 0.0001 0.0000 5.6872 0.0000 0.6945
# 5 -12.7003 -3.1562 -17.0429 0.0000 15.2597 0.0000
# 6 0.0002 0.0004 0.0000 0.6945 0.0000 17.3856
#
#
#
# Elastic Compliance Matrix: (Units=1/GPa)
#
#
# Indices 1 2 3 4 5 6 
#
# 1 0.009014 0.001058 -0.006396 0.000000 0.000578 0.000000
# 2 0.001058 0.028000 0.001098 -0.000001 0.007898 -0.000001
# 3 -0.006396 0.001098 0.013603 0.000000 0.010097 0.000000
# 4 0.000000 -0.000001 0.000000 0.176696 -0.000001 -0.007058
# 5 0.000578 0.007898 0.010097 -0.000001 0.078923 0.000000
# 6 0.000000 -0.000001 0.000000 -0.007058 0.000000 0.057801
#
#
# Mechanical properties :
#
#
# Convention : Reuss Voigt Hill
#
# Bulk Modulus (GPa) = 23.73175 57.18082 40.45629
# Shear Modulus (GPa) = 12.93455 25.25415 19.09435
#
# Velocity S-wave (km/s) = 2.46797 3.44851 2.99859
# Velocity P-wave (km/s) = 4.39278 6.54085 5.57132
#
# Compressibility (1/GPa) = 0.04213763
#
# Stress axis : x y z
#
# Youngs Moduli (GPa) = 110.93905 35.71419 73.51424
#
# Poissons Ratio (x) = -0.03777 0.47017
# Poissons Ratio (y) = -0.11734 -0.08074
# Poissons Ratio (z) = 0.70952 -0.03923
#
# Static dielectric constant tensor:
#      x y z
#    x 1.761780 0.000000 -0.027310 
#    y 0.000000 1.812360 0.000000 
#    z -0.027310 0.000000 1.786130 
# 
# From -- ./inp_files/359730.got.cif
#   From: 2010.05.17/outbox.cif.g08.bks.cpg/sg12_180_cif.got.tgz:359730.got - 2010.06.03 13:09:07.
