data_PCOD9180063
_publ_section_title
;
Structure prediction by ZEFSAII (Michael W. Deem and Ramdas Pophale) SiO2 
 PCOD9180063
Probable space group: C 2/M
;
_chemical_formula_sum "Si O2"
_cell_formula_units_Z 48
_cell_length_a 15.473006
_cell_length_b 18.306161
_cell_length_c 9.594839
_cell_angle_alpha 90.000000
_cell_angle_beta 116.357317
_cell_angle_gamma 90.000000
_cell_volume 2435.221065
_symmetry_space_group_name_H-M "C 2/M"
_symmetry_group_IT_number 12
_symmetry_cell_setting 'monoclinic'
loop_
_space_group_symop_operation_xyz
x,y,z
-x,y,-z
-x,-y,-z
x,-y,z
1/2+x,1/2+y,z
1/2-x,1/2+y,-z
1/2-x,1/2-y,-z
1/2+x,1/2-y,z
loop_
_atom_site_type_symbol
_atom_site_label
_atom_site_fract_x
_atom_site_fract_y
_atom_site_fract_z
Si Si1 0.074558 0.667841 0.940497
Si Si2 0.277516 0.680032 0.614151
Si Si3 0.297061 0.346124 0.170735
Si Si4 0.905271 0.170595 0.976025
Si Si5 0.896083 0.916401 0.482301
Si Si6 0.598850 0.194495 0.652280
O O1 0.074470 0.649932 0.776258
O O2 0.183056 0.660013 0.073157
O O3 0.054672 0.754997 0.925731
O O4 0.000000 0.635334 0.000000
O O5 0.250000 0.750000 0.500000
O O6 0.342772 0.691893 0.797515
O O7 0.343257 0.628454 0.565175
O O8 0.174852 0.654427 0.604244
O O9 0.326748 0.407385 0.300437
O O10 0.344355 0.269589 0.261430
O O11 0.340019 0.362725 0.049493
O O12 0.000000 0.126264 0.000000
O O13 0.000000 0.888904 0.500000
O O14 0.909229 0.000000 0.534776
O O15 0.500000 0.210674 0.500000
#
# Coordination Sequence:
#
# PCOD9180063 Si02
#       6
#     8   8   8   8   8   8
#     4  10  20  33  53  86 125 154 193 252 309 361
#     4  12  22  36  59  92 123 160 202 256 308 358
#     4  11  19  38  55  83 120 158 202 247 299 364
#     4  10  19  31  53  82 118 155 194 247 303 357
#     4  11  25  42  62  89 125 166 204 246 306 375
#     4  11  22  32  55  93 123 152 196 252 312 361
#
# _framework density 19.710737000000002
#
# number of rings (size 3 to 8) (size 9 to 14) (size 15 to 20)
#    0.000    1.167    5.000    2.500    9.333    0.000 
#    0.000    0.833    0.000    4.000    0.000    0.000 
#    0.000    0.000    0.000    0.000    0.000    0.000 
#
# Total GULP energy -133740.738184 kJ/mol
# GULP energy per Si atom -5572.530758 kJ/mol
# Density = 1.966587 g / cm^3
# Si number density = 19.710737 Si / 1000 Ang^3
#
#
#
# Elastic Constant Matrix: (Units=GPa)
#
#
# Indices 1 2 3 4 5 6 
#
# 1 213.1430 25.7430 68.9953 0.0000 -15.8943 0.0000
# 2 25.7430 27.2525 5.6545 0.0000 -11.2628 0.0000
# 3 68.9953 5.6545 124.3670 0.0000 -9.7782 0.0000
# 4 0.0000 0.0000 0.0000 2.9556 0.0000 6.4443
# 5 -15.8943 -11.2628 -9.7782 0.0000 51.6624 0.0000
# 6 0.0000 0.0000 0.0000 6.4443 0.0000 -4.8448
#
#
#
# Elastic Compliance Matrix: (Units=1/GPa)
#
#
# Indices 1 2 3 4 5 6 
#
# 1 0.006415 -0.005294 -0.003303 0.000000 0.000194 0.000000
# 2 -0.005294 0.044861 0.001561 0.000000 0.008447 0.000000
# 3 -0.003303 0.001561 0.009896 0.000000 0.001197 0.000000
# 4 0.000000 0.000000 0.000000 0.086748 0.000000 0.115389
# 5 0.000194 0.008447 0.001197 0.000000 0.021484 0.000000
# 6 0.000000 0.000000 0.000000 0.115389 0.000000 -0.052922
#
#
# Mechanical properties :
#
#
# Convention : Reuss Voigt Hill
#
# Bulk Modulus (GPa) = 21.23060 62.83869 42.03465
# Shear Modulus (GPa) = 34.18707 27.57928 30.88318
#
# Velocity S-wave (km/s) = 4.16918 3.74465 3.96260
# Velocity P-wave (km/s) = 5.82842 7.11661 6.50449
#
# Compressibility (1/GPa) = 0.04710182
#
# Stress axis : x y z
#
# Youngs Moduli (GPa) = 155.89317 22.29087 101.04968
#
# Poissons Ratio (x) = 0.11800 0.33374
# Poissons Ratio (y) = 0.82526 -0.15777
# Poissons Ratio (z) = 0.51487 -0.03480
#
# Static dielectric constant tensor:
#      x y z
#    x 1.844950 0.000000 -0.045330 
#    y 0.000000 1.724370 0.000000 
#    z -0.045330 0.000000 1.724770 
# 
# From -- ./inp_files/63612.got.cif
#   From: 2010.05.17/outbox.cif.g08.bks.cpg/sg12_32_cif.got.tgz:63612.got - 2010.06.03 13:09:07.
