data_PCOD9180013
_publ_section_title
;
Structure prediction by ZEFSAII (Michael W. Deem and Ramdas Pophale) SiO2 
 PCOD9180013
Probable space group: C 2/M
;
_chemical_formula_sum "Si O2"
_cell_formula_units_Z 56
_cell_length_a 11.721654
_cell_length_b 17.319527
_cell_length_c 18.581141
_cell_angle_alpha 90.000000
_cell_angle_beta 44.262389
_cell_angle_gamma 90.000000
_cell_volume 2632.805089
_symmetry_space_group_name_H-M "C 2/M"
_symmetry_group_IT_number 12
_symmetry_cell_setting 'monoclinic'
loop_
_space_group_symop_operation_xyz
x,y,z
-x,y,-z
-x,-y,-z
x,-y,z
1/2+x,1/2+y,z
1/2-x,1/2+y,-z
1/2-x,1/2-y,-z
1/2+x,1/2-y,z
loop_
_atom_site_type_symbol
_atom_site_label
_atom_site_fract_x
_atom_site_fract_y
_atom_site_fract_z
Si Si1 0.577289 0.652376 0.542219
Si Si2 0.743474 0.807750 0.918139
Si Si3 0.670725 0.363571 0.893671
Si Si4 0.652900 0.831639 0.476224
Si Si5 0.367904 0.303295 0.240635
Si Si6 0.749279 0.863088 0.761481
Si Si7 0.912629 0.417572 0.895159
O O1 0.500000 0.628292 0.500000
O O2 0.590784 0.746537 0.530466
O O3 0.754326 0.630859 0.496637
O O4 0.436387 0.622988 0.659018
O O5 0.680520 0.724032 0.921483
O O6 0.724888 0.861736 0.857546
O O7 0.936009 0.800099 0.846609
O O8 0.646841 0.847699 0.026634
O O9 0.677481 0.359540 0.804759
O O10 0.819677 0.407067 0.862469
O O11 0.500000 0.396195 0.000000
O O12 0.500000 0.866558 0.500000
O O13 0.792814 0.821795 0.352092
O O14 0.292161 0.221315 0.252017
O O15 0.605371 0.914436 0.795617
O O16 0.866423 0.500000 0.949073
#
# Coordination Sequence:
#
# PCOD9180013 Si02
#       7
#     8   8   8   8   8   8   8
#     4  10  19  31  53  88 126 160 191 249 310 368
#     4  11  21  38  61  88 122 159 207 250 308 367
#     4  11  22  36  60  87 118 162 207 253 309 364
#     4  10  19  31  52  89 128 161 187 243 323 373
#     4  11  19  34  59  90 122 157 198 248 307 370
#     4  11  21  35  59  87 122 161 201 249 304 367
#     4  12  26  42  59  84 124 170 213 252 298 368
#
# _framework density 21.270088999999999
#
# number of rings (size 3 to 8) (size 9 to 14) (size 15 to 20)
#    0.000    1.143    7.143    2.571    0.000    2.571 
#    0.000    0.000    0.000    0.429    0.000    0.000 
#    0.000    2.857    0.000    0.000    0.000    0.000 
#
# Total GULP energy -156175.068372 kJ/mol
# GULP energy per Si atom -5577.681013 kJ/mol
# Density = 2.122168 g / cm^3
# Si number density = 21.270089 Si / 1000 Ang^3
#
#
#
# Elastic Constant Matrix: (Units=GPa)
#
#
# Indices 1 2 3 4 5 6 
#
# 1 161.9868 3.4530 29.8858 -0.0001 -21.5854 0.0001
# 2 3.4530 19.6532 12.4492 -0.0001 -1.4408 0.0000
# 3 29.8858 12.4492 75.1723 0.0004 -13.6102 -0.0003
# 4 -0.0001 -0.0001 0.0004 -1.2587 0.0000 7.6392
# 5 -21.5854 -1.4408 -13.6102 0.0000 43.6760 0.0001
# 6 0.0001 0.0000 -0.0003 7.6392 0.0001 -28.1817
#
#
#
# Elastic Compliance Matrix: (Units=1/GPa)
#
#
# Indices 1 2 3 4 5 6 
#
# 1 0.006960 0.000466 -0.002351 0.000001 0.002722 0.000000
# 2 0.000466 0.056929 -0.009784 0.000007 -0.000940 0.000002
# 3 -0.002351 -0.009784 0.016521 -0.000007 0.003663 -0.000002
# 4 0.000001 0.000007 -0.000007 1.231499 -0.000003 0.333821
# 5 0.002722 -0.000940 0.003663 -0.000003 0.025352 -0.000001
# 6 0.000000 0.000002 -0.000002 0.333821 -0.000001 0.055005
#
#
# Mechanical properties :
#
#
# Convention : Reuss Voigt Hill
#
# Bulk Modulus (GPa) = 17.52159 38.70981 28.11570
# Shear Modulus (GPa) = 3.48523 16.91541 10.20032
#
# Velocity S-wave (km/s) = 1.28145 2.82311 2.19227
# Velocity P-wave (km/s) = 3.23188 5.37264 4.43341
#
# Compressibility (1/GPa) = 0.05707246
#
# Stress axis : x y z
#
# Youngs Moduli (GPa) = 143.67848 17.56582 60.52863
#
# Poissons Ratio (x) = -0.00819 0.14232
# Poissons Ratio (y) = -0.06698 0.59218
# Poissons Ratio (z) = 0.33784 0.17186
#
# Static dielectric constant tensor:
#      x y z
#    x 1.834070 0.000000 -0.001190 
#    y 0.000000 1.777110 0.000000 
#    z -0.001190 0.000000 1.764360 
# 
# From -- ./inp_files/306588.got.cif
#   From: 2010.05.17/outbox.cif.g08.bks.cpg/sg12_154_cif.got.tgz:306588.got - 2010.06.03 13:09:07.
