data_PCOD9180480
_publ_section_title
;
Structure prediction by ZEFSAII (Michael W. Deem and Ramdas Pophale) SiO2 
 PCOD9180480
Probable space group: C 2/M
;
_chemical_formula_sum "Si O2"
_cell_formula_units_Z 56
_cell_length_a 10.150833
_cell_length_b 23.604713
_cell_length_c 14.694198
_cell_angle_alpha 90.000000
_cell_angle_beta 134.286813
_cell_angle_gamma 90.000000
_cell_volume 2520.405525
_symmetry_space_group_name_H-M "C 2/M"
_symmetry_group_IT_number 12
_symmetry_cell_setting 'monoclinic'
loop_
_space_group_symop_operation_xyz
x,y,z
-x,y,-z
-x,-y,-z
x,-y,z
1/2+x,1/2+y,z
1/2-x,1/2+y,-z
1/2-x,1/2-y,-z
1/2+x,1/2-y,z
loop_
_atom_site_type_symbol
_atom_site_label
_atom_site_fract_x
_atom_site_fract_y
_atom_site_fract_z
Si Si1 0.725183 0.351374 0.744576
Si Si2 0.884668 0.311263 0.065618
Si Si3 0.002342 0.184584 0.902025
Si Si4 0.374255 0.065382 0.347348
Si Si5 0.834227 0.638168 0.590275
Si Si6 0.891523 0.723115 0.282974
Si Si7 0.068682 0.067938 0.330218
O O1 0.737720 0.355430 0.640650
O O2 0.627451 0.290707 0.718824
O O3 0.625708 0.404375 0.742030
O O4 0.938479 0.347309 0.873879
O O5 0.924469 0.249063 0.046076
O O6 0.893317 0.297921 0.178742
O O7 0.687562 0.336776 0.942268
O O8 0.796978 0.196132 0.766113
O O9 0.000000 0.155751 0.000000
O O10 0.500000 0.071595 0.500000
O O11 0.476244 0.101372 0.320239
O O12 0.166237 0.078678 0.279187
O O13 0.380842 0.000000 0.324793
O O14 0.695936 0.603125 0.461322
O O15 0.916743 0.696828 0.588901
O O16 0.076914 0.000000 0.348876
#
# Coordination Sequence:
#
# PCOD9180480 Si02
#       7
#     8   8   8   8   8   8   8
#     4  10  20  31  47  74 101 126 161 202 244 288
#     4   8  15  28  45  67  99 130 157 188 230 285
#     4   8  13  25  45  66  93 128 162 190 221 275
#     4   8  16  32  51  68  87 119 166 210 244 282
#     4  10  19  32  50  70  96 129 163 201 241 284
#     4   9  18  29  43  70 105 131 157 192 238 291
#     4  10  21  36  52  69  92 126 167 208 250 292
#
# _framework density 22.218648000000002
#
# number of rings (size 3 to 8) (size 9 to 14) (size 15 to 20)
#    0.000    3.000    0.000    1.714    0.000    5.714 
#    0.000    2.857    0.000    0.000    0.000    2.000 
#    0.000   73.714    0.000    3.429    0.000    0.143 
#
# Total GULP energy -155948.672158 kJ/mol
# GULP energy per Si atom -5569.595434 kJ/mol
# Density = 2.216808 g / cm^3
# Si number density = 22.218648 Si / 1000 Ang^3
#
#
#
# Elastic Constant Matrix: (Units=GPa)
#
#
# Indices 1 2 3 4 5 6 
#
# 1 122.6452 54.8008 33.1237 0.0000 24.3107 0.0000
# 2 54.8008 92.4145 24.9667 0.0000 3.3249 0.0000
# 3 33.1237 24.9667 40.8679 0.0000 18.5401 0.0000
# 4 0.0000 0.0000 0.0000 5.6579 0.0000 14.5358
# 5 24.3107 3.3249 18.5401 0.0000 41.3871 0.0000
# 6 0.0000 0.0000 0.0000 14.5358 0.0000 39.2676
#
#
#
# Elastic Compliance Matrix: (Units=1/GPa)
#
#
# Indices 1 2 3 4 5 6 
#
# 1 0.013304 -0.006512 -0.004389 0.000000 -0.005326 0.000000
# 2 -0.006512 0.016482 -0.007437 0.000000 0.005832 0.000000
# 3 -0.004389 -0.007437 0.039069 0.000000 -0.014326 0.000000
# 4 0.000000 0.000000 0.000000 3.607987 0.000000 -1.335581
# 5 -0.005326 0.005832 -0.014326 0.000000 0.033239 0.000000
# 6 0.000000 0.000000 0.000000 -1.335581 0.000000 0.519863
#
#
# Mechanical properties :
#
#
# Convention : Reuss Voigt Hill
#
# Bulk Modulus (GPa) = 31.07596 53.52333 42.29965
# Shear Modulus (GPa) = 1.16895 26.79831 13.98363
#
# Velocity S-wave (km/s) = 0.72612 3.47669 2.51144
# Velocity P-wave (km/s) = 3.83664 6.34493 5.24299
#
# Compressibility (1/GPa) = 0.03217921
#
# Stress axis : x y z
#
# Youngs Moduli (GPa) = 75.16360 60.67362 25.59596
#
# Poissons Ratio (x) = 0.39511 0.11234
# Poissons Ratio (y) = 0.48946 0.19035
# Poissons Ratio (z) = 0.32989 0.45122
#
# Static dielectric constant tensor:
#      x y z
#    x 1.936650 0.000000 0.041660 
#    y 0.000000 1.840680 0.000000 
#    z 0.041660 0.000000 1.991730 
# 
# From -- ./inp_files/306663.got.cif
#   From: 2010.05.17/outbox.cif.g08.bks.cpg/sg12_154_cif.got.tgz:306663.got - 2010.06.03 13:09:07.
