data_PCOD9180779
_publ_section_title
;
Structure prediction by ZEFSAII (Michael W. Deem and Ramdas Pophale) SiO2 
 PCOD9180779
Probable space group: C 2/M
;
_chemical_formula_sum "Si O2"
_cell_formula_units_Z 56
_cell_length_a 13.880119
_cell_length_b 28.168510
_cell_length_c 14.328997
_cell_angle_alpha 90.000000
_cell_angle_beta 32.191033
_cell_angle_gamma 90.000000
_cell_volume 2984.635436
_symmetry_space_group_name_H-M "C 2/M"
_symmetry_group_IT_number 12
_symmetry_cell_setting 'monoclinic'
loop_
_space_group_symop_operation_xyz
x,y,z
-x,y,-z
-x,-y,-z
x,-y,z
1/2+x,1/2+y,z
1/2-x,1/2+y,-z
1/2-x,1/2-y,-z
1/2+x,1/2-y,z
loop_
_atom_site_type_symbol
_atom_site_label
_atom_site_fract_x
_atom_site_fract_y
_atom_site_fract_z
Si Si1 0.706657 0.380524 0.652380
Si Si2 0.791265 0.718239 0.116901
Si Si3 0.619815 0.171479 0.775182
Si Si4 0.906161 0.944372 0.974532
Si Si5 0.619092 0.294177 0.589986
Si Si6 0.541122 0.115954 0.254972
Si Si7 0.835402 0.311852 0.701995
O O1 0.549687 0.418438 0.790388
O O2 0.646830 0.334740 0.643226
O O3 0.755705 0.357051 0.711949
O O4 0.880808 0.401047 0.455534
O O5 0.816985 0.674493 0.168917
O O6 0.591004 0.717327 0.241216
O O7 0.794112 0.767986 0.170586
O O8 0.955014 0.710069 0.911350
O O9 0.799496 0.185519 0.572460
O O10 0.535289 0.127447 0.785957
O O11 0.883846 0.000000 0.973314
O O12 0.715253 0.917442 0.119333
O O13 0.000000 0.940357 0.000000
O O14 0.750000 0.250000 0.500000
O O15 0.593100 0.166685 0.259582
O O16 0.000000 0.295032 0.500000
#
# Coordination Sequence:
#
# PCOD9180779 Si02
#       7
#     8   8   8   8   8   8   8
#     4  10  21  37  55  80 113 154 187 229 286 340
#     4  11  21  34  51  78 116 149 196 240 269 324
#     4  10  22  34  51  77 105 151 192 229 281 327
#     4  11  23  38  59  86 110 142 189 236 294 356
#     4  11  21  35  54  80 115 153 197 236 276 331
#     4  10  21  38  55  77 111 145 185 230 283 345
#     4  10  19  32  51  74 110 151 189 225 275 331
#
# _framework density 18.76276
#
# number of rings (size 3 to 8) (size 9 to 14) (size 15 to 20)
#    0.000    1.571    1.429    5.571    0.000    6.286 
#    0.000    1.429    0.000    0.000    0.000    8.000 
#    0.000   22.857    0.000    0.000    0.000    0.000 
#
# Total GULP energy -156119.122626 kJ/mol
# GULP energy per Si atom -5575.682951 kJ/mol
# Density = 1.872006 g / cm^3
# Si number density = 18.762760 Si / 1000 Ang^3
#
#
#
# Elastic Constant Matrix: (Units=GPa)
#
#
# Indices 1 2 3 4 5 6 
#
# 1 61.5763 16.5881 17.1946 0.0001 -7.7719 -0.0001
# 2 16.5881 78.3022 52.3721 0.0000 -6.5749 0.0000
# 3 17.1946 52.3721 99.6907 0.0001 -29.7914 -0.0001
# 4 0.0001 0.0000 0.0001 16.3575 -0.0001 0.3796
# 5 -7.7719 -6.5749 -29.7914 -0.0001 36.8613 0.0001
# 6 -0.0001 0.0000 -0.0001 0.3796 0.0001 16.8704
#
#
#
# Elastic Compliance Matrix: (Units=1/GPa)
#
#
# Indices 1 2 3 4 5 6 
#
# 1 0.017580 -0.003090 -0.000614 0.000000 0.002659 0.000000
# 2 -0.003090 0.021445 -0.012900 0.000000 -0.007253 0.000000
# 3 -0.000614 -0.012900 0.021342 0.000000 0.014818 0.000000
# 4 0.000000 0.000000 0.000000 0.061166 0.000000 -0.001376
# 5 0.002659 -0.007253 0.014818 0.000000 0.038372 0.000000
# 6 0.000000 0.000000 0.000000 -0.001376 0.000000 0.059306
#
#
# Mechanical properties :
#
#
# Convention : Reuss Voigt Hill
#
# Bulk Modulus (GPa) = 36.82195 45.76431 41.29313
# Shear Modulus (GPa) = 19.12241 24.24547 21.68394
#
# Velocity S-wave (km/s) = 3.19590 3.59864 3.40323
# Velocity P-wave (km/s) = 5.76940 6.45840 6.12360
#
# Compressibility (1/GPa) = 0.02715772
#
# Stress axis : x y z
#
# Youngs Moduli (GPa) = 56.88419 46.63071 46.85494
#
# Poissons Ratio (x) = 0.14410 0.02877
# Poissons Ratio (y) = 0.17578 0.60445
# Poissons Ratio (z) = 0.03493 0.60156
#
# Static dielectric constant tensor:
#      x y z
#    x 2.382720 0.000000 -0.006970 
#    y 0.000000 1.623780 0.000000 
#    z -0.006970 0.000000 1.701020 
# 
# From -- ./inp_files/219353.got.cif
#   From: 2010.05.17/outbox.cif.g08.bks.cpg/sg12_110_cif.got.tgz:219353.got - 2010.06.03 13:09:07.
