data_PCOD9180715
_publ_section_title
;
Structure prediction by ZEFSAII (Michael W. Deem and Ramdas Pophale) SiO2 
 PCOD9180715
Probable space group: C 2/M
;
_chemical_formula_sum "Si O2"
_cell_formula_units_Z 64
_cell_length_a 19.567680
_cell_length_b 7.326182
_cell_length_c 18.371822
_cell_angle_alpha 90.000000
_cell_angle_beta 75.564221
_cell_angle_gamma 90.000000
_cell_volume 2550.565388
_symmetry_space_group_name_H-M "C 2/M"
_symmetry_group_IT_number 12
_symmetry_cell_setting 'monoclinic'
loop_
_space_group_symop_operation_xyz
x,y,z
-x,y,-z
-x,-y,-z
x,-y,z
1/2+x,1/2+y,z
1/2-x,1/2+y,-z
1/2-x,1/2-y,-z
1/2+x,1/2-y,z
loop_
_atom_site_type_symbol
_atom_site_label
_atom_site_fract_x
_atom_site_fract_y
_atom_site_fract_z
Si Si1 0.273068 0.288293 0.801239
Si Si2 0.161924 0.722269 0.949896
Si Si3 0.746923 0.222757 0.643491
Si Si4 0.540453 0.777424 0.879815
Si Si5 0.903088 0.713747 0.285051
Si Si6 0.617773 0.220077 0.113411
Si Si7 0.995107 0.218387 0.388027
Si Si8 0.885055 0.222255 0.537696
O O1 0.252840 0.500000 0.799317
O O2 0.219356 0.210976 0.876286
O O3 0.268227 0.219241 0.720184
O O4 0.349254 0.278577 0.818943
O O5 0.165379 0.500000 0.949902
O O6 0.084353 0.772769 0.939461
O O7 0.166168 0.782321 0.032389
O O8 0.666312 0.285641 0.655832
O O9 0.805473 0.285640 0.570558
O O10 0.749462 0.000000 0.639376
O O11 0.586477 0.714627 0.798480
O O12 0.461092 0.717781 0.884699
O O13 0.537934 0.000000 0.881467
O O14 0.890280 0.500000 0.279339
O O15 0.973865 0.732816 0.312606
O O16 0.617106 0.000000 0.114611
O O17 0.931115 0.284841 0.456908
O O18 0.068419 0.277015 0.404039
O O19 0.995538 0.000000 0.391849
O O20 0.884872 0.000000 0.534684
#
# Coordination Sequence:
#
# PCOD9180715 Si02
#       8
#     8   8   8   8   8   8   8   8
#     4  10  19  32  51  73  97 126 163 202 236 283
#     4   9  16  31  52  71  93 127 168 200 231 282
#     4   9  17  31  51  71  94 130 168 196 229 283
#     4   9  17  31  49  71  97 127 164 200 235 282
#     4  10  19  32  51  73  98 127 161 201 240 279
#     4  10  20  31  49  74  98 125 159 202 247 285
#     4   9  18  33  53  75  99 125 158 198 237 283
#     4   8  16  32  52  73  97 129 163 192 229 285
#
# _framework density 25.092473999999999
#
# number of rings (size 3 to 8) (size 9 to 14) (size 15 to 20)
#    0.000    2.750    1.250    1.500    1.750    2.000 
#    0.000    1.875    0.000    4.500    0.000    0.000 
#    0.000    0.000    0.000    0.000    0.000    0.000 
#
# Total GULP energy -178792.238792 kJ/mol
# GULP energy per Si atom -5587.257462 kJ/mol
# Density = 2.503536 g / cm^3
# Si number density = 25.092474 Si / 1000 Ang^3
#
#
#
# Elastic Constant Matrix: (Units=GPa)
#
#
# Indices 1 2 3 4 5 6 
#
# 1 77.6581 -6.7287 -11.8712 0.0000 -1.7148 0.0000
# 2 -6.7287 98.1628 -8.3353 0.0000 -6.6715 0.0000
# 3 -11.8712 -8.3353 21.8556 0.0000 19.9552 0.0000
# 4 0.0000 0.0000 0.0000 -111.9044 0.0000 0.8548
# 5 -1.7148 -6.6715 19.9552 0.0000 42.7720 0.0000
# 6 0.0000 0.0000 0.0000 0.8548 0.0000 0.1836
#
#
#
# Elastic Compliance Matrix: (Units=1/GPa)
#
#
# Indices 1 2 3 4 5 6 
#
# 1 0.015060 0.001841 0.014057 0.000000 -0.005667 0.000000
# 2 0.001841 0.010757 0.006103 0.000000 -0.001095 0.000000
# 3 0.014057 0.006103 0.094655 0.000000 -0.042646 0.000000
# 4 0.000000 0.000000 0.000000 -0.008629 0.000000 0.040171
# 5 -0.005667 -0.001095 -0.042646 0.000000 0.042878 0.000000
# 6 0.000000 0.000000 0.000000 0.040171 0.000000 5.259141
#
#
# Mechanical properties :
#
#
# Convention : Reuss Voigt Hill
#
# Bulk Modulus (GPa) = 6.08007 15.97845 11.02926
# Shear Modulus (GPa) = 0.92171 1.18435 1.05303
#
# Velocity S-wave (km/s) = 0.60673 0.68776 0.64851
# Velocity P-wave (km/s) = 1.70855 2.64808 2.22840
#
# Compressibility (1/GPa) = 0.16447179
#
# Stress axis : x y z
#
# Youngs Moduli (GPa) = 66.40083 92.96212 10.56468
#
# Poissons Ratio (x) = -0.17112 -0.14850
# Poissons Ratio (y) = -0.12223 -0.06447
# Poissons Ratio (z) = -0.93336 -0.56731
#
# Static dielectric constant tensor:
#      x y z
#    x 1.988980 0.000000 -0.032550 
#    y 0.000000 1.978750 0.000000 
#    z -0.032550 0.000000 1.928060 
# 
# From -- ./inp_files/276577.got.cif
#   From: 2010.05.17/outbox.cif.g08.bks.cpg/sg12_139_cif.got.tgz:276577.got - 2010.06.03 13:09:07.
