data_PCOD9180701
_publ_section_title
;
Structure prediction by ZEFSAII (Michael W. Deem and Ramdas Pophale) SiO2 
 PCOD9180701
Probable space group: C 2/M
;
_chemical_formula_sum "Si O2"
_cell_formula_units_Z 40
_cell_length_a 23.715697
_cell_length_b 11.842024
_cell_length_c 20.263339
_cell_angle_alpha 90.000000
_cell_angle_beta 163.818991
_cell_angle_gamma 90.000000
_cell_volume 1585.869385
_symmetry_space_group_name_H-M "C 2/M"
_symmetry_group_IT_number 12
_symmetry_cell_setting 'monoclinic'
loop_
_space_group_symop_operation_xyz
x,y,z
-x,y,-z
-x,-y,-z
x,-y,z
1/2+x,1/2+y,z
1/2-x,1/2+y,-z
1/2-x,1/2-y,-z
1/2+x,1/2-y,z
loop_
_atom_site_type_symbol
_atom_site_label
_atom_site_fract_x
_atom_site_fract_y
_atom_site_fract_z
Si Si1 0.714390 0.877803 0.369237
Si Si2 0.510159 0.809485 0.341225
Si Si3 0.702421 0.121984 0.025340
Si Si4 0.711685 0.122495 0.699401
Si Si5 0.272009 0.626535 0.275170
O O1 0.486416 0.866283 0.138092
O O2 0.744810 0.876952 0.324221
O O3 0.850603 0.774619 0.544753
O O4 0.785151 0.000000 0.474105
O O5 0.384028 0.877905 0.146132
O O6 0.646464 0.870031 0.548925
O O7 0.352263 0.726358 0.200275
O O8 0.803009 0.000000 0.149785
O O9 0.500000 0.119635 0.500000
O O10 0.807338 0.244001 0.826510
O O11 0.811425 0.000000 0.825427
O O12 0.500000 0.627725 0.500000
O O13 0.192407 0.500000 0.166619
#
# Coordination Sequence:
#
# PCOD9180701 Si02
#       5
#     8   8   8   8   8
#     4   9  17  30  49  73 102 134 172 219 265 311
#     4  10  19  32  51  73 102 138 174 213 262 316
#     4  10  20  32  49  76 106 137 175 218 264 314
#     4   9  17  30  51  76 100 133 175 215 260 312
#     4   8  14  26  47  73  98 129 169 209 252 302
#
# _framework density 25.222756
#
# number of rings (size 3 to 8) (size 9 to 14) (size 15 to 20)
#    0.000    2.800    0.000    1.800    0.000    0.800 
#    0.000    0.000    0.000   36.000    0.000   82.600 
#    0.000    0.000    0.000    0.000    0.000    0.000 
#
# Total GULP energy -111599.424659 kJ/mol
# GULP energy per Si atom -5579.971233 kJ/mol
# Density = 2.516535 g / cm^3
# Si number density = 25.222756 Si / 1000 Ang^3
#
#
#
# Elastic Constant Matrix: (Units=GPa)
#
#
# Indices 1 2 3 4 5 6 
#
# 1 111.9979 10.9217 22.6001 0.0018 10.8338 -0.0002
# 2 10.9217 222.0483 28.9498 0.0231 -3.8941 0.0054
# 3 22.6001 28.9498 78.2765 0.0194 41.5738 0.0034
# 4 0.0018 0.0231 0.0194 26.8599 0.0078 -23.7688
# 5 10.8338 -3.8941 41.5738 0.0078 54.3473 -0.0001
# 6 -0.0002 0.0054 0.0034 -23.7688 -0.0001 30.1371
#
#
#
# Elastic Compliance Matrix: (Units=1/GPa)
#
#
# Indices 1 2 3 4 5 6 
#
# 1 0.009486 -0.000089 -0.002861 0.000006 0.000291 0.000005
# 2 -0.000089 0.005005 -0.003411 -0.000010 0.002986 -0.000009
# 3 -0.002861 -0.003411 0.024742 -0.000038 -0.018601 -0.000032
# 4 0.000006 -0.000010 -0.000038 0.123248 0.000010 0.097204
# 5 0.000291 0.002986 -0.018601 0.000010 0.032785 0.000009
# 6 0.000005 -0.000009 -0.000032 0.097204 0.000009 0.109845
#
#
# Mechanical properties :
#
#
# Convention : Reuss Voigt Hill
#
# Bulk Modulus (GPa) = 37.71809 59.69621 48.70715
# Shear Modulus (GPa) = 15.30597 45.59227 30.44912
#
# Velocity S-wave (km/s) = 2.46607 4.25618 3.47826
# Velocity P-wave (km/s) = 4.80574 6.91899 5.95683
#
# Compressibility (1/GPa) = 0.02651248
#
# Stress axis : x y z
#
# Youngs Moduli (GPa) = 105.41296 199.80069 40.41702
#
# Poissons Ratio (x) = 0.01769 0.11562
# Poissons Ratio (y) = 0.00933 0.13787
# Poissons Ratio (z) = 0.30156 0.68157
#
# Static dielectric constant tensor:
#      x y z
#    x 2.007600 0.000000 -0.055480 
#    y 0.000000 2.004660 -0.000010 
#    z -0.055480 -0.000010 2.010610 
# 
# From -- ./inp_files/27394.got.cif
#   From: 2010.05.17/outbox.cif.g08.bks.cpg/sg12_14_cif.got.tgz:27394.got - 2010.06.03 13:09:07.
