data_PCOD9180496
_publ_section_title
;
Structure prediction by ZEFSAII (Michael W. Deem and Ramdas Pophale) SiO2 
 PCOD9180496
Probable space group: C 2/M
;
_chemical_formula_sum "Si O2"
_cell_formula_units_Z 64
_cell_length_a 22.889504
_cell_length_b 9.331900
_cell_length_c 22.313937
_cell_angle_alpha 90.000000
_cell_angle_beta 142.848822
_cell_angle_gamma 90.000000
_cell_volume 2878.473227
_symmetry_space_group_name_H-M "C 2/M"
_symmetry_group_IT_number 12
_symmetry_cell_setting 'monoclinic'
loop_
_space_group_symop_operation_xyz
x,y,z
-x,y,-z
-x,-y,-z
x,-y,z
1/2+x,1/2+y,z
1/2-x,1/2+y,-z
1/2-x,1/2-y,-z
1/2+x,1/2-y,z
loop_
_atom_site_type_symbol
_atom_site_label
_atom_site_fract_x
_atom_site_fract_y
_atom_site_fract_z
Si Si1 0.578757 0.163872 0.512887
Si Si2 0.110004 0.339837 0.411076
Si Si3 0.170155 0.162869 0.354336
Si Si4 0.260187 0.831287 0.698077
Si Si5 0.670721 0.664234 0.855414
Si Si6 0.543937 0.338601 0.973458
Si Si7 0.260660 0.838994 0.196278
Si Si8 0.605339 0.163832 0.914349
O O1 0.500000 0.168176 0.500000
O O2 0.545178 0.182073 0.416955
O O3 0.653591 0.289774 0.587390
O O4 0.621709 0.000000 0.550237
O O5 0.094961 0.500000 0.375013
O O6 0.105802 0.227164 0.354737
O O7 0.219801 0.335343 0.528421
O O8 0.172347 0.260553 0.297295
O O9 0.145184 0.000000 0.319634
O O10 0.262939 0.748079 0.763019
O O11 0.275388 0.000000 0.716717
O O12 0.639120 0.500000 0.822474
O O13 0.673151 0.750202 0.795174
O O14 0.611858 0.746807 0.858551
O O15 0.783094 0.660282 0.970170
O O16 0.503398 0.500000 0.930966
O O17 0.657803 0.353725 0.079388
O O18 0.500000 0.280717 0.000000
O O19 0.540958 0.240124 0.912604
O O20 0.297800 0.000000 0.239529
O O21 0.575529 0.000000 0.880142
#
# Coordination Sequence:
#
# PCOD9180496 Si02
#       8
#     8   8   8   8   8   8   8   8
#     4   9  18  33  52  73  98 128 160 195 237 284
#     4   8  14  25  43  68  94 119 151 192 235 276
#     4   9  16  27  44  66  92 122 157 195 235 277
#     4  11  21  32  48  71  99 128 160 197 237 282
#     4   9  16  27  44  67  94 122 156 197 237 277
#     4   9  18  32  50  72  97 126 159 197 241 286
#     4  10  19  32  50  71  97 127 159 195 238 286
#     4   9  16  26  43  68  95 123 156 194 236 281
#
# _framework density 22.234010000000001
#
# number of rings (size 3 to 8) (size 9 to 14) (size 15 to 20)
#    0.000    2.750    0.000    3.375    0.000    7.000 
#    0.000    0.000    0.000    1.500    0.000    7.000 
#    0.000    0.000    0.000    0.000    0.000    0.000 
#
# Total GULP energy -178689.389139 kJ/mol
# GULP energy per Si atom -5584.043411 kJ/mol
# Density = 2.218340 g / cm^3
# Si number density = 22.234010 Si / 1000 Ang^3
#
#
#
# Elastic Constant Matrix: (Units=GPa)
#
#
# Indices 1 2 3 4 5 6 
#
# 1 151.5969 90.9607 36.3251 0.0000 -55.0794 0.0000
# 2 90.9607 200.8039 46.2335 0.0000 -50.8721 0.0000
# 3 36.3251 46.2335 53.0123 0.0000 -13.9880 0.0000
# 4 0.0000 0.0000 0.0000 12.1030 0.0000 -9.4590
# 5 -55.0794 -50.8721 -13.9880 0.0000 48.8464 0.0000
# 6 0.0000 0.0000 0.0000 -9.4590 0.0000 38.3672
#
#
#
# Elastic Compliance Matrix: (Units=1/GPa)
#
#
# Indices 1 2 3 4 5 6 
#
# 1 0.012882 -0.002055 -0.004075 0.000000 0.011219 0.000000
# 2 -0.002055 0.008179 -0.004423 0.000000 0.004935 0.000000
# 3 -0.004075 -0.004423 0.024972 0.000000 -0.002050 0.000000
# 4 0.000000 0.000000 0.000000 0.102344 0.000000 0.025232
# 5 0.011219 0.004935 -0.002050 0.000000 0.037675 0.000000
# 6 0.000000 0.000000 0.000000 0.025232 0.000000 0.032285
#
#
# Mechanical properties :
#
#
# Convention : Reuss Voigt Hill
#
# Bulk Modulus (GPa) = 40.11565 83.60575 61.86070
# Shear Modulus (GPa) = 20.18148 35.32289 27.75218
#
# Velocity S-wave (km/s) = 3.01605 3.99016 3.53680
# Velocity P-wave (km/s) = 5.49640 7.67546 6.67545
#
# Compressibility (1/GPa) = 0.02492793
#
# Stress axis : x y z
#
# Youngs Moduli (GPa) = 77.62886 122.25722 40.04441
#
# Poissons Ratio (x) = 0.25123 0.16316
# Poissons Ratio (y) = 0.15952 0.17713
# Poissons Ratio (z) = 0.31630 0.54078
#
# Static dielectric constant tensor:
#      x y z
#    x 1.831410 0.000000 0.044140 
#    y 0.000000 1.778970 0.000000 
#    z 0.044140 0.000000 1.892670 
# 
# From -- ./inp_files/324263.got.cif
#   From: 2010.05.17/outbox.cif.g08.bks.cpg/sg12_163_cif.got.tgz:324263.got - 2010.06.03 13:09:07.
