data_PCOD9180692
_publ_section_title
;
Structure prediction by ZEFSAII (Michael W. Deem and Ramdas Pophale) SiO2 
 PCOD9180692
Probable space group: C 2/M
;
_chemical_formula_sum "Si O2"
_cell_formula_units_Z 48
_cell_length_a 22.948135
_cell_length_b 8.987505
_cell_length_c 24.098274
_cell_angle_alpha 90.000000
_cell_angle_beta 35.326203
_cell_angle_gamma 90.000000
_cell_volume 2873.913586
_symmetry_space_group_name_H-M "C 2/M"
_symmetry_group_IT_number 12
_symmetry_cell_setting 'monoclinic'
loop_
_space_group_symop_operation_xyz
x,y,z
-x,y,-z
-x,-y,-z
x,-y,z
1/2+x,1/2+y,z
1/2-x,1/2+y,-z
1/2-x,1/2-y,-z
1/2+x,1/2-y,z
loop_
_atom_site_type_symbol
_atom_site_label
_atom_site_fract_x
_atom_site_fract_y
_atom_site_fract_z
Si Si1 0.919223 0.170725 0.012099
Si Si2 0.731515 0.321346 0.780013
Si Si3 0.051699 0.177649 0.400604
Si Si4 0.842502 0.176675 0.354109
Si Si5 0.368749 0.677405 0.462909
Si Si6 0.573127 0.176739 0.817808
O O1 0.968050 0.271085 0.926869
O O2 0.910777 0.000000 0.999236
O O3 0.816761 0.217904 0.122364
O O4 0.000000 0.171321 0.000000
O O5 0.724134 0.500000 0.780074
O O6 0.844710 0.265224 0.686358
O O7 0.661521 0.246446 0.787552
O O8 0.000000 0.208024 0.500000
O O9 0.970057 0.215489 0.416885
O O10 0.072153 0.000000 0.382057
O O11 0.727936 0.235899 0.438700
O O12 0.875265 0.207275 0.392107
O O13 0.909976 0.258934 0.256472
O O14 0.845311 0.000000 0.342596
O O15 0.350748 0.500000 0.484077
O O16 0.581227 0.000000 0.812013
#
# Coordination Sequence:
#
# PCOD9180692 Si02
#       6
#     8   8   8   8   8   8
#     4   8  16  31  48  69  98 127 157 197 245 292
#     4  10  20  33  50  73 101 131 161 197 243 293
#     4  10  20  33  50  73 102 132 160 195 239 288
#     4  10  19  32  51  72  98 131 165 203 242 285
#     4   9  19  34  50  72 101 132 164 198 242 290
#     4  11  20  30  49  75 100 127 163 204 244 288
#
# _framework density 16.701964
#
# number of rings (size 3 to 8) (size 9 to 14) (size 15 to 20)
#    0.000    2.333    0.000    4.500    0.000    6.667 
#    0.000    0.000    0.000    1.000    0.000    0.000 
#    0.000    0.000    0.000    0.000    0.000    0.000 
#
# Total GULP energy -133891.247248 kJ/mol
# GULP energy per Si atom -5578.801969 kJ/mol
# Density = 1.666395 g / cm^3
# Si number density = 16.701964 Si / 1000 Ang^3
#
#
#
# Elastic Constant Matrix: (Units=GPa)
#
#
# Indices 1 2 3 4 5 6 
#
# 1 49.1527 30.0910 37.0990 -0.0001 -3.9354 0.0001
# 2 30.0910 74.8756 68.3674 -0.0003 7.7110 0.0002
# 3 37.0990 68.3674 135.1020 -0.0001 4.1428 0.0001
# 4 -0.0001 -0.0003 -0.0001 27.5950 0.0001 -2.4384
# 5 -3.9354 7.7110 4.1428 0.0001 20.2627 -0.0001
# 6 0.0001 0.0002 0.0001 -2.4384 -0.0001 19.7694
#
#
#
# Elastic Compliance Matrix: (Units=1/GPa)
#
#
# Indices 1 2 3 4 5 6 
#
# 1 0.029851 -0.009817 -0.003544 0.000000 0.010258 0.000000
# 2 -0.009817 0.029060 -0.011685 0.000000 -0.010576 0.000000
# 3 -0.003544 -0.011685 0.014262 0.000000 0.000843 0.000000
# 4 0.000000 0.000000 0.000000 0.036638 0.000000 0.004519
# 5 0.010258 -0.010576 0.000843 0.000000 0.055197 0.000000
# 6 0.000000 0.000000 0.000000 0.004519 0.000000 0.051140
#
#
# Mechanical properties :
#
#
# Convention : Reuss Voigt Hill
#
# Bulk Modulus (GPa) = 43.32680 58.91611 51.12146
# Shear Modulus (GPa) = 18.25263 21.76363 20.00813
#
# Velocity S-wave (km/s) = 3.30940 3.61371 3.46490
# Velocity P-wave (km/s) = 6.37184 7.26384 6.83241
#
# Compressibility (1/GPa) = 0.02308040
#
# Stress axis : x y z
#
# Youngs Moduli (GPa) = 33.49999 34.41205 70.11484
#
# Poissons Ratio (x) = 0.33783 0.24846
# Poissons Ratio (y) = 0.32888 0.81931
# Poissons Ratio (z) = 0.11871 0.40211
#
# Static dielectric constant tensor:
#      x y z
#    x 1.543600 0.000000 0.010790 
#    y 0.000000 1.558280 0.000000 
#    z 0.010790 0.000000 1.570210 
# 
# From -- ./inp_files/172117.got.cif
#   From: 2010.05.17/outbox.cif.g08.bks.cpg/sg12_87_cif.got.tgz:172117.got - 2010.06.03 13:09:07.
