data_PCOD9180042
_publ_section_title
;
Structure prediction by ZEFSAII (Michael W. Deem and Ramdas Pophale) SiO2 
 PCOD9180042
Probable space group: C 2/M
;
_chemical_formula_sum "Si O2"
_cell_formula_units_Z 56
_cell_length_a 11.649331
_cell_length_b 14.247700
_cell_length_c 18.298846
_cell_angle_alpha 90.000000
_cell_angle_beta 131.028736
_cell_angle_gamma 90.000000
_cell_volume 2291.183499
_symmetry_space_group_name_H-M "C 2/M"
_symmetry_group_IT_number 12
_symmetry_cell_setting 'monoclinic'
loop_
_space_group_symop_operation_xyz
x,y,z
-x,y,-z
-x,-y,-z
x,-y,z
1/2+x,1/2+y,z
1/2-x,1/2+y,-z
1/2-x,1/2-y,-z
1/2+x,1/2-y,z
loop_
_atom_site_type_symbol
_atom_site_label
_atom_site_fract_x
_atom_site_fract_y
_atom_site_fract_z
Si Si1 0.690257 0.886843 0.242316
Si Si2 0.658180 0.386371 0.256301
Si Si3 0.010721 0.385507 0.588140
Si Si4 0.594904 0.855161 0.970087
Si Si5 0.989792 0.885789 0.656818
Si Si6 0.407391 0.642926 0.031038
Si Si7 0.717801 0.385407 0.557875
O O1 0.530574 0.852237 0.146309
O O2 0.742790 0.854838 0.344251
O O3 0.835856 0.861071 0.254001
O O4 0.677832 0.000000 0.238361
O O5 0.656647 0.500000 0.255043
O O6 0.829443 0.355670 0.310513
O O7 0.616353 0.356597 0.321004
O O8 0.531438 0.355637 0.146921
O O9 0.009968 0.500000 0.586928
O O10 0.000000 0.354957 0.500000
O O11 0.863847 0.358154 0.571408
O O12 0.635505 0.748973 0.010187
O O13 0.500000 0.896242 0.000000
O O14 0.750783 0.896640 0.001144
O O15 0.926306 0.855246 0.551175
O O16 0.984827 0.000000 0.652422
O O17 0.500000 0.602015 0.000000
O O18 0.706757 0.500000 0.557472
#
# Coordination Sequence:
#
# PCOD9180042 Si02
#       7
#     8   8   8   8   8   8   8
#     4  10  20  31  53  82 104 132 173 219 259 295
#     4  10  19  31  53  81 107 134 171 215 258 302
#     4   9  15  26  45  72 106 141 168 199 249 310
#     4  10  22  42  59  73 101 140 179 215 263 325
#     4   9  16  29  49  78 111 141 168 201 252 313
#     4  10  23  40  58  77 100 138 179 217 266 317
#     4   9  16  27  45  75 112 138 164 203 251 306
#
# _framework density 24.441517000000001
#
# number of rings (size 3 to 8) (size 9 to 14) (size 15 to 20)
#    0.000    2.429    1.429    1.286    2.000    2.857 
#    0.000    0.000    0.000    2.571    0.000    0.000 
#    0.000    0.000    0.000    0.000    0.000    0.000 
#
# Total GULP energy -156423.623509 kJ/mol
# GULP energy per Si atom -5586.557982 kJ/mol
# Density = 2.438589 g / cm^3
# Si number density = 24.441517 Si / 1000 Ang^3
#
#
#
# Elastic Constant Matrix: (Units=GPa)
#
#
# Indices 1 2 3 4 5 6 
#
# 1 154.5473 7.7104 60.1764 0.0000 21.0276 0.0000
# 2 7.7104 95.3361 -9.2025 0.0000 -2.5452 0.0000
# 3 60.1764 -9.2025 149.1021 0.0000 25.1710 0.0000
# 4 0.0000 0.0000 0.0000 21.4317 0.0000 1.1925
# 5 21.0276 -2.5452 25.1710 0.0000 50.3350 0.0000
# 6 0.0000 0.0000 0.0000 1.1925 0.0000 -2.3721
#
#
#
# Elastic Compliance Matrix: (Units=1/GPa)
#
#
# Indices 1 2 3 4 5 6 
#
# 1 0.007920 -0.000975 -0.002938 0.000000 -0.001889 0.000000
# 2 -0.000975 0.010674 0.000975 0.000000 0.000460 0.000000
# 3 -0.002938 0.000975 0.008451 0.000000 -0.002949 0.000000
# 4 0.000000 0.000000 0.000000 0.045390 0.000000 0.022819
# 5 -0.001889 0.000460 -0.002949 0.000000 0.022154 0.000000
# 6 0.000000 0.000000 0.000000 0.022819 0.000000 -0.410088
#
#
# Mechanical properties :
#
#
# Convention : Reuss Voigt Hill
#
# Bulk Modulus (GPa) = 47.23791 57.37268 52.30529
# Shear Modulus (GPa) = -16.52525 36.56565 10.02020
#
# Velocity S-wave (km/s) = -2.60304 3.87207 2.02696
# Velocity P-wave (km/s) = 3.21472 6.59659 5.18890
#
# Compressibility (1/GPa) = 0.02116944
#
# Stress axis : x y z
#
# Youngs Moduli (GPa) = 126.26281 93.68238 118.33612
#
# Poissons Ratio (x) = 0.09130 0.34764
# Poissons Ratio (y) = 0.12305 -0.11532
# Poissons Ratio (z) = 0.37093 -0.09130
#
# Static dielectric constant tensor:
#      x y z
#    x 1.936920 0.000000 -0.015130 
#    y 0.000000 1.990170 0.000000 
#    z -0.015130 0.000000 1.859840 
# 
# From -- ./inp_files/264849.got.cif
#   From: 2010.05.17/outbox.cif.g08.bks.cpg/sg12_133_cif.got.tgz:264849.got - 2010.06.03 13:09:07.
