data_PCOD9180776
_publ_section_title
;
Structure prediction by ZEFSAII (Michael W. Deem and Ramdas Pophale) SiO2 
 PCOD9180776
Probable space group: C 2/M
;
_chemical_formula_sum "Si O2"
_cell_formula_units_Z 64
_cell_length_a 31.432162
_cell_length_b 11.643540
_cell_length_c 14.658372
_cell_angle_alpha 90.000000
_cell_angle_beta 140.592978
_cell_angle_gamma 90.000000
_cell_volume 3405.643616
_symmetry_space_group_name_H-M "C 2/M"
_symmetry_group_IT_number 12
_symmetry_cell_setting 'monoclinic'
loop_
_space_group_symop_operation_xyz
x,y,z
-x,y,-z
-x,-y,-z
x,-y,z
1/2+x,1/2+y,z
1/2-x,1/2+y,-z
1/2-x,1/2-y,-z
1/2+x,1/2-y,z
loop_
_atom_site_type_symbol
_atom_site_label
_atom_site_fract_x
_atom_site_fract_y
_atom_site_fract_z
Si Si1 0.581127 0.137679 0.037203
Si Si2 0.088970 0.330930 0.566691
Si Si3 0.819773 0.371372 0.450697
Si Si4 0.433330 0.860586 0.773986
Si Si5 0.823316 0.869541 0.243816
Si Si6 0.365439 0.629033 0.109514
Si Si7 0.708654 0.257460 0.163746
Si Si8 0.435193 0.128704 0.265262
O O1 0.580000 0.168850 0.142718
O O2 0.645393 0.187748 0.094902
O O3 0.582819 0.000000 0.036184
O O4 0.509321 0.176084 0.876932
O O5 0.142698 0.378147 0.584748
O O6 0.110743 0.198386 0.613393
O O7 0.091626 0.375343 0.674690
O O8 0.015349 0.356621 0.406939
O O9 0.802624 0.500000 0.452887
O O10 0.874639 0.319547 0.610492
O O11 0.753851 0.298747 0.322795
O O12 0.433438 0.000000 0.767162
O O13 0.823714 0.864190 0.134709
O O14 0.757472 0.814116 0.178295
O O15 0.827165 0.000000 0.279250
O O16 0.397819 0.500000 0.164468
O O17 0.407361 0.749936 0.179814
O O18 0.319003 0.639162 0.943951
O O19 0.421083 0.000000 0.200935
#
# Coordination Sequence:
#
# PCOD9180776 Si02
#       8
#     8   8   8   8   8   8   8   8
#     4   9  18  34  55  82 110 133 169 227 285 332
#     4   9  18  31  50  77 108 142 177 230 285 327
#     4  10  19  32  51  74 105 142 177 218 276 336
#     4   8  17  34  55  78 107 138 167 218 289 340
#     4   9  19  35  51  72 107 151 192 227 274 330
#     4  10  22  37  50  72 111 154 190 227 278 332
#     4  11  21  32  52  80 105 142 188 234 269 320
#     4  10  19  32  52  79 108 141 190 241 278 317
#
# _framework density 18.792335999999999
#
# number of rings (size 3 to 8) (size 9 to 14) (size 15 to 20)
#    0.000    2.500    0.000    3.375    1.750    2.000 
#    0.000    5.625    0.000    0.000    0.000    7.875 
#    0.000    0.000    0.000    0.000    0.000    0.000 
#
# Total GULP energy -178247.087023 kJ/mol
# GULP energy per Si atom -5570.221469 kJ/mol
# Density = 1.874956 g / cm^3
# Si number density = 18.792336 Si / 1000 Ang^3
#
#
#
# Elastic Constant Matrix: (Units=GPa)
#
#
# Indices 1 2 3 4 5 6 
#
# 1 54.5819 23.4692 26.0369 0.0000 11.2551 0.0000
# 2 23.4692 113.0388 42.6600 0.0000 11.0944 0.0000
# 3 26.0369 42.6600 109.9728 0.0000 -1.3334 0.0000
# 4 0.0000 0.0000 0.0000 20.0125 0.0000 5.9294
# 5 11.2551 11.0944 -1.3334 0.0000 17.0586 0.0000
# 6 0.0000 0.0000 0.0000 5.9294 0.0000 14.5466
#
#
#
# Elastic Compliance Matrix: (Units=1/GPa)
#
#
# Indices 1 2 3 4 5 6 
#
# 1 0.024862 -0.001540 -0.005481 0.000000 -0.015831 0.000000
# 2 -0.001540 0.011385 -0.004133 0.000000 -0.006712 0.000000
# 3 -0.005481 -0.004133 0.012082 0.000000 0.007249 0.000000
# 4 0.000000 0.000000 0.000000 0.056832 0.000000 -0.023166
# 5 -0.015831 -0.006712 0.007249 0.000000 0.073998 0.000000
# 6 0.000000 0.000000 0.000000 -0.023166 0.000000 0.078187
#
#
# Mechanical properties :
#
#
# Convention : Reuss Voigt Hill
#
# Bulk Modulus (GPa) = 38.43006 51.32506 44.87756
# Shear Modulus (GPa) = 17.34137 22.68538 20.01337
#
# Velocity S-wave (km/s) = 3.04104 3.47819 3.26694
# Velocity P-wave (km/s) = 5.72930 6.59556 6.17763
#
# Compressibility (1/GPa) = 0.02602130
#
# Stress axis : x y z
#
# Youngs Moduli (GPa) = 40.22186 87.83707 82.76760
#
# Poissons Ratio (x) = 0.13524 0.45365
# Poissons Ratio (y) = 0.06193 0.34209
# Poissons Ratio (z) = 0.22046 0.36304
#
# Static dielectric constant tensor:
#      x y z
#    x 1.645280 0.000000 -0.021200 
#    y 0.000000 1.678300 0.000000 
#    z -0.021200 0.000000 1.690090 
# 
# From -- ./inp_files/250881.got.cif
#   From: 2010.05.17/outbox.cif.g08.bks.cpg/sg12_126_cif.got.tgz:250881.got - 2010.06.03 13:09:07.
