data_PCOD9180142
_publ_section_title
;
Structure prediction by ZEFSAII (Michael W. Deem and Ramdas Pophale) SiO2 
 PCOD9180142
Probable space group: C 2/M
;
_chemical_formula_sum "Si O2"
_cell_formula_units_Z 40
_cell_length_a 16.455865
_cell_length_b 7.723164
_cell_length_c 17.346346
_cell_angle_alpha 90.000000
_cell_angle_beta 127.875565
_cell_angle_gamma 90.000000
_cell_volume 1740.168824
_symmetry_space_group_name_H-M "C 2/M"
_symmetry_group_IT_number 12
_symmetry_cell_setting 'monoclinic'
loop_
_space_group_symop_operation_xyz
x,y,z
-x,y,-z
-x,-y,-z
x,-y,z
1/2+x,1/2+y,z
1/2-x,1/2+y,-z
1/2-x,1/2-y,-z
1/2+x,1/2-y,z
loop_
_atom_site_type_symbol
_atom_site_label
_atom_site_fract_x
_atom_site_fract_y
_atom_site_fract_z
Si Si1 0.606641 0.000000 0.958273
Si Si2 0.843795 0.298018 0.464121
Si Si3 0.363592 0.000000 0.845993
Si Si4 0.325350 0.303498 0.286506
Si Si5 0.885110 0.199862 0.648140
Si Si6 0.101735 0.789200 0.837193
O O1 0.637142 0.171298 0.928571
O O2 0.482832 0.000000 0.897369
O O3 0.651127 0.000000 0.070034
O O4 0.844457 0.500000 0.483974
O O5 0.869064 0.281549 0.388839
O O6 0.908481 0.212692 0.570232
O O7 0.727785 0.220518 0.405486
O O8 0.298200 0.834753 0.778249
O O9 0.367129 0.500000 0.309675
O O10 0.346747 0.234156 0.213984
O O11 0.982043 0.261106 0.752562
O O12 0.872840 0.000000 0.662203
O O13 0.110633 0.000000 0.853050
#
# Coordination Sequence:
#
# PCOD9180142 Si02
#       6
#     4   8   4   8   8   8
#     4  11  22  40  70  87 115 157 201 252 297 356
#     4  10  19  31  54  83 114 153 201 238 287 351
#     4   9  22  42  62  91 113 155 203 242 309 354
#     4   9  20  38  55  78 121 152 185 242 298 346
#     4   9  19  34  52  80 114 158 196 239 292 346
#     4  10  22  39  59  89 121 155 197 243 302 355
#
# _framework density 22.986274999999999
#
# number of rings (size 3 to 8) (size 9 to 14) (size 15 to 20)
#    0.600    1.800    0.000    1.800    2.800    2.400 
#    0.000    7.000    0.000    0.000    0.000    0.000 
#    0.000    0.000    0.000    0.000    0.000    0.000 
#
# Total GULP energy -111539.564545 kJ/mol
# GULP energy per Si atom -5576.978227 kJ/mol
# Density = 2.293396 g / cm^3
# Si number density = 22.986275 Si / 1000 Ang^3
#
#
#
# Elastic Constant Matrix: (Units=GPa)
#
#
# Indices 1 2 3 4 5 6 
#
# 1 60.7995 4.6908 3.9964 0.0000 -9.0493 0.0000
# 2 4.6908 55.6360 24.0378 0.0000 -4.4975 0.0000
# 3 3.9964 24.0378 110.3314 0.0000 -25.8451 0.0000
# 4 0.0000 0.0000 0.0000 31.8661 0.0000 -11.2489
# 5 -9.0493 -4.4975 -25.8451 0.0000 41.6680 0.0000
# 6 0.0000 0.0000 0.0000 -11.2489 0.0000 16.1787
#
#
#
# Elastic Compliance Matrix: (Units=1/GPa)
#
#
# Indices 1 2 3 4 5 6 
#
# 1 0.017101 -0.001385 0.000605 0.000000 0.003940 0.000000
# 2 -0.001385 0.019968 -0.004523 0.000000 -0.000951 0.000000
# 3 0.000605 -0.004523 0.011634 0.000000 0.006859 0.000000
# 4 0.000000 0.000000 0.000000 0.041589 0.000000 0.028917
# 5 0.003940 -0.000951 0.006859 0.000000 0.029007 0.000000
# 6 0.000000 0.000000 0.000000 0.028917 0.000000 0.081915
#
#
# Mechanical properties :
#
#
# Convention : Reuss Voigt Hill
#
# Bulk Modulus (GPa) = 26.24838 32.46856 29.35847
# Shear Modulus (GPa) = 22.26992 30.87870 26.57431
#
# Velocity S-wave (km/s) = 3.11599 3.66916 3.40383
# Velocity P-wave (km/s) = 4.93860 5.66623 5.31488
#
# Compressibility (1/GPa) = 0.03809759
#
# Stress axis : x y z
#
# Youngs Moduli (GPa) = 58.47630 50.08000 85.95579
#
# Poissons Ratio (x) = 0.06935 -0.05202
# Poissons Ratio (y) = 0.08098 0.38878
# Poissons Ratio (z) = -0.03539 0.22651
#
# Static dielectric constant tensor:
#      x y z
#    x 1.970730 0.000000 0.005670 
#    y 0.000000 1.821660 0.000000 
#    z 0.005670 0.000000 1.844160 
# 
# From -- ./inp_files/221250.got.cif
#   From: 2010.05.17/outbox.cif.g08.bks.cpg/sg12_111_cif.got.tgz:221250.got - 2010.06.03 13:09:07.
