data_PCOD9180413
_publ_section_title
;
Structure prediction by ZEFSAII (Michael W. Deem and Ramdas Pophale) SiO2 
 PCOD9180413
Probable space group: C 2/M
;
_chemical_formula_sum "Si O2"
_cell_formula_units_Z 48
_cell_length_a 26.872739
_cell_length_b 25.945894
_cell_length_c 11.335276
_cell_angle_alpha 90.000000
_cell_angle_beta 22.339941
_cell_angle_gamma 90.000000
_cell_volume 3004.081580
_symmetry_space_group_name_H-M "C 2/M"
_symmetry_group_IT_number 12
_symmetry_cell_setting 'monoclinic'
loop_
_space_group_symop_operation_xyz
x,y,z
-x,y,-z
-x,-y,-z
x,-y,z
1/2+x,1/2+y,z
1/2-x,1/2+y,-z
1/2-x,1/2-y,-z
1/2+x,1/2-y,z
loop_
_atom_site_type_symbol
_atom_site_label
_atom_site_fract_x
_atom_site_fract_y
_atom_site_fract_z
Si Si1 0.311515 0.676359 0.138105
Si Si2 0.653752 0.701527 0.192117
Si Si3 0.898455 0.850475 0.447069
Si Si4 0.143934 0.060389 0.626814
Si Si5 0.642542 0.873993 0.709018
Si Si6 0.279002 0.781842 0.318480
O O1 0.198485 0.653652 0.468681
O O2 0.328846 0.738069 0.120903
O O3 0.296042 0.670442 0.032487
O O4 0.445595 0.650927 0.887307
O O5 0.500000 0.715015 0.500000
O O6 0.652641 0.667873 0.313778
O O7 0.750000 0.750000 0.000000
O O8 0.852977 0.905589 0.498846
O O9 0.846681 0.808940 0.464616
O O10 0.252264 0.085155 0.475129
O O11 0.165434 0.000000 0.560678
O O12 0.000000 0.067394 0.000000
O O13 0.632101 0.828979 0.831978
O O14 0.500000 0.896332 0.000000
O O15 0.250000 0.750000 0.500000
#
# Coordination Sequence:
#
# PCOD9180413 Si02
#       6
#     8   8   8   8   8   8
#     4  10  19  32  49  72 113 144 174 210 255 320
#     4  10  20  33  51  75 109 150 178 208 253 310
#     4  10  19  34  51  76 105 137 185 216 253 316
#     4  10  20  38  60  76  99 139 181 229 279 315
#     4  10  21  32  50  81 106 134 175 219 273 317
#     4   9  19  26  45  70 106 141 167 200 257 310
#
# _framework density 15.978261
#
# number of rings (size 3 to 8) (size 9 to 14) (size 15 to 20)
#    0.000    2.167    3.333    0.000    4.667    0.333 
#    0.000    0.000    0.000    5.500    0.000    1.167 
#    0.000    0.000    0.000    0.000    0.000    0.000 
#
# Total GULP energy -133660.688982 kJ/mol
# GULP energy per Si atom -5569.195374 kJ/mol
# Density = 1.594189 g / cm^3
# Si number density = 15.978261 Si / 1000 Ang^3
#
#
#
# Elastic Constant Matrix: (Units=GPa)
#
#
# Indices 1 2 3 4 5 6 
#
# 1 110.3096 47.0348 46.3488 0.0015 -0.6406 -0.0001
# 2 47.0348 100.9218 37.1064 0.0013 -4.0667 -0.0002
# 3 46.3488 37.1064 78.5545 0.0031 -6.8588 -0.0017
# 4 0.0015 0.0013 0.0031 17.4433 -0.0015 1.9332
# 5 -0.6406 -4.0667 -6.8588 -0.0015 27.6678 0.0009
# 6 -0.0001 -0.0002 -0.0017 1.9332 0.0009 12.9204
#
#
#
# Elastic Compliance Matrix: (Units=1/GPa)
#
#
# Indices 1 2 3 4 5 6 
#
# 1 0.013353 -0.004043 -0.006126 0.000000 -0.001804 -0.000001
# 2 -0.004043 0.013219 -0.003779 0.000000 0.000913 0.000000
# 3 -0.006126 -0.003779 0.018468 -0.000002 0.003881 0.000002
# 4 0.000000 0.000000 -0.000002 0.058295 0.000003 -0.008723
# 5 -0.001804 0.000913 0.003881 0.000003 0.037198 -0.000003
# 6 -0.000001 0.000000 0.000002 -0.008723 -0.000003 0.078702
#
#
# Mechanical properties :
#
#
# Convention : Reuss Voigt Hill
#
# Bulk Modulus (GPa) = 58.33002 61.19620 59.76311
# Shear Modulus (GPa) = 19.77478 22.22601 21.00039
#
# Velocity S-wave (km/s) = 3.52178 3.73368 3.62927
# Velocity P-wave (km/s) = 7.28851 7.54784 7.41931
#
# Compressibility (1/GPa) = 0.01714383
#
# Stress axis : x y z
#
# Youngs Moduli (GPa) = 74.88952 75.64680 54.14655
#
# Poissons Ratio (x) = 0.30588 0.33170
# Poissons Ratio (y) = 0.30282 0.20462
# Poissons Ratio (z) = 0.45878 0.28586
#
# Static dielectric constant tensor:
#      x y z
#    x 1.566920 0.000000 0.002990 
#    y 0.000000 1.525240 0.000000 
#    z 0.002990 0.000000 1.542770 
# 
# From -- ./inp_files/122061.got.cif
#   From: 2010.05.17/outbox.cif.g08.bks.cpg/sg12_62_cif.got.tgz:122061.got - 2010.06.03 13:09:07.
