data_PCOD9180050
_publ_section_title
;
Structure prediction by ZEFSAII (Michael W. Deem and Ramdas Pophale) SiO2 
 PCOD9180050
Probable space group: C 2/M
;
_chemical_formula_sum "Si O2"
_cell_formula_units_Z 56
_cell_length_a 29.159053
_cell_length_b 8.887925
_cell_length_c 14.665969
_cell_angle_alpha 90.000000
_cell_angle_beta 59.618869
_cell_angle_gamma 90.000000
_cell_volume 3278.947220
_symmetry_space_group_name_H-M "C 2/M"
_symmetry_group_IT_number 12
_symmetry_cell_setting 'monoclinic'
loop_
_space_group_symop_operation_xyz
x,y,z
-x,y,-z
-x,-y,-z
x,-y,z
1/2+x,1/2+y,z
1/2-x,1/2+y,-z
1/2-x,1/2-y,-z
1/2+x,1/2-y,z
loop_
_atom_site_type_symbol
_atom_site_label
_atom_site_fract_x
_atom_site_fract_y
_atom_site_fract_z
Si Si1 0.781803 0.175904 0.720090
Si Si2 0.402031 0.676338 0.927519
Si Si3 0.492415 0.179670 0.114269
Si Si4 0.675083 0.668297 0.827199
Si Si5 0.700919 0.821250 0.491961
Si Si6 0.385974 0.673782 0.300513
Si Si7 0.803394 0.818132 0.901466
O O1 0.719261 0.207046 0.797671
O O2 0.796374 0.267794 0.615330
O O3 0.807447 0.221629 0.790615
O O4 0.791891 0.000000 0.693694
O O5 0.414517 0.500000 0.897729
O O6 0.455516 0.770505 0.882226
O O7 0.356746 0.726242 0.901764
O O8 0.372841 0.685527 0.054524
O O9 0.440954 0.255314 0.211148
O O10 0.486242 0.000000 0.121210
O O11 0.500000 0.226774 0.000000
O O12 0.698265 0.500000 0.819420
O O13 0.652723 0.675416 0.748364
O O14 0.750000 0.750000 0.500000
O O15 0.645802 0.764825 0.591107
O O16 0.705688 0.000000 0.493181
O O17 0.393599 0.500000 0.320190
O O18 0.798945 0.000000 0.912592
O O19 0.750000 0.750000 0.000000
#
# Coordination Sequence:
#
# PCOD9180050 Si02
#       7
#     8   8   8   8   8   8   8
#     4  11  22  35  54  82 116 151 188 230 280 334
#     4  10  20  36  55  79 113 151 190 228 273 331
#     4  11  23  36  54  82 115 149 187 230 278 331
#     4  10  19  31  53  81 113 149 187 225 270 332
#     4  12  24  38  57  82 113 149 188 231 281 334
#     4  11  22  37  57  82 113 149 187 229 279 333
#     4  10  21  35  55  83 114 150 189 232 280 333
#
# _framework density 17.078652999999999
#
# number of rings (size 3 to 8) (size 9 to 14) (size 15 to 20)
#    0.000    1.286    4.286    2.571    0.000    2.857 
#    0.000    0.000    0.000    0.857    0.000    6.000 
#    0.000    0.000    0.000    0.000    0.000    0.000 
#
# Total GULP energy -156330.036647 kJ/mol
# GULP energy per Si atom -5583.215595 kJ/mol
# Density = 1.703978 g / cm^3
# Si number density = 17.078653 Si / 1000 Ang^3
#
#
#
# Elastic Constant Matrix: (Units=GPa)
#
#
# Indices 1 2 3 4 5 6 
#
# 1 84.6903 32.6007 35.9536 0.0000 -0.4224 0.0000
# 2 32.6007 81.9374 48.4554 0.0000 -1.4098 0.0000
# 3 35.9536 48.4554 96.6224 0.0000 -0.1824 0.0000
# 4 0.0000 0.0000 0.0000 30.5452 0.0000 -5.8267
# 5 -0.4224 -1.4098 -0.1824 0.0000 26.9801 0.0000
# 6 0.0000 0.0000 0.0000 -5.8267 0.0000 25.2585
#
#
#
# Elastic Compliance Matrix: (Units=1/GPa)
#
#
# Indices 1 2 3 4 5 6 
#
# 1 0.014787 -0.003738 -0.003628 0.000000 0.000012 0.000000
# 2 -0.003738 0.018314 -0.007792 0.000000 0.000846 0.000000
# 3 -0.003628 -0.007792 0.015606 0.000000 -0.000358 0.000000
# 4 0.000000 0.000000 0.000000 0.034245 0.000000 0.007900
# 5 0.000012 0.000846 -0.000358 0.000000 0.037106 0.000000
# 6 0.000000 0.000000 0.000000 0.007900 0.000000 0.041413
#
#
# Mechanical properties :
#
#
# Convention : Reuss Voigt Hill
#
# Bulk Modulus (GPa) = 54.37040 55.25217 54.81128
# Shear Modulus (GPa) = 25.26308 26.30611 25.78460
#
# Velocity S-wave (km/s) = 3.85024 3.92891 3.88977
# Velocity P-wave (km/s) = 7.18820 7.28036 7.23442
#
# Compressibility (1/GPa) = 0.01839236
#
# Stress axis : x y z
#
# Youngs Moduli (GPa) = 67.62854 54.60299 64.07633
#
# Poissons Ratio (x) = 0.20409 0.23245
# Poissons Ratio (y) = 0.25277 0.49928
# Poissons Ratio (z) = 0.24534 0.42546
#
# Static dielectric constant tensor:
#      x y z
#    x 1.569550 0.000000 0.013200 
#    y 0.000000 1.592110 0.000000 
#    z 0.013200 0.000000 1.571490 
# 
# From -- ./inp_files/243657.got.cif
#   From: 2010.05.17/outbox.cif.g08.bks.cpg/sg12_122_cif.got.tgz:243657.got - 2010.06.03 13:09:07.
