data_PCOD9180303
_publ_section_title
;
Structure prediction by ZEFSAII (Michael W. Deem and Ramdas Pophale) SiO2 
 PCOD9180303
Probable space group: C 2/M
;
_chemical_formula_sum "Si O2"
_cell_formula_units_Z 64
_cell_length_a 26.251507
_cell_length_b 13.212159
_cell_length_c 15.530619
_cell_angle_alpha 90.000000
_cell_angle_beta 134.938862
_cell_angle_gamma 90.000000
_cell_volume 3812.981717
_symmetry_space_group_name_H-M "C 2/M"
_symmetry_group_IT_number 12
_symmetry_cell_setting 'monoclinic'
loop_
_space_group_symop_operation_xyz
x,y,z
-x,y,-z
-x,-y,-z
x,-y,z
1/2+x,1/2+y,z
1/2-x,1/2+y,-z
1/2-x,1/2-y,-z
1/2+x,1/2-y,z
loop_
_atom_site_type_symbol
_atom_site_label
_atom_site_fract_x
_atom_site_fract_y
_atom_site_fract_z
Si Si1 0.425729 0.622535 0.870667
Si Si2 0.786527 0.249220 0.949839
Si Si3 0.505370 0.116099 0.403247
Si Si4 0.075464 0.878881 0.330282
Si Si5 0.645850 0.245412 0.551997
Si Si6 0.923667 0.209874 0.212571
Si Si7 0.774844 0.120438 0.774994
Si Si8 0.832310 0.882084 0.257400
O O1 0.429546 0.500000 0.875940
O O2 0.418241 0.651354 0.762079
O O3 0.355419 0.648304 0.841757
O O4 0.500000 0.661243 0.000000
O O5 0.764923 0.156240 0.861925
O O6 0.749592 0.345111 0.859113
O O7 0.750000 0.250000 0.000000
O O8 0.870720 0.239177 0.071142
O O9 0.500000 0.120441 0.500000
O O10 0.582337 0.163412 0.472255
O O11 0.446854 0.188305 0.289712
O O12 0.498225 0.000000 0.367571
O O13 0.133655 0.819688 0.457236
O O14 0.995935 0.846442 0.268369
O O15 0.083323 0.000000 0.347506
O O16 0.719396 0.183800 0.650863
O O17 0.638568 0.314525 0.629037
O O18 0.879613 0.142652 0.229051
O O19 0.764289 0.000000 0.754103
O O20 0.835777 0.000000 0.281482
#
# Coordination Sequence:
#
# PCOD9180303 Si02
#       8
#     8   8   8   8   8   8   8   8
#     4   9  18  33  53  79 103 130 170 212 262 312
#     4   9  20  33  47  74 101 127 168 208 248 308
#     4  10  19  32  49  68  98 136 172 213 254 294
#     4  10  20  32  52  77 105 136 170 219 262 301
#     4  10  20  34  48  75 103 135 180 210 252 313
#     4  10  19  33  49  74 101 133 177 210 255 313
#     4  10  20  35  56  75 104 140 169 211 262 309
#     4  10  19  32  48  68 101 138 168 208 256 311
#
# _framework density 16.784765
#
# number of rings (size 3 to 8) (size 9 to 14) (size 15 to 20)
#    0.000    2.250    1.250    1.875    0.000    4.500 
#    0.000    1.875    0.000    0.000    0.000    7.875 
#    0.000   33.000    0.000    0.000    0.000    0.000 
#
# Total GULP energy -178320.191324 kJ/mol
# GULP energy per Si atom -5572.505979 kJ/mol
# Density = 1.674656 g / cm^3
# Si number density = 16.784765 Si / 1000 Ang^3
#
#
#
# Elastic Constant Matrix: (Units=GPa)
#
#
# Indices 1 2 3 4 5 6 
#
# 1 59.3422 23.5938 26.1689 0.0000 -5.5630 0.0000
# 2 23.5938 96.8640 34.5165 0.0000 3.3588 0.0000
# 3 26.1689 34.5165 106.2186 0.0000 1.6279 0.0000
# 4 0.0000 0.0000 0.0000 22.4538 0.0000 0.2966
# 5 -5.5630 3.3588 1.6279 0.0000 26.5960 0.0000
# 6 0.0000 0.0000 0.0000 0.2966 0.0000 13.7681
#
#
#
# Elastic Compliance Matrix: (Units=1/GPa)
#
#
# Indices 1 2 3 4 5 6 
#
# 1 0.020551 -0.003787 -0.003910 0.000000 0.005016 0.000000
# 2 -0.003787 0.012415 -0.003068 0.000000 -0.002172 0.000000
# 3 -0.003910 -0.003068 0.011392 0.000000 -0.001128 0.000000
# 4 0.000000 0.000000 0.000000 0.044549 0.000000 -0.000960
# 5 0.005016 -0.002172 -0.001128 0.000000 0.038992 0.000000
# 6 0.000000 0.000000 0.000000 -0.000960 0.000000 0.072652
#
#
# Mechanical properties :
#
#
# Convention : Reuss Voigt Hill
#
# Bulk Modulus (GPa) = 43.80303 47.88702 45.84503
# Shear Modulus (GPa) = 21.76856 24.43997 23.10427
#
# Velocity S-wave (km/s) = 3.60519 3.82000 3.71415
# Velocity P-wave (km/s) = 6.59420 6.93171 6.76506
#
# Compressibility (1/GPa) = 0.02282947
#
# Stress axis : x y z
#
# Youngs Moduli (GPa) = 48.65895 80.54993 87.78087
#
# Poissons Ratio (x) = 0.30501 0.34318
# Poissons Ratio (y) = 0.18425 0.26932
# Poissons Ratio (z) = 0.19023 0.24713
#
# Static dielectric constant tensor:
#      x y z
#    x 1.566650 0.000000 0.008350 
#    y 0.000000 1.544290 0.000000 
#    z 0.008350 0.000000 1.585000 
# 
# From -- ./inp_files/245955.got.cif
#   From: 2010.05.17/outbox.cif.g08.bks.cpg/sg12_123_cif.got.tgz:245955.got - 2010.06.03 13:09:07.
