data_PCOD9180200
_publ_section_title
;
Structure prediction by ZEFSAII (Michael W. Deem and Ramdas Pophale) SiO2 
 PCOD9180200
Probable space group: C 2/M
;
_chemical_formula_sum "Si O2"
_cell_formula_units_Z 60
_cell_length_a 26.915697
_cell_length_b 7.870213
_cell_length_c 17.200428
_cell_angle_alpha 90.000000
_cell_angle_beta 39.755434
_cell_angle_gamma 90.000000
_cell_volume 2330.129254
_symmetry_space_group_name_H-M "C 2/M"
_symmetry_group_IT_number 12
_symmetry_cell_setting 'monoclinic'
loop_
_space_group_symop_operation_xyz
x,y,z
-x,y,-z
-x,-y,-z
x,-y,z
1/2+x,1/2+y,z
1/2-x,1/2+y,-z
1/2-x,1/2-y,-z
1/2+x,1/2-y,z
loop_
_atom_site_type_symbol
_atom_site_label
_atom_site_fract_x
_atom_site_fract_y
_atom_site_fract_z
Si Si1 0.160618 0.303000 0.555737
Si Si2 0.346132 0.000000 0.625362
Si Si3 0.767205 0.301741 0.300128
Si Si4 0.400183 0.308205 0.652432
Si Si5 0.767871 0.691328 0.066067
Si Si6 0.991133 0.200365 0.329200
Si Si7 0.927873 0.802189 0.928443
Si Si8 0.581825 0.798791 0.808061
O O1 0.183604 0.500000 0.536685
O O2 0.229772 0.199896 0.432824
O O3 0.119319 0.229780 0.682289
O O4 0.088790 0.302239 0.580937
O O5 0.281918 0.152333 0.679608
O O6 0.402735 0.150551 0.592971
O O7 0.761000 0.500000 0.278788
O O8 0.857626 0.247737 0.198101
O O9 0.410650 0.500000 0.606276
O O10 0.314190 0.302177 0.792926
O O11 0.458335 0.286690 0.654594
O O12 0.795710 0.500000 0.026328
O O13 0.750000 0.750000 0.000000
O O14 0.835561 0.777957 0.034742
O O15 0.042701 0.256050 0.192795
O O16 0.971768 0.000000 0.343370
O O17 0.989516 0.728263 0.916023
O O18 0.942284 0.000000 0.916350
O O19 0.592052 0.000000 0.791503
#
# Coordination Sequence:
#
# PCOD9180200 Si02
#       8
#     8   4   8   8   8   8   8   8
#     4  10  19  34  59  93 123 154 197 248 315 372
#     4  12  26  42  65  85 118 170 220 252 296 353
#     4  11  23  42  63  86 117 158 211 261 300 356
#     4  10  23  41  60  87 121 164 206 250 301 356
#     4  11  21  34  58  90 128 157 195 246 304 369
#     4   9  18  34  53  84 126 160 193 244 308 365
#     4  10  19  31  55  91 127 158 189 236 308 381
#     4   9  20  36  59  90 125 156 192 251 316 363
#
# _framework density 25.749645000000001
#
# number of rings (size 3 to 8) (size 9 to 14) (size 15 to 20)
#    0.000    1.867    2.000    2.000    3.733    1.067 
#    0.000    1.333    0.000    4.000    0.000    3.733 
#    0.000    0.000    0.000    0.000    0.000    0.000 
#
# Total GULP energy -167263.742317 kJ/mol
# GULP energy per Si atom -5575.458077 kJ/mol
# Density = 2.569104 g / cm^3
# Si number density = 25.749645 Si / 1000 Ang^3
#
#
#
# Elastic Constant Matrix: (Units=GPa)
#
#
# Indices 1 2 3 4 5 6 
#
# 1 130.5970 44.1638 24.4022 -0.0013 -48.8819 0.0027
# 2 44.1638 111.3262 13.9905 0.0033 -8.6531 -0.0042
# 3 24.4022 13.9905 103.8481 -0.0017 -30.6626 0.0029
# 4 -0.0013 0.0033 -0.0017 -7.6150 0.0011 4.0514
# 5 -48.8819 -8.6531 -30.6626 0.0011 47.7466 -0.0024
# 6 0.0027 -0.0042 0.0029 4.0514 -0.0024 25.0970
#
#
#
# Elastic Compliance Matrix: (Units=1/GPa)
#
#
# Indices 1 2 3 4 5 6 
#
# 1 0.014691 -0.004857 0.001707 -0.000003 0.015256 -0.000001
# 2 -0.004857 0.010787 -0.001484 0.000006 -0.003970 0.000001
# 3 0.001707 -0.001484 0.012173 -0.000003 0.009296 -0.000001
# 4 -0.000003 0.000006 -0.000003 -0.120934 0.000000 0.019522
# 5 0.015256 -0.003970 0.009296 0.000000 0.041813 0.000001
# 6 -0.000001 0.000001 -0.000001 0.019522 0.000001 0.036694
#
#
# Mechanical properties :
#
#
# Convention : Reuss Voigt Hill
#
# Bulk Modulus (GPa) = 35.23257 56.76492 45.99874
# Shear Modulus (GPa) = 358.33616 30.59339 194.46478
#
# Velocity S-wave (km/s) = 11.80947 3.45064 8.69973
# Velocity P-wave (km/s) = 14.13025 6.16187 10.90029
#
# Compressibility (1/GPa) = 0.02838283
#
# Stress axis : x y z
#
# Youngs Moduli (GPa) = 68.06926 92.70241 82.14837
#
# Poissons Ratio (x) = 0.45022 -0.14021
# Poissons Ratio (y) = 0.33059 0.12194
# Poissons Ratio (z) = -0.11618 0.13760
#
# Static dielectric constant tensor:
#      x y z
#    x 2.051500 0.000000 0.092470 
#    y 0.000000 1.933420 0.000010 
#    z 0.092470 0.000010 2.060090 
# 
# From -- ./inp_files/327262.got.cif
#   From: 2010.05.17/outbox.cif.g08.bks.cpg/sg12_164_cif.got.tgz:327262.got - 2010.06.03 13:09:07.
