data_PCOD9180391
_publ_section_title
;
Structure prediction by ZEFSAII (Michael W. Deem and Ramdas Pophale) SiO2 
 PCOD9180391
Probable space group: C 2/M
;
_chemical_formula_sum "Si O2"
_cell_formula_units_Z 64
_cell_length_a 32.624077
_cell_length_b 8.791810
_cell_length_c 16.251179
_cell_angle_alpha 90.000000
_cell_angle_beta 126.259965
_cell_angle_gamma 90.000000
_cell_volume 3758.551872
_symmetry_space_group_name_H-M "C 2/M"
_symmetry_group_IT_number 12
_symmetry_cell_setting 'monoclinic'
loop_
_space_group_symop_operation_xyz
x,y,z
-x,y,-z
-x,-y,-z
x,-y,z
1/2+x,1/2+y,z
1/2-x,1/2+y,-z
1/2-x,1/2-y,-z
1/2+x,1/2-y,z
loop_
_atom_site_type_symbol
_atom_site_label
_atom_site_fract_x
_atom_site_fract_y
_atom_site_fract_z
Si Si1 0.441402 0.680456 0.827819
Si Si2 0.319103 0.182578 0.411657
Si Si3 0.664972 0.319762 0.389698
Si Si4 0.712722 0.182098 0.285014
Si Si5 0.044462 0.181942 0.857900
Si Si6 0.026594 0.683891 0.659119
Si Si7 0.077099 0.315296 0.549185
Si Si8 0.391778 0.818894 0.927098
O O1 0.445249 0.500000 0.850444
O O2 0.392842 0.702522 0.710724
O O3 0.492576 0.730321 0.843321
O O4 0.428939 0.765223 0.897624
O O5 0.326832 0.237777 0.514379
O O6 0.266156 0.252604 0.318693
O O7 0.368183 0.234684 0.417926
O O8 0.316426 0.000000 0.406309
O O9 0.674396 0.500000 0.409264
O O10 0.700202 0.251770 0.359734
O O11 0.664953 0.223186 0.170356
O O12 0.714850 0.000000 0.294285
O O13 0.043343 0.247357 0.765037
O O14 0.044815 0.000000 0.855327
O O15 0.090517 0.241527 0.968089
O O16 0.027422 0.500000 0.665307
O O17 0.061666 0.730158 0.623254
O O18 0.969077 0.730991 0.565924
O O19 0.077030 0.500000 0.548522
O O20 0.394365 0.000000 0.938162
#
# Coordination Sequence:
#
# PCOD9180391 Si02
#       8
#     8   8   8   8   8   8   8   8
#     4   9  19  33  48  70 103 136 162 196 243 291
#     4  11  20  31  50  75 100 128 164 202 244 291
#     4  10  19  32  49  71 101 135 167 198 238 287
#     4  10  21  36  50  68  96 130 169 209 246 284
#     4  11  21  32  49  75 104 131 161 199 246 294
#     4   9  17  34  56  76 101 131 162 195 236 288
#     4   8  17  33  54  78 102 129 160 197 240 288
#     4  10  21  35  51  70  94 129 172 210 241 282
#
# _framework density 17.027833999999999
#
# number of rings (size 3 to 8) (size 9 to 14) (size 15 to 20)
#    0.000    2.250    0.000    4.125    0.000    4.500 
#    0.000    3.125    0.000    0.750    0.000    0.000 
#    0.000    0.000    0.000    0.000    0.000    0.000 
#
# Total GULP energy -178653.564723 kJ/mol
# GULP energy per Si atom -5582.923898 kJ/mol
# Density = 1.698908 g / cm^3
# Si number density = 17.027834 Si / 1000 Ang^3
#
#
#
# Elastic Constant Matrix: (Units=GPa)
#
#
# Indices 1 2 3 4 5 6 
#
# 1 128.4252 32.7778 72.8292 0.0000 10.2891 0.0000
# 2 32.7778 37.9407 38.7070 0.0000 1.6381 0.0000
# 3 72.8292 38.7070 124.1878 0.0000 -10.9992 0.0000
# 4 0.0000 0.0000 0.0000 0.3236 0.0000 -0.6499
# 5 10.2891 1.6381 -10.9992 0.0000 15.7090 0.0000
# 6 0.0000 0.0000 0.0000 -0.6499 0.0000 20.3251
#
#
#
# Elastic Compliance Matrix: (Units=1/GPa)
#
#
# Indices 1 2 3 4 5 6 
#
# 1 0.015169 -0.002717 -0.009493 0.000000 -0.016299 0.000000
# 2 -0.002717 0.041921 -0.012476 0.000000 -0.011328 0.000000
# 3 -0.009493 -0.012476 0.019375 0.000000 0.021085 0.000000
# 4 0.000000 0.000000 0.000000 3.302780 0.000000 0.105601
# 5 -0.016299 -0.011328 0.021085 0.000000 0.090278 0.000000
# 6 0.000000 0.000000 0.000000 0.105601 0.000000 0.052577
#
#
# Mechanical properties :
#
#
# Convention : Reuss Voigt Hill
#
# Bulk Modulus (GPa) = 36.90786 64.35353 50.63070
# Shear Modulus (GPa) = 1.39645 17.02082 9.20864
#
# Velocity S-wave (km/s) = 0.90658 3.16506 2.32803
# Velocity P-wave (km/s) = 4.77681 7.15765 6.08481
#
# Compressibility (1/GPa) = 0.02709450
#
# Stress axis : x y z
#
# Youngs Moduli (GPa) = 65.92376 23.85428 51.61254
#
# Poissons Ratio (x) = 0.06481 0.48993
# Poissons Ratio (y) = 0.17911 0.64392
# Poissons Ratio (z) = 0.62578 0.29761
#
# Static dielectric constant tensor:
#      x y z
#    x 1.571940 0.000000 0.023680 
#    y 0.000000 1.568640 0.000000 
#    z 0.023680 0.000000 1.567100 
# 
# From -- ./inp_files/243854.got.cif
#   From: 2010.05.17/outbox.cif.g08.bks.cpg/sg12_122_cif.got.tgz:243854.got - 2010.06.03 13:09:07.
