data_PCOD9180519
_publ_section_title
;
Structure prediction by ZEFSAII (Michael W. Deem and Ramdas Pophale) SiO2 
 PCOD9180519
Probable space group: C 2/M
;
_chemical_formula_sum "Si O2"
_cell_formula_units_Z 56
_cell_length_a 27.705085
_cell_length_b 7.516211
_cell_length_c 20.663243
_cell_angle_alpha 90.000000
_cell_angle_beta 144.496430
_cell_angle_gamma 90.000000
_cell_volume 2498.900157
_symmetry_space_group_name_H-M "C 2/M"
_symmetry_group_IT_number 12
_symmetry_cell_setting 'monoclinic'
loop_
_space_group_symop_operation_xyz
x,y,z
-x,y,-z
-x,-y,-z
x,-y,z
1/2+x,1/2+y,z
1/2-x,1/2+y,-z
1/2-x,1/2-y,-z
1/2+x,1/2-y,z
loop_
_atom_site_type_symbol
_atom_site_label
_atom_site_fract_x
_atom_site_fract_y
_atom_site_fract_z
Si Si1 0.475090 0.712997 0.402205
Si Si2 0.682965 0.286783 0.982450
Si Si3 0.242822 0.212693 0.309289
Si Si4 0.445907 0.717756 0.879495
Si Si5 0.787387 0.286832 0.215519
Si Si6 0.997857 0.782370 0.793901
Si Si7 0.895677 0.213417 0.563524
O O1 0.500000 0.783690 0.500000
O O2 0.485728 0.500000 0.415134
O O3 0.378283 0.748299 0.286602
O O4 0.536700 0.781828 0.414658
O O5 0.677729 0.500000 0.981455
O O6 0.718863 0.219666 0.090200
O O7 0.750000 0.250000 0.000000
O O8 0.588838 0.224350 0.868389
O O9 0.149416 0.277313 0.218325
O O10 0.278329 0.281393 0.279157
O O11 0.305417 0.247434 0.436400
O O12 0.237724 0.000000 0.297816
O O13 0.446298 0.500000 0.880231
O O14 0.483342 0.774032 0.851675
O O15 0.500000 0.774771 0.000000
O O16 0.778806 0.500000 0.209102
O O17 0.925070 0.723169 0.665895
O O18 0.997234 0.000000 0.793418
O O19 0.902151 0.000000 0.572139
#
# Coordination Sequence:
#
# PCOD9180519 Si02
#       7
#     8   8   8   8   8   8   8
#     4  10  19  32  50  72 101 140 180 208 241 301
#     4  10  20  35  54  77 104 135 172 213 257 306
#     4  10  20  33  52  79 105 130 167 214 258 300
#     4   9  17  32  55  79 101 129 169 213 255 302
#     4  10  20  32  50  77 106 133 166 215 268 304
#     4   9  18  33  53  74 101 137 173 209 251 302
#     4  10  20  34  51  74 104 138 173 208 250 303
#
# _framework density 22.409858
#
# number of rings (size 3 to 8) (size 9 to 14) (size 15 to 20)
#    0.000    2.286    1.429    1.714    0.000    6.571 
#    0.000    0.714    0.000    1.286    0.000    0.000 
#    0.000    0.000    0.000    0.000    0.000    0.000 
#
# Total GULP energy -156439.035052 kJ/mol
# GULP energy per Si atom -5587.108395 kJ/mol
# Density = 2.235885 g / cm^3
# Si number density = 22.409858 Si / 1000 Ang^3
#
#
#
# Elastic Constant Matrix: (Units=GPa)
#
#
# Indices 1 2 3 4 5 6 
#
# 1 125.5111 1.6689 85.6656 0.0000 -0.5497 0.0000
# 2 1.6689 55.2737 -1.4144 0.0000 -3.7873 0.0000
# 3 85.6656 -1.4144 202.5152 0.0000 -1.3531 0.0000
# 4 0.0000 0.0000 0.0000 7.2946 0.0000 -7.0816
# 5 -0.5497 -3.7873 -1.3531 0.0000 40.8132 0.0000
# 6 0.0000 0.0000 0.0000 -7.0816 0.0000 -8.1911
#
#
#
# Elastic Compliance Matrix: (Units=1/GPa)
#
#
# Indices 1 2 3 4 5 6 
#
# 1 0.011213 -0.000463 -0.004747 0.000000 -0.000049 0.000000
# 2 -0.000463 0.018231 0.000335 0.000000 0.001697 0.000000
# 3 -0.004747 0.000335 0.006950 0.000000 0.000198 0.000000
# 4 0.000000 0.000000 0.000000 0.074532 0.000000 -0.064437
# 5 -0.000049 0.001697 0.000198 0.000000 0.024665 0.000000
# 6 0.000000 0.000000 0.000000 -0.064437 0.000000 -0.066375
#
#
# Mechanical properties :
#
#
# Convention : Reuss Voigt Hill
#
# Bulk Modulus (GPa) = 37.53446 61.68226 49.60836
# Shear Modulus (GPa) = 56.91690 27.80868 42.36279
#
# Velocity S-wave (km/s) = 5.04513 3.52648 4.35255
# Velocity P-wave (km/s) = 7.12202 6.64573 6.88799
#
# Compressibility (1/GPa) = 0.02664219
#
# Stress axis : x y z
#
# Youngs Moduli (GPa) = 89.17999 54.85286 143.89468
#
# Poissons Ratio (x) = 0.02542 0.68305
# Poissons Ratio (y) = 0.04133 -0.04816
# Poissons Ratio (z) = 0.42333 -0.01836
#
# Static dielectric constant tensor:
#      x y z
#    x 1.801150 0.000000 -0.013930 
#    y 0.000000 1.891720 0.000000 
#    z -0.013930 0.000000 1.814880 
# 
# From -- ./inp_files/238992.got.cif
#   From: 2010.05.17/outbox.cif.g08.bks.cpg/sg12_120_cif.got.tgz:238992.got - 2010.06.03 13:09:07.
