data_PCOD9180289
_publ_section_title
;
Structure prediction by ZEFSAII (Michael W. Deem and Ramdas Pophale) SiO2 
 PCOD9180289
Probable space group: C 2/M
;
_chemical_formula_sum "Si O2"
_cell_formula_units_Z 64
_cell_length_a 36.867761
_cell_length_b 12.789365
_cell_length_c 22.266222
_cell_angle_alpha 90.000000
_cell_angle_beta 156.923848
_cell_angle_gamma 90.000000
_cell_volume 4115.073862
_symmetry_space_group_name_H-M "C 2/M"
_symmetry_group_IT_number 12
_symmetry_cell_setting 'monoclinic'
loop_
_space_group_symop_operation_xyz
x,y,z
-x,y,-z
-x,-y,-z
x,-y,z
1/2+x,1/2+y,z
1/2-x,1/2+y,-z
1/2-x,1/2-y,-z
1/2+x,1/2-y,z
loop_
_atom_site_type_symbol
_atom_site_label
_atom_site_fract_x
_atom_site_fract_y
_atom_site_fract_z
Si Si1 0.781343 0.622647 0.168920
Si Si2 0.887921 0.622245 0.210284
Si Si3 0.716508 0.127065 0.284048
Si Si4 0.552278 0.249423 0.520196
Si Si5 0.580790 0.120807 0.173832
Si Si6 0.937262 0.626973 0.049759
Si Si7 0.404693 0.741971 0.119175
Si Si8 0.578267 0.625164 0.440686
O O1 0.791611 0.500000 0.198905
O O2 0.809344 0.635237 0.141324
O O3 0.854551 0.691660 0.317409
O O4 0.678468 0.663490 0.022586
O O5 0.896295 0.500000 0.209156
O O6 0.872693 0.688144 0.127165
O O7 0.981943 0.664998 0.384118
O O8 0.668750 0.167342 0.272847
O O9 0.649503 0.153143 0.126024
O O10 0.821540 0.158539 0.432230
O O11 0.714894 0.000000 0.284944
O O12 0.500000 0.290995 0.500000
O O13 0.570847 0.335651 0.498070
O O14 0.603147 0.000000 0.221791
O O15 0.500000 0.119389 0.000000
O O16 0.530183 0.163102 0.155844
O O17 0.939696 0.500000 0.059206
O O18 0.926115 0.683399 0.095824
O O19 0.495395 0.679050 0.278094
O O20 0.571205 0.500000 0.426999
#
# Coordination Sequence:
#
# PCOD9180289 Si02
#       8
#     8   8   8   8   8   8   8   8
#     4  10  19  32  48  64  85 114 149 186 220 257
#     4   9  18  32  48  64  85 115 148 185 224 255
#     4   8  14  27  46  64  85 114 146 180 217 255
#     4   9  18  32  50  68  83 107 150 194 224 254
#     4   7  11  22  42  66  87 108 138 180 224 253
#     4   9  16  27  46  70  91 111 142 187 225 250
#     4  11  20  29  42  65  95 121 146 173 212 269
#     4  10  20  32  44  62  92 124 147 173 215 265
#
# _framework density 15.552576
#
# number of rings (size 3 to 8) (size 9 to 14) (size 15 to 20)
#    0.000    2.875    0.000    3.750    0.000    1.750 
#    0.000    1.250    0.000    0.750    0.000    0.000 
#    0.000   34.000    0.000    0.000    0.000    0.000 
#
# Total GULP energy -178153.897453 kJ/mol
# GULP energy per Si atom -5567.309295 kJ/mol
# Density = 1.551718 g / cm^3
# Si number density = 15.552576 Si / 1000 Ang^3
#
#
#
# Elastic Constant Matrix: (Units=GPa)
#
#
# Indices 1 2 3 4 5 6 
#
# 1 88.5882 31.8565 49.3082 0.0000 10.0588 0.0000
# 2 31.8565 46.0403 21.0257 0.0000 5.6912 0.0000
# 3 49.3082 21.0257 66.2967 0.0000 13.2997 0.0000
# 4 0.0000 0.0000 0.0000 12.5359 0.0000 -0.4123
# 5 10.0588 5.6912 13.2997 0.0000 22.9529 0.0000
# 6 0.0000 0.0000 0.0000 -0.4123 0.0000 17.1700
#
#
#
# Elastic Compliance Matrix: (Units=1/GPa)
#
#
# Indices 1 2 3 4 5 6 
#
# 1 0.022112 -0.009127 -0.013648 0.000000 0.000481 0.000000
# 2 -0.009127 0.029235 -0.002073 0.000000 -0.002048 0.000000
# 3 -0.013648 -0.002073 0.027823 0.000000 -0.009627 0.000000
# 4 0.000000 0.000000 0.000000 0.079834 0.000000 0.001917
# 5 0.000481 -0.002048 -0.009627 0.000000 0.049443 0.000000
# 6 0.000000 0.000000 0.000000 0.001917 0.000000 0.058287
#
#
# Mechanical properties :
#
#
# Convention : Reuss Voigt Hill
#
# Bulk Modulus (GPa) = 33.92693 45.03398 39.48046
# Shear Modulus (GPa) = 15.32557 17.11410 16.21983
#
# Velocity S-wave (km/s) = 3.14252 3.32083 3.23290
# Velocity P-wave (km/s) = 5.91853 6.61232 6.27502
#
# Compressibility (1/GPa) = 0.02947511
#
# Stress axis : x y z
#
# Youngs Moduli (GPa) = 45.22470 34.20577 35.94185
#
# Poissons Ratio (x) = 0.31218 0.49052
# Poissons Ratio (y) = 0.41275 0.07451
# Poissons Ratio (z) = 0.61721 0.07091
#
# Static dielectric constant tensor:
#      x y z
#    x 1.541170 0.000000 0.016630 
#    y 0.000000 1.487460 0.000000 
#    z 0.016630 0.000000 1.507790 
# 
# From -- ./inp_files/276592.got.cif
#   From: 2010.05.17/outbox.cif.g08.bks.cpg/sg12_139_cif.got.tgz:276592.got - 2010.06.03 13:09:07.
