data_PCOD9180219
_publ_section_title
;
Structure prediction by ZEFSAII (Michael W. Deem and Ramdas Pophale) SiO2 
 PCOD9180219
Probable space group: C 2/M
;
_chemical_formula_sum "Si O2"
_cell_formula_units_Z 50
_cell_length_a 18.760182
_cell_length_b 13.781414
_cell_length_c 14.654803
_cell_angle_alpha 90.000000
_cell_angle_beta 130.408697
_cell_angle_gamma 90.000000
_cell_volume 2885.004222
_symmetry_space_group_name_H-M "C 2/M"
_symmetry_group_IT_number 12
_symmetry_cell_setting 'monoclinic'
loop_
_space_group_symop_operation_xyz
x,y,z
-x,y,-z
-x,-y,-z
x,-y,z
1/2+x,1/2+y,z
1/2-x,1/2+y,-z
1/2-x,1/2-y,-z
1/2+x,1/2-y,z
loop_
_atom_site_type_symbol
_atom_site_label
_atom_site_fract_x
_atom_site_fract_y
_atom_site_fract_z
Si Si1 0.279541 0.612234 0.634463
Si Si2 0.028910 0.209732 0.256096
Si Si3 0.254461 0.719810 0.263149
Si Si4 0.415211 0.299643 0.987341
Si Si5 0.940564 0.112996 0.357815
Si Si6 0.500000 0.500000 0.000000
Si Si7 0.339017 0.112378 0.646620
O O1 0.272719 0.500000 0.654488
O O2 0.388356 0.644445 0.720869
O O3 0.227669 0.684242 0.660475
O O4 0.236517 0.624386 0.497658
O O5 0.076036 0.314961 0.304107
O O6 0.942381 0.211731 0.115028
O O7 0.999210 0.162333 0.325870
O O8 0.345421 0.671174 0.296693
O O9 0.206957 0.646388 0.296576
O O10 0.180364 0.753125 0.125627
O O11 0.426331 0.412852 0.970048
O O12 0.500000 0.250443 0.000000
O O13 0.000000 0.115652 0.500000
O O14 0.922338 0.000000 0.320280
O O15 0.366008 0.000000 0.672215
#
# Coordination Sequence:
#
# PCOD9180219 Si02
#       7
#     8   8   8   8   8   2   8
#     4  10  19  31  57  87 107 144 194 241 287 323
#     4  11  21  36  58  81 115 148 188 240 278 332
#     4  11  21  36  55  84 119 147 185 239 281 335
#     4  10  20  33  59  86 114 142 190 235 280 329
#     4  11  24  40  60  84 114 153 191 231 288 345
#     4   8  16  32  56  88 110 136 188 234 276 318
#     4  10  19  34  56  81 112 148 191 236 285 336
#
# _framework density 17.330997
#
# number of rings (size 3 to 8) (size 9 to 14) (size 15 to 20)
#    0.480    1.120    3.200    4.800    5.600    3.200 
#    0.000    3.200    0.000    2.880    0.000    0.000 
#    0.000    0.000    0.000    0.000    0.000    0.000 
#
# Total GULP energy -139223.343692 kJ/mol
# GULP energy per Si atom -5568.933748 kJ/mol
# Density = 1.729155 g / cm^3
# Si number density = 17.330997 Si / 1000 Ang^3
#
#
#
# Elastic Constant Matrix: (Units=GPa)
#
#
# Indices 1 2 3 4 5 6 
#
# 1 56.5127 35.4324 -2.7949 0.0000 3.2101 0.0000
# 2 35.4324 131.3832 28.4843 0.0000 10.0066 0.0000
# 3 -2.7949 28.4843 79.4307 0.0000 1.8598 0.0000
# 4 0.0000 0.0000 0.0000 -23.7332 0.0000 16.4913
# 5 3.2101 10.0066 1.8598 0.0000 27.8736 0.0000
# 6 0.0000 0.0000 0.0000 16.4913 0.0000 3.8187
#
#
#
# Elastic Compliance Matrix: (Units=1/GPa)
#
#
# Indices 1 2 3 4 5 6 
#
# 1 0.022002 -0.006587 0.003145 0.000000 -0.000379 0.000000
# 2 -0.006587 0.010444 -0.003913 0.000000 -0.002730 0.000000
# 3 0.003145 -0.003913 0.014101 0.000000 0.000102 0.000000
# 4 0.000000 0.000000 0.000000 -0.010532 0.000000 0.045482
# 5 -0.000379 -0.002730 0.000102 0.000000 0.036893 0.000000
# 6 0.000000 0.000000 0.000000 0.045482 0.000000 0.065454
#
#
# Mechanical properties :
#
#
# Convention : Reuss Voigt Hill
#
# Bulk Modulus (GPa) = 31.40939 43.28558 37.34748
# Shear Modulus (GPa) = 30.54661 15.33881 22.94271
#
# Velocity S-wave (km/s) = 4.20282 2.97821 3.64235
# Velocity P-wave (km/s) = 6.45865 6.07094 6.26779
#
# Compressibility (1/GPa) = 0.03183761
#
# Stress axis : x y z
#
# Youngs Moduli (GPa) = 45.45061 95.74948 70.91637
#
# Poissons Ratio (x) = 0.63066 -0.22303
# Poissons Ratio (y) = 0.29937 0.27750
# Poissons Ratio (z) = -0.14294 0.37468
#
# Static dielectric constant tensor:
#      x y z
#    x 1.563370 0.000000 -0.014340 
#    y 0.000000 1.583240 0.000000 
#    z -0.014340 0.000000 1.624960 
# 
# From -- ./inp_files/224938.got.cif
#   From: 2010.05.17/outbox.cif.g08.bks.cpg/sg12_113_cif.got.tgz:224938.got - 2010.06.03 13:09:07.
