data_PCOD9180633
_publ_section_title
;
Structure prediction by ZEFSAII (Michael W. Deem and Ramdas Pophale) SiO2 
 PCOD9180633
Probable space group: C 2/M
;
_chemical_formula_sum "Si O2"
_cell_formula_units_Z 64
_cell_length_a 10.989005
_cell_length_b 26.992447
_cell_length_c 18.659565
_cell_angle_alpha 90.000000
_cell_angle_beta 136.695886
_cell_angle_gamma 90.000000
_cell_volume 3796.158482
_symmetry_space_group_name_H-M "C 2/M"
_symmetry_group_IT_number 12
_symmetry_cell_setting 'monoclinic'
loop_
_space_group_symop_operation_xyz
x,y,z
-x,y,-z
-x,-y,-z
x,-y,z
1/2+x,1/2+y,z
1/2-x,1/2+y,-z
1/2-x,1/2-y,-z
1/2+x,1/2-y,z
loop_
_atom_site_type_symbol
_atom_site_label
_atom_site_fract_x
_atom_site_fract_y
_atom_site_fract_z
Si Si1 0.762779 0.693268 0.273790
Si Si2 0.698009 0.558391 0.614558
Si Si3 0.630664 0.850586 0.905086
Si Si4 0.031463 0.635188 0.311310
Si Si5 0.121203 0.150018 0.864727
Si Si6 0.769839 0.871317 0.237307
Si Si7 0.711754 0.256548 0.097802
Si Si8 0.330177 0.293088 0.377266
O O1 0.580533 0.664171 0.206580
O O2 0.754191 0.723207 0.195028
O O3 0.790781 0.735960 0.344193
O O4 0.922595 0.654562 0.332036
O O5 0.500000 0.567156 0.500000
O O6 0.730802 0.500000 0.630709
O O7 0.841578 0.587945 0.628280
O O8 0.714797 0.583743 0.699910
O O9 0.602729 0.873442 0.813654
O O10 0.438014 0.856468 0.858548
O O11 0.688410 0.794029 0.913497
O O12 0.779514 0.870763 0.022562
O O13 0.161593 0.679683 0.340926
O O14 0.146958 0.118440 0.803895
O O15 0.219720 0.201676 0.886949
O O16 0.858692 0.824570 0.316458
O O17 0.500000 0.259443 0.000000
O O18 0.500000 0.298266 0.500000
#
# Coordination Sequence:
#
# PCOD9180633 Si02
#       8
#     8   8   8   8   8   8   8   8
#     4  11  21  32  42  72 103 145 177 199 243 296
#     4   9  18  38  66  83  91 117 166 224 272 299
#     4   9  18  30  45  68 100 138 171 211 246 285
#     4   9  20  34  51  75 103 127 173 214 242 302
#     4  12  20  28  45  68 106 143 172 207 252 290
#     4  10  19  32  50  77 102 127 168 217 256 307
#     4  11  19  27  44  64 100 143 193 217 225 274
#     4  10  20  35  46  62  97 141 175 208 248 294
#
# _framework density 16.859148999999999
#
# number of rings (size 3 to 8) (size 9 to 14) (size 15 to 20)
#    0.000    2.125    2.500    5.250    1.750    0.500 
#    2.250    0.000    0.000    6.750    0.000    5.250 
#    0.000    0.000    0.000    0.000    0.000    0.000 
#
# Total GULP energy -178429.357511 kJ/mol
# GULP energy per Si atom -5575.917422 kJ/mol
# Density = 1.682078 g / cm^3
# Si number density = 16.859149 Si / 1000 Ang^3
#
#
#
# Elastic Constant Matrix: (Units=GPa)
#
#
# Indices 1 2 3 4 5 6 
#
# 1 66.5375 34.0401 31.0049 0.0000 13.0124 0.0000
# 2 34.0401 77.2154 34.8558 0.0000 16.4419 0.0000
# 3 31.0049 34.8558 84.4021 0.0000 16.4934 -0.0005
# 4 0.0000 0.0000 0.0000 16.3878 0.0000 0.9228
# 5 13.0124 16.4419 16.4934 0.0000 16.3237 -0.0001
# 6 0.0000 0.0000 -0.0005 0.9228 -0.0001 4.8035
#
#
#
# Elastic Compliance Matrix: (Units=1/GPa)
#
#
# Indices 1 2 3 4 5 6 
#
# 1 0.021371 -0.006182 -0.003969 0.000000 -0.006799 -0.000001
# 2 -0.006182 0.019728 -0.003683 0.000000 -0.011222 0.000000
# 3 -0.003969 -0.003683 0.016801 0.000000 -0.010102 0.000001
# 4 0.000000 0.000000 0.000000 0.061688 0.000000 -0.011851
# 5 -0.006799 -0.011222 -0.010102 0.000000 0.088190 0.000000
# 6 -0.000001 0.000000 0.000001 -0.011851 0.000000 0.210459
#
#
# Mechanical properties :
#
#
# Convention : Reuss Voigt Hill
#
# Bulk Modulus (GPa) = 33.07795 47.55073 40.31434
# Shear Modulus (GPa) = 10.96530 16.05329 13.50929
#
# Velocity S-wave (km/s) = 2.55307 3.08912 2.83380
# Velocity P-wave (km/s) = 5.32482 6.40230 5.88826
#
# Compressibility (1/GPa) = 0.03023162
#
# Stress axis : x y z
#
# Youngs Moduli (GPa) = 46.79292 50.68872 59.51929
#
# Poissons Ratio (x) = 0.31335 0.23623
# Poissons Ratio (y) = 0.28927 0.21924
# Poissons Ratio (z) = 0.18572 0.18671
#
# Static dielectric constant tensor:
#      x y z
#    x 1.602850 0.000000 -0.024570 
#    y 0.000000 1.557540 0.000000 
#    z -0.024570 0.000000 1.603110 
# 
# From -- ./inp_files/307155.got.cif
#   From: 2010.05.17/outbox.cif.g08.bks.cpg/sg12_154_cif.got.tgz:307155.got - 2010.06.03 13:09:07.
