data_PCOD9180352
_publ_section_title
;
Structure prediction by ZEFSAII (Michael W. Deem and Ramdas Pophale) SiO2 
 PCOD9180352
Probable space group: C 2/M
;
_chemical_formula_sum "Si O2"
_cell_formula_units_Z 48
_cell_length_a 9.607535
_cell_length_b 19.214236
_cell_length_c 14.569079
_cell_angle_alpha 90.000000
_cell_angle_beta 72.700177
_cell_angle_gamma 90.000000
_cell_volume 2567.805895
_symmetry_space_group_name_H-M "C 2/M"
_symmetry_group_IT_number 12
_symmetry_cell_setting 'monoclinic'
loop_
_space_group_symop_operation_xyz
x,y,z
-x,y,-z
-x,-y,-z
x,-y,z
1/2+x,1/2+y,z
1/2-x,1/2+y,-z
1/2-x,1/2-y,-z
1/2+x,1/2-y,z
loop_
_atom_site_type_symbol
_atom_site_label
_atom_site_fract_x
_atom_site_fract_y
_atom_site_fract_z
Si Si1 0.721816 0.417238 0.703599
Si Si2 0.277490 0.582970 0.786146
Si Si3 0.392004 0.206864 0.440328
Si Si4 0.056679 0.582003 0.688190
Si Si5 0.983264 0.850126 0.392892
Si Si6 0.479117 0.584630 0.900940
O O1 0.706712 0.500000 0.692788
O O2 0.665424 0.380919 0.621894
O O3 0.612568 0.396599 0.807295
O O4 0.887086 0.404103 0.701678
O O5 0.297907 0.500000 0.781614
O O6 0.115266 0.594966 0.779824
O O7 0.389024 0.613050 0.688789
O O8 0.333106 0.607012 0.874833
O O9 0.500000 0.185270 0.500000
O O10 0.250000 0.250000 0.500000
O O11 0.359428 0.138378 0.389664
O O12 0.482074 0.267769 0.371196
O O13 0.084408 0.500000 0.661164
O O14 0.000000 0.858428 0.500000
O O15 0.477881 0.500000 0.906627
O O16 0.500000 0.610921 0.000000
#
# Coordination Sequence:
#
# PCOD9180352 Si02
#       6
#     8   8   8   8   8   8
#     4   9  18  31  49  75 102 130 166 203 249 302
#     4   9  18  31  48  72  98 127 165 202 244 296
#     4  11  22  35  49  69  96 130 173 208 240 290
#     4  10  20  34  49  69 101 131 158 204 256 296
#     4  10  19  32  49  68  94 129 170 211 241 280
#     4   8  14  28  50  74 100 129 163 203 243 291
#
# _framework density 18.693000999999999
#
# number of rings (size 3 to 8) (size 9 to 14) (size 15 to 20)
#    0.000    2.500    0.000    4.500    0.000    1.667 
#    0.000    5.833    0.000    5.500    0.000   18.667 
#    0.000    0.000    0.000    0.000    0.000    0.000 
#
# Total GULP energy -133629.368550 kJ/mol
# GULP energy per Si atom -5567.890356 kJ/mol
# Density = 1.865045 g / cm^3
# Si number density = 18.693001 Si / 1000 Ang^3
#
#
#
# Elastic Constant Matrix: (Units=GPa)
#
#
# Indices 1 2 3 4 5 6 
#
# 1 117.7787 29.5701 58.3167 0.0000 45.7527 0.0000
# 2 29.5701 37.2603 38.1840 0.0000 17.4375 0.0000
# 3 58.3167 38.1840 112.0614 0.0000 39.7505 0.0000
# 4 0.0000 0.0000 0.0000 -7.1221 0.0000 -1.9625
# 5 45.7527 17.4375 39.7505 0.0000 33.5146 0.0000
# 6 0.0000 0.0000 0.0000 -1.9625 0.0000 21.5255
#
#
#
# Elastic Compliance Matrix: (Units=1/GPa)
#
#
# Indices 1 2 3 4 5 6 
#
# 1 0.018472 -0.003678 -0.000161 0.000000 -0.023112 0.000000
# 2 -0.003678 0.043342 -0.011456 0.000000 -0.003942 0.000000
# 3 -0.000161 -0.011456 0.018504 0.000000 -0.015766 0.000000
# 4 0.000000 0.000000 0.000000 -0.136967 0.000000 -0.012487
# 5 -0.023112 -0.003942 -0.015766 0.000000 0.082140 0.000000
# 6 0.000000 0.000000 0.000000 -0.012487 0.000000 0.045318
#
#
# Mechanical properties :
#
#
# Convention : Reuss Voigt Hill
#
# Bulk Modulus (GPa) = 20.10981 57.69356 38.90169
# Shear Modulus (GPa) = 42.38210 18.98559 30.68385
#
# Velocity S-wave (km/s) = 4.76675 3.19039 4.05589
# Velocity P-wave (km/s) = 6.40915 6.67099 6.54138
#
# Compressibility (1/GPa) = 0.04972696
#
# Stress axis : x y z
#
# Youngs Moduli (GPa) = 54.13595 23.07231 54.04352
#
# Poissons Ratio (x) = 0.08486 0.00871
# Poissons Ratio (y) = 0.19911 0.61913
# Poissons Ratio (z) = 0.00872 0.26432
#
# Static dielectric constant tensor:
#      x y z
#    x 1.733900 0.000000 0.010060 
#    y 0.000000 1.649850 0.000000 
#    z 0.010060 0.000000 1.660350 
# 
# From -- ./inp_files/195928.got.cif
#   From: 2010.05.17/outbox.cif.g08.bks.cpg/sg12_98_cif.got.tgz:195928.got - 2010.06.03 13:09:07.
