data_PCOD9180756
_publ_section_title
;
Structure prediction by ZEFSAII (Michael W. Deem and Ramdas Pophale) SiO2 
 PCOD9180756
Probable space group: C 2/M
;
_chemical_formula_sum "Si O2"
_cell_formula_units_Z 48
_cell_length_a 21.034773
_cell_length_b 7.438771
_cell_length_c 27.660586
_cell_angle_alpha 90.000000
_cell_angle_beta 150.231631
_cell_angle_gamma 90.000000
_cell_volume 2148.894624
_symmetry_space_group_name_H-M "C 2/M"
_symmetry_group_IT_number 12
_symmetry_cell_setting 'monoclinic'
loop_
_space_group_symop_operation_xyz
x,y,z
-x,y,-z
-x,-y,-z
x,-y,z
1/2+x,1/2+y,z
1/2-x,1/2+y,-z
1/2-x,1/2-y,-z
1/2+x,1/2-y,z
loop_
_atom_site_type_symbol
_atom_site_label
_atom_site_fract_x
_atom_site_fract_y
_atom_site_fract_z
Si Si1 0.850964 0.291427 0.273065
Si Si2 0.617397 0.714693 0.939284
Si Si3 0.871182 0.219525 0.943303
Si Si4 0.106463 0.213237 0.387290
Si Si5 0.610725 0.719860 0.280181
Si Si6 0.362435 0.220009 0.389544
O O1 0.813931 0.500000 0.253762
O O2 0.752702 0.216731 0.168434
O O3 0.841554 0.215946 0.320858
O O4 0.995568 0.284693 0.348926
O O5 0.599435 0.500000 0.930813
O O6 0.500821 0.781792 0.829424
O O7 0.750000 0.750000 0.000000
O O8 0.623244 0.783993 0.997873
O O9 0.866292 0.000000 0.942114
O O10 0.000000 0.268270 0.000000
O O11 0.250000 0.250000 0.500000
O O12 0.091247 0.280994 0.322318
O O13 0.088728 0.000000 0.374780
O O14 0.609138 0.500000 0.280112
O O15 0.747364 0.774049 0.348652
O O16 0.500000 0.277707 0.500000
O O17 0.363652 0.000000 0.389622
#
# Coordination Sequence:
#
# PCOD9180756 Si02
#       6
#     8   8   8   8   8   8
#     4  10  19  32  53  79 105 133 168 211 256 299
#     4  10  19  32  51  74 102 133 166 205 248 295
#     4   9  17  30  51  79 106 133 169 212 252 292
#     4  11  22  36  54  75 102 134 170 211 254 303
#     4   9  18  32  51  75 100 131 170 207 243 291
#     4   9  16  28  49  74  97 125 167 211 244 285
#
# _framework density 22.337066
#
# number of rings (size 3 to 8) (size 9 to 14) (size 15 to 20)
#    0.000    2.333    0.000    3.500    0.000    6.667 
#    0.000    0.833    0.000   10.500    0.000    0.000 
#    0.000    0.000    0.000    0.000    0.000    0.000 
#
# Total GULP energy -134176.618682 kJ/mol
# GULP energy per Si atom -5590.692445 kJ/mol
# Density = 2.228623 g / cm^3
# Si number density = 22.337066 Si / 1000 Ang^3
#
#
#
# Elastic Constant Matrix: (Units=GPa)
#
#
# Indices 1 2 3 4 5 6 
#
# 1 88.8885 -9.1415 -15.7800 0.0001 -13.1055 0.0000
# 2 -9.1415 69.6499 -4.6586 0.0006 -9.7974 0.0000
# 3 -15.7800 -4.6586 77.1738 -0.0001 -5.9701 -0.0001
# 4 0.0001 0.0006 -0.0001 2.8075 0.0001 8.6986
# 5 -13.1055 -9.7974 -5.9701 0.0001 46.8113 0.0001
# 6 0.0000 0.0000 -0.0001 8.6986 0.0001 9.1516
#
#
#
# Elastic Compliance Matrix: (Units=1/GPa)
#
#
# Indices 1 2 3 4 5 6 
#
# 1 0.012719 0.002507 0.003099 0.000000 0.004481 -0.000001
# 2 0.002507 0.015388 0.001762 0.000002 0.004147 -0.000002
# 3 0.003099 0.001762 0.013931 0.000000 0.003013 0.000000
# 4 0.000000 0.000002 0.000000 -0.183133 0.000000 0.174067
# 5 0.004481 0.004147 0.003013 0.000000 0.023869 0.000000
# 6 -0.000001 -0.000002 0.000000 0.174067 0.000000 -0.056180
#
#
# Mechanical properties :
#
#
# Convention : Reuss Voigt Hill
#
# Bulk Modulus (GPa) = 17.61420 19.61689 18.61554
# Shear Modulus (GPa) = -29.54771 29.44024 -0.05374
#
# Velocity S-wave (km/s) = -3.64099 3.63436 -0.15527
# Velocity P-wave (km/s) = 3.12618 5.13933 2.88442
#
# Compressibility (1/GPa) = 0.05677239
#
# Stress axis : x y z
#
# Youngs Moduli (GPa) = 78.62543 64.98666 71.78341
#
# Poissons Ratio (x) = -0.16291 -0.22242
# Poissons Ratio (y) = -0.19710 -0.12650
# Poissons Ratio (z) = -0.24362 -0.11453
#
# Static dielectric constant tensor:
#      x y z
#    x 1.496400 0.000020 -0.268860 
#    y 0.000020 1.886990 0.000020 
#    z -0.268860 0.000020 1.552790 
# 
# From -- ./inp_files/315219.got.cif
#   From: 2010.05.17/outbox.cif.g08.bks.cpg/sg12_158_cif.got.tgz:315219.got - 2010.06.03 13:09:07.
