data_PCOD9180046
_publ_section_title
;
Structure prediction by ZEFSAII (Michael W. Deem and Ramdas Pophale) SiO2 
 PCOD9180046
Probable space group: C 2/M
;
_chemical_formula_sum "Si O2"
_cell_formula_units_Z 48
_cell_length_a 22.394696
_cell_length_b 7.370785
_cell_length_c 12.802084
_cell_angle_alpha 90.000000
_cell_angle_beta 110.391378
_cell_angle_gamma 90.000000
_cell_volume 1980.770495
_symmetry_space_group_name_H-M "C 2/M"
_symmetry_group_IT_number 12
_symmetry_cell_setting 'monoclinic'
loop_
_space_group_symop_operation_xyz
x,y,z
-x,y,-z
-x,-y,-z
x,-y,z
1/2+x,1/2+y,z
1/2-x,1/2+y,-z
1/2-x,1/2-y,-z
1/2+x,1/2-y,z
loop_
_atom_site_type_symbol
_atom_site_label
_atom_site_fract_x
_atom_site_fract_y
_atom_site_fract_z
Si Si1 0.656365 0.718534 0.967942
Si Si2 0.272106 0.214336 0.630910
Si Si3 0.966419 0.220696 0.374844
Si Si4 0.491836 0.279767 0.163893
Si Si5 0.378730 0.288349 0.839782
Si Si6 0.820315 0.221396 0.243518
O O1 0.664465 0.500000 0.969295
O O2 0.580964 0.763723 0.907737
O O3 0.691015 0.784887 0.883492
O O4 0.665211 0.785571 0.092237
O O5 0.250000 0.250000 0.500000
O O6 0.341779 0.278192 0.708110
O O7 0.224875 0.288199 0.691611
O O8 0.272835 0.000000 0.643093
O O9 0.892637 0.272308 0.317848
O O10 0.000000 0.285173 0.500000
O O11 0.001313 0.276034 0.289754
O O12 0.967176 0.000000 0.377255
O O13 0.493986 0.500000 0.160654
O O14 0.550375 0.211884 0.130234
O O15 0.387166 0.500000 0.870519
O O16 0.818393 0.000000 0.241191
#
# Coordination Sequence:
#
# PCOD9180046 Si02
#       6
#     8   8   8   8   8   8
#     4   8  14  28  50  79 108 132 164 210 257 298
#     4  11  24  39  53  71 100 137 177 214 252 299
#     4   8  13  21  39  67  97 128 162 205 251 290
#     4   8  14  24  43  76 110 132 159 203 254 300
#     4  10  19  31  53  81 108 136 166 204 254 305
#     4   8  16  30  47  70 102 133 165 210 254 294
#
# _framework density 24.232993
#
# number of rings (size 3 to 8) (size 9 to 14) (size 15 to 20)
#    0.000    3.167    0.000    3.000    2.333    2.667 
#    0.000    0.000    0.000    3.000    0.000   11.667 
#    0.000    0.000    0.000    0.000    0.000    0.000 
#
# Total GULP energy -133958.598427 kJ/mol
# GULP energy per Si atom -5581.608268 kJ/mol
# Density = 2.417784 g / cm^3
# Si number density = 24.232993 Si / 1000 Ang^3
#
#
#
# Elastic Constant Matrix: (Units=GPa)
#
#
# Indices 1 2 3 4 5 6 
#
# 1 97.6610 -0.8588 29.9812 0.0000 -26.4522 0.0000
# 2 -0.8588 88.7317 -5.4130 0.0000 -5.7260 0.0000
# 3 29.9812 -5.4130 155.3351 0.0000 -10.9353 0.0000
# 4 0.0000 0.0000 0.0000 -1.1533 0.0000 1.2647
# 5 -26.4522 -5.7260 -10.9353 0.0000 34.7725 0.0000
# 6 0.0000 0.0000 0.0000 1.2647 0.0000 -2.4202
#
#
#
# Elastic Compliance Matrix: (Units=1/GPa)
#
#
# Indices 1 2 3 4 5 6 
#
# 1 0.013468 0.000645 -0.001890 0.000000 0.009757 0.000000
# 2 0.000645 0.011466 0.000453 0.000000 0.002521 0.000000
# 3 -0.001890 0.000453 0.006874 0.000000 0.000799 0.000000
# 4 0.000000 0.000000 0.000000 -2.030485 0.000000 -1.061031
# 5 0.009757 0.002521 0.000799 0.000000 0.036847 0.000000
# 6 0.000000 0.000000 0.000000 -1.061031 0.000000 -0.967640
#
#
# Mechanical properties :
#
#
# Convention : Reuss Voigt Hill
#
# Bulk Modulus (GPa) = 33.08670 43.23851 38.16261
# Shear Modulus (GPa) = -1.71362 27.44102 12.86370
#
# Velocity S-wave (km/s) = -0.84183 3.36874 2.30648
# Velocity P-wave (km/s) = 3.56908 5.74567 4.78284
#
# Compressibility (1/GPa) = 0.03022362
#
# Stress axis : x y z
#
# Youngs Moduli (GPa) = 74.24849 87.21082 145.46514
#
# Poissons Ratio (x) = -0.05623 0.27495
# Poissons Ratio (y) = -0.04787 -0.06584
# Poissons Ratio (z) = 0.14034 -0.03947
#
# Static dielectric constant tensor:
#      x y z
#    x 1.943160 0.000000 0.032470 
#    y 0.000000 1.952050 0.000000 
#    z 0.032470 0.000000 2.377610 
# 
# From -- ./inp_files/173468.got.cif
#   From: 2010.05.17/outbox.cif.g08.bks.cpg/sg12_87_cif.got.tgz:173468.got - 2010.06.03 13:09:07.
