data_PCOD9180648
_publ_section_title
;
Structure prediction by ZEFSAII (Michael W. Deem and Ramdas Pophale) SiO2 
 PCOD9180648
Probable space group: C 2/M
;
_chemical_formula_sum "Si O2"
_cell_formula_units_Z 40
_cell_length_a 22.066220
_cell_length_b 11.859308
_cell_length_c 21.834863
_cell_angle_alpha 90.000000
_cell_angle_beta 163.269628
_cell_angle_gamma 90.000000
_cell_volume 1644.869604
_symmetry_space_group_name_H-M "C 2/M"
_symmetry_group_IT_number 12
_symmetry_cell_setting 'monoclinic'
loop_
_space_group_symop_operation_xyz
x,y,z
-x,y,-z
-x,-y,-z
x,-y,z
1/2+x,1/2+y,z
1/2-x,1/2+y,-z
1/2-x,1/2-y,-z
1/2+x,1/2-y,z
loop_
_atom_site_type_symbol
_atom_site_label
_atom_site_fract_x
_atom_site_fract_y
_atom_site_fract_z
Si Si1 0.748688 0.873497 0.229349
Si Si2 0.334130 0.831190 0.389615
Si Si3 0.990525 0.674636 0.309337
Si Si4 0.783061 0.625263 0.595499
Si Si5 0.916553 0.782379 0.032012
O O1 0.830807 0.803795 0.368073
O O2 0.828308 0.000000 0.294856
O O3 0.500000 0.885928 0.000000
O O4 0.740496 0.786988 0.164530
O O5 0.500000 0.876963 0.500000
O O6 0.414773 0.864200 0.534300
O O7 0.082073 0.853175 0.150963
O O8 0.103084 0.621427 0.360154
O O9 0.066688 0.805525 0.378772
O O10 0.741246 0.657394 0.073798
O O11 0.752366 0.500000 0.590097
O O12 0.939134 0.697692 0.789225
#
# Coordination Sequence:
#
# PCOD9180648 Si02
#       5
#     8   8   8   8   8
#     4   9  17  28  44  72 107 138 167 206 264 326
#     4  10  19  32  50  78 110 144 176 213 262 323
#     4  10  21  37  56  79 111 145 183 222 272 323
#     4  10  22  38  56  80 109 142 185 231 269 316
#     4  10  19  34  53  78 109 144 178 217 270 329
#
# _framework density 24.318037
#
# number of rings (size 3 to 8) (size 9 to 14) (size 15 to 20)
#    0.000    2.200    2.000    1.200    0.000    6.800 
#    0.000    0.000    0.000    0.600    0.000    1.400 
#    0.000    0.000    0.000    0.000    0.000    0.000 
#
# Total GULP energy -111492.232044 kJ/mol
# GULP energy per Si atom -5574.611602 kJ/mol
# Density = 2.426269 g / cm^3
# Si number density = 24.318037 Si / 1000 Ang^3
#
#
#
# Elastic Constant Matrix: (Units=GPa)
#
#
# Indices 1 2 3 4 5 6 
#
# 1 168.8178 -1.3833 42.4870 0.0087 24.9902 0.0023
# 2 -1.3833 82.4767 14.0101 -0.0019 0.9213 -0.0011
# 3 42.4870 14.0101 100.1141 -0.0100 25.2913 -0.0014
# 4 0.0087 -0.0019 -0.0100 -13.0012 0.0036 1.7446
# 5 24.9902 0.9213 25.2913 0.0036 65.2681 0.0002
# 6 0.0023 -0.0011 -0.0014 1.7446 0.0002 -1.5757
#
#
#
# Elastic Compliance Matrix: (Units=1/GPa)
#
#
# Indices 1 2 3 4 5 6 
#
# 1 0.006813 0.000567 -0.002560 0.000009 -0.001624 0.000022
# 2 0.000567 0.012485 -0.002093 -0.000001 0.000418 -0.000006
# 3 -0.002560 -0.002093 0.012319 -0.000016 -0.003764 -0.000031
# 4 0.000009 -0.000001 -0.000016 -0.090337 0.000008 -0.100021
# 5 -0.001624 0.000418 -0.003764 0.000008 0.017396 0.000012
# 6 0.000022 -0.000006 -0.000031 -0.100021 0.000012 -0.745393
#
#
# Mechanical properties :
#
#
# Convention : Reuss Voigt Hill
#
# Bulk Modulus (GPa) = 42.65474 51.29291 46.97383
# Shear Modulus (GPa) = -6.48736 29.89123 11.70193
#
# Velocity S-wave (km/s) = -1.63509 3.50977 2.19602
# Velocity P-wave (km/s) = 3.74350 6.12886 5.07822
#
# Compressibility (1/GPa) = 0.02344405
#
# Stress axis : x y z
#
# Youngs Moduli (GPa) = 146.77723 80.09547 81.17576
#
# Poissons Ratio (x) = -0.04544 0.20784
# Poissons Ratio (y) = -0.08327 0.16994
# Poissons Ratio (z) = 0.37580 0.16768
#
# Static dielectric constant tensor:
#      x y z
#    x 1.995850 -0.000010 0.044790 
#    y -0.000010 1.955930 -0.000010 
#    z 0.044790 -0.000010 2.020260 
# 
# From -- ./inp_files/322159.got.cif
#   From: 2010.05.17/outbox.cif.g08.bks.cpg/sg12_162_cif.got.tgz:322159.got - 2010.06.03 13:09:07.
