data_PCOD9180885
_publ_section_title
;
Structure prediction by ZEFSAII (Michael W. Deem and Ramdas Pophale) SiO2 
 PCOD9180885
Probable space group: C 2/M
;
_chemical_formula_sum "Si O2"
_cell_formula_units_Z 48
_cell_length_a 22.751981
_cell_length_b 13.774479
_cell_length_c 14.273186
_cell_angle_alpha 90.000000
_cell_angle_beta 140.537618
_cell_angle_gamma 90.000000
_cell_volume 2843.018691
_symmetry_space_group_name_H-M "C 2/M"
_symmetry_group_IT_number 12
_symmetry_cell_setting 'monoclinic'
loop_
_space_group_symop_operation_xyz
x,y,z
-x,y,-z
-x,-y,-z
x,-y,z
1/2+x,1/2+y,z
1/2-x,1/2+y,-z
1/2-x,1/2-y,-z
1/2+x,1/2-y,z
loop_
_atom_site_type_symbol
_atom_site_label
_atom_site_fract_x
_atom_site_fract_y
_atom_site_fract_z
Si Si1 0.873190 0.115320 0.598976
Si Si2 0.689174 0.115128 0.255909
Si Si3 0.971727 0.117192 0.363362
Si Si4 0.463896 0.750080 0.857243
Si Si5 0.335417 0.786363 0.970780
Si Si6 0.717677 0.385409 0.973857
O O1 0.773974 0.134200 0.430443
O O2 0.898065 0.177417 0.720228
O O3 0.950256 0.141062 0.616167
O O4 0.880180 0.000000 0.626610
O O5 0.595662 0.156204 0.186671
O O6 0.702220 0.169875 0.172964
O O7 0.684717 0.000000 0.233051
O O8 0.000000 0.155997 0.500000
O O9 0.970280 0.000000 0.368735
O O10 0.871036 0.142989 0.200089
O O11 0.500000 0.706336 0.000000
O O12 0.554827 0.775535 0.909418
O O13 0.293267 0.682047 0.948449
O O14 0.305658 0.855964 0.019662
O O15 0.714521 0.500000 0.989297
#
# Coordination Sequence:
#
# PCOD9180885 Si02
#       6
#     8   8   8   8   8   8
#     4  10  19  34  54  78 108 138 172 220 270 313
#     4  10  21  36  55  77 105 139 181 223 259 306
#     4   9  16  27  48  76 103 132 166 210 262 308
#     4  10  21  35  53  79 109 140 178 215 260 317
#     4  10  20  33  52  79 106 141 179 216 264 313
#     4  10  19  32  51  76 110 139 174 219 265 317
#
# _framework density 16.883462999999999
#
# number of rings (size 3 to 8) (size 9 to 14) (size 15 to 20)
#    0.000    2.167    1.667    2.000    0.000    6.667 
#    0.000    2.500    0.000    1.000    0.000    1.167 
#    0.000    0.000    0.000    0.000    0.000    0.000 
#
# Total GULP energy -133777.604238 kJ/mol
# GULP energy per Si atom -5574.066843 kJ/mol
# Density = 1.684504 g / cm^3
# Si number density = 16.883463 Si / 1000 Ang^3
#
#
#
# Elastic Constant Matrix: (Units=GPa)
#
#
# Indices 1 2 3 4 5 6 
#
# 1 106.0037 43.9950 41.8683 0.0000 3.6650 0.0000
# 2 43.9950 94.6946 63.3457 0.0000 -11.1735 0.0000
# 3 41.8683 63.3457 99.0910 0.0000 -14.9075 0.0000
# 4 0.0000 0.0000 0.0000 28.1928 0.0000 -4.8148
# 5 3.6650 -11.1735 -14.9075 0.0000 19.0766 0.0000
# 6 0.0000 0.0000 0.0000 -4.8148 0.0000 22.6018
#
#
#
# Elastic Compliance Matrix: (Units=1/GPa)
#
#
# Indices 1 2 3 4 5 6 
#
# 1 0.013109 -0.004416 -0.003948 0.000000 -0.008190 0.000000
# 2 -0.004416 0.019992 -0.010228 0.000000 0.004566 0.000000
# 3 -0.003948 -0.010228 0.019844 0.000000 0.010275 0.000000
# 4 0.000000 0.000000 0.000000 0.036809 0.000000 0.007841
# 5 -0.008190 0.004566 0.010275 0.000000 0.064697 0.000000
# 6 0.000000 0.000000 0.000000 0.007841 0.000000 0.045915
#
#
# Mechanical properties :
#
#
# Convention : Reuss Voigt Hill
#
# Bulk Modulus (GPa) = 63.44404 66.46747 64.95576
# Shear Modulus (GPa) = 20.59274 24.01294 22.30284
#
# Velocity S-wave (km/s) = 3.49621 3.77540 3.63848
# Velocity P-wave (km/s) = 7.34555 7.64583 7.49719
#
# Compressibility (1/GPa) = 0.01576192
#
# Stress axis : x y z
#
# Youngs Moduli (GPa) = 76.28442 50.01897 50.39275
#
# Poissons Ratio (x) = 0.22086 0.19896
# Poissons Ratio (y) = 0.33684 0.51541
# Poissons Ratio (z) = 0.30118 0.51159
#
# Static dielectric constant tensor:
#      x y z
#    x 1.578460 0.000000 0.003940 
#    y 0.000000 1.555890 0.000000 
#    z 0.003940 0.000000 1.583450 
# 
# From -- ./inp_files/143554.got.cif
#   From: 2010.05.17/outbox.cif.g08.bks.cpg/sg12_72_cif.got.tgz:143554.got - 2010.06.03 13:09:07.
