data_PCOD9180653
_publ_section_title
;
Structure prediction by ZEFSAII (Michael W. Deem and Ramdas Pophale) SiO2 
 PCOD9180653
Probable space group: C 2/M
;
_chemical_formula_sum "Si O2"
_cell_formula_units_Z 52
_cell_length_a 21.772215
_cell_length_b 7.931566
_cell_length_c 18.582912
_cell_angle_alpha 90.000000
_cell_angle_beta 118.451241
_cell_angle_gamma 90.000000
_cell_volume 2821.462600
_symmetry_space_group_name_H-M "C 2/M"
_symmetry_group_IT_number 12
_symmetry_cell_setting 'monoclinic'
loop_
_space_group_symop_operation_xyz
x,y,z
-x,y,-z
-x,-y,-z
x,-y,z
1/2+x,1/2+y,z
1/2-x,1/2+y,-z
1/2-x,1/2-y,-z
1/2+x,1/2-y,z
loop_
_atom_site_type_symbol
_atom_site_label
_atom_site_fract_x
_atom_site_fract_y
_atom_site_fract_z
Si Si1 0.844366 0.500000 0.374929
Si Si2 0.857632 0.198520 0.655472
Si Si3 0.138963 0.500000 0.449842
Si Si4 0.366014 0.805021 0.085678
Si Si5 0.975857 0.813388 0.252017
Si Si6 0.776983 0.808672 0.752237
Si Si7 0.028616 0.500000 0.649530
Si Si8 0.767499 0.303512 0.906160
O O1 0.833459 0.500000 0.453859
O O2 0.802757 0.341465 0.317573
O O3 0.923805 0.500000 0.394349
O O4 0.840935 0.331318 0.583028
O O5 0.819349 0.255173 0.707200
O O6 0.941248 0.204790 0.713779
O O7 0.839824 0.000000 0.630997
O O8 0.054318 0.500000 0.409076
O O9 0.431231 0.707316 0.154734
O O10 0.302367 0.790567 0.107432
O O11 0.386268 0.000000 0.088821
O O12 0.331701 0.743654 0.991908
O O13 0.954068 0.664691 0.293517
O O14 0.962948 0.000000 0.275171
O O15 0.780588 0.714074 0.829138
O O16 0.803889 0.000000 0.780943
O O17 0.756657 0.500000 0.918469
#
# Coordination Sequence:
#
# PCOD9180653 Si02
#       8
#     4   8   4   8   8   8   4   8
#     4  10  21  36  58  82 109 147 180 225 289 337
#     4   9  20  39  56  80 109 142 187 227 270 325
#     4  10  21  36  62  85 106 147 180 227 287 329
#     4  10  19  32  50  79 113 145 184 231 270 326
#     4  10  19  33  58  80 107 150 186 219 271 330
#     4   9  20  36  53  74 107 146 177 232 268 322
#     4  10  19  36  58  83 120 138 176 234 278 332
#     4  10  20  32  51  78 112 147 183 225 280 322
#
# _framework density 18.430157000000001
#
# number of rings (size 3 to 8) (size 9 to 14) (size 15 to 20)
#    0.462    1.846    0.769    2.077    1.077    2.462 
#    0.000    2.308    0.000    8.308    0.000    0.000 
#    0.000    0.000    0.000    0.000    0.000    0.000 
#
# Total GULP energy -144901.522107 kJ/mol
# GULP energy per Si atom -5573.135466 kJ/mol
# Density = 1.838821 g / cm^3
# Si number density = 18.430157 Si / 1000 Ang^3
#
#
#
# Elastic Constant Matrix: (Units=GPa)
#
#
# Indices 1 2 3 4 5 6 
#
# 1 54.1279 18.9685 23.9732 0.0000 -21.6046 0.0000
# 2 18.9685 69.4658 24.5872 0.0000 -7.1801 0.0000
# 3 23.9732 24.5872 81.0269 0.0000 -19.4069 0.0000
# 4 0.0000 0.0000 0.0000 15.9049 0.0000 -7.3089
# 5 -21.6046 -7.1801 -19.4069 0.0000 27.8745 0.0000
# 6 0.0000 0.0000 0.0000 -7.3089 0.0000 12.5918
#
#
#
# Elastic Compliance Matrix: (Units=1/GPa)
#
#
# Indices 1 2 3 4 5 6 
#
# 1 0.029143 -0.005088 -0.002379 0.000000 0.019621 0.000000
# 2 -0.005088 0.017035 -0.004269 0.000000 -0.002528 0.000000
# 3 -0.002379 -0.004269 0.016365 0.000000 0.008450 0.000000
# 4 0.000000 0.000000 0.000000 0.085745 0.000000 0.049771
# 5 0.019621 -0.002528 0.008450 0.000000 0.056314 0.000000
# 6 0.000000 0.000000 0.000000 0.049771 0.000000 0.108306
#
#
# Mechanical properties :
#
#
# Convention : Reuss Voigt Hill
#
# Bulk Modulus (GPa) = 25.59503 37.74203 31.66853
# Shear Modulus (GPa) = 14.31009 20.41366 17.36188
#
# Velocity S-wave (km/s) = 2.78951 3.33171 3.07259
# Velocity P-wave (km/s) = 4.92878 5.94333 5.45967
#
# Compressibility (1/GPa) = 0.03907008
#
# Stress axis : x y z
#
# Youngs Moduli (GPa) = 34.31377 58.70389 61.10662
#
# Poissons Ratio (x) = 0.29867 0.14538
# Poissons Ratio (y) = 0.17458 0.26088
# Poissons Ratio (z) = 0.08164 0.25062
#
# Static dielectric constant tensor:
#      x y z
#    x 1.619240 0.000000 0.018780 
#    y 0.000000 1.667120 0.000000 
#    z 0.018780 0.000000 1.635640 
# 
# From -- ./inp_files/280511.got.cif
#   From: 2010.05.17/outbox.cif.g08.bks.cpg/sg12_141_cif.got.tgz:280511.got - 2010.06.03 13:09:07.
