data_PCOD9180820
_publ_section_title
;
Structure prediction by ZEFSAII (Michael W. Deem and Ramdas Pophale) SiO2 
 PCOD9180820
Probable space group: C 2/M
;
_chemical_formula_sum "Si O2"
_cell_formula_units_Z 52
_cell_length_a 8.910553
_cell_length_b 19.438661
_cell_length_c 15.426441
_cell_angle_alpha 90.000000
_cell_angle_beta 95.388639
_cell_angle_gamma 90.000000
_cell_volume 2660.193169
_symmetry_space_group_name_H-M "C 2/M"
_symmetry_group_IT_number 12
_symmetry_cell_setting 'monoclinic'
loop_
_space_group_symop_operation_xyz
x,y,z
-x,y,-z
-x,-y,-z
x,-y,z
1/2+x,1/2+y,z
1/2-x,1/2+y,-z
1/2-x,1/2-y,-z
1/2+x,1/2-y,z
loop_
_atom_site_type_symbol
_atom_site_label
_atom_site_fract_x
_atom_site_fract_y
_atom_site_fract_z
Si Si1 0.888625 0.082358 0.297923
Si Si2 0.815704 0.416177 0.866555
Si Si3 0.725376 0.583147 0.370683
Si Si4 0.500000 0.755944 0.500000
Si Si5 0.629499 0.083854 0.798096
Si Si6 0.668324 0.416191 0.033974
Si Si7 0.765662 0.654036 0.557832
O O1 0.823580 0.105430 0.202155
O O2 0.769966 0.104725 0.364744
O O3 0.056074 0.104965 0.333621
O O4 0.895317 0.000000 0.295605
O O5 0.819798 0.500000 0.866925
O O6 0.782407 0.395611 0.963174
O O7 0.971805 0.393232 0.831465
O O8 0.728049 0.500000 0.377759
O O9 0.835393 0.604333 0.298419
O O10 0.761837 0.614261 0.465993
O O11 0.629494 0.708735 0.546978
O O12 0.580624 0.803592 0.433394
O O13 0.627238 0.000000 0.797573
O O14 0.764983 0.105065 0.869852
O O15 0.664016 0.500000 0.035218
O O16 0.500000 0.393327 0.000000
#
# Coordination Sequence:
#
# PCOD9180820 Si02
#       7
#     8   8   8   4   8   8   8
#     4  10  19  32  51  75 104 136 168 205 254 308
#     4   9  17  27  41  66  99 133 167 202 244 295
#     4  10  19  32  51  75 104 136 168 205 254 308
#     4  10  24  38  56  70  96 130 176 214 256 294
#     4   9  17  27  41  66  99 133 167 202 244 295
#     4   9  15  25  41  61  93 136 171 198 235 293
#     4  11  21  39  54  75  98 133 168 216 253 301
#
# _framework density 19.547450999999999
#
# number of rings (size 3 to 8) (size 9 to 14) (size 15 to 20)
#    0.000    2.308    1.538    1.846    2.154    6.769 
#    0.000    0.769    0.000    0.000    0.000    0.000 
#    0.000    7.385    0.000    0.000    0.000    0.000 
#
# Total GULP energy -145014.203424 kJ/mol
# GULP energy per Si atom -5577.469362 kJ/mol
# Density = 1.950296 g / cm^3
# Si number density = 19.547451 Si / 1000 Ang^3
#
#
#
# Elastic Constant Matrix: (Units=GPa)
#
#
# Indices 1 2 3 4 5 6 
#
# 1 63.0769 16.6403 7.4572 0.0000 -16.1138 0.0000
# 2 16.6403 7.4356 11.8599 0.0000 1.3122 0.0000
# 3 7.4572 11.8599 91.3333 0.0000 -8.7116 0.0000
# 4 0.0000 0.0000 0.0000 -7.4043 0.0000 5.2626
# 5 -16.1138 1.3122 -8.7116 0.0000 28.6870 0.0000
# 6 0.0000 0.0000 0.0000 5.2626 0.0000 9.4368
#
#
#
# Elastic Compliance Matrix: (Units=1/GPa)
#
#
# Indices 1 2 3 4 5 6 
#
# 1 0.339612 -1.017598 0.130835 0.000000 0.277041 0.000000
# 2 -1.017598 3.225097 -0.416355 0.000000 -0.845553 0.000000
# 3 0.130835 -0.416355 0.065042 0.000000 0.112287 0.000000
# 4 0.000000 0.000000 0.000000 -0.096721 0.000000 0.053938
# 5 0.277041 -0.845553 0.112287 0.000000 0.263252 0.000000
# 6 0.000000 0.000000 0.000000 0.053938 0.000000 0.075889
#
#
# Mechanical properties :
#
#
# Convention : Reuss Voigt Hill
#
# Bulk Modulus (GPa) = 0.97703 25.97341 13.47522
# Shear Modulus (GPa) = 0.73318 14.53646 7.63482
#
# Velocity S-wave (km/s) = 0.61310 2.72995 1.97845
# Velocity P-wave (km/s) = 1.00105 4.82214 3.48247
#
# Compressibility (1/GPa) = 1.02351437
#
# Stress axis : x y z
#
# Youngs Moduli (GPa) = 2.94453 0.31007 15.37472
#
# Poissons Ratio (x) = 0.31552 -2.01154
# Poissons Ratio (y) = 2.99635 6.40134
# Poissons Ratio (z) = -0.38525 0.12910
#
# Static dielectric constant tensor:
#      x y z
#    x 1.724050 0.000000 -0.001480 
#    y 0.000000 1.670270 0.000000 
#    z -0.001480 0.000000 1.675270 
# 
# From -- ./inp_files/197095.got.cif
#   From: 2010.05.17/outbox.cif.g08.bks.cpg/sg12_99_cif.got.tgz:197095.got - 2010.06.03 13:09:07.
