data_PCOD9180828
_publ_section_title
;
Structure prediction by ZEFSAII (Michael W. Deem and Ramdas Pophale) SiO2 
 PCOD9180828
Probable space group: C 2/M
;
_chemical_formula_sum "Si O2"
_cell_formula_units_Z 64
_cell_length_a 24.638171
_cell_length_b 7.600592
_cell_length_c 22.386221
_cell_angle_alpha 90.000000
_cell_angle_beta 134.119885
_cell_angle_gamma 90.000000
_cell_volume 3009.479497
_symmetry_space_group_name_H-M "C 2/M"
_symmetry_group_IT_number 12
_symmetry_cell_setting 'monoclinic'
loop_
_space_group_symop_operation_xyz
x,y,z
-x,y,-z
-x,-y,-z
x,-y,z
1/2+x,1/2+y,z
1/2-x,1/2+y,-z
1/2-x,1/2-y,-z
1/2+x,1/2-y,z
loop_
_atom_site_type_symbol
_atom_site_label
_atom_site_fract_x
_atom_site_fract_y
_atom_site_fract_z
Si Si1 0.561328 0.705658 0.094527
Si Si2 0.036617 0.286259 0.867683
Si Si3 0.137163 0.714283 0.435058
Si Si4 0.525635 0.210890 0.722073
Si Si5 0.313678 0.711670 0.212321
Si Si6 0.704291 0.210903 0.025202
Si Si7 0.224823 0.295695 0.252741
Si Si8 0.722155 0.204180 0.382189
O O1 0.571547 0.500000 0.089090
O O2 0.526365 0.727625 0.133746
O O3 0.644133 0.789190 0.157614
O O4 0.500000 0.777435 0.000000
O O5 0.035603 0.500000 0.866510
O O6 0.026987 0.225463 0.791927
O O7 0.118601 0.224604 0.953877
O O8 0.141661 0.500000 0.440617
O O9 0.192052 0.783490 0.528542
O O10 0.172003 0.776499 0.398186
O O11 0.050246 0.770423 0.369335
O O12 0.602549 0.252212 0.746658
O O13 0.520657 0.000000 0.722290
O O14 0.305663 0.500000 0.207747
O O15 0.253519 0.780402 0.117690
O O16 0.288436 0.779916 0.257695
O O17 0.699495 0.000000 0.027351
O O18 0.750000 0.250000 0.000000
O O19 0.244889 0.500000 0.278375
O O20 0.215671 0.215194 0.311557
O O21 0.698028 0.000000 0.359213
#
# Coordination Sequence:
#
# PCOD9180828 Si02
#       8
#     8   8   8   8   8   8   8   8
#     4  11  24  38  53  80 113 143 178 225 274 318
#     4  10  20  35  56  79 105 143 185 223 271 326
#     4   9  18  33  55  83 111 135 169 219 272 327
#     4  10  20  35  55  80 109 143 180 220 271 324
#     4  10  21  35  53  79 108 141 184 228 269 317
#     4  10  19  32  51  75 104 139 179 221 266 313
#     4  10  21  39  60  79 106 146 187 223 265 324
#     4   9  18  35  59  83 105 136 176 219 268 321
#
# _framework density 21.266135999999999
#
# number of rings (size 3 to 8) (size 9 to 14) (size 15 to 20)
#    0.000    2.125    1.250    1.875    0.000    6.500 
#    0.000    3.125    0.000    3.750    0.000    0.000 
#    0.000    0.000    0.000    0.000    0.000    0.000 
#
# Total GULP energy -178734.038952 kJ/mol
# GULP energy per Si atom -5585.438717 kJ/mol
# Density = 2.121773 g / cm^3
# Si number density = 21.266136 Si / 1000 Ang^3
#
#
#
# Elastic Constant Matrix: (Units=GPa)
#
#
# Indices 1 2 3 4 5 6 
#
# 1 98.8715 -14.3373 31.3583 0.0000 0.1415 -0.0001
# 2 -14.3373 43.9854 -9.1349 0.0001 -4.6576 -0.0005
# 3 31.3583 -9.1349 82.0921 0.0000 -2.1132 0.0000
# 4 0.0000 0.0001 0.0000 12.3963 0.0000 10.2170
# 5 0.1415 -4.6576 -2.1132 0.0000 35.1070 0.0000
# 6 -0.0001 -0.0005 0.0000 10.2170 0.0000 5.1133
#
#
#
# Elastic Compliance Matrix: (Units=1/GPa)
#
#
# Indices 1 2 3 4 5 6 
#
# 1 0.011883 0.003011 -0.004202 0.000001 0.000099 -0.000001
# 2 0.003011 0.024412 0.001652 0.000003 0.003326 -0.000004
# 3 -0.004202 0.001652 0.013998 0.000000 0.001079 0.000000
# 4 0.000001 0.000003 0.000000 -0.124709 0.000000 0.249185
# 5 0.000099 0.003326 0.001079 0.000000 0.028990 -0.000001
# 6 -0.000001 -0.000004 0.000000 0.249185 -0.000001 -0.302336
#
#
# Mechanical properties :
#
#
# Convention : Reuss Voigt Hill
#
# Bulk Modulus (GPa) = 19.52532 26.74681 23.13607
# Shear Modulus (GPa) = -15.07782 24.99417 4.95817
#
# Velocity S-wave (km/s) = -2.66561 3.43199 1.52858
# Velocity P-wave (km/s) = 0.52210 5.32064 3.74410
#
# Compressibility (1/GPa) = 0.05121555
#
# Stress axis : x y z
#
# Youngs Moduli (GPa) = 84.15199 40.96422 71.43880
#
# Poissons Ratio (x) = -0.12335 0.30016
# Poissons Ratio (y) = -0.25340 -0.11800
# Poissons Ratio (z) = 0.35358 -0.06766
#
# Static dielectric constant tensor:
#      x y z
#    x 1.760860 0.000000 -0.011300 
#    y 0.000000 1.801650 0.000000 
#    z -0.011300 0.000000 1.772180 
# 
# From -- ./inp_files/324327.got.cif
#   From: 2010.05.17/outbox.cif.g08.bks.cpg/sg12_163_cif.got.tgz:324327.got - 2010.06.03 13:09:07.
