data_PCOD9180275
_publ_section_title
;
Structure prediction by ZEFSAII (Michael W. Deem and Ramdas Pophale) SiO2 
 PCOD9180275
Probable space group: C 2/M
;
_chemical_formula_sum "Si O2"
_cell_formula_units_Z 64
_cell_length_a 29.130223
_cell_length_b 9.072273
_cell_length_c 21.707077
_cell_angle_alpha 90.000000
_cell_angle_beta 133.059834
_cell_angle_gamma 90.000000
_cell_volume 4191.460330
_symmetry_space_group_name_H-M "C 2/M"
_symmetry_group_IT_number 12
_symmetry_cell_setting 'monoclinic'
loop_
_space_group_symop_operation_xyz
x,y,z
-x,y,-z
-x,-y,-z
x,-y,z
1/2+x,1/2+y,z
1/2-x,1/2+y,-z
1/2-x,1/2-y,-z
1/2+x,1/2-y,z
loop_
_atom_site_type_symbol
_atom_site_label
_atom_site_fract_x
_atom_site_fract_y
_atom_site_fract_z
Si Si1 0.998922 0.176634 0.099852
Si Si2 0.896699 0.822841 0.901154
Si Si3 0.699102 0.177113 0.997669
Si Si4 0.443166 0.177629 0.165632
Si Si5 0.441836 0.669357 0.495069
Si Si6 0.857818 0.676095 0.321263
Si Si7 0.028457 0.323326 0.668323
Si Si8 0.273262 0.176523 0.834390
O O1 0.987140 0.254463 0.153556
O O2 0.062710 0.216186 0.122093
O O3 0.998519 0.000000 0.107102
O O4 0.941616 0.213350 0.000658
O O5 0.831326 0.740426 0.848779
O O6 0.887533 0.000000 0.892968
O O7 0.628629 0.223316 0.914611
O O8 0.702622 0.000000 0.994567
O O9 0.750000 0.250000 0.000000
O O10 0.713139 0.214316 0.081531
O O11 0.461716 0.220372 0.251928
O O12 0.445426 0.000000 0.163915
O O13 0.500000 0.670268 0.500000
O O14 0.423343 0.500000 0.488293
O O15 0.387566 0.760501 0.411366
O O16 0.470441 0.743617 0.582042
O O17 0.851156 0.500000 0.318663
O O18 0.908539 0.709295 0.313552
O O19 0.792085 0.751663 0.245686
O O20 0.019384 0.500000 0.656810
O O21 0.270312 0.000000 0.826391
#
# Coordination Sequence:
#
# PCOD9180275 Si02
#       8
#     8   8   8   8   8   8   8   8
#     4   9  18  32  50  70  91 120 160 203 243 286
#     4   9  18  33  50  68  92 122 159 201 244 289
#     4  10  21  33  44  63  94 131 166 197 229 273
#     4  10  19  32  47  68  97 127 161 199 238 281
#     4   9  17  30  48  70  96 122 156 203 245 278
#     4  10  19  32  50  69  95 131 165 196 237 285
#     4   9  18  31  48  69  96 130 165 196 233 286
#     4  11  21  32  47  70  97 125 162 202 240 281
#
# _framework density 15.269140999999999
#
# number of rings (size 3 to 8) (size 9 to 14) (size 15 to 20)
#    0.000    2.375    1.250    2.625    0.000    5.500 
#    0.000    1.250    0.000    0.000    0.000    0.875 
#    0.000    0.000    0.000    0.000    0.000    0.000 
#
# Total GULP energy -178475.705726 kJ/mol
# GULP energy per Si atom -5577.365804 kJ/mol
# Density = 1.523439 g / cm^3
# Si number density = 15.269141 Si / 1000 Ang^3
#
#
#
# Elastic Constant Matrix: (Units=GPa)
#
#
# Indices 1 2 3 4 5 6 
#
# 1 107.8662 47.8521 73.2548 0.0000 -6.8875 0.0000
# 2 47.8521 45.2318 57.0815 0.0000 -0.7632 0.0000
# 3 73.2548 57.0815 140.4740 0.0000 -8.6948 0.0000
# 4 0.0000 0.0000 0.0000 25.4910 0.0000 -0.4309
# 5 -6.8875 -0.7632 -8.6948 0.0000 9.0746 0.0000
# 6 0.0000 0.0000 0.0000 -0.4309 0.0000 27.2770
#
#
#
# Elastic Compliance Matrix: (Units=1/GPa)
#
#
# Indices 1 2 3 4 5 6 
#
# 1 0.019154 -0.017079 -0.002378 0.000000 0.010822 0.000000
# 2 -0.017079 0.062538 -0.018053 0.000000 -0.025001 0.000000
# 3 -0.002378 -0.018053 0.016466 0.000000 0.012453 0.000000
# 4 0.000000 0.000000 0.000000 0.039240 0.000000 0.000620
# 5 0.010822 -0.025001 0.012453 0.000000 0.128241 0.000000
# 6 0.000000 0.000000 0.000000 0.000620 0.000000 0.036671
#
#
# Mechanical properties :
#
#
# Convention : Reuss Voigt Hill
#
# Bulk Modulus (GPa) = 43.22319 72.21652 57.71986
# Shear Modulus (GPa) = 12.98560 20.06078 16.52319
#
# Velocity S-wave (km/s) = 2.91941 3.62859 3.29314
# Velocity P-wave (km/s) = 6.30341 8.05940 7.23488
#
# Compressibility (1/GPa) = 0.02313573
#
# Stress axis : x y z
#
# Youngs Moduli (GPa) = 52.20908 15.99037 60.73246
#
# Poissons Ratio (x) = 0.27310 0.14444
# Poissons Ratio (y) = 0.89169 1.09640
# Poissons Ratio (z) = 0.12417 0.28867
#
# Static dielectric constant tensor:
#      x y z
#    x 1.486170 0.000000 -0.003940 
#    y 0.000000 1.510040 0.000000 
#    z -0.003940 0.000000 1.492750 
# 
# From -- ./inp_files/326829.got.cif
#   From: 2010.05.17/outbox.cif.g08.bks.cpg/sg12_164_cif.got.tgz:326829.got - 2010.06.03 13:09:07.
