data_PCOD9180823
_publ_section_title
;
Structure prediction by ZEFSAII (Michael W. Deem and Ramdas Pophale) SiO2 
 PCOD9180823
Probable space group: C 2/M
;
_chemical_formula_sum "Si O2"
_cell_formula_units_Z 56
_cell_length_a 29.822525
_cell_length_b 7.696069
_cell_length_c 22.469177
_cell_angle_alpha 90.000000
_cell_angle_beta 148.961658
_cell_angle_gamma 90.000000
_cell_volume 2659.029676
_symmetry_space_group_name_H-M "C 2/M"
_symmetry_group_IT_number 12
_symmetry_cell_setting 'monoclinic'
loop_
_space_group_symop_operation_xyz
x,y,z
-x,y,-z
-x,-y,-z
x,-y,z
1/2+x,1/2+y,z
1/2-x,1/2+y,-z
1/2-x,1/2-y,-z
1/2+x,1/2-y,z
loop_
_atom_site_type_symbol
_atom_site_label
_atom_site_fract_x
_atom_site_fract_y
_atom_site_fract_z
Si Si1 0.254770 0.703055 0.790088
Si Si2 0.410619 0.786432 0.629795
Si Si3 0.456331 0.789934 0.013144
Si Si4 0.618496 0.790226 0.272716
Si Si5 0.215101 0.705897 0.615456
Si Si6 0.724687 0.702533 0.886645
Si Si7 0.606899 0.200035 0.856617
O O1 0.233249 0.500000 0.768198
O O2 0.220746 0.777898 0.688691
O O3 0.218433 0.783946 0.809090
O O4 0.359301 0.721327 0.908647
O O5 0.367722 0.734181 0.643697
O O6 0.357450 0.723776 0.512165
O O7 0.510457 0.725609 0.745024
O O8 0.410029 0.000000 0.627244
O O9 0.523517 0.736070 0.140955
O O10 0.450022 0.000000 0.007001
O O11 0.500000 0.739911 0.000000
O O12 0.692594 0.728189 0.312341
O O13 0.620005 0.000000 0.272884
O O14 0.199649 0.500000 0.603900
O O15 0.721815 0.500000 0.900853
O O16 0.650289 0.792560 0.840746
O O17 0.818714 0.774422 0.015316
O O18 0.595417 0.000000 0.863102
#
# Coordination Sequence:
#
# PCOD9180823 Si02
#       7
#     8   8   8   8   8   8   8
#     4  11  22  34  51  76 108 143 177 211 257 309
#     4   9  18  34  55  76 101 136 177 217 257 306
#     4  10  19  32  51  75 104 136 172 214 261 310
#     4  10  19  33  54  77 102 138 178 215 261 310
#     4  10  21  35  50  73 106 141 178 217 253 299
#     4  10  20  35  58  84 108 132 165 212 266 317
#     4   9  18  36  60  82 104 131 169 215 263 312
#
# _framework density 21.060313000000001
#
# number of rings (size 3 to 8) (size 9 to 14) (size 15 to 20)
#    0.000    2.143    1.429    2.143    0.000    4.286 
#    0.000    2.143    0.000    4.286    0.000    0.000 
#    0.000    0.000    0.000    0.000    0.000    0.000 
#
# Total GULP energy -156375.634651 kJ/mol
# GULP energy per Si atom -5584.844095 kJ/mol
# Density = 2.101238 g / cm^3
# Si number density = 21.060313 Si / 1000 Ang^3
#
#
#
# Elastic Constant Matrix: (Units=GPa)
#
#
# Indices 1 2 3 4 5 6 
#
# 1 91.1682 -7.0271 37.7398 0.0000 -36.3053 0.0000
# 2 -7.0271 36.0542 0.5298 0.0000 -3.0464 0.0000
# 3 37.7398 0.5298 90.3502 0.0000 -30.9742 0.0000
# 4 0.0000 0.0000 0.0000 2.2222 0.0000 0.1292
# 5 -36.3053 -3.0464 -30.9742 0.0000 31.6260 0.0000
# 6 0.0000 0.0000 0.0000 0.1292 0.0000 20.3739
#
#
#
# Elastic Compliance Matrix: (Units=1/GPa)
#
#
# Indices 1 2 3 4 5 6 
#
# 1 0.021571 0.006312 -0.000526 0.000000 0.024855 0.000000
# 2 0.006312 0.029889 0.000993 0.000000 0.011097 0.000000
# 3 -0.000526 0.000993 0.016722 0.000000 0.015869 0.000000
# 4 0.000000 0.000000 0.000000 0.450166 0.000000 -0.002854
# 5 0.024855 0.011097 0.015869 0.000000 0.076763 0.000000
# 6 0.000000 0.000000 0.000000 -0.002854 0.000000 0.049100
#
#
# Mechanical properties :
#
#
# Convention : Reuss Voigt Hill
#
# Bulk Modulus (GPa) = 12.23401 31.11752 21.67576
# Shear Modulus (GPa) = 7.59991 23.26644 15.43317
#
# Velocity S-wave (km/s) = 1.90170 3.32739 2.70998
# Velocity P-wave (km/s) = 3.26245 5.43779 4.48403
#
# Compressibility (1/GPa) = 0.08173933
#
# Stress axis : x y z
#
# Youngs Moduli (GPa) = 46.35831 33.45673 59.79999
#
# Poissons Ratio (x) = -0.21118 0.03148
# Poissons Ratio (y) = -0.29262 -0.05935
# Poissons Ratio (z) = 0.02441 -0.03321
#
# Static dielectric constant tensor:
#      x y z
#    x 1.728440 0.000000 -0.025700 
#    y 0.000000 1.807430 0.000000 
#    z -0.025700 0.000000 1.769570 
# 
# From -- ./inp_files/237388.got.cif
#   From: 2010.05.17/outbox.cif.g08.bks.cpg/sg12_119_cif.got.tgz:237388.got - 2010.06.03 13:09:07.
