data_PCOD9180091
_publ_section_title
;
Structure prediction by ZEFSAII (Michael W. Deem and Ramdas Pophale) SiO2 
 PCOD9180091
Probable space group: C 2/M
;
_chemical_formula_sum "Si O2"
_cell_formula_units_Z 56
_cell_length_a 17.834389
_cell_length_b 13.706953
_cell_length_c 14.485589
_cell_angle_alpha 90.000000
_cell_angle_beta 44.501499
_cell_angle_gamma 90.000000
_cell_volume 2482.039449
_symmetry_space_group_name_H-M "C 2/M"
_symmetry_group_IT_number 12
_symmetry_cell_setting 'monoclinic'
loop_
_space_group_symop_operation_xyz
x,y,z
-x,y,-z
-x,-y,-z
x,-y,z
1/2+x,1/2+y,z
1/2-x,1/2+y,-z
1/2-x,1/2-y,-z
1/2+x,1/2-y,z
loop_
_atom_site_type_symbol
_atom_site_label
_atom_site_fract_x
_atom_site_fract_y
_atom_site_fract_z
Si Si1 0.210169 0.696018 0.396512
Si Si2 0.293181 0.888981 0.401291
Si Si3 0.767452 0.391494 0.115520
Si Si4 0.936052 0.114597 0.151664
Si Si5 0.539348 0.883123 0.179254
Si Si6 0.649011 0.609622 0.024831
Si Si7 0.156068 0.704617 0.252552
O O1 0.213997 0.807103 0.430576
O O2 0.196709 0.628816 0.497670
O O3 0.329736 0.674819 0.255129
O O4 0.134747 0.671236 0.375819
O O5 0.415678 0.873338 0.261118
O O6 0.260526 0.000000 0.411013
O O7 0.776309 0.500000 0.148177
O O8 0.704116 0.395142 0.074538
O O9 0.693500 0.316583 0.234842
O O10 0.883800 0.358250 0.975428
O O11 0.028488 0.146613 0.141753
O O12 0.909107 0.000000 0.187614
O O13 0.000000 0.127704 0.000000
O O14 0.573912 0.824834 0.242716
O O15 0.559128 0.000000 0.180597
O O16 0.637412 0.500000 0.997726
O O17 0.733101 0.661344 0.885533
#
# Coordination Sequence:
#
# PCOD9180091 Si02
#       7
#     8   8   8   8   8   8   8
#     4  11  24  37  58  83 109 146 192 233 281 337
#     4  10  24  44  59  77 108 152 196 237 277 331
#     4   9  19  33  52  83 116 148 178 215 275 337
#     4  10  19  31  53  84 115 142 173 228 285 333
#     4   9  19  36  60  84 113 148 186 226 275 331
#     4   9  17  30  49  80 113 142 174 214 273 330
#     4  11  20  32  56  86 113 143 177 235 278 328
#
# _framework density 22.562092
#
# number of rings (size 3 to 8) (size 9 to 14) (size 15 to 20)
#    0.000    2.143    1.429    3.429    4.000    2.857 
#    0.000    1.429    0.000    3.000    0.000    3.000 
#    0.000    0.000    0.000    0.000    0.000    0.000 
#
# Total GULP energy -156166.719547 kJ/mol
# GULP energy per Si atom -5577.382841 kJ/mol
# Density = 2.251074 g / cm^3
# Si number density = 22.562092 Si / 1000 Ang^3
#
#
#
# Elastic Constant Matrix: (Units=GPa)
#
#
# Indices 1 2 3 4 5 6 
#
# 1 17.2989 -4.9129 -2.4242 0.0000 -0.7178 0.0000
# 2 -4.9129 77.5541 -5.7769 0.0000 3.1466 0.0000
# 3 -2.4242 -5.7769 24.8030 0.0000 5.5520 0.0000
# 4 0.0000 0.0000 0.0000 18.2787 0.0000 -8.4470
# 5 -0.7178 3.1466 5.5520 0.0000 28.8007 0.0000
# 6 0.0000 0.0000 0.0000 -8.4470 0.0000 12.3961
#
#
#
# Elastic Compliance Matrix: (Units=1/GPa)
#
#
# Indices 1 2 3 4 5 6 
#
# 1 0.059997 0.004331 0.006943 0.000000 -0.000316 0.000000
# 2 0.004331 0.013559 0.004064 0.000000 -0.002157 0.000000
# 3 0.006943 0.004064 0.043898 0.000000 -0.008733 0.000000
# 4 0.000000 0.000000 0.000000 0.079855 0.000000 0.054415
# 5 -0.000316 -0.002157 -0.008733 0.000000 0.036633 0.000000
# 6 0.000000 0.000000 0.000000 0.054415 0.000000 0.117750
#
#
# Mechanical properties :
#
#
# Convention : Reuss Voigt Hill
#
# Bulk Modulus (GPa) = 6.75082 10.38089 8.56585
# Shear Modulus (GPa) = 13.49923 20.74644 17.12283
#
# Velocity S-wave (km/s) = 2.44870 3.03566 2.75784
# Velocity P-wave (km/s) = 3.31564 4.11072 3.73440
#
# Compressibility (1/GPa) = 0.14813019
#
# Stress axis : x y z
#
# Youngs Moduli (GPa) = 16.66752 73.75279 22.78016
#
# Poissons Ratio (x) = -0.31940 -0.15817
# Poissons Ratio (y) = -0.07218 -0.09258
# Poissons Ratio (z) = -0.11573 -0.29974
#
# Static dielectric constant tensor:
#      x y z
#    x 1.899760 0.000000 0.020700 
#    y 0.000000 1.979970 0.000000 
#    z 0.020700 0.000000 1.840750 
# 
# From -- ./inp_files/233682.got.cif
#   From: 2010.05.17/outbox.cif.g08.bks.cpg/sg12_117_cif.got.tgz:233682.got - 2010.06.03 13:09:07.
