data_PCOD9180109
_publ_section_title
;
Structure prediction by ZEFSAII (Michael W. Deem and Ramdas Pophale) SiO2 
 PCOD9180109
Probable space group: C 2/M
;
_chemical_formula_sum "Si O2"
_cell_formula_units_Z 56
_cell_length_a 21.549041
_cell_length_b 10.922201
_cell_length_c 12.519714
_cell_angle_alpha 90.000000
_cell_angle_beta 76.912653
_cell_angle_gamma 90.000000
_cell_volume 2870.139913
_symmetry_space_group_name_H-M "C 2/M"
_symmetry_group_IT_number 12
_symmetry_cell_setting 'monoclinic'
loop_
_space_group_symop_operation_xyz
x,y,z
-x,y,-z
-x,-y,-z
x,-y,z
1/2+x,1/2+y,z
1/2-x,1/2+y,-z
1/2-x,1/2-y,-z
1/2+x,1/2-y,z
loop_
_atom_site_type_symbol
_atom_site_label
_atom_site_fract_x
_atom_site_fract_y
_atom_site_fract_z
Si Si1 0.296718 0.866060 0.961783
Si Si2 0.062416 0.143459 0.603394
Si Si3 0.143514 0.858234 0.372803
Si Si4 0.552910 0.641110 0.213081
Si Si5 0.369486 0.360015 0.209348
Si Si6 0.220863 0.361983 0.273370
Si Si7 0.929980 0.298974 0.005931
O O1 0.312479 0.862927 0.829542
O O2 0.265126 0.000000 0.994723
O O3 0.250000 0.750000 0.000000
O O4 0.362984 0.863476 0.001291
O O5 0.089064 0.181525 0.478858
O O6 0.117593 0.155101 0.670050
O O7 0.001836 0.197286 0.688743
O O8 0.046121 0.000000 0.594341
O O9 0.114201 0.861735 0.265582
O O10 0.195755 0.751658 0.351568
O O11 0.162503 0.000000 0.391880
O O12 0.535831 0.500000 0.194898
O O13 0.560969 0.711013 0.099984
O O14 0.385405 0.500000 0.175701
O O15 0.295083 0.342202 0.218810
O O16 0.412155 0.274377 0.119910
O O17 0.213833 0.500000 0.322558
O O18 0.000000 0.357833 0.000000
#
# Coordination Sequence:
#
# PCOD9180109 Si02
#       7
#     8   8   8   8   8   8   8
#     4  11  24  42  64  90 124 165 205 249 302 364
#     4   9  18  33  53  81 117 152 190 247 304 347
#     4  10  20  35  58  85 113 148 197 251 299 350
#     4  10  19  31  53  86 117 150 194 247 298 355
#     4  10  20  34  53  84 121 156 195 245 302 361
#     4  10  21  38  58  82 115 153 196 246 300 360
#     4  12  22  35  59  90 123 161 201 246 304 369
#
# _framework density 19.511244000000001
#
# number of rings (size 3 to 8) (size 9 to 14) (size 15 to 20)
#    0.000    1.714    4.286    0.857    0.000    4.286 
#    0.000    0.000    0.000    3.429    0.000    0.000 
#    0.000    0.000    0.000    0.000    0.000    0.000 
#
# Total GULP energy -155906.779574 kJ/mol
# GULP energy per Si atom -5568.099271 kJ/mol
# Density = 1.946684 g / cm^3
# Si number density = 19.511244 Si / 1000 Ang^3
#
#
#
# Elastic Constant Matrix: (Units=GPa)
#
#
# Indices 1 2 3 4 5 6 
#
# 1 68.8228 29.8163 -1.6751 0.0000 1.2284 0.0000
# 2 29.8163 105.8123 34.3788 0.0000 -22.8200 0.0000
# 3 -1.6751 34.3788 69.4608 0.0000 -0.6642 0.0000
# 4 0.0000 0.0000 0.0000 17.4668 0.0000 -0.5829
# 5 1.2284 -22.8200 -0.6642 0.0000 23.7093 0.0000
# 6 0.0000 0.0000 0.0000 -0.5829 0.0000 12.1483
#
#
#
# Elastic Compliance Matrix: (Units=1/GPa)
#
#
# Indices 1 2 3 4 5 6 
#
# 1 0.018610 -0.008772 0.004702 0.000000 -0.009276 0.000000
# 2 -0.008772 0.018959 -0.009419 0.000000 0.018439 0.000000
# 3 0.004702 -0.009419 0.019088 0.000000 -0.008775 0.000000
# 4 0.000000 0.000000 0.000000 0.057343 0.000000 0.002751
# 5 -0.009276 0.018439 -0.008775 0.000000 0.060160 0.000000
# 6 0.000000 0.000000 0.000000 0.002751 0.000000 0.082448
#
#
# Mechanical properties :
#
#
# Convention : Reuss Voigt Hill
#
# Bulk Modulus (GPa) = 33.69379 41.01508 37.35443
# Shear Modulus (GPa) = 17.03690 22.76995 19.90342
#
# Velocity S-wave (km/s) = 2.95817 3.41987 3.19737
# Velocity P-wave (km/s) = 5.38276 6.05482 5.72866
#
# Compressibility (1/GPa) = 0.02967906
#
# Stress axis : x y z
#
# Youngs Moduli (GPa) = 53.73318 52.74406 52.38920
#
# Poissons Ratio (x) = 0.46268 -0.24632
# Poissons Ratio (y) = 0.47136 0.49345
# Poissons Ratio (z) = -0.25264 0.49680
#
# Static dielectric constant tensor:
#      x y z
#    x 1.754760 0.000000 0.004750 
#    y 0.000000 1.711660 0.000000 
#    z 0.004750 0.000000 1.673280 
# 
# From -- ./inp_files/165009.got.cif
#   From: 2010.05.17/outbox.cif.g08.bks.cpg/sg12_83_cif.got.tgz:165009.got - 2010.06.03 13:09:07.
