data_PCOD9180661
_publ_section_title
;
Structure prediction by ZEFSAII (Michael W. Deem and Ramdas Pophale) SiO2 
 PCOD9180661
Probable space group: C 2/M
;
_chemical_formula_sum "Si O2"
_cell_formula_units_Z 52
_cell_length_a 20.659207
_cell_length_b 20.406631
_cell_length_c 13.988811
_cell_angle_alpha 90.000000
_cell_angle_beta 24.240074
_cell_angle_gamma 90.000000
_cell_volume 2421.270657
_symmetry_space_group_name_H-M "C 2/M"
_symmetry_group_IT_number 12
_symmetry_cell_setting 'monoclinic'
loop_
_space_group_symop_operation_xyz
x,y,z
-x,y,-z
-x,-y,-z
x,-y,z
1/2+x,1/2+y,z
1/2-x,1/2+y,-z
1/2-x,1/2-y,-z
1/2+x,1/2-y,z
loop_
_atom_site_type_symbol
_atom_site_label
_atom_site_fract_x
_atom_site_fract_y
_atom_site_fract_z
Si Si1 0.000000 0.174738 0.000000
Si Si2 0.236899 0.790145 0.173024
Si Si3 0.075686 0.576036 0.555288
Si Si4 0.399744 0.425773 0.996908
Si Si5 0.788601 0.227233 0.593455
Si Si6 0.259156 0.151035 0.938669
Si Si7 0.420319 0.167260 0.276728
O O1 0.013050 0.126846 0.892479
O O2 0.848167 0.219930 0.198008
O O3 0.134525 0.790212 0.408262
O O4 0.246679 0.715586 0.120344
O O5 0.211848 0.830571 0.109874
O O6 0.398883 0.822779 0.995999
O O7 0.027095 0.500000 0.621535
O O8 0.235299 0.579884 0.278355
O O9 0.102589 0.604830 0.624915
O O10 0.935074 0.620727 0.703154
O O11 0.456360 0.500000 0.928038
O O12 0.356584 0.402622 0.949856
O O13 0.700999 0.173131 0.647107
O O14 0.898139 0.268428 0.374681
#
# Coordination Sequence:
#
# PCOD9180661 Si02
#       7
#     4   8   8   8   8   8   8
#     4  12  19  34  52  76 111 136 172 220 268 318
#     4  10  19  33  51  77 105 135 175 223 261 316
#     4  10  20  33  51  77 108 140 179 219 261 322
#     4  11  21  33  50  76 109 143 177 216 264 323
#     4  11  19  32  54  79 110 140 173 225 268 318
#     4  10  19  32  51  70 103 137 170 211 263 310
#     4  10  19  32  54  78 108 144 174 216 279 314
#
# _framework density 21.476327000000001
#
# number of rings (size 3 to 8) (size 9 to 14) (size 15 to 20)
#    0.000    1.538    4.615    1.154    0.000    2.462 
#    0.000    2.308    0.000    8.308    0.000    0.000 
#    0.000   18.154    0.000    0.000    0.000    0.000 
#
# Total GULP energy -145278.287921 kJ/mol
# GULP energy per Si atom -5587.626459 kJ/mol
# Density = 2.142745 g / cm^3
# Si number density = 21.476327 Si / 1000 Ang^3
#
#
#
# Elastic Constant Matrix: (Units=GPa)
#
#
# Indices 1 2 3 4 5 6 
#
# 1 124.3438 28.9258 10.8406 -0.0003 26.5504 0.0005
# 2 28.9258 84.1599 14.4269 0.0001 0.4733 -0.0003
# 3 10.8406 14.4269 42.4260 -0.0028 0.7344 0.0001
# 4 -0.0003 0.0001 -0.0028 15.6077 0.0003 5.7048
# 5 26.5504 0.4733 0.7344 0.0003 27.1855 0.0003
# 6 0.0005 -0.0003 0.0001 5.7048 0.0003 24.4981
#
#
#
# Elastic Compliance Matrix: (Units=1/GPa)
#
#
# Indices 1 2 3 4 5 6 
#
# 1 0.011351 -0.003584 -0.001492 0.000000 -0.010983 0.000000
# 2 -0.003584 0.013750 -0.003818 -0.000001 0.003364 0.000000
# 3 -0.001492 -0.003818 0.025235 0.000005 0.000842 -0.000001
# 4 0.000000 -0.000001 0.000005 0.070031 -0.000001 -0.016308
# 5 -0.010983 0.003364 0.000842 -0.000001 0.047430 0.000000
# 6 0.000000 0.000000 -0.000001 -0.016308 0.000000 0.044617
#
#
# Mechanical properties :
#
#
# Convention : Reuss Voigt Hill
#
# Bulk Modulus (GPa) = 30.72291 39.92402 35.32347
# Shear Modulus (GPa) = 20.74250 26.57403 23.65826
#
# Velocity S-wave (km/s) = 3.11115 3.52143 3.32263
# Velocity P-wave (km/s) = 5.21941 5.92994 5.58598
#
# Compressibility (1/GPa) = 0.03254900
#
# Stress axis : x y z
#
# Youngs Moduli (GPa) = 88.09639 72.72981 39.62702
#
# Poissons Ratio (x) = 0.26066 0.05911
# Poissons Ratio (y) = 0.31573 0.15129
# Poissons Ratio (z) = 0.13141 0.27768
#
# Static dielectric constant tensor:
#      x y z
#    x 1.857260 0.000000 -0.005800 
#    y 0.000000 1.747310 0.000000 
#    z -0.005800 0.000000 1.859860 
# 
# From -- ./inp_files/235049.got.cif
#   From: 2010.05.17/outbox.cif.g08.bks.cpg/sg12_118_cif.got.tgz:235049.got - 2010.06.03 13:09:07.
