data_PCOD9180441
_publ_section_title
;
Structure prediction by ZEFSAII (Michael W. Deem and Ramdas Pophale) SiO2 
 PCOD9180441
Probable space group: C 2/M
;
_chemical_formula_sum "Si O2"
_cell_formula_units_Z 56
_cell_length_a 28.126156
_cell_length_b 16.331525
_cell_length_c 8.546141
_cell_angle_alpha 90.000000
_cell_angle_beta 125.292171
_cell_angle_gamma 90.000000
_cell_volume 3204.147995
_symmetry_space_group_name_H-M "C 2/M"
_symmetry_group_IT_number 12
_symmetry_cell_setting 'monoclinic'
loop_
_space_group_symop_operation_xyz
x,y,z
-x,y,-z
-x,-y,-z
x,-y,z
1/2+x,1/2+y,z
1/2-x,1/2+y,-z
1/2-x,1/2-y,-z
1/2+x,1/2-y,z
loop_
_atom_site_type_symbol
_atom_site_label
_atom_site_fract_x
_atom_site_fract_y
_atom_site_fract_z
Si Si1 0.688973 0.785053 0.941029
Si Si2 0.329382 0.096525 0.820268
Si Si3 0.932325 0.292907 0.878239
Si Si4 0.702135 0.403476 0.474882
Si Si5 0.375192 0.654398 0.959946
Si Si6 0.128305 0.223973 0.537881
Si Si7 0.430772 0.412458 0.367445
O O1 0.653008 0.787233 0.711966
O O2 0.750000 0.750000 0.000000
O O3 0.687771 0.866705 0.042277
O O4 0.662430 0.717462 0.008063
O O5 0.386877 0.142185 0.865945
O O6 0.271890 0.111557 0.603251
O O7 0.339220 0.000000 0.847111
O O8 0.922903 0.209580 0.960574
O O9 0.908567 0.270062 0.662392
O O10 0.000000 0.317080 0.000000
O O11 0.694655 0.500000 0.505813
O O12 0.666918 0.388119 0.246713
O O13 0.675899 0.334891 0.543042
O O14 0.406387 0.597550 0.145746
O O15 0.090622 0.160790 0.566548
O O16 0.500000 0.411565 0.500000
O O17 0.410104 0.500000 0.391880
#
# Coordination Sequence:
#
# PCOD9180441 Si02
#       7
#     8   8   8   8   8   8   8
#     4  10  19  34  55  79 106 139 169 212 268 322
#     4  10  22  38  56  80 110 140 175 223 276 323
#     4  10  21  37  58  78 103 143 188 228 265 311
#     4  10  19  33  52  80 113 140 171 219 274 321
#     4   9  20  32  52  78 108 140 183 218 260 319
#     4  10  20  33  56  79 106 138 182 219 263 323
#     4  10  19  32  49  75 112 148 180 217 262 313
#
# _framework density 17.477346000000001
#
# number of rings (size 3 to 8) (size 9 to 14) (size 15 to 20)
#    0.000    2.143    1.429    1.714    2.000    2.000 
#    0.000    1.429    0.000    7.714    0.000    0.000 
#    0.000    0.000    0.000    0.000    0.000    0.000 
#
# Total GULP energy -156017.284905 kJ/mol
# GULP energy per Si atom -5572.045889 kJ/mol
# Density = 1.743757 g / cm^3
# Si number density = 17.477346 Si / 1000 Ang^3
#
#
#
# Elastic Constant Matrix: (Units=GPa)
#
#
# Indices 1 2 3 4 5 6 
#
# 1 89.9067 28.2198 61.7602 0.0000 10.3224 0.0000
# 2 28.2198 72.9620 45.5990 0.0000 7.2121 0.0000
# 3 61.7602 45.5990 98.3693 0.0000 1.9526 0.0000
# 4 0.0000 0.0000 0.0000 5.5123 0.0000 2.7129
# 5 10.3224 7.2121 1.9526 0.0000 31.7512 0.0000
# 6 0.0000 0.0000 0.0000 2.7129 0.0000 11.2655
#
#
#
# Elastic Compliance Matrix: (Units=1/GPa)
#
#
# Indices 1 2 3 4 5 6 
#
# 1 0.020651 0.000906 -0.013264 0.000000 -0.006104 0.000000
# 2 0.000906 0.019814 -0.009670 0.000000 -0.004200 0.000000
# 3 -0.013264 -0.009670 0.022875 0.000000 0.005102 0.000000
# 4 0.000000 0.000000 0.000000 0.205803 0.000000 -0.049560
# 5 -0.006104 -0.004200 0.005102 0.000000 0.034120 0.000000
# 6 0.000000 0.000000 0.000000 -0.049560 0.000000 0.100702
#
#
# Mechanical properties :
#
#
# Convention : Reuss Voigt Hill
#
# Bulk Modulus (GPa) = 51.85960 59.15512 55.50736
# Shear Modulus (GPa) = 11.00236 18.08307 14.54271
#
# Velocity S-wave (km/s) = 2.51175 3.22010 2.88773
# Velocity P-wave (km/s) = 6.17647 6.90982 6.55341
#
# Compressibility (1/GPa) = 0.01928283
#
# Stress axis : x y z
#
# Youngs Moduli (GPa) = 48.42466 50.46883 43.71628
#
# Poissons Ratio (x) = -0.04571 0.57985
# Poissons Ratio (y) = -0.04386 0.42274
# Poissons Ratio (z) = 0.64231 0.48804
#
# Static dielectric constant tensor:
#      x y z
#    x 1.590610 0.000000 0.002170 
#    y 0.000000 1.587630 0.000000 
#    z 0.002170 0.000000 1.620320 
# 
# From -- ./inp_files/112659.got.cif
#   From: 2010.05.17/outbox.cif.g08.bks.cpg/sg12_57_cif.got.tgz:112659.got - 2010.06.03 13:09:07.
