data_PCOD9180982
_publ_section_title
;
Structure prediction by ZEFSAII (Michael W. Deem and Ramdas Pophale) SiO2 
 PCOD9180982
Probable space group: C 2/M
;
_chemical_formula_sum "Si O2"
_cell_formula_units_Z 64
_cell_length_a 22.273096
_cell_length_b 8.600054
_cell_length_c 19.682126
_cell_angle_alpha 90.000000
_cell_angle_beta 119.403156
_cell_angle_gamma 90.000000
_cell_volume 3284.468085
_symmetry_space_group_name_H-M "C 2/M"
_symmetry_group_IT_number 12
_symmetry_cell_setting 'monoclinic'
loop_
_space_group_symop_operation_xyz
x,y,z
-x,y,-z
-x,-y,-z
x,-y,z
1/2+x,1/2+y,z
1/2-x,1/2+y,-z
1/2-x,1/2-y,-z
1/2+x,1/2-y,z
loop_
_atom_site_type_symbol
_atom_site_label
_atom_site_fract_x
_atom_site_fract_y
_atom_site_fract_z
Si Si1 0.890665 0.816196 0.973949
Si Si2 0.850143 0.815816 0.589325
Si Si3 0.387792 0.815750 0.830464
Si Si4 0.737318 0.317650 0.882523
Si Si5 0.764776 0.317981 0.259384
Si Si6 0.107246 0.686164 0.881219
Si Si7 0.216738 0.815702 0.588371
Si Si8 0.971117 0.684542 0.738144
O O1 0.917688 0.743440 0.918658
O O2 0.808628 0.776230 0.928508
O O3 0.901466 0.000000 0.980238
O O4 0.916872 0.740028 0.057820
O O5 0.834115 0.775706 0.502096
O O6 0.792820 0.728664 0.602878
O O7 0.925377 0.771035 0.657266
O O8 0.838498 0.000000 0.590761
O O9 0.316264 0.724967 0.779467
O O10 0.434712 0.791176 0.791055
O O11 0.372932 0.000000 0.828010
O O12 0.751960 0.500000 0.898444
O O13 0.710275 0.279358 0.791677
O O14 0.679904 0.262371 0.903193
O O15 0.772957 0.500000 0.250124
O O16 0.797231 0.271354 0.349234
O O17 0.113649 0.500000 0.884511
O O18 0.049894 0.732181 0.793843
O O19 0.214860 0.000000 0.599467
O O20 0.968994 0.500000 0.722867
#
# Coordination Sequence:
#
# PCOD9180982 Si02
#       8
#     8   8   8   8   8   8   8   8
#     4  11  22  37  57  82 108 139 178 230 277 320
#     4  10  20  32  52  80 112 146 181 222 264 314
#     4  10  19  34  54  79 109 145 179 219 270 325
#     4  11  22  38  59  82 107 140 178 229 278 321
#     4  11  20  32  54  84 111 142 178 225 273 318
#     4  11  23  40  57  78 106 144 186 225 269 327
#     4  10  19  32  51  80 114 146 179 218 268 320
#     4  10  22  37  56  77 110 150 182 219 270 326
#
# _framework density 19.485652000000002
#
# number of rings (size 3 to 8) (size 9 to 14) (size 15 to 20)
#    0.000    1.500    1.250    6.750    0.000    3.500 
#    0.000    2.500    0.000    0.750    0.000    5.250 
#    0.000    0.000    0.000    0.000    0.000    0.000 
#
# Total GULP energy -178851.790990 kJ/mol
# GULP energy per Si atom -5589.118468 kJ/mol
# Density = 1.944130 g / cm^3
# Si number density = 19.485652 Si / 1000 Ang^3
#
#
#
# Elastic Constant Matrix: (Units=GPa)
#
#
# Indices 1 2 3 4 5 6 
#
# 1 17.2132 0.4880 3.0705 0.0000 1.6421 0.0000
# 2 0.4880 38.1522 3.4277 0.0000 -2.2419 0.0000
# 3 3.0705 3.4277 98.5900 0.0000 -4.1534 0.0000
# 4 0.0000 0.0000 0.0000 31.9362 0.0000 -5.9269
# 5 1.6421 -2.2419 -4.1534 0.0000 23.0026 0.0000
# 6 0.0000 0.0000 0.0000 -5.9269 0.0000 17.3288
#
#
#
# Elastic Compliance Matrix: (Units=1/GPa)
#
#
# Indices 1 2 3 4 5 6 
#
# 1 0.058920 -0.000847 -0.002001 0.000000 -0.004650 0.000000
# 2 -0.000847 0.026439 -0.000788 0.000000 0.002495 0.000000
# 3 -0.002001 -0.000788 0.010314 0.000000 0.001928 0.000000
# 4 0.000000 0.000000 0.000000 0.033435 0.000000 0.011436
# 5 -0.004650 0.002495 0.001928 0.000000 0.044397 0.000000
# 6 0.000000 0.000000 0.000000 0.011436 0.000000 0.061619
#
#
# Mechanical properties :
#
#
# Convention : Reuss Voigt Hill
#
# Bulk Modulus (GPa) = 11.31221 18.65866 14.98544
# Shear Modulus (GPa) = 18.39171 24.25148 21.32160
#
# Velocity S-wave (km/s) = 3.07556 3.53169 3.31149
# Velocity P-wave (km/s) = 4.29303 5.12121 4.72530
#
# Compressibility (1/GPa) = 0.08840003
#
# Stress axis : x y z
#
# Youngs Moduli (GPa) = 16.97229 37.82289 96.95586
#
# Poissons Ratio (x) = 0.03204 0.19405
# Poissons Ratio (y) = 0.01438 0.07637
# Poissons Ratio (z) = 0.03397 0.02979
#
# Static dielectric constant tensor:
#      x y z
#    x 1.671760 0.000000 -0.001100 
#    y 0.000000 1.650810 0.000000 
#    z -0.001100 0.000000 1.725620 
# 
# From -- ./inp_files/324273.got.cif
#   From: 2010.05.17/outbox.cif.g08.bks.cpg/sg12_163_cif.got.tgz:324273.got - 2010.06.03 13:09:07.
