data_PCOD9180712
_publ_section_title
;
Structure prediction by ZEFSAII (Michael W. Deem and Ramdas Pophale) SiO2 
 PCOD9180712
Probable space group: C 2/M
;
_chemical_formula_sum "Si O2"
_cell_formula_units_Z 56
_cell_length_a 13.835702
_cell_length_b 13.563933
_cell_length_c 22.161479
_cell_angle_alpha 90.000000
_cell_angle_beta 149.183680
_cell_angle_gamma 90.000000
_cell_volume 2130.587340
_symmetry_space_group_name_H-M "C 2/M"
_symmetry_group_IT_number 12
_symmetry_cell_setting 'monoclinic'
loop_
_space_group_symop_operation_xyz
x,y,z
-x,y,-z
-x,-y,-z
x,-y,z
1/2+x,1/2+y,z
1/2-x,1/2+y,-z
1/2-x,1/2-y,-z
1/2+x,1/2-y,z
loop_
_atom_site_type_symbol
_atom_site_label
_atom_site_fract_x
_atom_site_fract_y
_atom_site_fract_z
Si Si1 0.272904 0.321078 0.156895
Si Si2 0.378159 0.888625 0.798237
Si Si3 0.245217 0.606232 0.443280
Si Si4 0.776613 0.825830 0.590236
Si Si5 0.196284 0.108755 0.958309
Si Si6 0.291087 0.681517 0.731172
Si Si7 0.815677 0.608200 0.197439
O O1 0.158528 0.368477 0.150126
O O2 0.495014 0.318000 0.292891
O O3 0.258364 0.381195 0.088162
O O4 0.222596 0.205856 0.119392
O O5 0.261578 0.798714 0.708024
O O6 0.319438 0.000000 0.752894
O O7 0.600790 0.879606 0.902460
O O8 0.338329 0.500000 0.478893
O O9 0.315788 0.716902 0.466603
O O10 0.220379 0.610763 0.502632
O O11 0.037831 0.604487 0.302169
O O12 0.747120 0.863870 0.642469
O O13 0.014178 0.176009 0.868288
O O14 0.126258 0.000000 0.935277
O O15 0.195032 0.631482 0.736511
O O16 0.735037 0.500000 0.140966
#
# Coordination Sequence:
#
# PCOD9180712 Si02
#       7
#     8   8   8   8   8   8   8
#     4   9  18  32  51  72  97 127 161 204 239 276
#     4  10  20  33  50  72  98 129 162 197 241 288
#     4   9  18  33  52  71  94 124 159 198 237 282
#     4   9  19  33  49  73  97 123 159 197 239 284
#     4  10  19  32  51  73  96 126 165 203 238 280
#     4  10  20  33  50  72 101 129 157 198 242 287
#     4   9  18  33  51  72  99 130 161 195 239 287
#
# _framework density 26.283833000000001
#
# number of rings (size 3 to 8) (size 9 to 14) (size 15 to 20)
#    0.000    2.571    0.000    1.714    0.000    5.714 
#    0.000    3.571    0.000    7.714    0.000    8.000 
#    0.000    0.000    0.000    0.000    0.000    0.000 
#
# Total GULP energy -156482.693476 kJ/mol
# GULP energy per Si atom -5588.667624 kJ/mol
# Density = 2.622401 g / cm^3
# Si number density = 26.283833 Si / 1000 Ang^3
#
#
#
# Elastic Constant Matrix: (Units=GPa)
#
#
# Indices 1 2 3 4 5 6 
#
# 1 80.4780 -9.5125 12.6983 0.0000 -13.5595 0.0000
# 2 -9.5125 167.8855 13.7117 0.0004 1.5035 0.0000
# 3 12.6983 13.7117 100.9284 0.0016 5.7749 0.0001
# 4 0.0000 0.0004 0.0016 8.6377 0.0001 4.5928
# 5 -13.5595 1.5035 5.7749 0.0001 40.8137 0.0000
# 6 0.0000 0.0000 0.0001 4.5928 0.0000 13.9290
#
#
#
# Elastic Compliance Matrix: (Units=1/GPa)
#
#
# Indices 1 2 3 4 5 6 
#
# 1 0.013678 0.000905 -0.002119 0.000000 0.004811 0.000000
# 2 0.000905 0.006084 -0.000952 0.000000 0.000211 0.000000
# 3 -0.002119 -0.000952 0.010427 -0.000002 -0.002144 0.000001
# 4 0.000000 0.000000 -0.000002 0.140384 0.000000 -0.046289
# 5 0.004811 0.000211 -0.002144 0.000000 0.026395 0.000000
# 6 0.000000 0.000000 0.000001 -0.046289 0.000000 0.087055
#
#
# Mechanical properties :
#
#
# Convention : Reuss Voigt Hill
#
# Bulk Modulus (GPa) = 38.67740 42.56520 40.62130
# Shear Modulus (GPa) = 16.83647 34.83571 25.83609
#
# Velocity S-wave (km/s) = 2.53368 3.64451 3.13863
# Velocity P-wave (km/s) = 4.82769 5.82576 5.35005
#
# Compressibility (1/GPa) = 0.02585489
#
# Stress axis : x y z
#
# Youngs Moduli (GPa) = 73.11220 164.37602 95.90754
#
# Poissons Ratio (x) = -0.14876 0.20323
# Poissons Ratio (y) = -0.06616 0.09135
# Poissons Ratio (z) = 0.15493 0.15656
#
# Static dielectric constant tensor:
#      x y z
#    x 2.042420 0.000000 -0.001660 
#    y 0.000000 2.036800 0.000000 
#    z -0.001660 0.000000 2.060250 
# 
# From -- ./inp_files/276927.got.cif
#   From: 2010.05.17/outbox.cif.g08.bks.cpg/sg12_139_cif.got.tgz:276927.got - 2010.06.03 13:09:07.
