data_PCOD9180422
_publ_section_title
;
Structure prediction by ZEFSAII (Michael W. Deem and Ramdas Pophale) SiO2 
 PCOD9180422
Probable space group: C 2/M
;
_chemical_formula_sum "Si O2"
_cell_formula_units_Z 64
_cell_length_a 20.747639
_cell_length_b 14.569763
_cell_length_c 17.745867
_cell_angle_alpha 90.000000
_cell_angle_beta 151.043541
_cell_angle_gamma 90.000000
_cell_volume 2597.129998
_symmetry_space_group_name_H-M "C 2/M"
_symmetry_group_IT_number 12
_symmetry_cell_setting 'monoclinic'
loop_
_space_group_symop_operation_xyz
x,y,z
-x,y,-z
-x,-y,-z
x,-y,z
1/2+x,1/2+y,z
1/2-x,1/2+y,-z
1/2-x,1/2-y,-z
1/2+x,1/2-y,z
loop_
_atom_site_type_symbol
_atom_site_label
_atom_site_fract_x
_atom_site_fract_y
_atom_site_fract_z
Si Si1 0.096242 0.887748 0.490012
Si Si2 0.320135 0.893260 0.356320
Si Si3 0.222498 0.110251 0.094570
Si Si4 0.811039 0.602336 0.597959
Si Si5 0.809166 0.888497 0.245707
Si Si6 0.003807 0.386820 0.670106
Si Si7 0.048988 0.148620 0.131704
Si Si8 0.011596 0.641921 0.929322
O O1 0.183283 0.854987 0.508462
O O2 0.163849 0.861707 0.639242
O O3 0.941491 0.861119 0.335350
O O4 0.100139 0.000000 0.492807
O O5 0.266618 0.853083 0.223015
O O6 0.448711 0.857972 0.531628
O O7 0.197476 0.887398 0.289947
O O8 0.346280 0.000000 0.367319
O O9 0.342332 0.140619 0.163005
O O10 0.228710 0.000000 0.102486
O O11 0.066491 0.129792 0.926153
O O12 0.770818 0.500000 0.531344
O O13 0.897566 0.648480 0.621420
O O14 0.922029 0.593605 0.776728
O O15 0.801706 0.000000 0.236254
O O16 0.668256 0.852794 0.071926
O O17 0.999895 0.500000 0.669353
O O18 0.051462 0.257453 0.128704
O O19 0.000000 0.110307 0.000000
O O20 0.000000 0.599197 0.000000
#
# Coordination Sequence:
#
# PCOD9180422 Si02
#       8
#     8   8   8   8   8   8   8   8
#     4   8  15  28  47  69  94 123 162 209 243 276
#     4   9  16  31  55  77  96 125 161 201 253 305
#     4   9  16  31  55  77  98 123 156 203 255 302
#     4  10  19  32  49  73 103 133 166 204 246 286
#     4   9  16  28  48  72  93 125 171 207 239 280
#     4   9  18  31  51  78 101 123 161 209 248 292
#     4   9  19  32  48  74 103 126 163 206 244 287
#     4  11  20  31  48  71 102 136 170 203 239 286
#
# _framework density 24.642586000000001
#
# number of rings (size 3 to 8) (size 9 to 14) (size 15 to 20)
#    0.000    2.750    1.250    1.875    0.000    3.500 
#    0.000    3.750    2.750    4.500    0.000    0.000 
#    0.000    0.000    0.000    0.000    0.000    0.000 
#
# Total GULP energy -178626.529783 kJ/mol
# GULP energy per Si atom -5582.079056 kJ/mol
# Density = 2.458650 g / cm^3
# Si number density = 24.642586 Si / 1000 Ang^3
#
#
#
# Elastic Constant Matrix: (Units=GPa)
#
#
# Indices 1 2 3 4 5 6 
#
# 1 106.2032 1.7658 19.9329 0.0000 44.8308 0.0000
# 2 1.7658 63.5375 2.0820 0.0001 -0.9743 0.0000
# 3 19.9329 2.0820 88.9233 0.0002 42.8604 0.0000
# 4 0.0000 0.0001 0.0002 7.0058 0.0001 -10.0346
# 5 44.8308 -0.9743 42.8604 0.0001 51.1004 0.0000
# 6 0.0000 0.0000 0.0000 -10.0346 0.0000 -19.5810
#
#
#
# Elastic Compliance Matrix: (Units=1/GPa)
#
#
# Indices 1 2 3 4 5 6 
#
# 1 0.016454 -0.000932 0.005539 0.000000 -0.019099 0.000000
# 2 -0.000932 0.015836 -0.001177 0.000000 0.002107 0.000000
# 3 0.005539 -0.001177 0.020789 0.000000 -0.022319 0.000000
# 4 0.000000 0.000000 0.000000 0.082317 0.000000 -0.042185
# 5 -0.019099 0.002107 -0.022319 0.000000 0.055085 0.000000
# 6 0.000000 0.000000 0.000000 -0.042185 0.000000 -0.029452
#
#
# Mechanical properties :
#
#
# Convention : Reuss Voigt Hill
#
# Bulk Modulus (GPa) = 16.68389 34.02507 25.35448
# Shear Modulus (GPa) = 28.71127 23.36391 26.03759
#
# Velocity S-wave (km/s) = 3.41707 3.08248 3.25408
# Velocity P-wave (km/s) = 4.72795 5.14843 4.94266
#
# Compressibility (1/GPa) = 0.05993807
#
# Stress axis : x y z
#
# Youngs Moduli (GPa) = 60.77632 63.14922 48.10238
#
# Poissons Ratio (x) = 0.05883 -0.26644
# Poissons Ratio (y) = 0.05662 0.05664
# Poissons Ratio (z) = -0.33664 0.07435
#
# Static dielectric constant tensor:
#      x y z
#    x 2.025170 0.000000 0.030260 
#    y 0.000000 1.963840 0.000000 
#    z 0.030260 0.000000 1.942420 
# 
# From -- ./inp_files/279149.got.cif
#   From: 2010.05.17/outbox.cif.g08.bks.cpg/sg12_140_cif.got.tgz:279149.got - 2010.06.03 13:09:07.
