data_PCOD9180731
_publ_section_title
;
Structure prediction by ZEFSAII (Michael W. Deem and Ramdas Pophale) SiO2 
 PCOD9180731
Probable space group: C 2/M
;
_chemical_formula_sum "Si O2"
_cell_formula_units_Z 48
_cell_length_a 17.407504
_cell_length_b 9.333916
_cell_length_c 14.935512
_cell_angle_alpha 90.000000
_cell_angle_beta 112.572217
_cell_angle_gamma 90.000000
_cell_volume 2240.828967
_symmetry_space_group_name_H-M "C 2/M"
_symmetry_group_IT_number 12
_symmetry_cell_setting 'monoclinic'
loop_
_space_group_symop_operation_xyz
x,y,z
-x,y,-z
-x,-y,-z
x,-y,z
1/2+x,1/2+y,z
1/2-x,1/2+y,-z
1/2-x,1/2-y,-z
1/2+x,1/2-y,z
loop_
_atom_site_type_symbol
_atom_site_label
_atom_site_fract_x
_atom_site_fract_y
_atom_site_fract_z
Si Si1 0.585481 0.833442 0.591574
Si Si2 0.593183 0.838747 0.054284
Si Si3 0.751824 0.335495 0.135676
Si Si4 0.734571 0.338350 0.346975
Si Si5 0.416692 0.669879 0.227015
Si Si6 0.418810 0.841049 0.739756
O O1 0.500000 0.824038 0.500000
O O2 0.671961 0.808037 0.577909
O O3 0.582948 0.718463 0.669250
O O4 0.592205 0.000000 0.628028
O O5 0.669183 0.739063 0.060376
O O6 0.602164 0.854372 0.164986
O O7 0.596108 0.000000 0.015477
O O8 0.500000 0.780054 0.000000
O O9 0.759264 0.500000 0.110580
O O10 0.743084 0.335772 0.241276
O O11 0.834201 0.245178 0.151567
O O12 0.710490 0.500000 0.361222
O O13 0.662171 0.229724 0.340573
O O14 0.414362 0.500000 0.214617
O O15 0.501085 0.740165 0.228790
O O16 0.437075 0.000000 0.711624
#
# Coordination Sequence:
#
# PCOD9180731 Si02
#       6
#     8   8   8   8   8   8
#     4   9  18  34  55  77 102 131 163 202 248 297
#     4   9  18  33  53  77 103 130 163 206 253 298
#     4   9  17  31  51  73  98 130 168 204 243 296
#     4   8  15  29  49  72  97 126 161 199 240 290
#     4  11  21  33  51  74 101 131 167 208 247 291
#     4  10  19  32  51  73  99 131 166 203 246 296
#
# _framework density 21.420642999999998
#
# number of rings (size 3 to 8) (size 9 to 14) (size 15 to 20)
#    0.000    2.667    0.000    3.500    0.000    5.333 
#    0.000    1.667    0.000    0.000    0.000    0.000 
#    0.000    0.000    0.000    0.000    0.000    0.000 
#
# Total GULP energy -133929.032390 kJ/mol
# GULP energy per Si atom -5580.376350 kJ/mol
# Density = 2.137189 g / cm^3
# Si number density = 21.420643 Si / 1000 Ang^3
#
#
#
# Elastic Constant Matrix: (Units=GPa)
#
#
# Indices 1 2 3 4 5 6 
#
# 1 122.5347 98.4461 40.6145 0.0000 52.0722 0.0000
# 2 98.4461 180.5565 36.1511 0.0000 38.5257 0.0000
# 3 40.6145 36.1511 57.3023 0.0000 34.7154 0.0000
# 4 0.0000 0.0000 0.0000 20.5742 0.0000 5.8728
# 5 52.0722 38.5257 34.7154 0.0000 48.6548 0.0000
# 6 0.0000 0.0000 0.0000 5.8728 0.0000 24.3301
#
#
#
# Elastic Compliance Matrix: (Units=1/GPa)
#
#
# Indices 1 2 3 4 5 6 
#
# 1 0.022228 -0.008469 -0.000109 0.000000 -0.017005 0.000000
# 2 -0.008469 0.009995 -0.001761 0.000000 0.002406 0.000000
# 3 -0.000109 -0.001761 0.031219 0.000000 -0.020764 0.000000
# 4 0.000000 0.000000 0.000000 0.052201 0.000000 -0.012600
# 5 -0.017005 0.002406 -0.020764 0.000000 0.051662 0.000000
# 6 0.000000 0.000000 0.000000 -0.012600 0.000000 0.044143
#
#
# Mechanical properties :
#
#
# Convention : Reuss Voigt Hill
#
# Bulk Modulus (GPa) = 23.38434 78.97967 51.18201
# Shear Modulus (GPa) = 20.29375 31.05729 25.67552
#
# Velocity S-wave (km/s) = 3.08131 3.81186 3.46589
# Velocity P-wave (km/s) = 4.85796 7.50497 6.32156
#
# Compressibility (1/GPa) = 0.04276365
#
# Stress axis : x y z
#
# Youngs Moduli (GPa) = 44.98845 100.04673 32.03204
#
# Poissons Ratio (x) = 0.84731 0.00350
# Poissons Ratio (y) = 0.38102 0.05640
# Poissons Ratio (z) = 0.00492 0.17615
#
# Static dielectric constant tensor:
#      x y z
#    x 1.803280 0.000000 -0.026280 
#    y 0.000000 1.757830 0.000000 
#    z -0.026280 0.000000 1.825080 
# 
# From -- ./inp_files/273615.got.cif
#   From: 2010.05.17/outbox.cif.g08.bks.cpg/sg12_137_cif.got.tgz:273615.got - 2010.06.03 13:09:07.
