data_PCOD9180282
_publ_section_title
;
Structure prediction by ZEFSAII (Michael W. Deem and Ramdas Pophale) SiO2 
 PCOD9180282
Probable space group: C 2/M
;
_chemical_formula_sum "Si O2"
_cell_formula_units_Z 48
_cell_length_a 7.955590
_cell_length_b 28.228603
_cell_length_c 12.642629
_cell_angle_alpha 90.000000
_cell_angle_beta 106.081279
_cell_angle_gamma 90.000000
_cell_volume 2728.121307
_symmetry_space_group_name_H-M "C 2/M"
_symmetry_group_IT_number 12
_symmetry_cell_setting 'monoclinic'
loop_
_space_group_symop_operation_xyz
x,y,z
-x,y,-z
-x,-y,-z
x,-y,z
1/2+x,1/2+y,z
1/2-x,1/2+y,-z
1/2-x,1/2-y,-z
1/2+x,1/2-y,z
loop_
_atom_site_type_symbol
_atom_site_label
_atom_site_fract_x
_atom_site_fract_y
_atom_site_fract_z
Si Si1 0.754920 0.377774 0.123537
Si Si2 0.620843 0.382809 0.857511
Si Si3 0.603946 0.782429 0.918897
Si Si4 0.983185 0.210329 0.265069
Si Si5 0.668011 0.220475 0.581658
Si Si6 0.438222 0.945708 0.865876
O O1 0.586852 0.391334 0.164034
O O2 0.821332 0.323708 0.141983
O O3 0.916750 0.413173 0.165185
O O4 0.689948 0.378578 0.989823
O O5 0.631652 0.333239 0.796701
O O6 0.747004 0.421744 0.828015
O O7 0.491569 0.746356 0.828720
O O8 0.500000 0.804374 0.000000
O O9 0.750000 0.750000 0.000000
O O10 0.895358 0.241697 0.341480
O O11 0.169688 0.192394 0.341025
O O12 0.500000 0.195155 0.500000
O O13 0.750000 0.250000 0.500000
O O14 0.436719 0.000000 0.829290
O O15 0.500000 0.946111 0.000000
#
# Coordination Sequence:
#
# PCOD9180282 Si02
#       6
#     8   8   8   8   8   8
#     4  10  20  31  45  70 111 140 179 219 249 305
#     4  10  19  32  47  73 101 136 178 219 257 310
#     4  12  21  29  44  74 111 145 173 204 252 317
#     4  11  20  31  50  73 100 143 176 211 267 310
#     4   9  20  36  49  65  95 137 179 224 257 311
#     4   9  19  34  50  67  98 145 188 223 258 295
#
# _framework density 17.594524
#
# number of rings (size 3 to 8) (size 9 to 14) (size 15 to 20)
#    0.000    1.833    1.667    4.500    2.333    0.667 
#    0.000    3.333    0.000    0.000    0.000    0.000 
#    0.000    6.667    0.000    3.000    0.000    0.500 
#
# Total GULP energy -133780.105171 kJ/mol
# GULP energy per Si atom -5574.171049 kJ/mol
# Density = 1.755448 g / cm^3
# Si number density = 17.594524 Si / 1000 Ang^3
#
#
#
# Elastic Constant Matrix: (Units=GPa)
#
#
# Indices 1 2 3 4 5 6 
#
# 1 107.9655 55.7209 22.6157 0.0000 6.7528 0.0000
# 2 55.7209 110.9357 13.1671 0.0000 9.6992 0.0000
# 3 22.6157 13.1671 54.3493 0.0000 2.7817 0.0000
# 4 0.0000 0.0000 0.0000 8.3322 0.0000 4.0558
# 5 6.7528 9.6992 2.7817 0.0000 33.2382 0.0000
# 6 0.0000 0.0000 0.0000 4.0558 0.0000 24.2928
#
#
#
# Elastic Compliance Matrix: (Units=1/GPa)
#
#
# Indices 1 2 3 4 5 6 
#
# 1 0.013321 -0.006164 -0.004021 0.000000 -0.000571 0.000000
# 2 -0.006164 0.012350 -0.000308 0.000000 -0.002326 0.000000
# 3 -0.004021 -0.000308 0.020187 0.000000 -0.000783 0.000000
# 4 0.000000 0.000000 0.000000 0.130632 0.000000 -0.021809
# 5 -0.000571 -0.002326 -0.000783 0.000000 0.030946 0.000000
# 6 0.000000 0.000000 0.000000 -0.021809 0.000000 0.044806
#
#
# Mechanical properties :
#
#
# Convention : Reuss Voigt Hill
#
# Bulk Modulus (GPa) = 40.20360 50.69532 45.44946
# Shear Modulus (GPa) = 17.76077 25.28912 21.52494
#
# Velocity S-wave (km/s) = 3.18063 3.79533 3.50149
# Velocity P-wave (km/s) = 6.03226 6.93409 6.49884
#
# Compressibility (1/GPa) = 0.02487340
#
# Stress axis : x y z
#
# Youngs Moduli (GPa) = 75.06752 80.97068 49.53618
#
# Poissons Ratio (x) = 0.49909 0.19917
# Poissons Ratio (y) = 0.46271 0.01526
# Poissons Ratio (z) = 0.30182 0.02495
#
# Static dielectric constant tensor:
#      x y z
#    x 1.678230 0.000000 0.013000 
#    y 0.000000 1.583410 0.000000 
#    z 0.013000 0.000000 1.608910 
# 
# From -- ./inp_files/122583.got.cif
#   From: 2010.05.17/outbox.cif.g08.bks.cpg/sg12_62_cif.got.tgz:122583.got - 2010.06.03 13:09:07.
