data_PCOD9180773
_publ_section_title
;
Structure prediction by ZEFSAII (Michael W. Deem and Ramdas Pophale) SiO2 
 PCOD9180773
Probable space group: C 2/M
;
_chemical_formula_sum "Si O2"
_cell_formula_units_Z 64
_cell_length_a 19.447435
_cell_length_b 17.956918
_cell_length_c 23.053378
_cell_angle_alpha 90.000000
_cell_angle_beta 27.886480
_cell_angle_gamma 90.000000
_cell_volume 3765.440684
_symmetry_space_group_name_H-M "C 2/M"
_symmetry_group_IT_number 12
_symmetry_cell_setting 'monoclinic'
loop_
_space_group_symop_operation_xyz
x,y,z
-x,y,-z
-x,-y,-z
x,-y,z
1/2+x,1/2+y,z
1/2-x,1/2+y,-z
1/2-x,1/2-y,-z
1/2+x,1/2-y,z
loop_
_atom_site_type_symbol
_atom_site_label
_atom_site_fract_x
_atom_site_fract_y
_atom_site_fract_z
Si Si1 0.101276 0.806250 0.473291
Si Si2 0.636119 0.220760 0.273655
Si Si3 0.844629 0.209838 0.223122
Si Si4 0.065755 0.314985 0.111131
Si Si5 0.620127 0.310007 0.166906
Si Si6 0.167818 0.415301 0.654516
Si Si7 0.866294 0.910323 0.304214
Si Si8 0.064322 0.415568 0.598949
O O1 0.221864 0.753787 0.352708
O O2 0.188777 0.865137 0.445591
O O3 0.000000 0.843940 0.500000
O O4 0.991065 0.756847 0.592175
O O5 0.778930 0.208383 0.207483
O O6 0.645689 0.275999 0.211635
O O7 0.569222 0.141136 0.306932
O O8 0.869481 0.132407 0.239483
O O9 0.988980 0.261196 0.121044
O O10 0.083141 0.261134 0.153907
O O11 0.957080 0.380289 0.211190
O O12 0.224767 0.341088 0.971864
O O13 0.489437 0.369108 0.252450
O O14 0.197206 0.500000 0.648732
O O15 0.116815 0.412521 0.626199
O O16 0.705874 0.897836 0.453085
O O17 0.889136 0.000000 0.283351
O O18 0.019295 0.500000 0.618502
#
# Coordination Sequence:
#
# PCOD9180773 Si02
#       8
#     8   8   8   8   8   8   8   8
#     4   9  18  31  49  76 102 133 176 210 257 320
#     4  11  19  32  54  77 106 144 172 223 265 312
#     4   9  19  33  52  76 105 138 178 214 264 315
#     4   9  19  36  51  74  98 129 185 226 259 314
#     4  10  20  33  55  76  97 138 180 225 267 305
#     4  10  19  32  51  74 104 137 170 219 269 313
#     4  10  20  34  52  79 113 144 175 215 266 325
#     4  10  20  31  49  80 111 140 174 211 263 320
#
# _framework density 16.996683000000001
#
# number of rings (size 3 to 8) (size 9 to 14) (size 15 to 20)
#    0.000    2.250    2.500    0.750    0.000    2.750 
#    0.000    1.250    0.000    3.000    0.000   12.250 
#    0.000    0.000    0.000    0.000    0.000    0.000 
#
# Total GULP energy -178271.471029 kJ/mol
# GULP energy per Si atom -5570.983470 kJ/mol
# Density = 1.695800 g / cm^3
# Si number density = 16.996683 Si / 1000 Ang^3
#
#
#
# Elastic Constant Matrix: (Units=GPa)
#
#
# Indices 1 2 3 4 5 6 
#
# 1 91.2417 32.4927 -2.4087 -0.0003 -3.6009 0.0006
# 2 32.4927 69.8137 -1.7032 0.0009 -3.1456 -0.0004
# 3 -2.4087 -1.7032 9.4837 0.0040 -7.4745 -0.0008
# 4 -0.0003 0.0009 0.0040 9.9802 0.0000 6.9504
# 5 -3.6009 -3.1456 -7.4745 0.0000 12.8218 0.0007
# 6 0.0006 -0.0004 -0.0008 6.9504 0.0007 10.5171
#
#
#
# Elastic Compliance Matrix: (Units=1/GPa)
#
#
# Indices 1 2 3 4 5 6 
#
# 1 0.013500 -0.005777 0.007886 -0.000003 0.006971 0.000001
# 2 -0.005777 0.017487 0.006985 -0.000010 0.006739 0.000007
# 3 0.007886 0.006985 0.206821 -0.000161 0.124495 0.000113
# 4 -0.000003 -0.000010 -0.000161 0.185636 -0.000090 -0.122680
# 5 0.006971 0.006739 0.124495 -0.000090 0.154178 0.000058
# 6 0.000001 0.000007 0.000113 -0.122680 0.000058 0.176158
#
#
# Mechanical properties :
#
#
# Convention : Reuss Voigt Hill
#
# Bulk Modulus (GPa) = 3.90631 25.25562 14.58097
# Shear Modulus (GPa) = 6.09069 16.14105 11.11587
#
# Velocity S-wave (km/s) = 1.89506 3.08500 2.56012
# Velocity P-wave (km/s) = 2.66300 5.25176 4.16369
#
# Compressibility (1/GPa) = 0.25599590
#
# Stress axis : x y z
#
# Youngs Moduli (GPa) = 74.07159 57.18673 4.83509
#
# Poissons Ratio (x) = 0.33036 -0.03813
# Poissons Ratio (y) = 0.42790 -0.03377
# Poissons Ratio (z) = -0.58411 -0.39944
#
# Static dielectric constant tensor:
#      x y z
#    x 1.605980 0.000000 -0.005420 
#    y 0.000000 1.556170 0.000000 
#    z -0.005420 0.000000 1.566360 
# 
# From -- ./inp_files/157854.got.cif
#   From: 2010.05.17/outbox.cif.g08.bks.cpg/sg12_79_cif.got.tgz:157854.got - 2010.06.03 13:09:07.
