data_PCOD9180120
_publ_section_title
;
Structure prediction by ZEFSAII (Michael W. Deem and Ramdas Pophale) SiO2 
 PCOD9180120
Probable space group: C 2/M
;
_chemical_formula_sum "Si O2"
_cell_formula_units_Z 56
_cell_length_a 14.907986
_cell_length_b 17.811828
_cell_length_c 14.035100
_cell_angle_alpha 90.000000
_cell_angle_beta 52.057670
_cell_angle_gamma 90.000000
_cell_volume 2939.113073
_symmetry_space_group_name_H-M "C 2/M"
_symmetry_group_IT_number 12
_symmetry_cell_setting 'monoclinic'
loop_
_space_group_symop_operation_xyz
x,y,z
-x,y,-z
-x,-y,-z
x,-y,z
1/2+x,1/2+y,z
1/2-x,1/2+y,-z
1/2-x,1/2-y,-z
1/2+x,1/2-y,z
loop_
_atom_site_type_symbol
_atom_site_label
_atom_site_fract_x
_atom_site_fract_y
_atom_site_fract_z
Si Si1 0.196823 0.176704 0.155061
Si Si2 0.986064 0.722214 0.784885
Si Si3 0.756910 0.414701 0.437676
Si Si4 0.078388 0.588499 0.043124
Si Si5 0.585751 0.168373 0.526277
Si Si6 0.276010 0.231298 0.299052
Si Si7 0.500811 0.411783 0.390829
O O1 0.128843 0.230488 0.127219
O O2 0.249920 0.226923 0.204993
O O3 0.094910 0.128925 0.268419
O O4 0.295572 0.121272 0.056746
O O5 0.970836 0.640262 0.840938
O O6 0.016590 0.713138 0.653282
O O7 0.096738 0.758556 0.761374
O O8 0.767461 0.500000 0.395408
O O9 0.847295 0.395949 0.460339
O O10 0.771388 0.353152 0.345579
O O11 0.628473 0.404681 0.560256
O O12 0.079511 0.500000 0.063802
O O13 0.000000 0.599502 0.000000
O O14 0.500000 0.143545 0.500000
O O15 0.681811 0.221303 0.416849
O O16 0.500000 0.382113 0.500000
O O17 0.528915 0.500000 0.377245
#
# Coordination Sequence:
#
# PCOD9180120 Si02
#       7
#     8   8   8   8   8   8   8
#     4  12  21  37  64  87 122 157 204 246 303 358
#     4  11  23  39  62  91 121 160 203 247 299 358
#     4  10  21  34  52  83 123 158 199 242 293 355
#     4  11  25  44  63  89 122 159 203 254 306 356
#     4  11  22  38  60  91 124 162 199 239 303 363
#     4  11  21  36  60  90 123 157 198 248 302 355
#     4  10  19  31  53  88 122 158 197 244 307 365
#
# _framework density 19.053367000000001
#
# number of rings (size 3 to 8) (size 9 to 14) (size 15 to 20)
#    0.000    1.143    4.286    4.286    0.000    3.143 
#    0.000    0.000    0.000    0.000    0.000    1.000 
#    0.000    0.000    0.000    0.000    0.000    0.000 
#
# Total GULP energy -156441.178280 kJ/mol
# GULP energy per Si atom -5587.184939 kJ/mol
# Density = 1.901000 g / cm^3
# Si number density = 19.053367 Si / 1000 Ang^3
#
#
#
# Elastic Constant Matrix: (Units=GPa)
#
#
# Indices 1 2 3 4 5 6 
#
# 1 127.7818 29.9779 17.8860 0.0000 -17.7014 0.0000
# 2 29.9779 70.9980 21.8647 0.0000 -7.1463 0.0000
# 3 17.8860 21.8647 62.4590 0.0000 -19.7495 0.0000
# 4 0.0000 0.0000 0.0000 28.7825 0.0000 0.0476
# 5 -17.7014 -7.1463 -19.7495 0.0000 26.7558 0.0000
# 6 0.0000 0.0000 0.0000 0.0476 0.0000 17.7181
#
#
#
# Elastic Compliance Matrix: (Units=1/GPa)
#
#
# Indices 1 2 3 4 5 6 
#
# 1 0.009363 -0.003485 0.000265 0.000000 0.005459 0.000000
# 2 -0.003485 0.017085 -0.005569 0.000000 -0.001853 0.000000
# 3 0.000265 -0.005569 0.022788 0.000000 0.015509 0.000000
# 4 0.000000 0.000000 0.000000 0.034743 0.000000 -0.000093
# 5 0.005459 -0.001853 0.015509 0.000000 0.051939 0.000000
# 6 0.000000 0.000000 0.000000 -0.000093 0.000000 0.056440
#
#
# Mechanical properties :
#
#
# Convention : Reuss Voigt Hill
#
# Bulk Modulus (GPa) = 31.58815 44.52179 38.05497
# Shear Modulus (GPa) = 22.67691 27.41862 25.04777
#
# Velocity S-wave (km/s) = 3.45364 3.79759 3.62969
# Velocity P-wave (km/s) = 5.70248 6.53043 6.13045
#
# Compressibility (1/GPa) = 0.03165744
#
# Stress axis : x y z
#
# Youngs Moduli (GPa) = 106.80751 58.53082 43.88309
#
# Poissons Ratio (x) = 0.20400 -0.01164
# Poissons Ratio (y) = 0.37227 0.24437
# Poissons Ratio (z) = -0.02832 0.32594
#
# Static dielectric constant tensor:
#      x y z
#    x 1.693900 0.000000 -0.020420 
#    y 0.000000 1.666710 0.000000 
#    z -0.020420 0.000000 1.671380 
# 
# From -- ./inp_files/145477.got.cif
#   From: 2010.05.17/outbox.cif.g08.bks.cpg/sg12_73_cif.got.tgz:145477.got - 2010.06.03 13:09:07.
