data_PCOD9180266
_publ_section_title
;
Structure prediction by ZEFSAII (Michael W. Deem and Ramdas Pophale) SiO2 
 PCOD9180266
Probable space group: C 2/M
;
_chemical_formula_sum "Si O2"
_cell_formula_units_Z 40
_cell_length_a 11.088416
_cell_length_b 26.290626
_cell_length_c 14.943474
_cell_angle_alpha 90.000000
_cell_angle_beta 27.538854
_cell_angle_gamma 90.000000
_cell_volume 2014.154992
_symmetry_space_group_name_H-M "C 2/M"
_symmetry_group_IT_number 12
_symmetry_cell_setting 'monoclinic'
loop_
_space_group_symop_operation_xyz
x,y,z
-x,y,-z
-x,-y,-z
x,-y,z
1/2+x,1/2+y,z
1/2-x,1/2+y,-z
1/2-x,1/2-y,-z
1/2+x,1/2-y,z
loop_
_atom_site_type_symbol
_atom_site_label
_atom_site_fract_x
_atom_site_fract_y
_atom_site_fract_z
Si Si1 0.642180 0.142685 0.104660
Si Si2 0.484580 0.790303 0.373208
Si Si3 0.794610 0.193510 0.713729
Si Si4 0.071927 0.131871 0.686889
Si Si5 0.281664 0.559622 0.564987
O O1 0.625644 0.181833 0.197949
O O2 0.479432 0.172508 0.136011
O O3 0.467845 0.093674 0.244493
O O4 0.917349 0.127309 0.881115
O O5 0.250000 0.750000 0.500000
O O6 0.689957 0.754106 0.286684
O O7 0.334807 0.835219 0.522674
O O8 0.897442 0.165524 0.733467
O O9 0.000000 0.180727 0.500000
O O10 0.121638 0.081610 0.594469
O O11 0.500000 0.565849 0.500000
O O12 0.222983 0.500000 0.597801
#
# Coordination Sequence:
#
# PCOD9180266 Si02
#       5
#     8   8   8   8   8
#     4  11  19  33  48  69  96 129 164 199 230 275
#     4   9  19  32  44  65  93 128 166 196 229 278
#     4  11  17  32  47  63  96 133 162 192 230 277
#     4  10  19  32  47  66  94 126 163 200 230 271
#     4  10  19  32  47  66  94 125 160 200 238 279
#
# _framework density 19.859444
#
# number of rings (size 3 to 8) (size 9 to 14) (size 15 to 20)
#    0.000    1.800    8.000    0.600    0.000    4.000 
#    3.600    2.000    0.000    0.000    0.000    0.000 
#    0.000   12.800    0.000   14.400    0.000    4.000 
#
# Total GULP energy -111571.320061 kJ/mol
# GULP energy per Si atom -5578.566003 kJ/mol
# Density = 1.981424 g / cm^3
# Si number density = 19.859444 Si / 1000 Ang^3
#
#
#
# Elastic Constant Matrix: (Units=GPa)
#
#
# Indices 1 2 3 4 5 6 
#
# 1 23.7988 25.6626 22.0087 -0.0012 7.3174 -0.0018
# 2 25.6626 152.2443 50.5056 -0.0006 11.5488 0.0004
# 3 22.0087 50.5056 129.6599 -0.0030 34.9591 -0.0019
# 4 -0.0012 -0.0006 -0.0030 -3.8220 0.0018 8.5163
# 5 7.3174 11.5488 34.9591 0.0018 18.1566 0.0013
# 6 -0.0018 0.0004 -0.0019 8.5163 0.0013 32.4296
#
#
#
# Elastic Compliance Matrix: (Units=1/GPa)
#
#
# Indices 1 2 3 4 5 6 
#
# 1 0.056990 -0.007515 -0.003831 -0.000007 -0.010810 0.000005
# 2 -0.007515 0.008562 -0.002928 0.000002 0.003219 -0.000001
# 3 -0.003831 -0.002928 0.017853 -0.000014 -0.030968 0.000006
# 4 -0.000007 0.000002 -0.000014 -0.165059 0.000041 0.043346
# 5 -0.010810 0.003219 -0.030968 0.000041 0.117011 -0.000018
# 6 0.000005 -0.000001 0.000006 0.043346 -0.000018 0.019453
#
#
# Mechanical properties :
#
#
# Convention : Reuss Voigt Hill
#
# Bulk Modulus (GPa) = 18.22946 55.78410 37.00678
# Shear Modulus (GPa) = 49.19123 23.18792 36.18958
#
# Velocity S-wave (km/s) = 4.98232 3.42073 4.27345
# Velocity P-wave (km/s) = 6.50362 6.61455 6.55932
#
# Compressibility (1/GPa) = 0.05485626
#
# Stress axis : x y z
#
# Youngs Moduli (GPa) = 17.54702 116.79328 56.01364
#
# Poissons Ratio (x) = 0.87772 0.21461
# Poissons Ratio (y) = 0.13187 0.16398
# Poissons Ratio (z) = 0.06723 0.34192
#
# Static dielectric constant tensor:
#      x y z
#    x 1.765680 0.000000 0.087590 
#    y 0.000000 1.681830 0.000010 
#    z 0.087590 0.000010 2.131040 
# 
# From -- ./inp_files/148990.got.cif
#   From: 2010.05.17/outbox.cif.g08.bks.cpg/sg12_75_cif.got.tgz:148990.got - 2010.06.03 13:09:07.
