data_PCOD9180307
_publ_section_title
;
Structure prediction by ZEFSAII (Michael W. Deem and Ramdas Pophale) SiO2 
 PCOD9180307
Probable space group: C 2/M
;
_chemical_formula_sum "Si O2"
_cell_formula_units_Z 56
_cell_length_a 14.628482
_cell_length_b 7.339020
_cell_length_c 31.486804
_cell_angle_alpha 90.000000
_cell_angle_beta 46.752866
_cell_angle_gamma 90.000000
_cell_volume 2462.288726
_symmetry_space_group_name_H-M "C 2/M"
_symmetry_group_IT_number 12
_symmetry_cell_setting 'monoclinic'
loop_
_space_group_symop_operation_xyz
x,y,z
-x,y,-z
-x,-y,-z
x,-y,z
1/2+x,1/2+y,z
1/2-x,1/2+y,-z
1/2-x,1/2-y,-z
1/2+x,1/2-y,z
loop_
_atom_site_type_symbol
_atom_site_label
_atom_site_fract_x
_atom_site_fract_y
_atom_site_fract_z
Si Si1 0.737144 0.711567 0.111853
Si Si2 0.995885 0.719901 0.433163
Si Si3 0.375325 0.216871 0.988142
Si Si4 0.509356 0.220344 0.864417
Si Si5 0.216753 0.223236 0.214456
Si Si6 0.519752 0.708475 0.658376
Si Si7 0.701276 0.778000 0.437615
O O1 0.772171 0.500000 0.106450
O O2 0.603491 0.717972 0.129908
O O3 0.720218 0.785051 0.164390
O O4 0.840372 0.789304 0.045934
O O5 0.993513 0.500000 0.431557
O O6 0.108118 0.770772 0.429086
O O7 0.014596 0.791293 0.380264
O O8 0.867160 0.780599 0.497129
O O9 0.482177 0.281651 0.921803
O O10 0.393053 0.000000 0.987363
O O11 0.250000 0.250000 0.000000
O O12 0.649684 0.275692 0.807584
O O13 0.503049 0.000000 0.866461
O O14 0.093730 0.288205 0.278230
O O15 0.213865 0.000000 0.215958
O O16 0.533715 0.500000 0.668911
O O17 0.659038 0.790501 0.614905
O O18 0.705384 0.000000 0.438193
#
# Coordination Sequence:
#
# PCOD9180307 Si02
#       7
#     8   8   8   8   8   8   8
#     4   9  17  31  49  69  91 119 155 193 227 271
#     4   9  17  32  52  73  93 118 153 191 227 270
#     4   8  14  25  45  68  88 112 148 190 232 270
#     4   9  17  31  48  67  92 121 150 190 237 274
#     4   9  19  32  46  66  94 126 158 185 222 275
#     4  10  19  32  48  68  95 126 154 186 227 271
#     4   8  16  31  51  71  94 122 151 184 230 277
#
# _framework density 22.743069999999999
#
# number of rings (size 3 to 8) (size 9 to 14) (size 15 to 20)
#    0.000    3.143    0.000    1.286    0.000    1.714 
#    0.000    8.571    0.000    0.000    0.000   10.000 
#    0.000    0.000    0.000    0.000    0.000    0.000 
#
# Total GULP energy -156260.445281 kJ/mol
# GULP energy per Si atom -5580.730189 kJ/mol
# Density = 2.269131 g / cm^3
# Si number density = 22.743070 Si / 1000 Ang^3
#
#
#
# Elastic Constant Matrix: (Units=GPa)
#
#
# Indices 1 2 3 4 5 6 
#
# 1 76.8496 -7.5323 46.5501 0.0013 -27.8727 0.0048
# 2 -7.5323 88.9089 2.6009 0.0146 -5.9271 -0.0094
# 3 46.5501 2.6009 167.9052 0.0014 -13.2734 -0.0013
# 4 0.0013 0.0146 0.0014 0.0542 0.0016 14.5550
# 5 -27.8727 -5.9271 -13.2734 0.0016 94.2004 -0.0079
# 6 0.0048 -0.0094 -0.0013 14.5550 -0.0079 -25.0861
#
#
#
# Elastic Compliance Matrix: (Units=1/GPa)
#
#
# Indices 1 2 3 4 5 6 
#
# 1 0.017671 0.001944 -0.004557 -0.000008 0.004709 -0.000004
# 2 0.001944 0.011511 -0.000622 -0.000013 0.001212 -0.000012
# 3 -0.004557 -0.000622 0.007199 0.000002 -0.000373 0.000000
# 4 -0.000008 -0.000013 0.000002 0.117662 0.000001 0.068267
# 5 0.004709 0.001212 -0.000373 0.000001 0.012033 -0.000003
# 6 -0.000004 -0.000012 0.000000 0.068267 -0.000003 -0.000254
#
#
# Mechanical properties :
#
#
# Convention : Reuss Voigt Hill
#
# Bulk Modulus (GPa) = 33.43013 46.32235 39.87624
# Shear Modulus (GPa) = 27.43312 33.30337 30.36824
#
# Velocity S-wave (km/s) = 3.47683 3.83081 3.65811
# Velocity P-wave (km/s) = 5.55417 6.32287 5.95094
#
# Compressibility (1/GPa) = 0.02991313
#
# Stress axis : x y z
#
# Youngs Moduli (GPa) = 56.58918 86.87218 138.90291
#
# Poissons Ratio (x) = -0.16891 0.63299
# Poissons Ratio (y) = -0.11003 0.08633
# Poissons Ratio (z) = 0.25788 0.05399
#
# Static dielectric constant tensor:
#      x y z
#    x 1.822400 0.000000 -0.019340 
#    y 0.000000 2.014860 0.000000 
#    z -0.019340 0.000000 1.840100 
# 
# From -- ./inp_files/309451.got.cif
#   From: 2010.05.17/outbox.cif.g08.bks.cpg/sg12_155_cif.got.tgz:309451.got - 2010.06.03 13:09:07.
