data_PCOD9180991
_publ_section_title
;
Structure prediction by ZEFSAII (Michael W. Deem and Ramdas Pophale) SiO2 
 PCOD9180991
Probable space group: C 2/M
;
_chemical_formula_sum "Si O2"
_cell_formula_units_Z 56
_cell_length_a 24.315190
_cell_length_b 8.121615
_cell_length_c 15.334549
_cell_angle_alpha 90.000000
_cell_angle_beta 118.172607
_cell_angle_gamma 90.000000
_cell_volume 2669.487022
_symmetry_space_group_name_H-M "C 2/M"
_symmetry_group_IT_number 12
_symmetry_cell_setting 'monoclinic'
loop_
_space_group_symop_operation_xyz
x,y,z
-x,y,-z
-x,-y,-z
x,-y,z
1/2+x,1/2+y,z
1/2-x,1/2+y,-z
1/2-x,1/2-y,-z
1/2+x,1/2-y,z
loop_
_atom_site_type_symbol
_atom_site_label
_atom_site_fract_x
_atom_site_fract_y
_atom_site_fract_z
Si Si1 0.193293 0.804974 0.185748
Si Si2 0.123500 0.200797 0.299131
Si Si3 0.174752 0.196546 0.694589
Si Si4 0.987274 0.195269 0.205067
Si Si5 0.309082 0.302424 0.488358
Si Si6 0.465604 0.805819 0.384338
Si Si7 0.934920 0.692974 0.995926
O O1 0.174439 0.739119 0.268357
O O2 0.259921 0.731527 0.207321
O O3 0.202493 0.000000 0.197329
O O4 0.129863 0.771939 0.084933
O O5 0.135216 0.252116 0.406939
O O6 0.054952 0.253369 0.222239
O O7 0.125354 0.000000 0.298443
O O8 0.186830 0.262045 0.605475
O O9 0.108980 0.275393 0.670438
O O10 0.165214 0.000000 0.687378
O O11 0.985418 0.227757 0.306852
O O12 0.939747 0.281132 0.103840
O O13 0.981411 0.000000 0.187404
O O14 0.309447 0.500000 0.482682
O O15 0.250000 0.250000 0.500000
O O16 0.500000 0.744118 0.500000
O O17 0.478487 0.000000 0.389590
O O18 0.931589 0.500000 0.972731
O O19 0.000000 0.758112 0.000000
#
# Coordination Sequence:
#
# PCOD9180991 Si02
#       7
#     8   8   8   8   8   8   8
#     4  11  21  37  61  89 125 165 207 254 312 377
#     4   9  18  32  54  85 121 158 199 247 304 367
#     4  11  23  39  61  90 125 166 211 261 317 376
#     4  11  22  40  66  93 123 164 214 263 315 376
#     4  10  19  32  51  81 118 155 197 244 300 365
#     4  11  25  45  67  93 126 168 215 263 314 373
#     4  11  23  39  61  93 132 168 210 263 316 374
#
# _framework density 20.977812
#
# number of rings (size 3 to 8) (size 9 to 14) (size 15 to 20)
#    0.000    1.429    2.857    3.000    0.000    3.429 
#    0.000    2.143    0.000    0.000    0.000    0.000 
#    0.000    0.000    0.000    0.000    0.000    0.000 
#
# Total GULP energy -156169.697025 kJ/mol
# GULP energy per Si atom -5577.489179 kJ/mol
# Density = 2.093007 g / cm^3
# Si number density = 20.977812 Si / 1000 Ang^3
#
#
#
# Elastic Constant Matrix: (Units=GPa)
#
#
# Indices 1 2 3 4 5 6 
#
# 1 79.7069 -8.3910 17.4778 0.0000 15.3009 0.0000
# 2 -8.3910 32.7134 -4.7473 0.0000 1.1991 0.0000
# 3 17.4778 -4.7473 95.7596 0.0000 14.2745 0.0000
# 4 0.0000 0.0000 0.0000 25.8110 0.0000 1.0291
# 5 15.3009 1.1991 14.2745 0.0000 30.7825 0.0000
# 6 0.0000 0.0000 0.0000 1.0291 0.0000 24.6993
#
#
#
# Elastic Compliance Matrix: (Units=1/GPa)
#
#
# Indices 1 2 3 4 5 6 
#
# 1 0.014550 0.003764 -0.001471 0.000000 -0.006697 0.000000
# 2 0.003764 0.031885 0.001459 0.000000 -0.003789 0.000000
# 3 -0.001471 0.001459 0.011476 0.000000 -0.004648 0.000000
# 4 0.000000 0.000000 0.000000 0.038808 0.000000 -0.001617
# 5 -0.006697 -0.003789 -0.004648 0.000000 0.038118 0.000000
# 6 0.000000 0.000000 0.000000 -0.001617 0.000000 0.040554
#
#
# Mechanical properties :
#
#
# Convention : Reuss Voigt Hill
#
# Bulk Modulus (GPa) = 15.28698 24.09543 19.69121
# Shear Modulus (GPa) = 26.35852 29.84793 28.10322
#
# Velocity S-wave (km/s) = 3.54855 3.77614 3.66411
# Velocity P-wave (km/s) = 4.90843 5.52480 5.22571
#
# Compressibility (1/GPa) = 0.06541514
#
# Stress axis : x y z
#
# Youngs Moduli (GPa) = 68.72702 31.36312 87.13565
#
# Poissons Ratio (x) = -0.11806 0.12816
# Poissons Ratio (y) = -0.25870 -0.12709
# Poissons Ratio (z) = 0.10108 -0.04574
#
# Static dielectric constant tensor:
#      x y z
#    x 1.759950 0.000000 0.038550 
#    y 0.000000 1.721700 0.000000 
#    z 0.038550 0.000000 1.816730 
# 
# From -- ./inp_files/238901.got.cif
#   From: 2010.05.17/outbox.cif.g08.bks.cpg/sg12_120_cif.got.tgz:238901.got - 2010.06.03 13:09:07.
