data_PCOD9180350
_publ_section_title
;
Structure prediction by ZEFSAII (Michael W. Deem and Ramdas Pophale) SiO2 
 PCOD9180350
Probable space group: C 2/M
;
_chemical_formula_sum "Si O2"
_cell_formula_units_Z 56
_cell_length_a 32.061220
_cell_length_b 7.243534
_cell_length_c 10.606188
_cell_angle_alpha 90.000000
_cell_angle_beta 69.100734
_cell_angle_gamma 90.000000
_cell_volume 2301.091751
_symmetry_space_group_name_H-M "C 2/M"
_symmetry_group_IT_number 12
_symmetry_cell_setting 'monoclinic'
loop_
_space_group_symop_operation_xyz
x,y,z
-x,y,-z
-x,-y,-z
x,-y,z
1/2+x,1/2+y,z
1/2-x,1/2+y,-z
1/2-x,1/2-y,-z
1/2+x,1/2-y,z
loop_
_atom_site_type_symbol
_atom_site_label
_atom_site_fract_x
_atom_site_fract_y
_atom_site_fract_z
Si Si1 0.340137 0.775561 0.191019
Si Si2 0.565623 0.223346 0.003812
Si Si3 0.851757 0.274010 0.690896
Si Si4 0.979595 0.276419 0.211649
Si Si5 0.198716 0.720013 0.508948
Si Si6 0.950445 0.724396 0.508157
Si Si7 0.799492 0.281856 0.991347
O O1 0.384274 0.714833 0.068449
O O2 0.331648 0.710915 0.341508
O O3 0.342200 0.000000 0.199601
O O4 0.302603 0.717458 0.132384
O O5 0.542865 0.272749 0.895481
O O6 0.567103 0.000000 0.011826
O O7 0.531385 0.284187 0.149130
O O8 0.851372 0.500000 0.691279
O O9 0.820318 0.214619 0.606074
O O10 0.903547 0.217113 0.618591
O O11 0.832056 0.211536 0.846265
O O12 0.980256 0.500000 0.214848
O O13 0.951237 0.218888 0.361036
O O14 0.193776 0.500000 0.507901
O O15 0.250000 0.750000 0.500000
O O16 0.950505 0.500000 0.518021
O O17 0.000000 0.782215 0.500000
O O18 0.808856 0.500000 0.988203
O O19 0.750000 0.250000 0.000000
#
# Coordination Sequence:
#
# PCOD9180350 Si02
#       7
#     8   8   8   8   8   8   8
#     4   9  17  27  43  62  84 116 153 184 218 268
#     4   8  13  21  34  52  76 109 144 176 210 255
#     4   9  18  30  44  64  94 128 155 187 237 282
#     4   8  13  20  31  50  78 111 144 174 207 253
#     4  10  19  32  49  68  91 121 155 193 235 278
#     4   9  16  23  35  56  86 123 154 176 213 278
#     4  10  20  33  48  67  92 122 154 191 232 274
#
# _framework density 24.336272999999998
#
# number of rings (size 3 to 8) (size 9 to 14) (size 15 to 20)
#    0.000    3.000    0.000    2.571    2.000    3.429 
#    0.000    0.000    0.000    0.000    0.000    0.000 
#    0.000    2.286    0.000    7.571    0.000    7.714 
#
# Total GULP energy -156197.822379 kJ/mol
# GULP energy per Si atom -5578.493656 kJ/mol
# Density = 2.428088 g / cm^3
# Si number density = 24.336273 Si / 1000 Ang^3
#
#
#
# Elastic Constant Matrix: (Units=GPa)
#
#
# Indices 1 2 3 4 5 6 
#
# 1 59.8845 -7.4544 -0.5659 0.0000 -4.6825 0.0000
# 2 -7.4544 110.6374 0.6678 0.0000 5.0118 0.0000
# 3 -0.5659 0.6678 112.0665 0.0000 -7.9066 0.0000
# 4 0.0000 0.0000 0.0000 -26.8829 0.0000 14.7322
# 5 -4.6825 5.0118 -7.9066 0.0000 40.3864 0.0000
# 6 0.0000 0.0000 0.0000 14.7322 0.0000 -54.1656
#
#
#
# Elastic Compliance Matrix: (Units=1/GPa)
#
#
# Indices 1 2 3 4 5 6 
#
# 1 0.016979 0.001058 0.000212 0.000000 0.001879 0.000000
# 2 0.001058 0.009158 -0.000122 0.000000 -0.001038 0.000000
# 3 0.000212 -0.000122 0.009053 0.000000 0.001812 0.000000
# 4 0.000000 0.000000 0.000000 -0.043714 0.000000 -0.011890
# 5 0.001879 -0.001038 0.001812 0.000000 0.025462 0.000000
# 6 0.000000 0.000000 0.000000 -0.011890 0.000000 -0.021696
#
#
# Mechanical properties :
#
#
# Convention : Reuss Voigt Hill
#
# Bulk Modulus (GPa) = 26.67790 29.76482 28.22136
# Shear Modulus (GPa) = 918.67361 11.19698 464.93529
#
# Velocity S-wave (km/s) = 19.45022 2.14731 13.83694
# Velocity P-wave (km/s) = 22.70244 4.29012 16.33716
#
# Compressibility (1/GPa) = 0.03748421
#
# Stress axis : x y z
#
# Youngs Moduli (GPa) = 58.89499 109.19959 110.46158
#
# Poissons Ratio (x) = -0.11549 -0.02342
# Poissons Ratio (y) = -0.06229 0.01353
# Poissons Ratio (z) = -0.01249 0.01337
#
# Static dielectric constant tensor:
#      x y z
#    x 1.995320 0.000000 -0.016760 
#    y 0.000000 1.930350 0.000000 
#    z -0.016760 0.000000 1.888140 
# 
# From -- ./inp_files/181916.got.cif
#   From: 2010.05.17/outbox.cif.g08.bks.cpg/sg12_91_cif.got.tgz:181916.got - 2010.06.03 13:09:07.
