data_PCOD9180310
_publ_section_title
;
Structure prediction by ZEFSAII (Michael W. Deem and Ramdas Pophale) SiO2 
 PCOD9180310
Probable space group: C 2/M
;
_chemical_formula_sum "Si O2"
_cell_formula_units_Z 64
_cell_length_a 34.401333
_cell_length_b 9.571504
_cell_length_c 14.387314
_cell_angle_alpha 90.000000
_cell_angle_beta 53.676340
_cell_angle_gamma 90.000000
_cell_volume 3816.803308
_symmetry_space_group_name_H-M "C 2/M"
_symmetry_group_IT_number 12
_symmetry_cell_setting 'monoclinic'
loop_
_space_group_symop_operation_xyz
x,y,z
-x,y,-z
-x,-y,-z
x,-y,z
1/2+x,1/2+y,z
1/2-x,1/2+y,-z
1/2-x,1/2-y,-z
1/2+x,1/2-y,z
loop_
_atom_site_type_symbol
_atom_site_label
_atom_site_fract_x
_atom_site_fract_y
_atom_site_fract_z
Si Si1 0.790386 0.833611 0.818646
Si Si2 0.601862 0.661955 0.992437
Si Si3 0.360811 0.162475 0.593638
Si Si4 0.444389 0.166921 0.101042
Si Si5 0.569035 0.166564 0.663303
Si Si6 0.692720 0.333357 0.993767
Si Si7 0.946823 0.655646 0.619835
Si Si8 0.476450 0.661200 0.738010
O O1 0.820889 0.762491 0.693732
O O2 0.738672 0.758317 0.899866
O O3 0.785742 0.000000 0.812832
O O4 0.815455 0.808902 0.884327
O O5 0.607967 0.500000 0.956006
O O6 0.591452 0.756850 0.918673
O O7 0.647280 0.700371 0.992966
O O8 0.554779 0.670928 0.124435
O O9 0.382074 0.198914 0.462183
O O10 0.406853 0.170921 0.597411
O O11 0.344635 0.000000 0.616312
O O12 0.431379 0.197217 0.226507
O O13 0.441729 0.000000 0.091221
O O14 0.500000 0.208801 0.000000
O O15 0.524831 0.250103 0.681176
O O16 0.560540 0.000000 0.663302
O O17 0.702962 0.500000 0.969750
O O18 0.941271 0.500000 0.669483
O O19 0.945021 0.773121 0.700129
O O20 0.000000 0.662832 0.500000
O O21 0.487488 0.500000 0.703237
#
# Coordination Sequence:
#
# PCOD9180310 Si02
#       8
#     8   8   8   8   8   8   8   8
#     4  10  20  35  57  83 111 136 172 221 262 312
#     4  10  21  35  53  77 108 141 173 218 271 323
#     4  10  20  34  53  73 102 144 180 211 259 318
#     4  10  20  34  55  78 103 139 183 230 269 307
#     4  10  20  36  52  71 103 142 182 217 256 312
#     4   9  19  37  57  79 109 142 174 211 265 323
#     4  10  19  32  48  68  99 140 179 211 246 304
#     4  11  21  31  47  74 106 139 173 214 263 308
#
# _framework density 16.767959000000001
#
# number of rings (size 3 to 8) (size 9 to 14) (size 15 to 20)
#    0.000    2.000    2.500    1.500    0.000    4.500 
#    0.000    0.000    0.000    0.750    0.000    0.000 
#    0.000    0.000    0.000    0.000    0.000    0.000 
#
# Total GULP energy -178523.731145 kJ/mol
# GULP energy per Si atom -5578.866598 kJ/mol
# Density = 1.672979 g / cm^3
# Si number density = 16.767959 Si / 1000 Ang^3
#
#
#
# Elastic Constant Matrix: (Units=GPa)
#
#
# Indices 1 2 3 4 5 6 
#
# 1 71.9811 40.8722 38.0095 0.0000 7.7386 0.0000
# 2 40.8722 57.9672 58.1491 0.0000 8.2722 0.0000
# 3 38.0095 58.1491 111.2959 0.0000 8.5206 0.0000
# 4 0.0000 0.0000 0.0000 24.0381 0.0000 1.0741
# 5 7.7386 8.2722 8.5206 0.0000 23.8070 0.0000
# 6 0.0000 0.0000 0.0000 1.0741 0.0000 27.8695
#
#
#
# Elastic Compliance Matrix: (Units=1/GPa)
#
#
# Indices 1 2 3 4 5 6 
#
# 1 0.023348 -0.017511 0.001327 0.000000 -0.001980 0.000000
# 2 -0.017511 0.050231 -0.019909 0.000000 -0.004636 0.000000
# 3 0.001327 -0.019909 0.018957 0.000000 -0.000298 0.000000
# 4 0.000000 0.000000 0.000000 0.041672 0.000000 -0.001606
# 5 -0.001980 -0.004636 -0.000298 0.000000 0.044366 0.000000
# 6 0.000000 0.000000 0.000000 -0.001606 0.000000 0.035943
#
#
# Mechanical properties :
#
#
# Convention : Reuss Voigt Hill
#
# Bulk Modulus (GPa) = 49.14179 57.25622 53.19901
# Shear Modulus (GPa) = 17.03655 22.09048 19.56352
#
# Velocity S-wave (km/s) = 3.19096 3.63357 3.41943
# Velocity P-wave (km/s) = 6.55339 7.19890 6.88371
#
# Compressibility (1/GPa) = 0.02034928
#
# Stress axis : x y z
#
# Youngs Moduli (GPa) = 42.83081 19.90795 52.75148
#
# Poissons Ratio (x) = 0.34860 -0.06999
# Poissons Ratio (y) = 0.75000 1.05024
# Poissons Ratio (z) = -0.05683 0.39635
#
# Static dielectric constant tensor:
#      x y z
#    x 1.548580 0.000000 0.011220 
#    y 0.000000 1.564880 0.000000 
#    z 0.011220 0.000000 1.572230 
# 
# From -- ./inp_files/249703.got.cif
#   From: 2010.05.17/outbox.cif.g08.bks.cpg/sg12_125_cif.got.tgz:249703.got - 2010.06.03 13:09:07.
