data_PCOD9180161
_publ_section_title
;
Structure prediction by ZEFSAII (Michael W. Deem and Ramdas Pophale) SiO2 
 PCOD9180161
Probable space group: C 2/M
;
_chemical_formula_sum "Si O2"
_cell_formula_units_Z 56
_cell_length_a 21.077902
_cell_length_b 8.564110
_cell_length_c 30.883175
_cell_angle_alpha 90.000000
_cell_angle_beta 146.305116
_cell_angle_gamma 90.000000
_cell_volume 3092.748729
_symmetry_space_group_name_H-M "C 2/M"
_symmetry_group_IT_number 12
_symmetry_cell_setting 'monoclinic'
loop_
_space_group_symop_operation_xyz
x,y,z
-x,y,-z
-x,-y,-z
x,-y,z
1/2+x,1/2+y,z
1/2-x,1/2+y,-z
1/2-x,1/2-y,-z
1/2+x,1/2-y,z
loop_
_atom_site_type_symbol
_atom_site_label
_atom_site_fract_x
_atom_site_fract_y
_atom_site_fract_z
Si Si1 0.676144 0.689958 0.234128
Si Si2 0.311074 0.688885 0.657935
Si Si3 0.698941 0.186990 0.903832
Si Si4 0.422481 0.311070 0.079085
Si Si5 0.914953 0.687412 0.329936
Si Si6 0.433059 0.687111 0.505708
Si Si7 0.543882 0.313131 0.742096
O O1 0.677359 0.500000 0.234428
O O2 0.684170 0.738083 0.289003
O O3 0.552901 0.739276 0.145822
O O4 0.787857 0.742660 0.271780
O O5 0.306267 0.500000 0.654479
O O6 0.196632 0.754914 0.571694
O O7 0.425906 0.738273 0.698329
O O8 0.621985 0.245571 0.900371
O O9 0.647969 0.256281 0.831188
O O10 0.694097 0.000000 0.899076
O O11 0.828642 0.234164 0.989950
O O12 0.420876 0.500000 0.081403
O O13 0.915177 0.500000 0.329739
O O14 0.946653 0.748514 0.300729
O O15 0.002498 0.745257 0.416171
O O16 0.500000 0.737466 0.500000
O O17 0.435558 0.500000 0.509046
O O18 0.543663 0.500000 0.740898
#
# Coordination Sequence:
#
# PCOD9180161 Si02
#       7
#     8   8   8   8   8   8   8
#     4   9  17  34  59  85 109 144 192 234 275 326
#     4  10  20  37  62  84 107 148 194 232 273 329
#     4  10  19  31  54  86 117 148 187 233 281 333
#     4   9  17  33  56  84 115 148 189 235 279 326
#     4  11  23  39  61  84 112 148 190 234 279 337
#     4  11  23  38  58  87 119 146 180 231 286 334
#     4  11  23  40  59  81 117 154 186 230 286 338
#
# _framework density 18.106871000000002
#
# number of rings (size 3 to 8) (size 9 to 14) (size 15 to 20)
#    0.000    1.857    2.857    1.714    0.000    2.857 
#    0.000    2.143    0.000    4.286    0.000    0.000 
#    0.000    0.000    0.000    0.000    0.000    0.000 
#
# Total GULP energy -156333.880192 kJ/mol
# GULP energy per Si atom -5583.352864 kJ/mol
# Density = 1.806566 g / cm^3
# Si number density = 18.106871 Si / 1000 Ang^3
#
#
#
# Elastic Constant Matrix: (Units=GPa)
#
#
# Indices 1 2 3 4 5 6 
#
# 1 109.9498 25.5039 63.6131 0.0000 -6.0713 0.0000
# 2 25.5039 27.3866 30.5475 0.0000 -3.2944 0.0000
# 3 63.6131 30.5475 151.1953 0.0000 0.4807 0.0000
# 4 0.0000 0.0000 0.0000 26.2677 0.0000 -5.9310
# 5 -6.0713 -3.2944 0.4807 0.0000 33.5957 0.0000
# 6 0.0000 0.0000 0.0000 -5.9310 0.0000 23.8072
#
#
#
# Elastic Compliance Matrix: (Units=1/GPa)
#
#
# Indices 1 2 3 4 5 6 
#
# 1 0.013317 -0.007668 -0.004059 0.000000 0.001713 0.000000
# 2 -0.007668 0.052325 -0.007358 0.000000 0.003851 0.000000
# 3 -0.004059 -0.007358 0.009813 0.000000 -0.001595 0.000000
# 4 0.000000 0.000000 0.000000 0.040339 0.000000 0.010049
# 5 0.001713 0.003851 -0.001595 0.000000 0.030476 0.000000
# 6 0.000000 0.000000 0.000000 0.010049 0.000000 0.044508
#
#
# Mechanical properties :
#
#
# Convention : Reuss Voigt Hill
#
# Bulk Modulus (GPa) = 26.81975 58.65120 42.73548
# Shear Modulus (GPa) = 20.71462 27.99191 24.35326
#
# Velocity S-wave (km/s) = 3.38601 3.93609 3.67137
# Velocity P-wave (km/s) = 5.48915 7.28829 6.45174
#
# Compressibility (1/GPa) = 0.03728596
#
# Stress axis : x y z
#
# Youngs Moduli (GPa) = 75.09405 19.11122 101.90111
#
# Poissons Ratio (x) = 0.14654 0.41362
# Poissons Ratio (y) = 0.57579 0.74979
# Poissons Ratio (z) = 0.30481 0.14062
#
# Static dielectric constant tensor:
#      x y z
#    x 1.598680 0.000000 0.020340 
#    y 0.000000 1.614850 0.000000 
#    z 0.020340 0.000000 1.614740 
# 
# From -- ./inp_files/320194.got.cif
#   From: 2010.05.17/outbox.cif.g08.bks.cpg/sg12_161_cif.got.tgz:320194.got - 2010.06.03 13:09:07.
