data_PCOD9180517
_publ_section_title
;
Structure prediction by ZEFSAII (Michael W. Deem and Ramdas Pophale) SiO2 
 PCOD9180517
Probable space group: C 2/M
;
_chemical_formula_sum "Si O2"
_cell_formula_units_Z 64
_cell_length_a 28.467346
_cell_length_b 8.867677
_cell_length_c 21.088279
_cell_angle_alpha 90.000000
_cell_angle_beta 133.567308
_cell_angle_gamma 90.000000
_cell_volume 3857.229444
_symmetry_space_group_name_H-M "C 2/M"
_symmetry_group_IT_number 12
_symmetry_cell_setting 'monoclinic'
loop_
_space_group_symop_operation_xyz
x,y,z
-x,y,-z
-x,-y,-z
x,-y,z
1/2+x,1/2+y,z
1/2-x,1/2+y,-z
1/2-x,1/2-y,-z
1/2+x,1/2-y,z
loop_
_atom_site_type_symbol
_atom_site_label
_atom_site_fract_x
_atom_site_fract_y
_atom_site_fract_z
Si Si1 0.581549 0.672753 0.629555
Si Si2 0.107672 0.679690 0.525468
Si Si3 0.303659 0.319573 0.597963
Si Si4 0.787411 0.679332 0.093604
Si Si5 0.750598 0.317940 0.673066
Si Si6 0.762998 0.828131 0.200661
Si Si7 0.436221 0.180015 0.253907
Si Si8 0.564251 0.321096 0.353495
O O1 0.558681 0.500000 0.611526
O O2 0.571461 0.745160 0.551450
O O3 0.660030 0.670709 0.711456
O O4 0.557278 0.767945 0.666678
O O5 0.105480 0.500000 0.528818
O O6 0.181432 0.739347 0.596787
O O7 0.081176 0.735753 0.434112
O O8 0.292839 0.500000 0.591908
O O9 0.250000 0.250000 0.500000
O O10 0.295422 0.242670 0.658685
O O11 0.375577 0.293659 0.637346
O O12 0.785728 0.500000 0.087627
O O13 0.756521 0.729639 0.131916
O O14 0.863517 0.725613 0.165595
O O15 0.750000 0.750000 0.000000
O O16 0.743289 0.500000 0.662583
O O17 0.769945 0.280610 0.763712
O O18 0.743882 0.000000 0.168293
O O19 0.493765 0.259252 0.268837
O O20 0.441852 0.000000 0.255402
O O21 0.560673 0.500000 0.361697
#
# Coordination Sequence:
#
# PCOD9180517 Si02
#       8
#     8   8   8   8   8   8   8   8
#     4   9  17  31  49  68  96 132 168 207 251 299
#     4  11  20  30  47  69  95 131 174 217 256 296
#     4  11  22  34  51  72  98 134 180 227 266 303
#     4  10  20  34  56  83 109 134 162 199 244 305
#     4  10  19  32  50  72 101 135 174 218 263 305
#     4   8  16  30  49  74 103 133 164 203 249 300
#     4  10  21  36  52  74 101 130 167 208 250 301
#     4  11  23  36  49  68  97 134 175 216 260 305
#
# _framework density 16.592219
#
# number of rings (size 3 to 8) (size 9 to 14) (size 15 to 20)
#    0.000    2.000    1.250    4.125    0.000    7.000 
#    0.000    2.500    0.000    0.000    0.000    0.875 
#    0.000    7.000    0.000    0.000    0.000    0.000 
#
# Total GULP energy -178582.727240 kJ/mol
# GULP energy per Si atom -5580.710226 kJ/mol
# Density = 1.655445 g / cm^3
# Si number density = 16.592219 Si / 1000 Ang^3
#
#
#
# Elastic Constant Matrix: (Units=GPa)
#
#
# Indices 1 2 3 4 5 6 
#
# 1 113.4713 51.4666 48.0851 0.0000 -8.5333 0.0000
# 2 51.4666 81.2130 38.5983 0.0000 -5.4469 0.0000
# 3 48.0851 38.5983 76.5371 0.0000 -14.2740 0.0000
# 4 0.0000 0.0000 0.0000 22.4506 0.0000 -4.5712
# 5 -8.5333 -5.4469 -14.2740 0.0000 17.9212 0.0000
# 6 0.0000 0.0000 0.0000 -4.5712 0.0000 29.9158
#
#
#
# Elastic Compliance Matrix: (Units=1/GPa)
#
#
# Indices 1 2 3 4 5 6 
#
# 1 0.014034 -0.006195 -0.005635 0.000000 0.000312 0.000000
# 2 -0.006195 0.018982 -0.006055 0.000000 -0.002003 0.000000
# 3 -0.005635 -0.006055 0.022098 0.000000 0.013077 0.000000
# 4 0.000000 0.000000 0.000000 0.045973 0.000000 0.007025
# 5 0.000312 -0.002003 0.013077 0.000000 0.065755 0.000000
# 6 0.000000 0.000000 0.000000 0.007025 0.000000 0.034501
#
#
# Mechanical properties :
#
#
# Convention : Reuss Voigt Hill
#
# Bulk Modulus (GPa) = 51.69005 60.83571 56.26288
# Shear Modulus (GPa) = 20.52895 22.92896 21.72896
#
# Velocity S-wave (km/s) = 3.52129 3.72144 3.62275
# Velocity P-wave (km/s) = 6.91039 7.43036 7.17509
#
# Compressibility (1/GPa) = 0.01934608
#
# Stress axis : x y z
#
# Youngs Moduli (GPa) = 71.25743 52.68101 45.25318
#
# Poissons Ratio (x) = 0.32633 0.25499
# Poissons Ratio (y) = 0.44141 0.27399
# Poissons Ratio (z) = 0.40151 0.31896
#
# Static dielectric constant tensor:
#      x y z
#    x 1.589390 0.000000 0.014300 
#    y 0.000000 1.555740 0.000000 
#    z 0.014300 0.000000 1.555040 
# 
# From -- ./inp_files/326976.got.cif
#   From: 2010.05.17/outbox.cif.g08.bks.cpg/sg12_164_cif.got.tgz:326976.got - 2010.06.03 13:09:07.
