data_PCOD9180460
_publ_section_title
;
Structure prediction by ZEFSAII (Michael W. Deem and Ramdas Pophale) SiO2 
 PCOD9180460
Probable space group: C 2/M
;
_chemical_formula_sum "Si O2"
_cell_formula_units_Z 64
_cell_length_a 17.644375
_cell_length_b 31.619333
_cell_length_c 13.772050
_cell_angle_alpha 90.000000
_cell_angle_beta 153.092235
_cell_angle_gamma 90.000000
_cell_volume 3477.198511
_symmetry_space_group_name_H-M "C 2/M"
_symmetry_group_IT_number 12
_symmetry_cell_setting 'monoclinic'
loop_
_space_group_symop_operation_xyz
x,y,z
-x,y,-z
-x,-y,-z
x,-y,z
1/2+x,1/2+y,z
1/2-x,1/2+y,-z
1/2-x,1/2-y,-z
1/2+x,1/2-y,z
loop_
_atom_site_type_symbol
_atom_site_label
_atom_site_fract_x
_atom_site_fract_y
_atom_site_fract_z
Si Si1 0.704639 0.289576 0.377791
Si Si2 0.733935 0.951006 0.354040
Si Si3 0.148047 0.753482 0.035147
Si Si4 0.762049 0.628148 0.973519
Si Si5 0.882252 0.864764 0.583221
Si Si6 0.661917 0.951681 0.050699
Si Si7 0.813547 0.331374 0.821801
Si Si8 0.441373 0.201372 0.266614
O O1 0.750000 0.250000 0.500000
O O2 0.698011 0.333748 0.429136
O O3 0.863461 0.292524 0.488524
O O4 0.516570 0.280460 0.129149
O O5 0.825722 0.913677 0.516424
O O6 0.537131 0.948537 0.156247
O O7 0.786802 0.000000 0.430462
O O8 0.746590 0.942067 0.252348
O O9 0.183857 0.718645 0.157478
O O10 0.310918 0.780259 0.194330
O O11 0.100084 0.727075 0.881390
O O12 0.581935 0.637410 0.813220
O O13 0.772006 0.648043 0.877047
O O14 0.788942 0.579271 0.979663
O O15 0.898234 0.652835 0.192541
O O16 0.817519 0.845185 0.408057
O O17 0.702696 0.000000 0.074267
O O18 0.000000 0.344453 0.000000
#
# Coordination Sequence:
#
# PCOD9180460 Si02
#       8
#     8   8   8   8   8   8   8   8
#     4  10  19  32  50  64  84 119 154 190 240 283
#     4   9  18  31  46  62  85 118 155 194 237 278
#     4   9  18  33  45  63  85 110 149 189 235 276
#     4  11  20  30  44  66  89 115 157 196 232 281
#     4  12  21  31  46  70  91 118 160 198 241 275
#     4   9  17  30  44  59  84 117 149 191 242 275
#     4  11  21  32  44  63  88 116 150 197 235 271
#     4   9  17  31  48  60  83 112 144 193 227 275
#
# _framework density 18.405622000000001
#
# number of rings (size 3 to 8) (size 9 to 14) (size 15 to 20)
#    0.000    2.000    2.500    4.875    1.750    0.500 
#    2.250    1.250    0.000    0.000    0.000    0.000 
#    0.000    0.000    0.000    0.000    0.000   11.250 
#
# Total GULP energy -178634.616930 kJ/mol
# GULP energy per Si atom -5582.331779 kJ/mol
# Density = 1.836373 g / cm^3
# Si number density = 18.405622 Si / 1000 Ang^3
#
#
#
# Elastic Constant Matrix: (Units=GPa)
#
#
# Indices 1 2 3 4 5 6 
#
# 1 36.0135 24.8024 23.6561 0.0000 12.2725 0.0000
# 2 24.8024 116.2849 34.8473 0.0000 7.7724 0.0000
# 3 23.6561 34.8473 68.4712 -0.0001 30.6385 0.0000
# 4 0.0000 0.0000 -0.0001 23.1631 0.0000 4.6620
# 5 12.2725 7.7724 30.6385 0.0000 23.4099 0.0000
# 6 0.0000 0.0000 0.0000 4.6620 0.0000 30.6070
#
#
#
# Elastic Compliance Matrix: (Units=1/GPa)
#
#
# Indices 1 2 3 4 5 6 
#
# 1 0.039394 -0.006031 -0.005299 0.000000 -0.011715 0.000000
# 2 -0.006031 0.011764 -0.008617 0.000000 0.010534 0.000000
# 3 -0.005299 -0.008617 0.044158 0.000000 -0.052155 0.000000
# 4 0.000000 0.000000 0.000000 0.044538 0.000000 -0.006784
# 5 -0.011715 0.010534 -0.052155 0.000000 0.113621 0.000000
# 6 0.000000 0.000000 0.000000 -0.006784 0.000000 0.033706
#
#
# Mechanical properties :
#
#
# Convention : Reuss Voigt Hill
#
# Bulk Modulus (GPa) = 18.04325 43.04234 30.54280
# Shear Modulus (GPa) = 14.46976 24.60024 19.53500
#
# Velocity S-wave (km/s) = 2.80690 3.65987 3.26139
# Velocity P-wave (km/s) = 4.50880 6.42617 5.55090
#
# Compressibility (1/GPa) = 0.05542238
#
# Stress axis : x y z
#
# Youngs Moduli (GPa) = 25.38471 85.00389 22.64580
#
# Poissons Ratio (x) = 0.51269 0.11999
# Poissons Ratio (y) = 0.15311 0.19513
# Poissons Ratio (z) = 0.13451 0.73246
#
# Static dielectric constant tensor:
#      x y z
#    x 1.637690 0.000000 0.020510 
#    y 0.000000 1.686630 0.000000 
#    z 0.020510 0.000000 1.647570 
# 
# From -- ./inp_files/286789.got.cif
#   From: 2010.05.17/outbox.cif.g08.bks.cpg/sg12_144_cif.got.tgz:286789.got - 2010.06.03 13:09:07.
