data_PCOD9180850
_publ_section_title
;
Structure prediction by ZEFSAII (Michael W. Deem and Ramdas Pophale) SiO2 
 PCOD9180850
Probable space group: C 2/M
;
_chemical_formula_sum "Si O2"
_cell_formula_units_Z 56
_cell_length_a 5.650298
_cell_length_b 26.239874
_cell_length_c 19.545610
_cell_angle_alpha 90.000000
_cell_angle_beta 110.665779
_cell_angle_gamma 90.000000
_cell_volume 2711.427913
_symmetry_space_group_name_H-M "C 2/M"
_symmetry_group_IT_number 12
_symmetry_cell_setting 'monoclinic'
loop_
_space_group_symop_operation_xyz
x,y,z
-x,y,-z
-x,-y,-z
x,-y,z
1/2+x,1/2+y,z
1/2-x,1/2+y,-z
1/2-x,1/2-y,-z
1/2+x,1/2-y,z
loop_
_atom_site_type_symbol
_atom_site_label
_atom_site_fract_x
_atom_site_fract_y
_atom_site_fract_z
Si Si1 0.156142 0.560712 0.151392
Si Si2 0.795999 0.695162 0.423341
Si Si3 0.988866 0.907467 0.574818
Si Si4 0.420835 0.561679 0.913885
Si Si5 0.588850 0.765675 0.283677
Si Si6 0.603581 0.557149 0.291092
Si Si7 0.017824 0.630267 0.321586
O O1 0.129121 0.500000 0.135652
O O2 0.353761 0.580077 0.113573
O O3 0.315711 0.565997 0.237725
O O4 0.869279 0.580740 0.124929
O O5 0.615316 0.651307 0.437513
O O6 0.653920 0.738243 0.364215
O O7 0.938057 0.663003 0.379817
O O8 0.000000 0.714225 0.500000
O O9 0.273185 0.907275 0.630001
O O10 0.000000 0.928613 0.500000
O O11 0.850983 0.935913 0.623033
O O12 0.413156 0.500000 0.903291
O O13 0.500000 0.571441 0.000000
O O14 0.286086 0.758058 0.250205
O O15 0.633662 0.826099 0.286063
O O16 0.671363 0.500000 0.276724
O O17 0.776423 0.599276 0.273066
#
# Coordination Sequence:
#
# PCOD9180850 Si02
#       7
#     8   8   8   8   8   8   8
#     4   9  18  32  50  74 102 137 178 214 255 310
#     4  10  19  32  51  76 104 122 153 210 291 364
#     4  11  21  36  54  73  97 130 181 242 292 329
#     4   9  16  28  50  80 109 131 159 208 263 314
#     4  10  20  33  52  80 104 128 154 201 281 351
#     4  10  24  39  53  71  97 143 197 241 270 306
#     4  10  21  35  52  71 100 128 171 224 282 331
#
# _framework density 20.653324999999999
#
# number of rings (size 3 to 8) (size 9 to 14) (size 15 to 20)
#    0.000    2.143    2.857    0.429    2.000    5.429 
#    0.000    0.714    0.000    0.000    0.000    0.000 
#    0.000    0.000    0.000    0.000    0.000  128.571 
#
# Total GULP energy -156013.788712 kJ/mol
# GULP energy per Si atom -5571.921025 kJ/mol
# Density = 2.060632 g / cm^3
# Si number density = 20.653325 Si / 1000 Ang^3
#
#
#
# Elastic Constant Matrix: (Units=GPa)
#
#
# Indices 1 2 3 4 5 6 
#
# 1 111.8556 5.6876 39.7698 0.0000 4.6012 0.0000
# 2 5.6876 40.9658 12.7233 0.0000 3.7826 0.0000
# 3 39.7698 12.7233 61.3649 0.0000 -14.0573 0.0000
# 4 0.0000 0.0000 0.0000 2.2087 0.0000 10.9571
# 5 4.6012 3.7826 -14.0573 0.0000 31.6716 0.0000
# 6 0.0000 0.0000 0.0000 10.9571 0.0000 20.5699
#
#
#
# Elastic Compliance Matrix: (Units=1/GPa)
#
#
# Indices 1 2 3 4 5 6 
#
# 1 0.012729 0.002004 -0.010178 0.000000 -0.006606 0.000000
# 2 0.002004 0.027525 -0.008711 0.000000 -0.007445 0.000000
# 3 -0.010178 -0.008711 0.028136 0.000000 0.015007 0.000000
# 4 0.000000 0.000000 0.000000 -0.275635 0.000000 0.146825
# 5 -0.006606 -0.007445 0.015007 0.000000 0.040084 0.000000
# 6 0.000000 0.000000 0.000000 0.146825 0.000000 -0.029596
#
#
# Mechanical properties :
#
#
# Convention : Reuss Voigt Hill
#
# Bulk Modulus (GPa) = 28.88548 36.72751 32.80650
# Shear Modulus (GPa) = -33.01513 21.29040 -5.86237
#
# Velocity S-wave (km/s) = -4.00251 3.21416 -1.68660
# Velocity P-wave (km/s) = 2.70996 5.62102 3.48224
#
# Compressibility (1/GPa) = 0.03461946
#
# Stress axis : x y z
#
# Youngs Moduli (GPa) = 78.56240 36.33007 35.54135
#
# Poissons Ratio (x) = -0.07280 0.36174
# Poissons Ratio (y) = -0.15743 0.30961
# Poissons Ratio (z) = 0.79962 0.31648
#
# Static dielectric constant tensor:
#      x y z
#    x 1.852010 0.000000 -0.029200 
#    y 0.000000 1.749950 0.000000 
#    z -0.029200 0.000000 1.758350 
# 
# From -- ./inp_files/253591.got.cif
#   From: 2010.05.17/outbox.cif.g08.bks.cpg/sg12_127_cif.got.tgz:253591.got - 2010.06.03 13:09:07.
