data_PCOD9180816
_publ_section_title
;
Structure prediction by ZEFSAII (Michael W. Deem and Ramdas Pophale) SiO2 
 PCOD9180816
Probable space group: C 2/M
;
_chemical_formula_sum "Si O2"
_cell_formula_units_Z 48
_cell_length_a 15.880058
_cell_length_b 7.995061
_cell_length_c 15.246536
_cell_angle_alpha 90.000000
_cell_angle_beta 109.286363
_cell_angle_gamma 90.000000
_cell_volume 1827.097171
_symmetry_space_group_name_H-M "C 2/M"
_symmetry_group_IT_number 12
_symmetry_cell_setting 'monoclinic'
loop_
_space_group_symop_operation_xyz
x,y,z
-x,y,-z
-x,-y,-z
x,-y,z
1/2+x,1/2+y,z
1/2-x,1/2+y,-z
1/2-x,1/2-y,-z
1/2+x,1/2-y,z
loop_
_atom_site_type_symbol
_atom_site_label
_atom_site_fract_x
_atom_site_fract_y
_atom_site_fract_z
Si Si1 0.621030 0.195730 0.026206
Si Si2 0.924360 0.304239 0.804735
Si Si3 0.818573 0.698538 0.136006
Si Si4 0.457289 0.691996 0.315244
Si Si5 0.120811 0.698636 0.472359
Si Si6 0.238741 0.193012 0.350375
O O1 0.569292 0.262666 0.093713
O O2 0.724546 0.214090 0.089614
O O3 0.598815 0.000000 0.015427
O O4 0.621083 0.257685 0.926227
O O5 0.951517 0.500000 0.810048
O O6 0.820636 0.293414 0.738981
O O7 0.978486 0.208588 0.748958
O O8 0.804692 0.500000 0.121430
O O9 0.867232 0.729945 0.244573
O O10 0.443690 0.500000 0.331943
O O11 0.517949 0.775010 0.411369
O O12 0.138307 0.500000 0.470405
O O13 0.177854 0.794082 0.417858
O O14 0.164608 0.750704 0.580222
O O15 0.243016 0.000000 0.323485
#
# Coordination Sequence:
#
# PCOD9180816 Si02
#       6
#     8   8   8   8   8   8
#     4   9  20  37  55  75  98 129 167 204 245 298
#     4  10  19  32  51  75 104 133 164 203 247 293
#     4  10  20  36  56  74  97 130 167 205 248 298
#     4  11  21  32  49  75 105 132 166 208 247 290
#     4   9  16  27  44  67  97 131 165 200 242 290
#     4   9  16  26  43  69  99 129 163 201 241 289
#
# _framework density 26.271180999999999
#
# number of rings (size 3 to 8) (size 9 to 14) (size 15 to 20)
#    0.000    2.333    0.000    5.500    0.000    4.667 
#    0.000    3.333    0.000    1.000    0.000    7.000 
#    0.000    0.000    0.000    0.000    0.000    0.000 
#
# Total GULP energy -134259.901815 kJ/mol
# GULP energy per Si atom -5594.162576 kJ/mol
# Density = 2.621139 g / cm^3
# Si number density = 26.271181 Si / 1000 Ang^3
#
#
#
# Elastic Constant Matrix: (Units=GPa)
#
#
# Indices 1 2 3 4 5 6 
#
# 1 90.3625 4.6820 22.3331 0.0000 13.6571 0.0000
# 2 4.6820 92.4458 12.5130 0.0000 6.6858 0.0000
# 3 22.3331 12.5130 199.9022 0.0000 8.4520 0.0000
# 4 0.0000 0.0000 0.0000 10.2683 0.0000 -0.6206
# 5 13.6571 6.6858 8.4520 0.0000 66.0207 0.0000
# 6 0.0000 0.0000 0.0000 -0.6206 0.0000 19.9894
#
#
#
# Elastic Compliance Matrix: (Units=1/GPa)
#
#
# Indices 1 2 3 4 5 6 
#
# 1 0.011715 -0.000269 -0.001197 0.000000 -0.002243 0.000000
# 2 -0.000269 0.010985 -0.000616 0.000000 -0.000978 0.000000
# 3 -0.001197 -0.000616 0.005190 0.000000 -0.000354 0.000000
# 4 0.000000 0.000000 0.000000 0.097570 0.000000 0.003029
# 5 -0.002243 -0.000978 -0.000354 0.000000 0.015755 0.000000
# 6 0.000000 0.000000 0.000000 0.003029 0.000000 0.050120
#
#
# Mechanical properties :
#
#
# Convention : Reuss Voigt Hill
#
# Bulk Modulus (GPa) = 42.14941 51.30739 46.72840
# Shear Modulus (GPa) = 24.58104 42.13453 33.35778
#
# Velocity S-wave (km/s) = 3.06218 4.00913 3.56722
# Velocity P-wave (km/s) = 5.34616 6.40337 5.89850
#
# Compressibility (1/GPa) = 0.02372512
#
# Stress axis : x y z
#
# Youngs Moduli (GPa) = 85.35812 91.03399 192.68762
#
# Poissons Ratio (x) = 0.02450 0.23068
# Poissons Ratio (y) = 0.02297 0.11873
# Poissons Ratio (z) = 0.10219 0.05609
#
# Static dielectric constant tensor:
#      x y z
#    x 2.206000 0.000000 0.005870 
#    y 0.000000 1.883180 0.000000 
#    z 0.005870 0.000000 2.087020 
# 
# From -- ./inp_files/287956.got.cif
#   From: 2010.05.17/outbox.cif.g08.bks.cpg/sg12_144_cif.got.tgz:287956.got - 2010.06.03 13:09:07.
