data_PCOD9180676
_publ_section_title
;
Structure prediction by ZEFSAII (Michael W. Deem and Ramdas Pophale) SiO2 
 PCOD9180676
Probable space group: C 2/M
;
_chemical_formula_sum "Si O2"
_cell_formula_units_Z 64
_cell_length_a 27.972551
_cell_length_b 10.414140
_cell_length_c 20.385533
_cell_angle_alpha 90.000000
_cell_angle_beta 142.610585
_cell_angle_gamma 90.000000
_cell_volume 3606.036424
_symmetry_space_group_name_H-M "C 2/M"
_symmetry_group_IT_number 12
_symmetry_cell_setting 'monoclinic'
loop_
_space_group_symop_operation_xyz
x,y,z
-x,y,-z
-x,-y,-z
x,-y,z
1/2+x,1/2+y,z
1/2-x,1/2+y,-z
1/2-x,1/2-y,-z
1/2+x,1/2-y,z
loop_
_atom_site_type_symbol
_atom_site_label
_atom_site_fract_x
_atom_site_fract_y
_atom_site_fract_z
Si Si1 0.306640 0.240901 0.668467
Si Si2 0.329101 0.635537 0.562372
Si Si3 0.728035 0.845385 0.827455
Si Si4 0.023325 0.346769 0.098079
Si Si5 0.431937 0.847275 0.605401
Si Si6 0.634897 0.153923 0.993902
Si Si7 0.813663 0.350350 0.363118
Si Si8 0.111977 0.345719 0.816734
O O1 0.312353 0.354505 0.621307
O O2 0.252377 0.143727 0.567056
O O3 0.393878 0.203223 0.784646
O O4 0.255597 0.273201 0.676706
O O5 0.368642 0.500000 0.589834
O O6 0.381058 0.757821 0.598050
O O7 0.803293 0.752356 0.907272
O O8 0.681478 0.826093 0.708615
O O9 0.674755 0.803549 0.831085
O O10 0.746175 0.000000 0.852628
O O11 0.032286 0.500000 0.102366
O O12 0.000000 0.297440 0.000000
O O13 0.951074 0.323194 0.068707
O O14 0.392548 0.829386 0.491119
O O15 0.522430 0.805479 0.705381
O O16 0.426647 0.000000 0.616695
O O17 0.652564 0.000000 0.021922
O O18 0.633714 0.184139 0.915140
O O19 0.793408 0.500000 0.348899
O O20 0.110885 0.500000 0.810519
#
# Coordination Sequence:
#
# PCOD9180676 Si02
#       8
#     8   8   8   8   8   8   8   8
#     4  10  19  32  51  72 103 139 169 203 252 299
#     4  10  20  32  51  79 107 134 168 208 248 299
#     4  10  20  35  54  76 101 130 168 209 252 303
#     4  10  20  33  51  74 100 135 177 212 243 293
#     4   9  18  34  54  76 103 134 166 204 254 300
#     4  10  20  35  53  74 101 131 168 212 253 293
#     4   9  18  32  51  75 103 133 165 205 250 300
#     4   9  18  33  55  78  99 129 169 211 251 297
#
# _framework density 17.748017999999998
#
# number of rings (size 3 to 8) (size 9 to 14) (size 15 to 20)
#    0.000    2.375    0.000    2.625    0.000    5.000 
#    0.000    8.750    0.000    3.375    0.000    4.375 
#    0.000    0.000    0.000    0.000    0.000    0.000 
#
# Total GULP energy -178260.204759 kJ/mol
# GULP energy per Si atom -5570.631399 kJ/mol
# Density = 1.770762 g / cm^3
# Si number density = 17.748018 Si / 1000 Ang^3
#
#
#
# Elastic Constant Matrix: (Units=GPa)
#
#
# Indices 1 2 3 4 5 6 
#
# 1 56.9687 7.6854 8.9711 0.0000 -18.2439 0.0000
# 2 7.6854 44.4253 20.8218 0.0000 0.7189 0.0000
# 3 8.9711 20.8218 62.3016 0.0000 1.0624 0.0000
# 4 0.0000 0.0000 0.0000 -9.9129 0.0000 4.1653
# 5 -18.2439 0.7189 1.0624 0.0000 22.3388 0.0000
# 6 0.0000 0.0000 0.0000 4.1653 0.0000 12.6042
#
#
#
# Elastic Compliance Matrix: (Units=1/GPa)
#
#
# Indices 1 2 3 4 5 6 
#
# 1 0.025094 -0.003341 -0.002851 0.000000 0.020737 0.000000
# 2 -0.003341 0.027140 -0.008535 0.000000 -0.003196 0.000000
# 3 -0.002851 -0.008535 0.019365 0.000000 -0.002974 0.000000
# 4 0.000000 0.000000 0.000000 -0.088579 0.000000 0.029273
# 5 0.020737 -0.003196 -0.002974 0.000000 0.061945 0.000000
# 6 0.000000 0.000000 0.000000 0.029273 0.000000 0.069665
#
#
# Mechanical properties :
#
#
# Convention : Reuss Voigt Hill
#
# Bulk Modulus (GPa) = 23.72699 26.51692 25.12195
# Shear Modulus (GPa) = 31.61953 13.42051 22.52002
#
# Velocity S-wave (km/s) = 4.22546 2.75284 3.56599
# Velocity P-wave (km/s) = 6.09949 5.00773 5.58038
#
# Compressibility (1/GPa) = 0.04214610
#
# Stress axis : x y z
#
# Youngs Moduli (GPa) = 39.85009 36.84658 51.64078
#
# Poissons Ratio (x) = 0.12309 0.14720
# Poissons Ratio (y) = 0.13313 0.44074
# Poissons Ratio (z) = 0.11359 0.31448
#
# Static dielectric constant tensor:
#      x y z
#    x 1.617010 0.000000 -0.015760 
#    y 0.000000 1.615010 0.000000 
#    z -0.015760 0.000000 1.607800 
# 
# From -- ./inp_files/327832.got.cif
#   From: 2010.05.17/outbox.cif.g08.bks.cpg/sg12_164_cif.got.tgz:327832.got - 2010.06.03 13:09:07.
