data_PCOD9180342
_publ_section_title
;
Structure prediction by ZEFSAII (Michael W. Deem and Ramdas Pophale) SiO2 
 PCOD9180342
Probable space group: C 2/M
;
_chemical_formula_sum "Si O2"
_cell_formula_units_Z 56
_cell_length_a 23.974664
_cell_length_b 7.783050
_cell_length_c 15.322271
_cell_angle_alpha 90.000000
_cell_angle_beta 88.291241
_cell_angle_gamma 90.000000
_cell_volume 2857.803219
_symmetry_space_group_name_H-M "C 2/M"
_symmetry_group_IT_number 12
_symmetry_cell_setting 'monoclinic'
loop_
_space_group_symop_operation_xyz
x,y,z
-x,y,-z
-x,-y,-z
x,-y,z
1/2+x,1/2+y,z
1/2-x,1/2+y,-z
1/2-x,1/2-y,-z
1/2+x,1/2-y,z
loop_
_atom_site_type_symbol
_atom_site_label
_atom_site_fract_x
_atom_site_fract_y
_atom_site_fract_z
Si Si1 0.115222 0.197090 0.701507
Si Si2 0.675219 0.696789 0.170676
Si Si3 0.437834 0.707587 0.757870
Si Si4 0.876192 0.301728 0.005112
Si Si5 0.301162 0.298733 0.168674
Si Si6 0.037056 0.294760 0.864226
Si Si7 0.483056 0.288972 0.404136
O O1 0.171157 0.270209 0.742651
O O2 0.072188 0.205089 0.785356
O O3 0.078001 0.272619 0.625270
O O4 0.127143 0.000000 0.676729
O O5 0.685344 0.500000 0.195400
O O6 0.625456 0.770638 0.232381
O O7 0.734957 0.784744 0.169418
O O8 0.649012 0.702399 0.075008
O O9 0.436177 0.500000 0.756962
O O10 0.473489 0.759628 0.841665
O O11 0.471892 0.765404 0.671025
O O12 0.882967 0.500000 0.977962
O O13 0.830949 0.291902 0.085776
O O14 0.934133 0.240364 0.046675
O O15 0.316416 0.500000 0.161062
O O16 0.046213 0.500000 0.858183
O O17 0.500000 0.235586 0.500000
O O18 0.481986 0.500000 0.402413
#
# Coordination Sequence:
#
# PCOD9180342 Si02
#       7
#     8   8   8   8   8   8   8
#     4   8  15  28  47  71  95 119 149 185 226 272
#     4  11  22  33  45  63  91 127 162 195 231 270
#     4   9  19  33  47  67  95 124 153 186 230 281
#     4  10  20  33  48  68  92 120 159 200 235 269
#     4  10  19  32  49  67  91 124 161 197 229 264
#     4   9  17  29  47  68  91 120 152 190 231 273
#     4   8  13  26  52  79  95 110 142 188 229 271
#
# _framework density 19.595472000000001
#
# number of rings (size 3 to 8) (size 9 to 14) (size 15 to 20)
#    0.000    2.714    0.000    3.000    0.000    4.000 
#    0.000    2.857    0.000    7.714    0.000    0.000 
#    0.000    0.000    0.000    0.000    0.000    1.429 
#
# Total GULP energy -156067.049005 kJ/mol
# GULP energy per Si atom -5573.823179 kJ/mol
# Density = 1.955087 g / cm^3
# Si number density = 19.595472 Si / 1000 Ang^3
#
#
#
# Elastic Constant Matrix: (Units=GPa)
#
#
# Indices 1 2 3 4 5 6 
#
# 1 99.2654 -2.0442 39.9326 0.0000 9.0516 0.0000
# 2 -2.0442 36.2510 -2.8748 0.0000 -0.7830 0.0000
# 3 39.9326 -2.8748 104.8564 0.0000 18.6739 0.0000
# 4 0.0000 0.0000 0.0000 0.2768 0.0000 2.3322
# 5 9.0516 -0.7830 18.6739 0.0000 20.3590 0.0000
# 6 0.0000 0.0000 0.0000 2.3322 0.0000 13.5074
#
#
#
# Elastic Compliance Matrix: (Units=1/GPa)
#
#
# Indices 1 2 3 4 5 6 
#
# 1 0.011931 0.000303 -0.004294 0.000000 -0.001354 0.000000
# 2 0.000303 0.027657 0.000571 0.000000 0.000405 0.000000
# 3 -0.004294 0.000571 0.012961 0.000000 -0.009957 0.000000
# 4 0.000000 0.000000 0.000000 -7.941595 0.000000 1.371203
# 5 -0.001354 0.000405 -0.009957 0.000000 0.058869 0.000000
# 6 0.000000 0.000000 0.000000 1.371203 0.000000 -0.162719
#
#
# Mechanical properties :
#
#
# Convention : Reuss Voigt Hill
#
# Bulk Modulus (GPa) = 21.87821 34.48889 28.18355
# Shear Modulus (GPa) = -0.62729 20.51924 9.94598
#
# Velocity S-wave (km/s) = -0.56640 3.23947 2.25536
# Velocity P-wave (km/s) = 3.28046 5.62413 4.60393
#
# Compressibility (1/GPa) = 0.04570757
#
# Stress axis : x y z
#
# Youngs Moduli (GPa) = 83.81355 36.15784 77.15338
#
# Poissons Ratio (x) = -0.01096 0.33132
# Poissons Ratio (y) = -0.02539 -0.04403
# Poissons Ratio (z) = 0.35992 -0.02063
#
# Static dielectric constant tensor:
#      x y z
#    x 1.718190 0.000000 0.026430 
#    y 0.000000 1.715540 0.000000 
#    z 0.026430 0.000000 1.689890 
# 
# From -- ./inp_files/280257.got.cif
#   From: 2010.05.17/outbox.cif.g08.bks.cpg/sg12_141_cif.got.tgz:280257.got - 2010.06.03 13:09:07.
