data_PCOD9180196
_publ_section_title
;
Structure prediction by ZEFSAII (Michael W. Deem and Ramdas Pophale) SiO2 
 PCOD9180196
Probable space group: C 2/M
;
_chemical_formula_sum "Si O2"
_cell_formula_units_Z 48
_cell_length_a 20.024295
_cell_length_b 13.974008
_cell_length_c 14.891211
_cell_angle_alpha 90.000000
_cell_angle_beta 147.675355
_cell_angle_gamma 90.000000
_cell_volume 2228.082768
_symmetry_space_group_name_H-M "C 2/M"
_symmetry_group_IT_number 12
_symmetry_cell_setting 'monoclinic'
loop_
_space_group_symop_operation_xyz
x,y,z
-x,y,-z
-x,-y,-z
x,-y,z
1/2+x,1/2+y,z
1/2-x,1/2+y,-z
1/2-x,1/2-y,-z
1/2+x,1/2-y,z
loop_
_atom_site_type_symbol
_atom_site_label
_atom_site_fract_x
_atom_site_fract_y
_atom_site_fract_z
Si Si1 0.932795 0.500000 0.314070
Si Si2 0.281519 0.790678 0.898520
Si Si3 0.982486 0.711565 0.379366
Si Si4 0.450655 0.287568 0.727308
Si Si5 0.207545 0.000000 0.200966
Si Si6 0.245600 0.500000 0.054989
Si Si7 0.144582 0.204127 0.197736
Si Si8 0.526900 0.500000 0.827096
O O1 0.005478 0.598526 0.405481
O O2 0.825167 0.500000 0.267370
O O3 0.869394 0.500000 0.144716
O O4 0.165104 0.730663 0.805686
O O5 0.288442 0.769311 0.800246
O O6 0.260766 0.901798 0.896765
O O7 0.411352 0.751550 0.086900
O O8 0.062584 0.755125 0.390094
O O9 0.000000 0.750065 0.500000
O O10 0.359967 0.258049 0.705655
O O11 0.453054 0.402126 0.733615
O O12 0.198199 0.097092 0.246957
O O13 0.092482 0.000000 0.999138
O O14 0.367424 0.500000 0.130108
O O15 0.000000 0.199040 0.000000
#
# Coordination Sequence:
#
# PCOD9180196 Si02
#       8
#     4   8   8   8   4   4   8   4
#     4  11  21  36  62  89 114 151 189 251 283 331
#     4  11  20  38  58  85 118 152 192 233 291 343
#     4  12  24  40  59  86 119 157 195 235 285 345
#     4  11  21  36  58  90 117 147 196 241 293 337
#     4  11  16  29  58  91 118 138 183 249 306 320
#     4  11  20  32  62  90 112 149 197 240 286 341
#     4  10  19  31  55  89 121 145 184 241 293 341
#     4  11  17  28  56  88 117 137 182 253 285 329
#
# _framework density 21.543185000000001
#
# number of rings (size 3 to 8) (size 9 to 14) (size 15 to 20)
#    0.000    1.000    8.333    2.500    0.000    0.000 
#    0.000    7.083    0.000    0.000    0.000    0.000 
#    0.000    0.000    0.000    0.000    0.000    0.000 
#
# Total GULP energy -134231.455508 kJ/mol
# GULP energy per Si atom -5592.977313 kJ/mol
# Density = 2.149415 g / cm^3
# Si number density = 21.543185 Si / 1000 Ang^3
#
#
#
# Elastic Constant Matrix: (Units=GPa)
#
#
# Indices 1 2 3 4 5 6 
#
# 1 185.5477 46.8401 40.8144 0.0000 -39.2407 0.0000
# 2 46.8401 113.3319 13.0752 0.0000 -16.7084 0.0000
# 3 40.8144 13.0752 52.4984 0.0000 -16.1077 0.0000
# 4 0.0000 0.0000 0.0000 0.0195 0.0000 -2.0236
# 5 -39.2407 -16.7084 -16.1077 0.0000 46.4217 0.0000
# 6 0.0000 0.0000 0.0000 -2.0236 0.0000 26.3389
#
#
#
# Elastic Compliance Matrix: (Units=1/GPa)
#
#
# Indices 1 2 3 4 5 6 
#
# 1 0.007754 -0.002081 -0.004173 0.000000 0.004358 0.000000
# 2 -0.002081 0.009976 -0.000341 0.000000 0.001713 0.000000
# 3 -0.004173 -0.000341 0.023790 0.000000 0.004605 0.000000
# 4 0.000000 0.000000 0.000000 -7.354121 0.000000 -0.565009
# 5 0.004358 0.001713 0.004605 0.000000 0.027440 0.000000
# 6 0.000000 0.000000 0.000000 -0.565009 0.000000 -0.005442
#
#
# Mechanical properties :
#
#
# Convention : Reuss Voigt Hill
#
# Bulk Modulus (GPa) = 35.29845 61.42636 48.36241
# Shear Modulus (GPa) = -0.68795 31.26591 15.28898
#
# Velocity S-wave (km/s) = -0.56571 3.81374 2.66689
# Velocity P-wave (km/s) = 3.99923 6.92589 5.65516
#
# Compressibility (1/GPa) = 0.02832985
#
# Stress axis : x y z
#
# Youngs Moduli (GPa) = 128.96000 100.24451 42.03388
#
# Poissons Ratio (x) = 0.20860 0.17542
# Poissons Ratio (y) = 0.26836 0.01434
# Poissons Ratio (z) = 0.53818 0.03419
#
# Static dielectric constant tensor:
#      x y z
#    x 1.794270 0.000000 -0.010590 
#    y 0.000000 1.730550 0.000000 
#    z -0.010590 0.000000 1.871000 
# 
# From -- ./inp_files/232854.got.cif
#   From: 2010.05.17/outbox.cif.g08.bks.cpg/sg12_117_cif.got.tgz:232854.got - 2010.06.03 13:09:07.
