data_PCOD9180190
_publ_section_title
;
Structure prediction by ZEFSAII (Michael W. Deem and Ramdas Pophale) SiO2 
 PCOD9180190
Probable space group: C 2/M
;
_chemical_formula_sum "Si O2"
_cell_formula_units_Z 52
_cell_length_a 18.821430
_cell_length_b 20.902602
_cell_length_c 9.114925
_cell_angle_alpha 90.000000
_cell_angle_beta 50.731935
_cell_angle_gamma 90.000000
_cell_volume 2776.229559
_symmetry_space_group_name_H-M "C 2/M"
_symmetry_group_IT_number 12
_symmetry_cell_setting 'monoclinic'
loop_
_space_group_symop_operation_xyz
x,y,z
-x,y,-z
-x,-y,-z
x,-y,z
1/2+x,1/2+y,z
1/2-x,1/2+y,-z
1/2-x,1/2-y,-z
1/2+x,1/2-y,z
loop_
_atom_site_type_symbol
_atom_site_label
_atom_site_fract_x
_atom_site_fract_y
_atom_site_fract_z
Si Si1 0.791669 0.431994 0.240526
Si Si2 0.145630 0.755019 0.080837
Si Si3 0.666594 0.317885 0.467619
Si Si4 0.500000 0.305148 0.500000
Si Si5 0.232671 0.818631 0.710195
Si Si6 0.630988 0.073412 0.526983
Si Si7 0.544732 0.128892 0.102227
O O1 0.744140 0.500000 0.278494
O O2 0.730528 0.369493 0.303074
O O3 0.828110 0.430315 0.360602
O O4 0.880597 0.425950 0.022505
O O5 0.078522 0.771415 0.301472
O O6 0.100917 0.691141 0.074419
O O7 0.250000 0.750000 0.000000
O O8 0.158462 0.806275 0.933648
O O9 0.564858 0.333074 0.543533
O O10 0.704598 0.245859 0.388393
O O11 0.681369 0.327003 0.621982
O O12 0.300628 0.878639 0.647075
O O13 0.532703 0.107235 0.681754
O O14 0.624225 0.000000 0.481641
O O15 0.500000 0.141086 0.000000
#
# Coordination Sequence:
#
# PCOD9180190 Si02
#       7
#     8   8   8   4   8   8   8
#     4   9  16  31  54  83 121 155 191 241 293 355
#     4  12  24  38  56  87 118 159 195 246 298 352
#     4  10  20  36  56  87 112 151 199 240 293 347
#     4  12  24  36  57  86 117 150 196 252 296 342
#     4  10  20  37  59  81 118 154 195 239 290 359
#     4   9  18  32  56  89 118 152 195 244 300 356
#     4  10  19  31  55  87 120 154 195 239 295 361
#
# _framework density 18.730439000000001
#
# number of rings (size 3 to 8) (size 9 to 14) (size 15 to 20)
#    0.000    1.846    3.077    1.385    4.308    1.846 
#    0.000    0.385    0.000    6.462    0.000    4.308 
#    0.000    0.000    0.000    0.000    0.000    0.000 
#
# Total GULP energy -144777.171700 kJ/mol
# GULP energy per Si atom -5568.352758 kJ/mol
# Density = 1.868781 g / cm^3
# Si number density = 18.730439 Si / 1000 Ang^3
#
#
#
# Elastic Constant Matrix: (Units=GPa)
#
#
# Indices 1 2 3 4 5 6 
#
# 1 98.0521 32.1833 21.6883 0.0000 -20.9930 0.0000
# 2 32.1833 123.9524 47.4485 0.0000 -18.5666 0.0000
# 3 21.6883 47.4485 111.8749 0.0000 -9.3465 0.0000
# 4 0.0000 0.0000 0.0000 11.3206 0.0000 -13.1662
# 5 -20.9930 -18.5666 -9.3465 0.0000 23.7441 0.0000
# 6 0.0000 0.0000 0.0000 -13.1662 0.0000 3.5798
#
#
#
# Elastic Compliance Matrix: (Units=1/GPa)
#
#
# Indices 1 2 3 4 5 6 
#
# 1 0.013056 -0.001490 -0.001067 0.000000 0.009958 0.000000
# 2 -0.001490 0.010747 -0.003802 0.000000 0.005590 0.000000
# 3 -0.001067 -0.003802 0.010786 0.000000 0.000329 0.000000
# 4 0.000000 0.000000 0.000000 -0.026952 0.000000 -0.099126
# 5 0.009958 0.005590 0.000329 0.000000 0.055420 0.000000
# 6 0.000000 0.000000 0.000000 -0.099126 0.000000 -0.085231
#
#
# Mechanical properties :
#
#
# Convention : Reuss Voigt Hill
#
# Bulk Modulus (GPa) = 45.72485 59.61328 52.66907
# Shear Modulus (GPa) = -2309.44427 23.23285 -1143.10571
#
# Velocity S-wave (km/s) = -35.15205 3.52572 -24.73091
# Velocity P-wave (km/s) = 40.28760 6.96206 28.05905
#
# Compressibility (1/GPa) = 0.02186995
#
# Stress axis : x y z
#
# Youngs Moduli (GPa) = 76.59494 93.04728 92.71647
#
# Poissons Ratio (x) = 0.13861 0.09895
# Poissons Ratio (y) = 0.11410 0.35254
# Poissons Ratio (z) = 0.08175 0.35380
#
# Static dielectric constant tensor:
#      x y z
#    x 1.690790 0.000000 0.031720 
#    y 0.000000 1.656090 0.000000 
#    z 0.031720 0.000000 1.682440 
# 
# From -- ./inp_files/77934.got.cif
#   From: 2010.05.17/outbox.cif.g08.bks.cpg/sg12_39_cif.got.tgz:77934.got - 2010.06.03 13:09:07.
