data_PCOD9180783
_publ_section_title
;
Structure prediction by ZEFSAII (Michael W. Deem and Ramdas Pophale) SiO2 
 PCOD9180783
Probable space group: C 2/M
;
_chemical_formula_sum "Si O2"
_cell_formula_units_Z 40
_cell_length_a 5.062284
_cell_length_b 13.890865
_cell_length_c 23.144319
_cell_angle_alpha 90.000000
_cell_angle_beta 90.322954
_cell_angle_gamma 90.000000
_cell_volume 1627.471170
_symmetry_space_group_name_H-M "C 2/M"
_symmetry_group_IT_number 12
_symmetry_cell_setting 'monoclinic'
loop_
_space_group_symop_operation_xyz
x,y,z
-x,y,-z
-x,-y,-z
x,-y,z
1/2+x,1/2+y,z
1/2-x,1/2+y,-z
1/2-x,1/2-y,-z
1/2+x,1/2-y,z
loop_
_atom_site_type_symbol
_atom_site_label
_atom_site_fract_x
_atom_site_fract_y
_atom_site_fract_z
Si Si1 0.382203 0.617270 0.939111
Si Si2 0.566713 0.312764 0.439387
Si Si3 0.886260 0.885576 0.316422
Si Si4 0.886218 0.382383 0.250600
Si Si5 0.119688 0.617160 0.128887
O O1 0.380694 0.500000 0.941639
O O2 0.086353 0.644722 0.921698
O O3 0.585442 0.644904 0.888484
O O4 0.500000 0.650804 0.000000
O O5 0.500000 0.364586 0.500000
O O6 0.369464 0.220412 0.440068
O O7 0.490562 0.363297 0.380049
O O8 0.590973 0.853178 0.301233
O O9 0.094503 0.851365 0.268356
O O10 0.878633 0.000000 0.310912
O O11 0.878266 0.500000 0.247909
O O12 0.004165 0.349950 0.189787
O O13 0.122230 0.500000 0.131296
#
# Coordination Sequence:
#
# PCOD9180783 Si02
#       5
#     8   8   8   8   8
#     4   9  15  21  30  46  70 106 154 197 227 267
#     4  10  21  37  55  75 101 132 163 195 239 295
#     4  10  19  32  51  74  98 125 164 207 240 281
#     4   9  17  28  43  65  91 120 157 201 245 286
#     4   9  15  23  34  49  75 110 148 192 236 275
#
# _framework density 24.578009999999999
#
# number of rings (size 3 to 8) (size 9 to 14) (size 15 to 20)
#    0.000    2.600    0.000    3.000    0.000    7.600 
#    0.000    0.000    0.000    7.200    0.000    0.000 
#    0.000    0.000    0.000    0.000    0.000  252.000 
#
# Total GULP energy -111887.904583 kJ/mol
# GULP energy per Si atom -5594.395229 kJ/mol
# Density = 2.452207 g / cm^3
# Si number density = 24.578010 Si / 1000 Ang^3
#
#
#
# Elastic Constant Matrix: (Units=GPa)
#
#
# Indices 1 2 3 4 5 6 
#
# 1 86.3598 -16.9540 -10.7042 0.0000 1.4216 0.0000
# 2 -16.9540 79.9989 -3.3632 0.0000 -3.4704 0.0000
# 3 -10.7042 -3.3632 84.5739 0.0000 -2.6901 0.0000
# 4 0.0000 0.0000 0.0000 30.5093 0.0000 7.3128
# 5 1.4216 -3.4704 -2.6901 0.0000 38.8550 0.0000
# 6 0.0000 0.0000 0.0000 7.3128 0.0000 -10.8715
#
#
#
# Elastic Compliance Matrix: (Units=1/GPa)
#
#
# Indices 1 2 3 4 5 6 
#
# 1 0.012312 0.002675 0.001662 0.000000 -0.000097 0.000000
# 2 0.002675 0.013154 0.000898 0.000000 0.001139 0.000000
# 3 0.001662 0.000898 0.012097 0.000000 0.000857 0.000000
# 4 0.000000 0.000000 0.000000 0.028226 0.000000 0.018986
# 5 -0.000097 0.001139 0.000857 0.000000 0.025901 0.000000
# 6 0.000000 0.000000 0.000000 0.018986 0.000000 -0.079213
#
#
# Mechanical properties :
#
#
# Convention : Reuss Voigt Hill
#
# Bulk Modulus (GPa) = 20.81922 20.98775 20.90349
# Shear Modulus (GPa) = 277.46538 30.49551 153.98044
#
# Velocity S-wave (km/s) = 10.63658 3.52627 7.92374
# Velocity P-wave (km/s) = 12.62292 5.01370 9.60404
#
# Compressibility (1/GPa) = 0.04803253
#
# Stress axis : x y z
#
# Youngs Moduli (GPa) = 81.22060 76.02117 82.66344
#
# Poissons Ratio (x) = -0.20335 -0.13735
# Poissons Ratio (y) = -0.21726 -0.07422
# Poissons Ratio (z) = -0.13496 -0.06826
#
# Static dielectric constant tensor:
#      x y z
#    x 1.878290 0.000000 0.001760 
#    y 0.000000 1.990460 0.000000 
#    z 0.001760 0.000000 1.937100 
# 
# From -- ./inp_files/252539.got.cif
#   From: 2010.05.17/outbox.cif.g08.bks.cpg/sg12_127_cif.got.tgz:252539.got - 2010.06.03 13:09:07.
