data_PCOD9180207
_publ_section_title
;
Structure prediction by ZEFSAII (Michael W. Deem and Ramdas Pophale) SiO2 
 PCOD9180207
Probable space group: C 2/M
;
_chemical_formula_sum "Si O2"
_cell_formula_units_Z 64
_cell_length_a 17.745315
_cell_length_b 18.767048
_cell_length_c 17.300543
_cell_angle_alpha 90.000000
_cell_angle_beta 38.042897
_cell_angle_gamma 90.000000
_cell_volume 3550.563200
_symmetry_space_group_name_H-M "C 2/M"
_symmetry_group_IT_number 12
_symmetry_cell_setting 'monoclinic'
loop_
_space_group_symop_operation_xyz
x,y,z
-x,y,-z
-x,-y,-z
x,-y,z
1/2+x,1/2+y,z
1/2-x,1/2+y,-z
1/2-x,1/2-y,-z
1/2+x,1/2-y,z
loop_
_atom_site_type_symbol
_atom_site_label
_atom_site_fract_x
_atom_site_fract_y
_atom_site_fract_z
Si Si1 0.747344 0.784975 0.587661
Si Si2 0.225783 0.419533 0.059388
Si Si3 0.027177 0.700902 0.201350
Si Si4 0.885640 0.295879 0.037830
Si Si5 0.706737 0.582957 0.167480
Si Si6 0.708592 0.207422 0.287716
Si Si7 0.859802 0.917283 0.111561
Si Si8 0.479497 0.701589 0.642949
O O1 0.750000 0.750000 0.500000
O O2 0.614359 0.822123 0.698049
O O3 0.753130 0.733703 0.658026
O O4 0.880706 0.821045 0.485913
O O5 0.174583 0.500000 0.098483
O O6 0.314586 0.414157 0.060058
O O7 0.116507 0.363023 0.153846
O O8 0.300769 0.410099 0.919524
O O9 0.081533 0.726261 0.075521
O O10 0.027787 0.761359 0.266495
O O11 0.833590 0.376226 0.081263
O O12 0.785988 0.246051 0.157559
O O13 0.000000 0.291624 0.000000
O O14 0.704325 0.500000 0.190291
O O15 0.604346 0.631578 0.289954
O O16 0.757000 0.126869 0.241150
O O17 0.575008 0.237208 0.370485
O O18 0.863009 0.000000 0.134169
O O19 0.000000 0.889416 0.000000
#
# Coordination Sequence:
#
# PCOD9180207 Si02
#       8
#     8   8   8   8   8   8   8   8
#     4  10  22  36  55  81 106 143 192 239 275 323
#     4   9  18  34  55  83 120 149 178 223 285 350
#     4  10  19  35  56  84 112 140 188 230 284 332
#     4  10  19  31  56  88 109 140 180 233 285 334
#     4   9  20  34  53  79 113 151 182 223 282 342
#     4  11  20  35  58  82 115 145 188 235 282 331
#     4  10  21  33  53  87 122 151 178 219 283 346
#     4  10  21  35  57  79 110 151 190 235 276 328
#
# _framework density 18.025309
#
# number of rings (size 3 to 8) (size 9 to 14) (size 15 to 20)
#    0.000    2.125    2.500    0.750    1.750    2.750 
#    0.000    0.625    0.000   10.500    0.000    0.000 
#    0.000    0.000    0.000    0.000    0.000    0.000 
#
# Total GULP energy -178151.084010 kJ/mol
# GULP energy per Si atom -5567.221375 kJ/mol
# Density = 1.798428 g / cm^3
# Si number density = 18.025309 Si / 1000 Ang^3
#
#
#
# Elastic Constant Matrix: (Units=GPa)
#
#
# Indices 1 2 3 4 5 6 
#
# 1 74.8045 9.5168 21.1098 -0.0001 -3.4537 0.0001
# 2 9.5168 72.2606 19.4407 0.0000 0.3021 0.0000
# 3 21.1098 19.4407 79.2588 0.0000 -2.6093 0.0001
# 4 -0.0001 0.0000 0.0000 6.2296 0.0000 0.6095
# 5 -3.4537 0.3021 -2.6093 0.0000 32.1337 -0.0001
# 6 0.0001 0.0000 0.0001 0.6095 -0.0001 15.1849
#
#
#
# Elastic Compliance Matrix: (Units=1/GPa)
#
#
# Indices 1 2 3 4 5 6 
#
# 1 0.014566 -0.000954 -0.003603 0.000000 0.001282 0.000000
# 2 -0.000954 0.014885 -0.003414 0.000000 -0.000520 0.000000
# 3 -0.003603 -0.003414 0.014441 0.000000 0.000817 0.000000
# 4 0.000000 0.000000 0.000000 0.161156 0.000000 -0.006469
# 5 0.001282 -0.000520 0.000817 0.000000 0.031329 0.000000
# 6 0.000000 0.000000 0.000000 -0.006469 0.000000 0.066115
#
#
# Mechanical properties :
#
#
# Convention : Reuss Voigt Hill
#
# Bulk Modulus (GPa) = 35.77978 36.27317 36.02647
# Shear Modulus (GPa) = 15.25552 22.46008 18.85780
#
# Velocity S-wave (km/s) = 2.91235 3.53374 3.23799
# Velocity P-wave (km/s) = 5.58586 6.06770 5.83176
#
# Compressibility (1/GPa) = 0.02794875
#
# Stress axis : x y z
#
# Youngs Moduli (GPa) = 68.65509 67.18112 69.24802
#
# Poissons Ratio (x) = 0.06411 0.24951
# Poissons Ratio (y) = 0.06552 0.23641
# Poissons Ratio (z) = 0.24737 0.22936
#
# Static dielectric constant tensor:
#      x y z
#    x 1.646790 0.000000 -0.028190 
#    y 0.000000 1.638660 0.000000 
#    z -0.028190 0.000000 1.714060 
# 
# From -- ./inp_files/278140.got.cif
#   From: 2010.05.17/outbox.cif.g08.bks.cpg/sg12_140_cif.got.tgz:278140.got - 2010.06.03 13:09:07.
