data_PCOD9180227
_publ_section_title
;
Structure prediction by ZEFSAII (Michael W. Deem and Ramdas Pophale) SiO2 
 PCOD9180227
Probable space group: C 2/M
;
_chemical_formula_sum "Si O2"
_cell_formula_units_Z 58
_cell_length_a 11.444272
_cell_length_b 17.782785
_cell_length_c 19.924288
_cell_angle_alpha 90.000000
_cell_angle_beta 141.814491
_cell_angle_gamma 90.000000
_cell_volume 2506.723997
_symmetry_space_group_name_H-M "C 2/M"
_symmetry_group_IT_number 12
_symmetry_cell_setting 'monoclinic'
loop_
_space_group_symop_operation_xyz
x,y,z
-x,y,-z
-x,-y,-z
x,-y,z
1/2+x,1/2+y,z
1/2-x,1/2+y,-z
1/2-x,1/2-y,-z
1/2+x,1/2-y,z
loop_
_atom_site_type_symbol
_atom_site_label
_atom_site_fract_x
_atom_site_fract_y
_atom_site_fract_z
Si Si1 0.707548 0.085144 0.066003
Si Si2 0.571376 0.591352 0.706644
Si Si3 0.978617 0.295051 0.251980
Si Si4 0.189532 0.202735 0.232590
Si Si5 0.832038 0.850486 0.991674
Si Si6 0.793593 0.409677 0.386927
Si Si7 0.000000 0.000000 0.000000
Si Si8 0.207831 0.909997 0.623339
O O1 0.831380 0.118607 0.181507
O O2 0.776826 0.000000 0.083127
O O3 0.500000 0.078953 0.000000
O O4 0.709988 0.136343 0.002852
O O5 0.580441 0.500000 0.711405
O O6 0.353135 0.611276 0.619713
O O7 0.684026 0.611279 0.690975
O O8 0.875455 0.270739 0.274976
O O9 0.801691 0.314907 0.124263
O O10 0.115914 0.246481 0.265510
O O11 0.114540 0.366805 0.327543
O O12 0.235180 0.122259 0.287929
O O13 0.016590 0.193402 0.101968
O O14 0.893460 0.932605 0.994214
O O15 0.795025 0.500000 0.383615
O O16 0.000000 0.381640 0.500000
O O17 0.000000 0.892471 0.500000
O O18 0.235159 0.000000 0.629442
#
# Coordination Sequence:
#
# PCOD9180227 Si02
#       8
#     8   8   8   8   8   8   2   8
#     4  10  19  31  57  98 136 173 212 267 339 409
#     4   9  18  36  61  98 139 176 216 277 350 427
#     4  12  29  47  71 102 142 195 244 290 357 433
#     4  12  28  48  71 102 142 196 238 292 360 431
#     4  12  24  43  71 104 144 180 224 295 357 420
#     4  10  23  42  73 108 139 176 234 301 367 427
#     4  12  24  40  70 116 144 172 240 298 358 422
#     4  10  24  45  72 105 143 183 235 303 368 422
#
# _framework density 23.13777
#
# number of rings (size 3 to 8) (size 9 to 14) (size 15 to 20)
#    0.000    1.241    3.448    1.241    5.793    3.310 
#    0.000    1.379    0.000    0.000    0.000    0.000 
#    0.000    0.000    0.000    0.000    0.000    0.000 
#
# Total GULP energy -161724.320544 kJ/mol
# GULP energy per Si atom -5576.700708 kJ/mol
# Density = 2.308511 g / cm^3
# Si number density = 23.137770 Si / 1000 Ang^3
#
#
#
# Elastic Constant Matrix: (Units=GPa)
#
#
# Indices 1 2 3 4 5 6 
#
# 1 157.6313 37.7427 4.0664 0.0001 12.6776 0.0000
# 2 37.7427 54.8670 2.9016 0.0000 5.4604 0.0000
# 3 4.0664 2.9016 50.7750 0.0001 11.6215 0.0001
# 4 0.0001 0.0000 0.0001 15.2907 0.0001 7.1575
# 5 12.6776 5.4604 11.6215 0.0001 27.9421 0.0000
# 6 0.0000 0.0000 0.0001 7.1575 0.0000 43.6316
#
#
#
# Elastic Compliance Matrix: (Units=1/GPa)
#
#
# Indices 1 2 3 4 5 6 
#
# 1 0.007770 -0.005096 0.000274 0.000000 -0.002643 0.000000
# 2 -0.005096 0.021933 -0.000435 0.000000 -0.001793 0.000000
# 3 0.000274 -0.000435 0.021780 0.000000 -0.009098 0.000000
# 4 0.000000 0.000000 0.000000 0.070839 0.000000 -0.011621
# 5 -0.002643 -0.001793 -0.009098 0.000000 0.041122 0.000000
# 6 0.000000 0.000000 0.000000 -0.011621 0.000000 0.024825
#
#
# Mechanical properties :
#
#
# Convention : Reuss Voigt Hill
#
# Bulk Modulus (GPa) = 24.40898 39.18831 31.79864
# Shear Modulus (GPa) = 23.53615 31.94370 27.73993
#
# Velocity S-wave (km/s) = 3.19285 3.71966 3.46627
# Velocity P-wave (km/s) = 4.91576 5.95160 5.45830
#
# Compressibility (1/GPa) = 0.04096854
#
# Stress axis : x y z
#
# Youngs Moduli (GPa) = 128.70621 45.59350 45.91371
#
# Poissons Ratio (x) = 0.23235 -0.01258
# Poissons Ratio (y) = 0.65590 0.01997
# Poissons Ratio (z) = -0.03526 0.01983
#
# Static dielectric constant tensor:
#      x y z
#    x 1.913050 0.000000 0.047590 
#    y 0.000000 1.944890 0.000000 
#    z 0.047590 0.000000 1.896870 
# 
# From -- ./inp_files/306396.got.cif
#   From: 2010.05.17/outbox.cif.g08.bks.cpg/sg12_154_cif.got.tgz:306396.got - 2010.06.03 13:09:07.
