data_PCOD9180329
_publ_section_title
;
Structure prediction by ZEFSAII (Michael W. Deem and Ramdas Pophale) SiO2 
 PCOD9180329
Probable space group: C 2/M
;
_chemical_formula_sum "Si O2"
_cell_formula_units_Z 56
_cell_length_a 10.382246
_cell_length_b 26.242895
_cell_length_c 16.268168
_cell_angle_alpha 90.000000
_cell_angle_beta 51.752172
_cell_angle_gamma 90.000000
_cell_volume 3480.964910
_symmetry_space_group_name_H-M "C 2/M"
_symmetry_group_IT_number 12
_symmetry_cell_setting 'monoclinic'
loop_
_space_group_symop_operation_xyz
x,y,z
-x,y,-z
-x,-y,-z
x,-y,z
1/2+x,1/2+y,z
1/2-x,1/2+y,-z
1/2-x,1/2-y,-z
1/2+x,1/2-y,z
loop_
_atom_site_type_symbol
_atom_site_label
_atom_site_fract_x
_atom_site_fract_y
_atom_site_fract_z
Si Si1 0.646732 0.127159 0.500221
Si Si2 0.935609 0.813006 0.936918
Si Si3 0.751554 0.651250 0.288239
Si Si4 0.842145 0.281336 0.393263
Si Si5 0.053962 0.690195 0.069203
Si Si6 0.302252 0.441037 0.578194
Si Si7 0.955984 0.822578 0.285590
O O1 0.500000 0.109655 0.500000
O O2 0.578006 0.171542 0.588926
O O3 0.726774 0.084019 0.525832
O O4 0.792567 0.152366 0.388434
O O5 0.958582 0.751646 0.924135
O O6 0.021625 0.832878 0.819946
O O7 0.742118 0.823419 0.009407
O O8 0.000000 0.830749 0.000000
O O9 0.722840 0.691219 0.374716
O O10 0.753342 0.595255 0.325653
O O11 0.611827 0.657715 0.275448
O O12 0.927320 0.666488 0.182986
O O13 0.750000 0.250000 0.500000
O O14 0.948415 0.238674 0.304997
O O15 0.000000 0.673412 0.000000
O O16 0.500000 0.437558 0.500000
O O17 0.256088 0.500000 0.604567
#
# Coordination Sequence:
#
# PCOD9180329 Si02
#       7
#     8   8   8   8   8   8   8
#     4  10  22  35  52  82 111 140 183 221 276 334
#     4  10  21  32  48  73 110 149 184 219 265 310
#     4  11  20  34  56  77 105 149 192 219 273 329
#     4   9  21  29  46  73 111 146 177 216 254 317
#     4  10  19  32  48  75 103 141 189 227 256 312
#     4  10  21  40  60  81 108 139 184 238 281 331
#     4  11  20  33  51  75 111 154 182 219 267 327
#
# _framework density 16.087492999999998
#
# number of rings (size 3 to 8) (size 9 to 14) (size 15 to 20)
#    0.000    1.857    4.286    0.000    4.000    2.571 
#    0.000    0.000    0.000    0.429    0.000    0.000 
#    0.000    2.857    0.000    0.000    0.000    0.000 
#
# Total GULP energy -156083.900121 kJ/mol
# GULP energy per Si atom -5574.425004 kJ/mol
# Density = 1.605088 g / cm^3
# Si number density = 16.087493 Si / 1000 Ang^3
#
#
#
# Elastic Constant Matrix: (Units=GPa)
#
#
# Indices 1 2 3 4 5 6 
#
# 1 120.7740 47.7999 49.8697 0.0000 18.6513 0.0000
# 2 47.7999 90.4846 37.5682 0.0000 2.8452 0.0000
# 3 49.8697 37.5682 102.2421 0.0000 10.5106 0.0000
# 4 0.0000 0.0000 0.0000 14.5675 0.0000 -2.2925
# 5 18.6513 2.8452 10.5106 0.0000 30.2504 0.0000
# 6 0.0000 0.0000 0.0000 -2.2925 0.0000 10.9992
#
#
#
# Elastic Compliance Matrix: (Units=1/GPa)
#
#
# Indices 1 2 3 4 5 6 
#
# 1 0.012742 -0.004979 -0.003761 0.000000 -0.006082 0.000000
# 2 -0.004979 0.014993 -0.003371 0.000000 0.002831 0.000000
# 3 -0.003761 -0.003371 0.013049 0.000000 -0.001898 0.000000
# 4 0.000000 0.000000 0.000000 0.070974 0.000000 0.014793
# 5 -0.006082 0.002831 -0.001898 0.000000 0.037200 0.000000
# 6 0.000000 0.000000 0.000000 0.014793 0.000000 0.093999
#
#
# Mechanical properties :
#
#
# Convention : Reuss Voigt Hill
#
# Bulk Modulus (GPa) = 60.37884 64.88626 62.63255
# Shear Modulus (GPa) = 18.33519 23.04761 20.69140
#
# Velocity S-wave (km/s) = 3.37963 3.78913 3.59023
# Velocity P-wave (km/s) = 7.26927 7.71779 7.49688
#
# Compressibility (1/GPa) = 0.01656209
#
# Stress axis : x y z
#
# Youngs Moduli (GPa) = 78.47773 66.69993 76.63444
#
# Poissons Ratio (x) = 0.33209 0.28820
# Poissons Ratio (y) = 0.39072 0.25837
# Poissons Ratio (z) = 0.29513 0.22488
#
# Static dielectric constant tensor:
#      x y z
#    x 1.544170 0.000000 0.014680 
#    y 0.000000 1.519680 0.000000 
#    z 0.014680 0.000000 1.568760 
# 
# From -- ./inp_files/198992.got.cif
#   From: 2010.05.17/outbox.cif.g08.bks.cpg/sg12_100_cif.got.tgz:198992.got - 2010.06.03 13:09:07.
