data_PCOD9180332
_publ_section_title
;
Structure prediction by ZEFSAII (Michael W. Deem and Ramdas Pophale) SiO2 
 PCOD9180332
Probable space group: C 2/M
;
_chemical_formula_sum "Si O2"
_cell_formula_units_Z 52
_cell_length_a 18.261196
_cell_length_b 15.142729
_cell_length_c 15.770666
_cell_angle_alpha 90.000000
_cell_angle_beta 32.669947
_cell_angle_gamma 90.000000
_cell_volume 2354.048250
_symmetry_space_group_name_H-M "C 2/M"
_symmetry_group_IT_number 12
_symmetry_cell_setting 'monoclinic'
loop_
_space_group_symop_operation_xyz
x,y,z
-x,y,-z
-x,-y,-z
x,-y,z
1/2+x,1/2+y,z
1/2-x,1/2+y,-z
1/2-x,1/2-y,-z
1/2+x,1/2-y,z
loop_
_atom_site_type_symbol
_atom_site_label
_atom_site_fract_x
_atom_site_fract_y
_atom_site_fract_z
Si Si1 0.223638 0.849717 0.555628
Si Si2 0.058603 0.256016 0.328545
Si Si3 0.500000 0.276107 0.000000
Si Si4 0.761846 0.898695 0.913404
Si Si5 0.441156 0.602030 0.895335
Si Si6 0.286223 0.777104 0.667128
Si Si7 0.999547 0.401680 0.245773
O O1 0.250000 0.750000 0.500000
O O2 0.258014 0.851029 0.623250
O O3 0.337692 0.901531 0.392969
O O4 0.067855 0.877897 0.708141
O O5 0.155568 0.174091 0.216720
O O6 0.140673 0.311195 0.319579
O O7 0.029550 0.320617 0.279136
O O8 0.911485 0.222650 0.504806
O O9 0.452871 0.335725 0.965447
O O10 0.641161 0.233392 0.829603
O O11 0.809349 0.885317 0.965244
O O12 0.794175 0.000000 0.859386
O O13 0.599634 0.885982 0.069290
O O14 0.449137 0.500000 0.913714
O O15 0.036754 0.500000 0.241588
#
# Coordination Sequence:
#
# PCOD9180332 Si02
#       7
#     8   8   4   8   8   8   8
#     4  10  20  35  53  76 106 143 178 218 267 318
#     4  10  19  37  54  75 109 142 173 221 271 318
#     4  10  19  32  48  76 107 136 172 218 265 326
#     4  10  21  35  56  82 106 140 187 227 266 316
#     4  10  19  32  50  75 106 140 175 216 269 327
#     4   9  20  33  52  77 102 136 181 215 264 327
#     4  10  20  34  55  84 111 140 178 220 266 321
#
# _framework density 22.089606
#
# number of rings (size 3 to 8) (size 9 to 14) (size 15 to 20)
#    0.000    2.154    0.000    3.923    0.000    2.462 
#    0.000   11.538    0.000    1.846    0.000    3.231 
#    0.000    0.000    0.000    0.000    0.000    0.000 
#
# Total GULP energy -144856.824468 kJ/mol
# GULP energy per Si atom -5571.416326 kJ/mol
# Density = 2.203933 g / cm^3
# Si number density = 22.089606 Si / 1000 Ang^3
#
#
#
# Elastic Constant Matrix: (Units=GPa)
#
#
# Indices 1 2 3 4 5 6 
#
# 1 31.3160 -4.3299 -1.6087 0.0001 -13.5387 0.0000
# 2 -4.3299 64.2021 39.5418 0.0001 -1.4333 0.0000
# 3 -1.6087 39.5418 190.0457 0.0003 -33.0754 -0.0002
# 4 0.0001 0.0001 0.0003 24.0455 -0.0002 -9.9182
# 5 -13.5387 -1.4333 -33.0754 -0.0002 27.0682 0.0001
# 6 0.0000 0.0000 -0.0002 -9.9182 0.0001 10.4333
#
#
#
# Elastic Compliance Matrix: (Units=1/GPa)
#
#
# Indices 1 2 3 4 5 6 
#
# 1 0.044766 0.000379 0.005335 0.000000 0.028929 0.000000
# 2 0.000379 0.018324 -0.004582 0.000000 -0.004439 0.000000
# 3 0.005335 -0.004582 0.008488 0.000000 0.012797 0.000000
# 4 0.000000 0.000000 0.000000 0.068413 0.000000 0.065036
# 5 0.028929 -0.004439 0.012797 0.000000 0.066815 0.000000
# 6 0.000000 0.000000 0.000000 0.065036 0.000000 0.157672
#
#
# Mechanical properties :
#
#
# Convention : Reuss Voigt Hill
#
# Bulk Modulus (GPa) = 13.54247 39.19671 26.36959
# Shear Modulus (GPa) = 12.92563 29.10676 21.01620
#
# Velocity S-wave (km/s) = 2.42160 3.63391 3.08783
# Velocity P-wave (km/s) = 3.73669 5.94895 4.96754
#
# Compressibility (1/GPa) = 0.07384180
#
# Stress axis : x y z
#
# Youngs Moduli (GPa) = 22.33846 54.57226 117.81959
#
# Poissons Ratio (x) = -0.02069 -0.62855
# Poissons Ratio (y) = -0.00847 0.53985
# Poissons Ratio (z) = -0.11917 0.25005
#
# Static dielectric constant tensor:
#      x y z
#    x 1.894090 0.000000 0.007580 
#    y 0.000000 1.800020 0.000000 
#    z 0.007580 0.000000 1.916140 
# 
# From -- ./inp_files/284265.got.cif
#   From: 2010.05.17/outbox.cif.g08.bks.cpg/sg12_143_cif.got.tgz:284265.got - 2010.06.03 13:09:07.
