data_PCOD9180679
_publ_section_title
;
Structure prediction by ZEFSAII (Michael W. Deem and Ramdas Pophale) SiO2 
 PCOD9180679
Probable space group: C 2/M
;
_chemical_formula_sum "Si O2"
_cell_formula_units_Z 56
_cell_length_a 14.956143
_cell_length_b 7.314436
_cell_length_c 19.720866
_cell_angle_alpha 90.000000
_cell_angle_beta 101.266608
_cell_angle_gamma 90.000000
_cell_volume 2115.803423
_symmetry_space_group_name_H-M "C 2/M"
_symmetry_group_IT_number 12
_symmetry_cell_setting 'monoclinic'
loop_
_space_group_symop_operation_xyz
x,y,z
-x,y,-z
-x,-y,-z
x,-y,z
1/2+x,1/2+y,z
1/2-x,1/2+y,-z
1/2-x,1/2-y,-z
1/2+x,1/2-y,z
loop_
_atom_site_type_symbol
_atom_site_label
_atom_site_fract_x
_atom_site_fract_y
_atom_site_fract_z
Si Si1 0.613909 0.714523 0.376144
Si Si2 0.448998 0.723080 0.267046
Si Si3 0.442966 0.276488 0.848864
Si Si4 0.892839 0.778405 0.479538
Si Si5 0.274683 0.279102 0.899596
Si Si6 0.790414 0.780642 0.328890
Si Si7 0.392698 0.710111 0.044196
O O1 0.601524 0.500000 0.385022
O O2 0.515473 0.780978 0.338298
O O3 0.646690 0.786688 0.453713
O O4 0.685780 0.734228 0.326263
O O5 0.448044 0.500000 0.263469
O O6 0.503100 0.786359 0.209139
O O7 0.347551 0.784068 0.272123
O O8 0.442692 0.500000 0.848015
O O9 0.338870 0.220626 0.846887
O O10 0.509140 0.217362 0.920364
O O11 0.841435 0.713213 0.404926
O O12 0.000000 0.731927 0.500000
O O13 0.887920 0.000000 0.474232
O O14 0.269471 0.500000 0.899081
O O15 0.172613 0.213809 0.898773
O O16 0.332788 0.212776 0.974187
O O17 0.795029 0.000000 0.328460
O O18 0.406906 0.500000 0.027266
#
# Coordination Sequence:
#
# PCOD9180679 Si02
#       7
#     8   8   8   8   8   8   8
#     4  10  19  32  51  72  94 122 157 194 234 278
#     4   9  18  32  49  69  93 126 162 192 225 277
#     4   9  17  30  49  70  93 124 162 194 225 272
#     4   9  15  28  51  72  91 120 157 193 228 276
#     4   9  17  30  49  72  96 122 154 193 234 275
#     4  10  19  32  51  72  94 122 157 194 234 278
#     4   9  17  30  49  72  96 122 154 193 234 275
#
# _framework density 26.467487999999999
#
# number of rings (size 3 to 8) (size 9 to 14) (size 15 to 20)
#    0.000    2.714    1.429    0.857    0.000    2.857 
#    0.000    1.429    0.000    6.000    0.000    0.000 
#    0.000    0.000    0.000    0.000    0.000    0.000 
#
# Total GULP energy -156490.392337 kJ/mol
# GULP energy per Si atom -5588.942583 kJ/mol
# Density = 2.640725 g / cm^3
# Si number density = 26.467488 Si / 1000 Ang^3
#
#
#
# Elastic Constant Matrix: (Units=GPa)
#
#
# Indices 1 2 3 4 5 6 
#
# 1 149.9395 -13.7113 13.7750 0.0000 -27.7120 0.0000
# 2 -13.7113 109.1293 -6.0831 0.0000 3.7128 0.0000
# 3 13.7750 -6.0831 68.2563 0.0000 -27.6206 0.0000
# 4 0.0000 0.0000 0.0000 -3.3777 0.0000 -9.0367
# 5 -27.7120 3.7128 -27.6206 0.0000 45.6551 0.0000
# 6 0.0000 0.0000 0.0000 -9.0367 0.0000 6.9107
#
#
#
# Elastic Compliance Matrix: (Units=1/GPa)
#
#
# Indices 1 2 3 4 5 6 
#
# 1 0.007594 0.000817 0.000501 0.000000 0.004846 0.000000
# 2 0.000817 0.009301 0.000740 0.000000 0.000187 0.000000
# 3 0.000501 0.000740 0.019484 0.000000 0.012032 0.000000
# 4 0.000000 0.000000 0.000000 -0.065814 0.000000 -0.086060
# 5 0.004846 0.000187 0.012032 0.000000 0.032109 0.000000
# 6 0.000000 0.000000 0.000000 -0.086060 0.000000 0.032168
#
#
# Mechanical properties :
#
#
# Convention : Reuss Voigt Hill
#
# Bulk Modulus (GPa) = 24.69418 35.03183 29.86301
# Shear Modulus (GPa) = 113.06234 32.06057 72.56145
#
# Velocity S-wave (km/s) = 6.54295 3.48418 5.24164
# Velocity P-wave (km/s) = 8.15049 5.42683 6.92391
#
# Compressibility (1/GPa) = 0.04049537
#
# Stress axis : x y z
#
# Youngs Moduli (GPa) = 131.68832 107.51557 51.32363
#
# Poissons Ratio (x) = -0.08786 -0.02573
# Poissons Ratio (y) = -0.10761 -0.03797
# Poissons Ratio (z) = -0.06602 -0.07953
#
# Static dielectric constant tensor:
#      x y z
#    x 2.020880 0.000000 -0.037530 
#    y 0.000000 2.013680 0.000000 
#    z -0.037530 0.000000 2.141580 
# 
# From -- ./inp_files/304190.got.cif
#   From: 2010.05.17/outbox.cif.g08.bks.cpg/sg12_153_cif.got.tgz:304190.got - 2010.06.03 13:09:07.
