data_PCOD9180153
_publ_section_title
;
Structure prediction by ZEFSAII (Michael W. Deem and Ramdas Pophale) SiO2 
 PCOD9180153
Probable space group: C 2/M
;
_chemical_formula_sum "Si O2"
_cell_formula_units_Z 48
_cell_length_a 20.924971
_cell_length_b 9.025432
_cell_length_c 15.122046
_cell_angle_alpha 90.000000
_cell_angle_beta 79.829911
_cell_angle_gamma 90.000000
_cell_volume 2811.030600
_symmetry_space_group_name_H-M "C 2/M"
_symmetry_group_IT_number 12
_symmetry_cell_setting 'monoclinic'
loop_
_space_group_symop_operation_xyz
x,y,z
-x,y,-z
-x,-y,-z
x,-y,z
1/2+x,1/2+y,z
1/2-x,1/2+y,-z
1/2-x,1/2-y,-z
1/2+x,1/2-y,z
loop_
_atom_site_type_symbol
_atom_site_label
_atom_site_fract_x
_atom_site_fract_y
_atom_site_fract_z
Si Si1 0.945912 0.177940 0.440966
Si Si2 0.658332 0.322360 0.270785
Si Si3 0.188560 0.822646 0.062673
Si Si4 0.803685 0.822383 0.548001
Si Si5 0.479285 0.176265 0.727636
Si Si6 0.949672 0.677956 0.935701
O O1 0.875094 0.216923 0.494262
O O2 0.000000 0.222385 0.500000
O O3 0.964095 0.252442 0.344057
O O4 0.949479 0.000000 0.430884
O O5 0.647264 0.500000 0.278008
O O6 0.689705 0.289569 0.167979
O O7 0.698549 0.279308 0.347879
O O8 0.588665 0.243630 0.289777
O O9 0.120122 0.757662 0.044216
O O10 0.189493 0.000000 0.051592
O O11 0.250000 0.750000 0.000000
O O12 0.750000 0.750000 0.500000
O O13 0.797311 0.000000 0.545150
O O14 0.480513 0.209990 0.831892
O O15 0.479312 0.000000 0.716827
O O16 0.939076 0.500000 0.943796
O O17 0.000000 0.720934 0.000000
#
# Coordination Sequence:
#
# PCOD9180153 Si02
#       6
#     8   8   8   8   8   8
#     4  10  19  35  57  76 103 141 177 211 255 317
#     4   9  18  36  57  75 102 144 180 209 260 321
#     4  10  20  35  58  82 106 139 180 223 264 316
#     4  10  21  37  55  76 105 141 175 214 262 309
#     4  10  19  31  54  85 107 132 175 224 261 300
#     4   9  19  37  57  78 110 144 174 216 270 319
#
# _framework density 17.075586999999999
#
# number of rings (size 3 to 8) (size 9 to 14) (size 15 to 20)
#    0.000    2.333    1.667    1.000    0.000    3.333 
#    3.000    0.000    0.000    0.000    0.000    0.000 
#    0.000    0.000    0.000    0.000    0.000    0.000 
#
# Total GULP energy -133870.439322 kJ/mol
# GULP energy per Si atom -5577.934972 kJ/mol
# Density = 1.703672 g / cm^3
# Si number density = 17.075587 Si / 1000 Ang^3
#
#
#
# Elastic Constant Matrix: (Units=GPa)
#
#
# Indices 1 2 3 4 5 6 
#
# 1 126.9982 48.3922 96.5173 0.0000 8.0817 0.0000
# 2 48.3922 29.2337 52.8102 0.0000 -3.1225 0.0000
# 3 96.5173 52.8102 141.5743 0.0000 9.6198 0.0000
# 4 0.0000 0.0000 0.0000 29.2064 0.0000 -2.3260
# 5 8.0817 -3.1225 9.6198 0.0000 34.8043 0.0000
# 6 0.0000 0.0000 0.0000 -2.3260 0.0000 31.7169
#
#
#
# Elastic Compliance Matrix: (Units=1/GPa)
#
#
# Indices 1 2 3 4 5 6 
#
# 1 0.024077 -0.037185 -0.001974 0.000000 -0.008381 0.000000
# 2 -0.037185 0.179150 -0.043981 0.000000 0.036863 0.000000
# 3 -0.001974 -0.043981 0.025531 0.000000 -0.010544 0.000000
# 4 0.000000 0.000000 0.000000 0.034440 0.000000 0.002526
# 5 -0.008381 0.036863 -0.010544 0.000000 0.036900 0.000000
# 6 0.000000 0.000000 0.000000 0.002526 0.000000 0.031714
#
#
# Mechanical properties :
#
#
# Convention : Reuss Voigt Hill
#
# Bulk Modulus (GPa) = 16.00556 77.02729 46.51642
# Shear Modulus (GPa) = 9.63543 25.81795 17.72669
#
# Velocity S-wave (km/s) = 2.37804 3.89264 3.22550
# Velocity P-wave (km/s) = 4.11507 8.08771 6.41657
#
# Compressibility (1/GPa) = 0.06247829
#
# Stress axis : x y z
#
# Youngs Moduli (GPa) = 41.53349 5.58192 39.16765
#
# Poissons Ratio (x) = 0.20757 0.07731
# Poissons Ratio (y) = 1.54444 1.72262
# Poissons Ratio (z) = 0.08198 0.24550
#
# Static dielectric constant tensor:
#      x y z
#    x 1.541830 0.000000 -0.001420 
#    y 0.000000 1.571250 0.000000 
#    z -0.001420 0.000000 1.594110 
# 
# From -- ./inp_files/221648.got.cif
#   From: 2010.05.17/outbox.cif.g08.bks.cpg/sg12_111_cif.got.tgz:221648.got - 2010.06.03 13:09:07.
