data_PCOD9180337
_publ_section_title
;
Structure prediction by ZEFSAII (Michael W. Deem and Ramdas Pophale) SiO2 
 PCOD9180337
Probable space group: C 2/M
;
_chemical_formula_sum "Si O2"
_cell_formula_units_Z 56
_cell_length_a 17.912935
_cell_length_b 32.581673
_cell_length_c 7.906321
_cell_angle_alpha 90.000000
_cell_angle_beta 133.496806
_cell_angle_gamma 90.000000
_cell_volume 3347.339434
_symmetry_space_group_name_H-M "C 2/M"
_symmetry_group_IT_number 12
_symmetry_cell_setting 'monoclinic'
loop_
_space_group_symop_operation_xyz
x,y,z
-x,y,-z
-x,-y,-z
x,-y,z
1/2+x,1/2+y,z
1/2-x,1/2+y,-z
1/2-x,1/2-y,-z
1/2+x,1/2-y,z
loop_
_atom_site_type_symbol
_atom_site_label
_atom_site_fract_x
_atom_site_fract_y
_atom_site_fract_z
Si Si1 0.732591 0.690745 0.580411
Si Si2 0.624720 0.453311 0.693992
Si Si3 0.622276 0.608630 0.988956
Si Si4 0.875740 0.894544 0.610989
Si Si5 0.280831 0.696189 0.846632
Si Si6 0.571405 0.769756 0.960507
Si Si7 0.910079 0.741587 0.463978
O O1 0.686483 0.645995 0.538139
O O2 0.736207 0.696390 0.383484
O O3 0.656113 0.724791 0.539460
O O4 0.843890 0.699215 0.835278
O O5 0.500000 0.454924 0.500000
O O6 0.662857 0.500000 0.764087
O O7 0.652344 0.430902 0.561336
O O8 0.653534 0.425515 0.900791
O O9 0.642972 0.597252 0.218306
O O10 0.678730 0.651725 0.039994
O O11 0.498334 0.614124 0.783669
O O12 0.173436 0.712284 0.755306
O O13 0.365369 0.730953 0.010868
O O14 0.484671 0.785987 0.698127
O O15 0.500000 0.752967 0.000000
O O16 0.000000 0.763633 0.500000
#
# Coordination Sequence:
#
# PCOD9180337 Si02
#       7
#     8   8   8   8   8   8   8
#     4  10  19  32  49  67  92 130 169 197 237 284
#     4   9  18  32  48  69  99 127 152 189 240 294
#     4   9  18  30  49  70  96 128 161 195 237 281
#     4   9  18  30  48  73  94 125 162 198 230 286
#     4  10  19  32  49  66  92 131 168 198 234 287
#     4  11  18  31  50  63  90 135 163 196 238 276
#     4  11  22  31  43  69  96 125 166 209 237 272
#
# _framework density 16.729704000000002
#
# number of rings (size 3 to 8) (size 9 to 14) (size 15 to 20)
#    0.000    2.143    2.857    1.714    2.000    6.857 
#    0.000    2.857    0.000    0.000    0.000    0.000 
#    0.000    5.714    0.000    0.143    0.000    0.000 
#
# Total GULP energy -156017.875793 kJ/mol
# GULP energy per Si atom -5572.066993 kJ/mol
# Density = 1.669163 g / cm^3
# Si number density = 16.729704 Si / 1000 Ang^3
#
#
#
# Elastic Constant Matrix: (Units=GPa)
#
#
# Indices 1 2 3 4 5 6 
#
# 1 60.4867 43.5054 31.0798 0.0000 8.6461 0.0000
# 2 43.5054 132.6490 53.1687 0.0000 -8.7269 0.0000
# 3 31.0798 53.1687 97.9909 0.0000 3.2445 0.0000
# 4 0.0000 0.0000 0.0000 22.6488 0.0000 -4.5699
# 5 8.6461 -8.7269 3.2445 0.0000 21.3592 0.0000
# 6 0.0000 0.0000 0.0000 -4.5699 0.0000 20.1993
#
#
#
# Elastic Compliance Matrix: (Units=1/GPa)
#
#
# Indices 1 2 3 4 5 6 
#
# 1 0.025955 -0.008001 -0.003452 0.000000 -0.013251 0.000000
# 2 -0.008001 0.012606 -0.004603 0.000000 0.009088 0.000000
# 3 -0.003452 -0.004603 0.013883 0.000000 -0.002592 0.000000
# 4 0.000000 0.000000 0.000000 0.046264 0.000000 0.010467
# 5 -0.013251 0.009088 -0.002592 0.000000 0.056289 0.000000
# 6 0.000000 0.000000 0.000000 0.010467 0.000000 0.051875
#
#
# Mechanical properties :
#
#
# Convention : Reuss Voigt Hill
#
# Bulk Modulus (GPa) = 49.18345 60.73717 54.96031
# Shear Modulus (GPa) = 20.34494 23.73297 22.03895
#
# Velocity S-wave (km/s) = 3.49104 3.77053 3.63348
# Velocity P-wave (km/s) = 6.76110 7.43907 7.10817
#
# Compressibility (1/GPa) = 0.02033204
#
# Stress axis : x y z
#
# Youngs Moduli (GPa) = 38.52816 79.33015 72.02853
#
# Poissons Ratio (x) = 0.63468 0.24867
# Poissons Ratio (y) = 0.30825 0.33155
# Poissons Ratio (z) = 0.13302 0.36516
#
# Static dielectric constant tensor:
#      x y z
#    x 1.647020 0.000000 -0.078650 
#    y 0.000000 1.535880 0.000000 
#    z -0.078650 0.000000 1.611660 
# 
# From -- ./inp_files/80500.got.cif
#   From: 2010.05.17/outbox.cif.g08.bks.cpg/sg12_41_cif.got.tgz:80500.got - 2010.06.03 13:09:07.
