data_PCOD9180402
_publ_section_title
;
Structure prediction by ZEFSAII (Michael W. Deem and Ramdas Pophale) SiO2 
 PCOD9180402
Probable space group: C 2/M
;
_chemical_formula_sum "Si O2"
_cell_formula_units_Z 56
_cell_length_a 15.718468
_cell_length_b 14.901483
_cell_length_c 14.934353
_cell_angle_alpha 90.000000
_cell_angle_beta 116.798098
_cell_angle_gamma 90.000000
_cell_volume 3122.362943
_symmetry_space_group_name_H-M "C 2/M"
_symmetry_group_IT_number 12
_symmetry_cell_setting 'monoclinic'
loop_
_space_group_symop_operation_xyz
x,y,z
-x,y,-z
-x,-y,-z
x,-y,z
1/2+x,1/2+y,z
1/2-x,1/2+y,-z
1/2-x,1/2-y,-z
1/2+x,1/2-y,z
loop_
_atom_site_type_symbol
_atom_site_label
_atom_site_fract_x
_atom_site_fract_y
_atom_site_fract_z
Si Si1 0.110842 0.101123 0.538795
Si Si2 0.580337 0.894534 0.231258
Si Si3 0.710505 0.102322 0.116834
Si Si4 0.873377 0.098606 0.668699
Si Si5 0.568665 0.219253 0.946120
Si Si6 0.275891 0.225103 0.613944
Si Si7 0.583906 0.602114 0.846298
O O1 0.128547 0.097939 0.440210
O O2 0.183700 0.174977 0.609567
O O3 0.000000 0.121785 0.500000
O O4 0.129461 0.000000 0.583499
O O5 0.655417 0.887257 0.184241
O O6 0.487299 0.840457 0.154478
O O7 0.635580 0.843895 0.337111
O O8 0.562683 0.000000 0.239194
O O9 0.824022 0.112934 0.173416
O O10 0.690337 0.000000 0.077595
O O11 0.663666 0.169781 0.024040
O O12 0.811464 0.181942 0.674202
O O13 0.983278 0.110420 0.748341
O O14 0.841360 0.000000 0.684901
O O15 0.586937 0.318721 0.919447
O O16 0.500000 0.222388 0.000000
O O17 0.250000 0.250000 0.500000
O O18 0.588396 0.500000 0.885031
#
# Coordination Sequence:
#
# PCOD9180402 Si02
#       7
#     8   8   8   8   8   8   8
#     4   9  18  30  49  77 103 122 153 204 256 300
#     4  10  19  32  52  77 102 129 164 206 255 306
#     4   9  19  32  51  77 103 131 161 207 260 300
#     4   9  18  32  48  69  98 132 165 201 241 290
#     4  10  19  33  51  74 104 134 167 204 247 301
#     4  10  19  32  49  72 101 131 165 198 245 301
#     4  10  19  32  50  72 101 134 170 204 243 293
#
# _framework density 17.935134999999999
#
# number of rings (size 3 to 8) (size 9 to 14) (size 15 to 20)
#    0.000    2.429    1.429    1.286    2.000    2.571 
#    0.000    0.000    0.000    0.429    0.000    4.000 
#    0.000    0.000    0.000    0.000    0.000    0.000 
#
# Total GULP energy -156011.226065 kJ/mol
# GULP energy per Si atom -5571.829502 kJ/mol
# Density = 1.789431 g / cm^3
# Si number density = 17.935135 Si / 1000 Ang^3
#
#
#
# Elastic Constant Matrix: (Units=GPa)
#
#
# Indices 1 2 3 4 5 6 
#
# 1 58.6315 48.7220 5.5711 0.0000 23.0904 0.0000
# 2 48.7220 140.3258 40.4091 0.0000 23.7801 0.0000
# 3 5.5711 40.4091 55.0256 0.0000 13.2348 0.0000
# 4 0.0000 0.0000 0.0000 27.5515 0.0000 11.6234
# 5 23.0904 23.7801 13.2348 0.0000 19.6635 0.0000
# 6 0.0000 0.0000 0.0000 11.6234 0.0000 23.4236
#
#
#
# Elastic Compliance Matrix: (Units=1/GPa)
#
#
# Indices 1 2 3 4 5 6 
#
# 1 0.044503 -0.011762 0.015845 0.000000 -0.048699 0.000000
# 2 -0.011762 0.013245 -0.009551 0.000000 0.004222 0.000000
# 3 0.015845 -0.009551 0.030163 0.000000 -0.027357 0.000000
# 4 0.000000 0.000000 0.000000 0.045906 0.000000 -0.022780
# 5 -0.048699 0.004222 -0.027357 0.000000 0.121348 0.000000
# 6 0.000000 0.000000 0.000000 -0.022780 0.000000 0.053996
#
#
# Mechanical properties :
#
#
# Convention : Reuss Voigt Hill
#
# Bulk Modulus (GPa) = 12.99134 49.26523 31.12828
# Shear Modulus (GPa) = 14.46108 24.74645 19.60376
#
# Velocity S-wave (km/s) = 2.84262 3.71856 3.30970
# Velocity P-wave (km/s) = 4.24656 6.77976 5.65678
#
# Compressibility (1/GPa) = 0.07697436
#
# Stress axis : x y z
#
# Youngs Moduli (GPa) = 22.47059 75.50052 33.15282
#
# Poissons Ratio (x) = 0.88801 -0.52530
# Poissons Ratio (y) = 0.26429 0.31666
# Poissons Ratio (z) = -0.35604 0.72114
#
# Static dielectric constant tensor:
#      x y z
#    x 1.594270 0.000000 0.014400 
#    y 0.000000 1.646020 0.000000 
#    z 0.014400 0.000000 1.641410 
# 
# From -- ./inp_files/223348.got.cif
#   From: 2010.05.17/outbox.cif.g08.bks.cpg/sg12_112_cif.got.tgz:223348.got - 2010.06.03 13:09:07.
