data_PCOD9180528
_publ_section_title
;
Structure prediction by ZEFSAII (Michael W. Deem and Ramdas Pophale) SiO2 
 PCOD9180528
Probable space group: C 2/M
;
_chemical_formula_sum "Si O2"
_cell_formula_units_Z 64
_cell_length_a 25.926845
_cell_length_b 8.844368
_cell_length_c 21.678822
_cell_angle_alpha 90.000000
_cell_angle_beta 52.793426
_cell_angle_gamma 90.000000
_cell_volume 3959.281864
_symmetry_space_group_name_H-M "C 2/M"
_symmetry_group_IT_number 12
_symmetry_cell_setting 'monoclinic'
loop_
_space_group_symop_operation_xyz
x,y,z
-x,y,-z
-x,-y,-z
x,-y,z
1/2+x,1/2+y,z
1/2-x,1/2+y,-z
1/2-x,1/2-y,-z
1/2+x,1/2-y,z
loop_
_atom_site_type_symbol
_atom_site_label
_atom_site_fract_x
_atom_site_fract_y
_atom_site_fract_z
Si Si1 0.495891 0.819477 0.823691
Si Si2 0.353906 0.319734 0.916253
Si Si3 0.249900 0.180356 0.901856
Si Si4 0.225880 0.819931 0.668432
Si Si5 0.052559 0.179120 0.907976
Si Si6 0.895183 0.819544 0.336399
Si Si7 0.809435 0.681119 0.495907
Si Si8 0.806917 0.320133 0.178592
O O1 0.423034 0.759298 0.870517
O O2 0.526257 0.754919 0.864896
O O3 0.540578 0.756289 0.736417
O O4 0.497346 0.000000 0.823503
O O5 0.361952 0.500000 0.904601
O O6 0.311234 0.255176 0.891042
O O7 0.311512 0.290650 0.008570
O O8 0.234558 0.250300 0.846853
O O9 0.258499 0.000000 0.891594
O O10 0.162641 0.787985 0.671476
O O11 0.289066 0.785880 0.581053
O O12 0.220796 0.729154 0.735020
O O13 0.224927 0.000000 0.681916
O O14 0.120740 0.251790 0.877048
O O15 0.061811 0.000000 0.890430
O O16 0.000000 0.198117 0.000000
O O17 0.871960 0.753127 0.418707
O O18 0.901830 0.000000 0.335295
O O19 0.810341 0.500000 0.488044
O O20 0.750000 0.750000 0.500000
O O21 0.809509 0.500000 0.171520
#
# Coordination Sequence:
#
# PCOD9180528 Si02
#       8
#     8   8   8   8   8   8   8   8
#     4  12  23  34  52  77 105 137 174 215 259 311
#     4  10  21  38  58  78 101 132 173 220 266 310
#     4  10  21  38  58  77 101 134 173 219 266 310
#     4   9  18  32  49  70 102 140 173 209 255 308
#     4  11  23  37  51  69 100 140 176 211 258 313
#     4  10  19  32  50  72 103 139 173 212 257 308
#     4   9  17  29  47  70  99 135 173 211 254 305
#     4  12  23  33  51  77 105 137 174 216 258 307
#
# _framework density 16.164546999999999
#
# number of rings (size 3 to 8) (size 9 to 14) (size 15 to 20)
#    0.000    1.625    1.250    5.625    0.000    8.000 
#    0.000    0.000    0.000    0.000    0.000    0.875 
#    0.000    7.000    0.000    0.000    0.000    0.000 
#
# Total GULP energy -178698.170682 kJ/mol
# GULP energy per Si atom -5584.317834 kJ/mol
# Density = 1.612776 g / cm^3
# Si number density = 16.164547 Si / 1000 Ang^3
#
#
#
# Elastic Constant Matrix: (Units=GPa)
#
#
# Indices 1 2 3 4 5 6 
#
# 1 33.7617 11.4157 3.0958 0.0011 13.3201 -0.0008
# 2 11.4157 74.2206 31.2233 0.0003 12.7952 0.0004
# 3 3.0958 31.2233 49.4682 0.0009 12.9169 0.0002
# 4 0.0011 0.0003 0.0009 29.0228 0.0001 -1.1471
# 5 13.3201 12.7952 12.9169 0.0001 17.2664 -0.0005
# 6 -0.0008 0.0004 0.0002 -1.1471 -0.0005 26.6397
#
#
#
# Elastic Compliance Matrix: (Units=1/GPa)
#
#
# Indices 1 2 3 4 5 6 
#
# 1 0.045926 -0.004580 0.010416 -0.000002 -0.039828 0.000001
# 2 -0.004580 0.019338 -0.011309 0.000000 -0.002337 0.000000
# 3 0.010416 -0.011309 0.033071 -0.000001 -0.024395 0.000000
# 4 -0.000002 0.000000 -0.000001 0.034514 0.000002 0.001486
# 5 -0.039828 -0.002337 -0.024395 0.000002 0.108623 0.000001
# 6 0.000001 0.000000 0.000000 0.001486 0.000001 0.037602
#
#
# Mechanical properties :
#
#
# Convention : Reuss Voigt Hill
#
# Bulk Modulus (GPa) = 11.44285 27.65779 19.55032
# Shear Modulus (GPa) = 15.66660 22.03349 18.85005
#
# Velocity S-wave (km/s) = 3.11657 3.69599 3.41858
# Velocity P-wave (km/s) = 4.47717 5.94652 5.26337
#
# Compressibility (1/GPa) = 0.08739079
#
# Stress axis : x y z
#
# Youngs Moduli (GPa) = 21.77405 51.71131 30.23787
#
# Poissons Ratio (x) = 0.23682 -0.31496
# Poissons Ratio (y) = 0.09972 0.34196
# Poissons Ratio (z) = -0.22680 0.58480
#
# Static dielectric constant tensor:
#      x y z
#    x 1.530910 0.000000 -0.025560 
#    y 0.000000 1.532730 0.000000 
#    z -0.025560 0.000000 1.588540 
# 
# From -- ./inp_files/324192.got.cif
#   From: 2010.05.17/outbox.cif.g08.bks.cpg/sg12_163_cif.got.tgz:324192.got - 2010.06.03 13:09:07.
