data_PCOD9180939
_publ_section_title
;
Structure prediction by ZEFSAII (Michael W. Deem and Ramdas Pophale) SiO2 
 PCOD9180939
Probable space group: C 2/M
;
_chemical_formula_sum "Si O2"
_cell_formula_units_Z 64
_cell_length_a 18.137574
_cell_length_b 14.430614
_cell_length_c 14.366183
_cell_angle_alpha 90.000000
_cell_angle_beta 58.159092
_cell_angle_gamma 90.000000
_cell_volume 3194.310196
_symmetry_space_group_name_H-M "C 2/M"
_symmetry_group_IT_number 12
_symmetry_cell_setting 'monoclinic'
loop_
_space_group_symop_operation_xyz
x,y,z
-x,y,-z
-x,-y,-z
x,-y,z
1/2+x,1/2+y,z
1/2-x,1/2+y,-z
1/2-x,1/2-y,-z
1/2+x,1/2-y,z
loop_
_atom_site_type_symbol
_atom_site_label
_atom_site_fract_x
_atom_site_fract_y
_atom_site_fract_z
Si Si1 0.718297 0.889101 0.710867
Si Si2 0.342123 0.602046 0.093451
Si Si3 0.809468 0.391647 0.672237
Si Si4 0.376601 0.605298 0.728553
Si Si5 0.259257 0.142072 0.015579
Si Si6 0.971075 0.720098 0.627149
Si Si7 0.137497 0.611107 0.569637
Si Si8 0.401543 0.191981 0.049645
O O1 0.816783 0.871651 0.678350
O O2 0.695266 0.865595 0.620596
O O3 0.655667 0.834451 0.822421
O O4 0.704705 0.000000 0.733312
O O5 0.385407 0.500000 0.067822
O O6 0.286733 0.618191 0.223714
O O7 0.395418 0.696093 0.038710
O O8 0.269206 0.596404 0.061005
O O9 0.833565 0.500000 0.663709
O O10 0.879518 0.333941 0.684219
O O11 0.817130 0.365912 0.558813
O O12 0.407560 0.500000 0.701839
O O13 0.310301 0.613702 0.859346
O O14 0.451762 0.680361 0.683970
O O15 0.354530 0.136306 0.996952
O O16 0.250000 0.250000 0.000000
O O17 0.000000 0.729013 0.500000
O O18 0.045614 0.663499 0.629847
O O19 0.122541 0.500000 0.580944
O O20 0.500000 0.165071 0.000000
#
# Coordination Sequence:
#
# PCOD9180939 Si02
#       8
#     8   8   8   8   8   8   8   8
#     4   9  19  36  56  76 102 138 174 209 258 315
#     4  10  20  35  56  78 102 138 179 213 253 310
#     4   9  17  31  52  78 106 133 170 220 265 309
#     4  10  20  35  54  76 107 144 178 212 251 306
#     4   9  18  34  55  76  99 132 177 217 253 302
#     4  10  19  32  51  78 108 139 174 216 264 307
#     4   9  18  33  55  82 107 132 168 219 274 314
#     4  10  21  35  52  78 110 136 166 215 264 309
#
# _framework density 20.035625
#
# number of rings (size 3 to 8) (size 9 to 14) (size 15 to 20)
#    0.000    2.500    0.000    3.000    0.000    5.750 
#    0.000    6.875    0.000    0.750    0.000    0.000 
#    0.000    0.000    0.000    0.000    0.000    0.000 
#
# Total GULP energy -178491.554828 kJ/mol
# GULP energy per Si atom -5577.861088 kJ/mol
# Density = 1.999002 g / cm^3
# Si number density = 20.035625 Si / 1000 Ang^3
#
#
#
# Elastic Constant Matrix: (Units=GPa)
#
#
# Indices 1 2 3 4 5 6 
#
# 1 62.3520 10.1756 21.9206 0.0000 16.8902 0.0000
# 2 10.1756 61.3134 7.8364 0.0000 4.6457 0.0000
# 3 21.9206 7.8364 17.9547 0.0000 13.0633 0.0000
# 4 0.0000 0.0000 0.0000 19.5366 0.0000 4.2671
# 5 16.8902 4.6457 13.0633 0.0000 22.6154 0.0000
# 6 0.0000 0.0000 0.0000 4.2671 0.0000 17.2728
#
#
#
# Elastic Compliance Matrix: (Units=1/GPa)
#
#
# Indices 1 2 3 4 5 6 
#
# 1 0.028158 -0.000333 -0.032742 0.000000 -0.002049 0.000000
# 2 -0.000333 0.017303 -0.008176 0.000000 0.001417 0.000000
# 3 -0.032742 -0.008176 0.138383 0.000000 -0.053801 0.000000
# 4 0.000000 0.000000 0.000000 0.054105 0.000000 -0.013366
# 5 -0.002049 0.001417 -0.053801 0.000000 0.076534 0.000000
# 6 0.000000 0.000000 0.000000 -0.013366 0.000000 0.061196
#
#
# Mechanical properties :
#
#
# Convention : Reuss Voigt Hill
#
# Bulk Modulus (GPa) = 9.86768 24.60949 17.23858
# Shear Modulus (GPa) = 10.16339 18.66414 14.41377
#
# Velocity S-wave (km/s) = 2.25470 3.05544 2.68509
# Velocity P-wave (km/s) = 3.42257 4.97565 4.27031
#
# Compressibility (1/GPa) = 0.10134094
#
# Stress axis : x y z
#
# Youngs Moduli (GPa) = 35.51377 57.79496 7.22633
#
# Poissons Ratio (x) = 0.01926 0.23660
# Poissons Ratio (y) = 0.01183 0.05908
# Poissons Ratio (z) = 1.16279 0.47254
#
# Static dielectric constant tensor:
#      x y z
#    x 1.691240 0.000000 0.021840 
#    y 0.000000 1.674030 0.000000 
#    z 0.021840 0.000000 1.713580 
# 
# From -- ./inp_files/225241.got.cif
#   From: 2010.05.17/outbox.cif.g08.bks.cpg/sg12_113_cif.got.tgz:225241.got - 2010.06.03 13:09:07.
