data_PCOD9180027
_publ_section_title
;
Structure prediction by ZEFSAII (Michael W. Deem and Ramdas Pophale) SiO2 
 PCOD9180027
Probable space group: C 2/M
;
_chemical_formula_sum "Si O2"
_cell_formula_units_Z 64
_cell_length_a 21.336339
_cell_length_b 7.617226
_cell_length_c 25.819939
_cell_angle_alpha 90.000000
_cell_angle_beta 50.689491
_cell_angle_gamma 90.000000
_cell_volume 3246.818695
_symmetry_space_group_name_H-M "C 2/M"
_symmetry_group_IT_number 12
_symmetry_cell_setting 'monoclinic'
loop_
_space_group_symop_operation_xyz
x,y,z
-x,y,-z
-x,-y,-z
x,-y,z
1/2+x,1/2+y,z
1/2-x,1/2+y,-z
1/2-x,1/2-y,-z
1/2+x,1/2-y,z
loop_
_atom_site_type_symbol
_atom_site_label
_atom_site_fract_x
_atom_site_fract_y
_atom_site_fract_z
Si Si1 0.277618 0.703593 0.570553
Si Si2 0.629837 0.714670 0.922591
Si Si3 0.459278 0.792339 0.212582
Si Si4 0.630766 0.708684 0.576438
Si Si5 0.529971 0.787802 0.283944
Si Si6 0.776280 0.713149 0.292221
Si Si7 0.709051 0.208754 0.214531
Si Si8 0.980729 0.788699 0.928204
O O1 0.300423 0.500000 0.564873
O O2 0.337850 0.778566 0.495443
O O3 0.188763 0.712606 0.590514
O O4 0.269953 0.778246 0.632095
O O5 0.630664 0.500000 0.921758
O O6 0.718001 0.778221 0.859600
O O7 0.562856 0.768744 0.914925
O O8 0.594229 0.769830 0.996806
O O9 0.497499 0.721380 0.245414
O O10 0.369359 0.722571 0.247065
O O11 0.514964 0.767496 0.133205
O O12 0.449279 0.000000 0.225919
O O13 0.645900 0.500000 0.569493
O O14 0.538022 0.742122 0.638280
O O15 0.619613 0.720996 0.249884
O O16 0.533613 0.000000 0.279930
O O17 0.777616 0.500000 0.293066
O O18 0.735477 0.764853 0.259964
O O19 0.705879 0.000000 0.206863
O O20 0.980908 0.000000 0.928897
#
# Coordination Sequence:
#
# PCOD9180027 Si02
#       8
#     8   8   8   8   8   8   8   8
#     4   9  18  34  53  76 106 137 167 206 260 307
#     4   8  15  29  49  74 100 128 165 207 256 300
#     4  10  19  32  50  74 102 134 168 202 251 308
#     4  10  19  31  53  80 103 132 173 215 249 295
#     4  10  21  37  53  71 105 144 169 203 258 312
#     4  10  19  33  53  75 103 133 164 210 258 300
#     4  10  20  35  55  75  99 136 178 211 246 305
#     4   9  16  29  51  75 100 127 163 216 256 289
#
# _framework density 19.711601999999999
#
# number of rings (size 3 to 8) (size 9 to 14) (size 15 to 20)
#    0.000    2.500    2.500    1.125    0.000    2.000 
#    0.000    3.125    0.000    3.750    0.000    0.000 
#    0.000    0.000    0.000    0.000    0.000    0.000 
#
# Total GULP energy -178505.790079 kJ/mol
# GULP energy per Si atom -5578.305940 kJ/mol
# Density = 1.966674 g / cm^3
# Si number density = 19.711602 Si / 1000 Ang^3
#
#
#
# Elastic Constant Matrix: (Units=GPa)
#
#
# Indices 1 2 3 4 5 6 
#
# 1 110.8747 -0.7094 77.7516 0.0003 -15.1693 0.0012
# 2 -0.7094 39.7142 -4.3334 -0.0051 -1.6829 -0.0095
# 3 77.7516 -4.3334 162.4796 0.0002 -14.9096 0.0012
# 4 0.0003 -0.0051 0.0002 17.8045 0.0005 -1.2967
# 5 -15.1693 -1.6829 -14.9096 0.0005 26.6163 0.0023
# 6 0.0012 -0.0095 0.0012 -1.2967 0.0023 7.2574
#
#
#
# Elastic Compliance Matrix: (Units=1/GPa)
#
#
# Indices 1 2 3 4 5 6 
#
# 1 0.014065 -0.000251 -0.006328 -0.000001 0.004455 -0.000003
# 2 -0.000251 0.025368 0.000981 0.000010 0.002011 0.000034
# 3 -0.006328 0.000981 0.009365 0.000000 0.001701 0.000000
# 4 -0.000001 0.000010 0.000000 0.056906 -0.000001 0.010168
# 5 0.004455 0.002011 0.001701 -0.000001 0.041190 -0.000011
# 6 -0.000003 0.000034 0.000000 0.010168 -0.000011 0.139607
#
#
# Mechanical properties :
#
#
# Convention : Reuss Voigt Hill
#
# Bulk Modulus (GPa) = 26.59436 50.94292 38.76864
# Shear Modulus (GPa) = 16.11703 26.35963 21.23833
#
# Velocity S-wave (km/s) = 2.86255 3.66083 3.28602
# Velocity P-wave (km/s) = 4.94435 6.61582 5.84019
#
# Compressibility (1/GPa) = 0.03760196
#
# Stress axis : x y z
#
# Youngs Moduli (GPa) = 71.09883 39.42027 106.77789
#
# Poissons Ratio (x) = 0.00988 0.67573
# Poissons Ratio (y) = 0.01781 -0.10474
# Poissons Ratio (z) = 0.44994 -0.03867
#
# Static dielectric constant tensor:
#      x y z
#    x 1.657970 0.000000 -0.004910 
#    y 0.000000 1.777950 0.000000 
#    z -0.004910 0.000000 1.718160 
# 
# From -- ./inp_files/345965.got.cif
#   From: 2010.05.17/outbox.cif.g08.bks.cpg/sg12_173_cif.got.tgz:345965.got - 2010.06.03 13:09:07.
