data_PCOD9180098
_publ_section_title
;
Structure prediction by ZEFSAII (Michael W. Deem and Ramdas Pophale) SiO2 
 PCOD9180098
Probable space group: C 2/M
;
_chemical_formula_sum "Si O2"
_cell_formula_units_Z 58
_cell_length_a 25.864423
_cell_length_b 12.635575
_cell_length_c 9.730525
_cell_angle_alpha 90.000000
_cell_angle_beta 80.935103
_cell_angle_gamma 90.000000
_cell_volume 3140.333756
_symmetry_space_group_name_H-M "C 2/M"
_symmetry_group_IT_number 12
_symmetry_cell_setting 'monoclinic'
loop_
_space_group_symop_operation_xyz
x,y,z
-x,y,-z
-x,-y,-z
x,-y,z
1/2+x,1/2+y,z
1/2-x,1/2+y,-z
1/2-x,1/2-y,-z
1/2+x,1/2-y,z
loop_
_atom_site_type_symbol
_atom_site_label
_atom_site_fract_x
_atom_site_fract_y
_atom_site_fract_z
Si Si1 0.016800 0.120204 0.331915
Si Si2 0.255725 0.271140 0.722738
Si Si3 0.851420 0.377438 0.146817
Si Si4 0.306908 0.621413 0.456745
Si Si5 0.327010 0.120335 0.844924
Si Si6 0.500000 0.000000 0.500000
Si Si7 0.922610 0.679608 0.618764
Si Si8 0.089199 0.775575 0.676140
O O1 0.965571 0.165614 0.276836
O O2 0.000000 0.115682 0.500000
O O3 0.060702 0.211262 0.312930
O O4 0.030936 0.000000 0.284859
O O5 0.207969 0.346231 0.786241
O O6 0.298044 0.333222 0.613155
O O7 0.230532 0.185200 0.630278
O O8 0.282955 0.207513 0.833641
O O9 0.861661 0.500000 0.178424
O O10 0.890173 0.299385 0.211232
O O11 0.853515 0.364831 0.982040
O O12 0.292711 0.500000 0.461439
O O13 0.365562 0.640518 0.379634
O O14 0.370530 0.134531 0.709116
O O15 0.305974 0.000000 0.849753
O O16 0.531535 0.906825 0.399603
O O17 0.914675 0.705529 0.460917
#
# Coordination Sequence:
#
# PCOD9180098 Si02
#       8
#     8   8   8   8   8   2   8   8
#     4   9  18  34  57  84 112 142 181 229 286 339
#     4  10  20  36  53  78 112 148 185 230 276 335
#     4  10  23  37  55  80 115 151 191 232 285 340
#     4  10  19  31  53  85 110 136 180 231 279 323
#     4  11  22  38  56  80 111 154 191 233 283 344
#     4  12  20  36  58  90 116 140 188 240 296 340
#     4  11  21  35  59  85 113 144 186 238 287 345
#     4  10  19  35  56  84 109 143 182 231 281 333
#
# _framework density 18.469374999999999
#
# number of rings (size 3 to 8) (size 9 to 14) (size 15 to 20)
#    0.000    1.793    4.138    1.655    0.966    0.552 
#    0.000    0.690    0.000   10.759    0.000    0.000 
#    0.000    0.000    0.000    0.000    0.000    0.000 
#
# Total GULP energy -161495.476717 kJ/mol
# GULP energy per Si atom -5568.809542 kJ/mol
# Density = 1.842734 g / cm^3
# Si number density = 18.469375 Si / 1000 Ang^3
#
#
#
# Elastic Constant Matrix: (Units=GPa)
#
#
# Indices 1 2 3 4 5 6 
#
# 1 22.7102 -10.5144 -9.0285 0.0000 8.8389 0.0000
# 2 -10.5144 64.7347 9.4872 0.0000 -0.7990 0.0000
# 3 -9.0285 9.4872 36.1177 0.0000 5.6645 0.0000
# 4 0.0000 0.0000 0.0000 22.8601 0.0000 1.8159
# 5 8.8389 -0.7990 5.6645 0.0000 11.4555 0.0000
# 6 0.0000 0.0000 0.0000 1.8159 0.0000 1.3820
#
#
#
# Elastic Compliance Matrix: (Units=1/GPa)
#
#
# Indices 1 2 3 4 5 6 
#
# 1 0.100671 0.009657 0.037623 0.000000 -0.095606 0.000000
# 2 0.009657 0.017121 -0.001195 0.000000 -0.005667 0.000000
# 3 0.037623 -0.001195 0.045500 0.000000 -0.051611 0.000000
# 4 0.000000 0.000000 0.000000 0.048842 0.000000 -0.064175
# 5 -0.095606 -0.005667 -0.051611 0.000000 0.186187 0.000000
# 6 0.000000 0.000000 0.000000 -0.064175 0.000000 0.807895
#
#
# Mechanical properties :
#
#
# Convention : Reuss Voigt Hill
#
# Bulk Modulus (GPa) = 3.91445 11.49459 7.70452
# Shear Modulus (GPa) = 4.16945 16.04741 10.10843
#
# Velocity S-wave (km/s) = 1.50413 2.95085 2.34200
# Velocity P-wave (km/s) = 2.26728 4.22459 3.39026
#
# Compressibility (1/GPa) = 0.25546352
#
# Stress axis : x y z
#
# Youngs Moduli (GPa) = 9.93332 58.40653 21.97803
#
# Poissons Ratio (x) = -0.56406 -0.82687
# Poissons Ratio (y) = -0.09593 0.02625
# Poissons Ratio (z) = -0.37372 0.06977
#
# Static dielectric constant tensor:
#      x y z
#    x 1.659060 0.000000 0.008840 
#    y 0.000000 1.647610 0.000000 
#    z 0.008840 0.000000 1.618850 
# 
# From -- ./inp_files/103196.got.cif
#   From: 2010.05.17/outbox.cif.g08.bks.cpg/sg12_52_cif.got.tgz:103196.got - 2010.06.03 13:09:07.
