data_PCOD9180082
_publ_section_title
;
Structure prediction by ZEFSAII (Michael W. Deem and Ramdas Pophale) SiO2 
 PCOD9180082
Probable space group: C 2/M
;
_chemical_formula_sum "Si O2"
_cell_formula_units_Z 56
_cell_length_a 30.715311
_cell_length_b 8.852698
_cell_length_c 22.384483
_cell_angle_alpha 90.000000
_cell_angle_beta 32.926602
_cell_angle_gamma 90.000000
_cell_volume 3308.479868
_symmetry_space_group_name_H-M "C 2/M"
_symmetry_group_IT_number 12
_symmetry_cell_setting 'monoclinic'
loop_
_space_group_symop_operation_xyz
x,y,z
-x,y,-z
-x,-y,-z
x,-y,z
1/2+x,1/2+y,z
1/2-x,1/2+y,-z
1/2-x,1/2-y,-z
1/2+x,1/2-y,z
loop_
_atom_site_type_symbol
_atom_site_label
_atom_site_fract_x
_atom_site_fract_y
_atom_site_fract_z
Si Si1 0.258504 0.679497 0.087252
Si Si2 0.950689 0.319748 0.312554
Si Si3 0.665486 0.180156 0.887495
Si Si4 0.016780 0.679966 0.864994
Si Si5 0.372601 0.180766 0.856073
Si Si6 0.166212 0.820354 0.757034
Si Si7 0.782271 0.820224 0.524641
O O1 0.264442 0.500000 0.088950
O O2 0.274375 0.763121 0.130783
O O3 0.174504 0.713452 0.150862
O O4 0.326034 0.733981 0.962480
O O5 0.935771 0.500000 0.335552
O O6 0.874563 0.228978 0.423158
O O7 0.964445 0.288966 0.226149
O O8 0.033795 0.282677 0.249834
O O9 0.678940 0.260096 0.809041
O O10 0.670901 0.000000 0.874354
O O11 0.575106 0.215775 0.014077
O O12 0.028261 0.500000 0.861403
O O13 0.078742 0.768541 0.834859
O O14 0.365311 0.000000 0.876148
O O15 0.229647 0.746066 0.638835
O O16 0.172763 0.000000 0.747119
O O17 0.750000 0.750000 0.500000
O O18 0.773760 0.000000 0.532331
#
# Coordination Sequence:
#
# PCOD9180082 Si02
#       7
#     8   8   8   8   8   8   8
#     4  10  19  31  53  83 114 145 184 227 269 324
#     4  10  19  35  58  82 112 147 183 225 273 325
#     4  11  22  38  57  79 113 153 186 222 275 332
#     4  10  20  35  56  80 112 151 185 219 271 329
#     4   9  18  34  54  80 113 149 182 221 277 329
#     4  12  25  39  56  80 110 146 188 231 274 325
#     4  12  24  39  58  81 108 144 186 230 276 321
#
# _framework density 16.926202
#
# number of rings (size 3 to 8) (size 9 to 14) (size 15 to 20)
#    0.000    1.429    2.857    3.857    0.000    4.000 
#    0.000    0.000    0.000    0.857    0.000    6.000 
#    0.000    0.000    0.000    0.000    0.000    0.000 
#
# Total GULP energy -156457.390438 kJ/mol
# GULP energy per Si atom -5587.763944 kJ/mol
# Density = 1.688768 g / cm^3
# Si number density = 16.926202 Si / 1000 Ang^3
#
#
#
# Elastic Constant Matrix: (Units=GPa)
#
#
# Indices 1 2 3 4 5 6 
#
# 1 129.7016 65.1604 50.1173 0.0005 -4.5657 -0.0001
# 2 65.1604 80.8110 42.1493 -0.0004 2.4622 0.0007
# 3 50.1173 42.1493 59.7530 0.0021 3.0401 -0.0001
# 4 0.0005 -0.0004 0.0021 27.4257 -0.0003 0.8666
# 5 -4.5657 2.4622 3.0401 -0.0003 27.2157 0.0004
# 6 -0.0001 0.0007 -0.0001 0.8666 0.0004 29.4580
#
#
#
# Elastic Compliance Matrix: (Units=1/GPa)
#
#
# Indices 1 2 3 4 5 6 
#
# 1 0.014641 -0.008569 -0.006437 0.000000 0.003950 0.000000
# 2 -0.008569 0.024594 -0.010032 0.000001 -0.002542 -0.000001
# 3 -0.006437 -0.010032 0.029387 -0.000002 -0.003455 0.000000
# 4 0.000000 0.000001 -0.000002 0.036496 0.000001 -0.001074
# 5 0.003950 -0.002542 -0.003455 0.000001 0.038022 0.000000
# 6 0.000000 -0.000001 0.000000 -0.001074 0.000000 0.033978
#
#
# Mechanical properties :
#
#
# Convention : Reuss Voigt Hill
#
# Bulk Modulus (GPa) = 53.91853 65.01328 59.46590
# Shear Modulus (GPa) = 21.42480 24.34246 22.88363
#
# Velocity S-wave (km/s) = 3.56164 3.79641 3.68090
# Velocity P-wave (km/s) = 6.98841 7.59672 7.29891
#
# Compressibility (1/GPa) = 0.01854650
#
# Stress axis : x y z
#
# Youngs Moduli (GPa) = 68.30141 40.66108 34.02906
#
# Poissons Ratio (x) = 0.34841 0.21904
# Poissons Ratio (y) = 0.58524 0.34138
# Poissons Ratio (z) = 0.43964 0.40791
#
# Static dielectric constant tensor:
#      x y z
#    x 1.570090 0.000000 -0.014620 
#    y 0.000000 1.562080 0.000000 
#    z -0.014620 0.000000 1.546220 
# 
# From -- ./inp_files/329487.got.cif
#   From: 2010.05.17/outbox.cif.g08.bks.cpg/sg12_165_cif.got.tgz:329487.got - 2010.06.03 13:09:07.
