data_PCOD9180797
_publ_section_title
;
Structure prediction by ZEFSAII (Michael W. Deem and Ramdas Pophale) SiO2 
 PCOD9180797
Probable space group: C 2/M
;
_chemical_formula_sum "Si O2"
_cell_formula_units_Z 40
_cell_length_a 27.382809
_cell_length_b 7.367290
_cell_length_c 12.447600
_cell_angle_alpha 90.000000
_cell_angle_beta 43.960851
_cell_angle_gamma 90.000000
_cell_volume 1743.151612
_symmetry_space_group_name_H-M "C 2/M"
_symmetry_group_IT_number 12
_symmetry_cell_setting 'monoclinic'
loop_
_space_group_symop_operation_xyz
x,y,z
-x,y,-z
-x,-y,-z
x,-y,z
1/2+x,1/2+y,z
1/2-x,1/2+y,-z
1/2-x,1/2-y,-z
1/2+x,1/2-y,z
loop_
_atom_site_type_symbol
_atom_site_label
_atom_site_fract_x
_atom_site_fract_y
_atom_site_fract_z
Si Si1 0.367589 0.287459 0.486318
Si Si2 0.792181 0.219017 0.252208
Si Si3 0.428245 0.722189 0.172042
Si Si4 0.419114 0.278334 0.633390
Si Si5 0.184275 0.216121 0.026485
O O1 0.384545 0.500000 0.466986
O O2 0.285534 0.271935 0.586052
O O3 0.416547 0.215719 0.313175
O O4 0.380295 0.214488 0.586156
O O5 0.858456 0.278212 0.217688
O O6 0.802415 0.286713 0.113816
O O7 0.792765 0.000000 0.251253
O O8 0.429246 0.500000 0.171088
O O9 0.500000 0.779781 0.000000
O O10 0.500000 0.226633 0.500000
O O11 0.415458 0.500000 0.641507
O O12 0.381952 0.214645 0.800987
O O13 0.175724 0.000000 0.027625
O O14 0.250000 0.250000 0.000000
#
# Coordination Sequence:
#
# PCOD9180797 Si02
#       5
#     8   8   8   8   8
#     4  10  19  33  54  75  99 133 169 205 244 294
#     4  10  20  33  52  75 102 133 163 204 250 294
#     4   9  19  33  51  77 102 127 166 212 252 288
#     4   9  18  30  48  75 101 127 164 207 246 286
#     4  10  19  32  51  75 102 130 162 202 248 296
#
# _framework density 22.946942
#
# number of rings (size 3 to 8) (size 9 to 14) (size 15 to 20)
#    0.000    2.400    2.000    0.600    2.800    0.000 
#    0.000    0.000    0.000    4.800    0.000    0.000 
#    0.000    0.000    0.000    0.000    0.000    0.000 
#
# Total GULP energy -111751.480270 kJ/mol
# GULP energy per Si atom -5587.574013 kJ/mol
# Density = 2.289471 g / cm^3
# Si number density = 22.946942 Si / 1000 Ang^3
#
#
#
# Elastic Constant Matrix: (Units=GPa)
#
#
# Indices 1 2 3 4 5 6 
#
# 1 48.4350 -7.2400 15.3105 0.0000 4.2154 0.0000
# 2 -7.2400 81.9439 -3.5212 0.0000 10.0097 0.0000
# 3 15.3105 -3.5212 176.8069 0.0000 7.1886 0.0000
# 4 0.0000 0.0000 0.0000 9.9093 0.0000 -8.8140
# 5 4.2154 10.0097 7.1886 0.0000 40.1141 0.0000
# 6 0.0000 0.0000 0.0000 -8.8140 0.0000 12.0559
#
#
#
# Elastic Compliance Matrix: (Units=1/GPa)
#
#
# Indices 1 2 3 4 5 6 
#
# 1 0.021736 0.002152 -0.001737 0.000000 -0.002510 0.000000
# 2 0.002152 0.012826 0.000210 0.000000 -0.003464 0.000000
# 3 -0.001737 0.000210 0.005848 0.000000 -0.000918 0.000000
# 4 0.000000 0.000000 0.000000 0.288561 0.000000 0.210965
# 5 -0.002510 -0.003464 -0.000918 0.000000 0.026222 0.000000
# 6 0.000000 0.000000 0.000000 0.210965 0.000000 0.237182
#
#
# Mechanical properties :
#
#
# Convention : Reuss Voigt Hill
#
# Bulk Modulus (GPa) = 24.00435 35.14270 29.57352
# Shear Modulus (GPa) = 8.26432 32.59165 20.42799
#
# Velocity S-wave (km/s) = 1.89982 3.77278 2.98690
# Velocity P-wave (km/s) = 3.91100 5.85888 4.98109
#
# Compressibility (1/GPa) = 0.04165912
#
# Stress axis : x y z
#
# Youngs Moduli (GPa) = 46.00762 77.96773 171.00390
#
# Poissons Ratio (x) = -0.16781 0.29708
# Poissons Ratio (y) = -0.09902 -0.03589
# Poissons Ratio (z) = 0.07993 -0.01637
#
# Static dielectric constant tensor:
#      x y z
#    x 1.816180 0.000000 0.026420 
#    y 0.000000 1.915170 0.000000 
#    z 0.026420 0.000000 1.841220 
# 
# From -- ./inp_files/140382.got.cif
#   From: 2010.05.17/outbox.cif.g08.bks.cpg/sg12_71_cif.got.tgz:140382.got - 2010.06.03 13:09:07.
