data_PCOD9180804
_publ_section_title
;
Structure prediction by ZEFSAII (Michael W. Deem and Ramdas Pophale) SiO2 
 PCOD9180804
Probable space group: C 2/M
;
_chemical_formula_sum "Si O2"
_cell_formula_units_Z 32
_cell_length_a 16.514008
_cell_length_b 24.198258
_cell_length_c 11.272848
_cell_angle_alpha 90.000000
_cell_angle_beta 159.236048
_cell_angle_gamma 90.000000
_cell_volume 1597.016645
_symmetry_space_group_name_H-M "C 2/M"
_symmetry_group_IT_number 12
_symmetry_cell_setting 'monoclinic'
loop_
_space_group_symop_operation_xyz
x,y,z
-x,y,-z
-x,-y,-z
x,-y,z
1/2+x,1/2+y,z
1/2-x,1/2+y,-z
1/2-x,1/2-y,-z
1/2+x,1/2-y,z
loop_
_atom_site_type_symbol
_atom_site_label
_atom_site_fract_x
_atom_site_fract_y
_atom_site_fract_z
Si Si1 0.265815 0.662890 0.832545
Si Si2 0.907583 0.560973 0.509206
Si Si3 0.284884 0.362932 0.119624
Si Si4 0.997316 0.725045 0.870253
O O1 0.271413 0.611110 0.750924
O O2 0.000000 0.670354 0.500000
O O3 0.375412 0.650232 0.110843
O O4 0.352007 0.720395 0.903725
O O5 0.829565 0.500000 0.439535
O O6 0.000000 0.556152 0.500000
O O7 0.117178 0.584383 0.874352
O O8 0.500000 0.370016 0.500000
O O9 0.122362 0.313220 0.944623
O O10 0.750000 0.750000 0.500000
O O11 0.000000 0.693847 0.000000
#
# Coordination Sequence:
#
# PCOD9180804 Si02
#       4
#     8   8   8   8
#     4   9  18  34  53  72 101 136 170 205 247 299
#     4   8  16  32  54  77  97 125 171 215 245 287
#     4  10  19  32  51  75 103 133 165 207 257 302
#     4  12  22  32  49  75 107 137 169 207 249 301
#
# _framework density 20.037361000000001
#
# number of rings (size 3 to 8) (size 9 to 14) (size 15 to 20)
#    0.000    2.750    0.000    6.000    0.000    0.500 
#    0.000    0.000    0.000    7.500    0.000    0.000 
#    0.000    0.000    0.000    0.000    0.000    0.000 
#
# Total GULP energy -89136.901893 kJ/mol
# GULP energy per Si atom -5571.056368 kJ/mol
# Density = 1.999176 g / cm^3
# Si number density = 20.037361 Si / 1000 Ang^3
#
#
#
# Elastic Constant Matrix: (Units=GPa)
#
#
# Indices 1 2 3 4 5 6 
#
# 1 36.2268 13.5331 40.4212 0.0000 -9.4104 0.0000
# 2 13.5331 139.0994 38.4522 0.0000 6.7938 0.0000
# 3 40.4212 38.4522 129.8380 0.0001 -22.5863 -0.0001
# 4 0.0000 0.0000 0.0001 8.0502 0.0001 -4.4044
# 5 -9.4104 6.7938 -22.5863 0.0001 36.6646 0.0000
# 6 0.0000 0.0000 -0.0001 -4.4044 0.0000 -17.2641
#
#
#
# Elastic Compliance Matrix: (Units=1/GPa)
#
#
# Indices 1 2 3 4 5 6 
#
# 1 0.042704 -0.000889 -0.012428 0.000000 0.003469 0.000000
# 2 -0.000889 0.008205 -0.002752 0.000000 -0.003444 0.000000
# 3 -0.012428 -0.002752 0.013351 0.000000 0.005544 0.000000
# 4 0.000000 0.000000 0.000000 0.109006 0.000000 -0.027809
# 5 0.003469 -0.003444 0.005544 0.000000 0.032218 0.000000
# 6 0.000000 0.000000 0.000000 -0.027809 0.000000 -0.050829
#
#
# Mechanical properties :
#
#
# Convention : Reuss Voigt Hill
#
# Bulk Modulus (GPa) = 31.13183 54.44190 42.78686
# Shear Modulus (GPa) = 25.31658 19.67398 22.49528
#
# Velocity S-wave (km/s) = 3.55839 3.13687 3.35426
# Velocity P-wave (km/s) = 5.69679 6.35210 6.03335
#
# Compressibility (1/GPa) = 0.03212147
#
# Stress axis : x y z
#
# Youngs Moduli (GPa) = 23.41704 121.88306 74.90303
#
# Poissons Ratio (x) = 0.10830 0.93089
# Poissons Ratio (y) = 0.02081 0.20615
# Poissons Ratio (z) = 0.29103 0.33546
#
# Static dielectric constant tensor:
#      x y z
#    x 1.775220 0.000000 -0.026800 
#    y 0.000000 1.752900 0.000000 
#    z -0.026800 0.000000 1.761930 
# 
# From -- ./inp_files/38471.got.cif
#   From: 2010.05.17/outbox.cif.g08.bks.cpg/sg12_20_cif.got.tgz:38471.got - 2010.06.03 13:09:07.
