data_PCOD9180175
_publ_section_title
;
Structure prediction by ZEFSAII (Michael W. Deem and Ramdas Pophale) SiO2 
 PCOD9180175
Probable space group: C 2/M
;
_chemical_formula_sum "Si O2"
_cell_formula_units_Z 40
_cell_length_a 20.736810
_cell_length_b 11.232449
_cell_length_c 8.289011
_cell_angle_alpha 90.000000
_cell_angle_beta 86.883473
_cell_angle_gamma 90.000000
_cell_volume 1927.863743
_symmetry_space_group_name_H-M "C 2/M"
_symmetry_group_IT_number 12
_symmetry_cell_setting 'monoclinic'
loop_
_space_group_symop_operation_xyz
x,y,z
-x,y,-z
-x,-y,-z
x,-y,z
1/2+x,1/2+y,z
1/2-x,1/2+y,-z
1/2-x,1/2-y,-z
1/2+x,1/2-y,z
loop_
_atom_site_type_symbol
_atom_site_label
_atom_site_fract_x
_atom_site_fract_y
_atom_site_fract_z
Si Si1 0.958671 0.802177 0.166028
Si Si2 0.694175 0.758629 0.373309
Si Si3 0.572098 0.863958 0.561508
Si Si4 0.173835 0.000000 0.411263
Si Si5 0.130607 0.000000 0.957952
Si Si6 0.547090 0.500000 0.295456
Si Si7 0.249476 0.500000 0.253618
O O1 0.934816 0.685810 0.258212
O O2 0.898885 0.884196 0.125149
O O3 0.003208 0.883634 0.277399
O O4 0.000000 0.778443 0.000000
O O5 0.750000 0.750000 0.500000
O O6 0.624457 0.785217 0.461055
O O7 0.691893 0.621887 0.315237
O O8 0.710389 0.875269 0.265519
O O9 0.500000 0.858975 0.500000
O O10 0.595009 0.000000 0.552667
O O11 0.207625 0.000000 0.584042
O O12 0.095727 0.000000 0.438153
O O13 0.205546 0.000000 0.909443
O O14 0.095799 0.000000 0.135310
#
# Coordination Sequence:
#
# PCOD9180175 Si02
#       7
#     8   8   8   4   4   4   4
#     4   9  18  33  54  79 108 141 180 225 277 333
#     4  10  20  35  54  81 110 147 189 229 275 328
#     4  11  22  35  54  82 116 147 185 231 282 331
#     4  10  19  31  55  79 102 139 183 232 269 318
#     4   9  18  34  56  79 102 144 181 229 276 331
#     4   9  18  34  54  80 110 133 180 233 284 322
#     4  10  19  35  54  74 107 148 187 222 277 331
#
# _framework density 20.748355
#
# number of rings (size 3 to 8) (size 9 to 14) (size 15 to 20)
#    0.000    2.200    1.000    4.800    0.000    1.200 
#    0.000    4.500    0.000    4.800    0.000    0.000 
#    0.000    0.000    0.000    0.000    0.000    0.000 
#
# Total GULP energy -111562.502545 kJ/mol
# GULP energy per Si atom -5578.125127 kJ/mol
# Density = 2.070113 g / cm^3
# Si number density = 20.748355 Si / 1000 Ang^3
#
#
#
# Elastic Constant Matrix: (Units=GPa)
#
#
# Indices 1 2 3 4 5 6 
#
# 1 68.5971 22.3342 4.8979 0.0000 -14.5933 0.0000
# 2 22.3342 157.4067 27.7320 0.0000 -18.1101 0.0000
# 3 4.8979 27.7320 37.8411 0.0000 -20.9683 0.0000
# 4 0.0000 0.0000 0.0000 20.1745 0.0000 3.8342
# 5 -14.5933 -18.1101 -20.9683 0.0000 35.4437 0.0000
# 6 0.0000 0.0000 0.0000 3.8342 0.0000 12.2371
#
#
#
# Elastic Compliance Matrix: (Units=1/GPa)
#
#
# Indices 1 2 3 4 5 6 
#
# 1 0.016713 -0.002124 0.003875 0.000000 0.008089 0.000000
# 2 -0.002124 0.007581 -0.005384 0.000000 -0.000186 0.000000
# 3 0.003875 -0.005384 0.043485 0.000000 0.024570 0.000000
# 4 0.000000 0.000000 0.000000 0.052706 0.000000 -0.016514
# 5 0.008089 -0.000186 0.024570 0.000000 0.045985 0.000000
# 6 0.000000 0.000000 0.000000 -0.016514 0.000000 0.086893
#
#
# Mechanical properties :
#
#
# Convention : Reuss Voigt Hill
#
# Bulk Modulus (GPa) = 16.52487 41.53034 29.02761
# Shear Modulus (GPa) = 17.80624 27.49646 22.65135
#
# Velocity S-wave (km/s) = 2.93268 3.64433 3.30770
# Velocity P-wave (km/s) = 4.41013 6.14555 5.34869
#
# Compressibility (1/GPa) = 0.06051483
#
# Stress axis : x y z
#
# Youngs Moduli (GPa) = 59.83217 131.90017 22.99639
#
# Poissons Ratio (x) = 0.28009 -0.08911
# Poissons Ratio (y) = 0.12705 0.12382
# Poissons Ratio (z) = -0.23186 0.71018
#
# Static dielectric constant tensor:
#      x y z
#    x 1.728860 0.000000 0.040230 
#    y 0.000000 1.772010 0.000000 
#    z 0.040230 0.000000 1.745850 
# 
# From -- ./inp_files/83529.got.cif
#   From: 2010.05.17/outbox.cif.g08.bks.cpg/sg12_42_cif.got.tgz:83529.got - 2010.06.03 13:09:07.
