data_PCOD9180590
_publ_section_title
;
Structure prediction by ZEFSAII (Michael W. Deem and Ramdas Pophale) SiO2 
 PCOD9180590
Probable space group: C 2/M
;
_chemical_formula_sum "Si O2"
_cell_formula_units_Z 56
_cell_length_a 14.460251
_cell_length_b 7.562465
_cell_length_c 22.275799
_cell_angle_alpha 90.000000
_cell_angle_beta 81.516212
_cell_angle_gamma 90.000000
_cell_volume 2409.317886
_symmetry_space_group_name_H-M "C 2/M"
_symmetry_group_IT_number 12
_symmetry_cell_setting 'monoclinic'
loop_
_space_group_symop_operation_xyz
x,y,z
-x,y,-z
-x,-y,-z
x,-y,z
1/2+x,1/2+y,z
1/2-x,1/2+y,-z
1/2-x,1/2-y,-z
1/2+x,1/2-y,z
loop_
_atom_site_type_symbol
_atom_site_label
_atom_site_fract_x
_atom_site_fract_y
_atom_site_fract_z
Si Si1 0.264431 0.282197 0.869699
Si Si2 0.584598 0.298703 0.236957
Si Si3 0.567566 0.801562 0.905973
Si Si4 0.582884 0.283369 0.672965
Si Si5 0.464875 0.713556 0.567930
Si Si6 0.375791 0.702368 0.969554
Si Si7 0.703344 0.791963 0.339270
O O1 0.262628 0.500000 0.868688
O O2 0.345001 0.216864 0.817788
O O3 0.158986 0.225059 0.864682
O O4 0.295168 0.229934 0.933769
O O5 0.566945 0.500000 0.218684
O O6 0.484715 0.221691 0.266285
O O7 0.645214 0.300972 0.292271
O O8 0.469716 0.703906 0.919382
O O9 0.549552 0.000000 0.886293
O O10 0.601246 0.806982 0.972558
O O11 0.581187 0.500000 0.673968
O O12 0.533254 0.228023 0.615540
O O13 0.690337 0.227822 0.666322
O O14 0.500000 0.776420 0.500000
O O15 0.466743 0.500000 0.567287
O O16 0.359755 0.768451 0.595447
O O17 0.359762 0.500000 0.988351
O O18 0.705842 0.000000 0.324472
#
# Coordination Sequence:
#
# PCOD9180590 Si02
#       7
#     8   8   8   8   8   8   8
#     4   9  19  33  52  73  95 126 165 204 245 291
#     4   9  18  36  54  69  94 131 169 202 239 292
#     4  10  19  33  50  72 100 129 159 200 250 293
#     4   8  16  31  51  71  97 131 161 195 242 288
#     4   9  18  34  54  75 100 134 172 201 233 289
#     4  10  19  33  51  73  97 127 164 199 241 300
#     4  10  19  32  50  75 103 130 161 202 250 287
#
# _framework density 23.243092999999998
#
# number of rings (size 3 to 8) (size 9 to 14) (size 15 to 20)
#    0.000    2.714    0.000    3.429    0.000    2.000 
#    0.000   12.143    0.000    0.000    0.000    0.000 
#    0.000    0.000    0.000    0.000    0.000    0.000 
#
# Total GULP energy -156337.493230 kJ/mol
# GULP energy per Si atom -5583.481901 kJ/mol
# Density = 2.319019 g / cm^3
# Si number density = 23.243093 Si / 1000 Ang^3
#
#
#
# Elastic Constant Matrix: (Units=GPa)
#
#
# Indices 1 2 3 4 5 6 
#
# 1 144.4381 3.0646 27.1570 0.0000 -41.2033 0.0000
# 2 3.0646 70.8247 -0.8203 0.0000 -2.1958 0.0000
# 3 27.1570 -0.8203 84.0081 0.0000 -31.3447 0.0000
# 4 0.0000 0.0000 0.0000 10.7819 0.0000 -3.1684
# 5 -41.2033 -2.1958 -31.3447 0.0000 33.4644 0.0000
# 6 0.0000 0.0000 0.0000 -3.1684 0.0000 13.8793
#
#
#
# Elastic Compliance Matrix: (Units=1/GPa)
#
#
# Indices 1 2 3 4 5 6 
#
# 1 0.010951 0.000037 0.002294 0.000000 0.015635 0.000000
# 2 0.000037 0.014179 0.000754 0.000000 0.001683 0.000000
# 3 0.002294 0.000754 0.018818 0.000000 0.020500 0.000000
# 4 0.000000 0.000000 0.000000 0.099418 0.000000 0.022695
# 5 0.015635 0.001683 0.020500 0.000000 0.068445 0.000000
# 6 0.000000 0.000000 0.000000 0.022695 0.000000 0.077231
#
#
# Mechanical properties :
#
#
# Convention : Reuss Voigt Hill
#
# Bulk Modulus (GPa) = 19.95232 39.78596 29.86914
# Shear Modulus (GPa) = 16.69016 29.61641 23.15329
#
# Velocity S-wave (km/s) = 2.68259 3.57347 3.15959
# Velocity P-wave (km/s) = 4.26590 5.84643 5.11755
#
# Compressibility (1/GPa) = 0.05011950
#
# Stress axis : x y z
#
# Youngs Moduli (GPa) = 91.31212 70.52851 53.13953
#
# Poissons Ratio (x) = -0.00264 -0.12189
# Poissons Ratio (y) = -0.00342 -0.04008
# Poissons Ratio (z) = -0.20945 -0.05320
#
# Static dielectric constant tensor:
#      x y z
#    x 1.875340 0.000000 -0.049380 
#    y 0.000000 1.851590 0.000000 
#    z -0.049380 0.000000 1.907690 
# 
# From -- ./inp_files/337846.got.cif
#   From: 2010.05.17/outbox.cif.g08.bks.cpg/sg12_169_cif.got.tgz:337846.got - 2010.06.03 13:09:07.
