data_PCOD9180594
_publ_section_title
;
Structure prediction by ZEFSAII (Michael W. Deem and Ramdas Pophale) SiO2 
 PCOD9180594
Probable space group: C 2/M
;
_chemical_formula_sum "Si O2"
_cell_formula_units_Z 60
_cell_length_a 23.476420
_cell_length_b 20.347760
_cell_length_c 14.254794
_cell_angle_alpha 90.000000
_cell_angle_beta 150.120983
_cell_angle_gamma 90.000000
_cell_volume 3392.244861
_symmetry_space_group_name_H-M "C 2/M"
_symmetry_group_IT_number 12
_symmetry_cell_setting 'monoclinic'
loop_
_space_group_symop_operation_xyz
x,y,z
-x,y,-z
-x,-y,-z
x,-y,z
1/2+x,1/2+y,z
1/2-x,1/2+y,-z
1/2-x,1/2-y,-z
1/2+x,1/2-y,z
loop_
_atom_site_type_symbol
_atom_site_label
_atom_site_fract_x
_atom_site_fract_y
_atom_site_fract_z
Si Si1 0.941346 0.763137 0.571082
Si Si2 0.346044 0.075403 0.147928
Si Si3 0.636697 0.177189 0.375878
Si Si4 0.814222 0.815073 0.128133
Si Si5 0.500000 0.164915 0.500000
Si Si6 0.629398 0.283636 0.199705
Si Si7 0.224027 0.318195 0.210544
Si Si8 0.549001 0.074934 0.912833
O O1 0.943642 0.716475 0.664653
O O2 0.926625 0.712631 0.462681
O O3 0.836500 0.813032 0.435753
O O4 0.054834 0.801987 0.707921
O O5 0.425879 0.118216 0.328883
O O6 0.401905 0.075160 0.123789
O O7 0.333088 0.000000 0.159294
O O8 0.230126 0.117336 0.979452
O O9 0.631557 0.222018 0.275570
O O10 0.763266 0.174451 0.604970
O O11 0.575209 0.108602 0.267603
O O12 0.778270 0.820847 0.185000
O O13 0.750000 0.750000 0.000000
O O14 0.662648 0.250430 0.147870
O O15 0.500000 0.310140 0.000000
O O16 0.135014 0.377414 0.092579
O O17 0.547726 0.000000 0.944253
#
# Coordination Sequence:
#
# PCOD9180594 Si02
#       8
#     8   8   8   8   4   8   8   8
#     4  11  19  31  53  80 102 131 170 221 258 303
#     4  10  21  32  46  72 108 141 167 205 254 309
#     4  10  20  35  51  79 106 133 171 214 264 306
#     4  11  18  31  51  75 104 134 173 211 258 306
#     4  12  17  30  50  74  99 132 170 206 253 296
#     4  10  20  33  55  75 107 131 164 221 266 302
#     4  10  19  32  50  75 105 128 171 213 257 307
#     4  10  19  34  52  72 104 138 169 208 255 309
#
# _framework density 17.687403
#
# number of rings (size 3 to 8) (size 9 to 14) (size 15 to 20)
#    0.000    1.600    5.333    1.000    0.000    0.000 
#    0.000    2.000    0.000    3.600    0.000    0.933 
#    0.000    0.000    0.000    0.000    0.000    0.000 
#
# Total GULP energy -167103.243390 kJ/mol
# GULP energy per Si atom -5570.108113 kJ/mol
# Density = 1.764715 g / cm^3
# Si number density = 17.687403 Si / 1000 Ang^3
#
#
#
# Elastic Constant Matrix: (Units=GPa)
#
#
# Indices 1 2 3 4 5 6 
#
# 1 41.7303 2.9100 4.8230 0.0000 7.9980 0.0000
# 2 2.9100 108.6387 57.6540 0.0000 13.4189 0.0000
# 3 4.8230 57.6540 83.1758 0.0000 24.1907 0.0000
# 4 0.0000 0.0000 0.0000 24.1402 0.0000 2.1258
# 5 7.9980 13.4189 24.1907 0.0000 31.3593 0.0000
# 6 0.0000 0.0000 0.0000 2.1258 0.0000 14.2658
#
#
#
# Elastic Compliance Matrix: (Units=1/GPa)
#
#
# Indices 1 2 3 4 5 6 
#
# 1 0.025215 -0.000176 0.000655 0.000000 -0.006861 0.000000
# 2 -0.000176 0.014661 -0.010753 0.000000 0.002066 0.000000
# 3 0.000655 -0.010753 0.023398 0.000000 -0.013615 0.000000
# 4 0.000000 0.000000 0.000000 0.041976 0.000000 -0.006255
# 5 -0.006861 0.002066 -0.013615 0.000000 0.043257 0.000000
# 6 0.000000 0.000000 0.000000 -0.006255 0.000000 0.071030
#
#
# Mechanical properties :
#
#
# Convention : Reuss Voigt Hill
#
# Bulk Modulus (GPa) = 23.40454 40.47989 31.94221
# Shear Modulus (GPa) = 19.65984 25.16358 22.41171
#
# Velocity S-wave (km/s) = 3.33756 3.77594 3.56350
# Velocity P-wave (km/s) = 5.30221 6.47659 5.91860
#
# Compressibility (1/GPa) = 0.04272675
#
# Stress axis : x y z
#
# Youngs Moduli (GPa) = 39.65908 68.20855 42.73839
#
# Poissons Ratio (x) = 0.01198 -0.02800
# Poissons Ratio (y) = 0.00696 0.45957
# Poissons Ratio (z) = -0.02598 0.73345
#
# Static dielectric constant tensor:
#      x y z
#    x 1.693940 0.000000 -0.010870 
#    y 0.000000 1.599070 0.000000 
#    z -0.010870 0.000000 1.683910 
# 
# From -- ./inp_files/217229.got.cif
#   From: 2010.05.17/outbox.cif.g08.bks.cpg/sg12_109_cif.got.tgz:217229.got - 2010.06.03 13:09:07.
