data_PCOD9180526
_publ_section_title
;
Structure prediction by ZEFSAII (Michael W. Deem and Ramdas Pophale) SiO2 
 PCOD9180526
Probable space group: C 2/M
;
_chemical_formula_sum "Si O2"
_cell_formula_units_Z 48
_cell_length_a 24.345118
_cell_length_b 8.509522
_cell_length_c 14.225464
_cell_angle_alpha 90.000000
_cell_angle_beta 109.369626
_cell_angle_gamma 90.000000
_cell_volume 2780.217185
_symmetry_space_group_name_H-M "C 2/M"
_symmetry_group_IT_number 12
_symmetry_cell_setting 'monoclinic'
loop_
_space_group_symop_operation_xyz
x,y,z
-x,y,-z
-x,-y,-z
x,-y,z
1/2+x,1/2+y,z
1/2-x,1/2+y,-z
1/2-x,1/2-y,-z
1/2+x,1/2-y,z
loop_
_atom_site_type_symbol
_atom_site_label
_atom_site_fract_x
_atom_site_fract_y
_atom_site_fract_z
Si Si1 0.995696 0.310718 0.608076
Si Si2 0.261324 0.811990 0.110302
Si Si3 0.124471 0.689253 0.712492
Si Si4 0.690186 0.311728 0.574089
Si Si5 0.303411 0.188197 0.748945
Si Si6 0.119843 0.812027 0.358578
O O1 0.988503 0.500000 0.604476
O O2 0.941899 0.237382 0.633243
O O3 0.000000 0.263436 0.500000
O O4 0.057346 0.270896 0.692058
O O5 0.325443 0.762725 0.185401
O O6 0.213783 0.750286 0.158147
O O7 0.259719 0.000000 0.109328
O O8 0.250000 0.750000 0.000000
O O9 0.127662 0.500000 0.704186
O O10 0.142408 0.765738 0.624093
O O11 0.694483 0.500000 0.570322
O O12 0.750534 0.251530 0.651739
O O13 0.667717 0.250980 0.461742
O O14 0.362206 0.244722 0.732389
O O15 0.302234 0.000000 0.750595
O O16 0.122844 0.000000 0.356360
#
# Coordination Sequence:
#
# PCOD9180526 Si02
#       6
#     8   8   8   8   8   8
#     4  10  19  32  50  72 102 142 181 209 241 293
#     4  10  20  36  58  81 103 128 164 213 265 310
#     4   9  18  32  51  75 102 134 173 212 248 295
#     4   9  18  30  46  70 102 137 172 209 250 297
#     4  10  20  34  51  73 101 135 173 212 256 305
#     4  11  21  31  46  72 106 142 174 209 252 298
#
# _framework density 17.264838000000001
#
# number of rings (size 3 to 8) (size 9 to 14) (size 15 to 20)
#    0.000    2.167    1.667    2.000    0.000    3.000 
#    0.000    0.000    0.000    1.000    0.000    7.000 
#    0.000    0.000    0.000    0.000    0.000    0.000 
#
# Total GULP energy -133820.858472 kJ/mol
# GULP energy per Si atom -5575.869103 kJ/mol
# Density = 1.722554 g / cm^3
# Si number density = 17.264838 Si / 1000 Ang^3
#
#
#
# Elastic Constant Matrix: (Units=GPa)
#
#
# Indices 1 2 3 4 5 6 
#
# 1 117.2481 28.0791 58.0679 0.0000 -29.1497 0.0000
# 2 28.0791 26.9339 26.6482 0.0000 -8.2865 0.0000
# 3 58.0679 26.6482 103.8889 0.0000 -22.0833 0.0000
# 4 0.0000 0.0000 0.0000 21.7999 0.0000 -4.3643
# 5 -29.1497 -8.2865 -22.0833 0.0000 18.3658 0.0000
# 6 0.0000 0.0000 0.0000 -4.3643 0.0000 28.6145
#
#
#
# Elastic Compliance Matrix: (Units=1/GPa)
#
#
# Indices 1 2 3 4 5 6 
#
# 1 0.016930 -0.008606 -0.003182 0.000000 0.019161 0.000000
# 2 -0.008606 0.055407 -0.009392 0.000000 0.000047 0.000000
# 3 -0.003182 -0.009392 0.015904 0.000000 0.009835 0.000000
# 4 0.000000 0.000000 0.000000 0.047317 0.000000 0.007217
# 5 0.019161 0.000047 0.009835 0.000000 0.096708 0.000000
# 6 0.000000 0.000000 0.000000 0.007217 0.000000 0.036048
#
#
# Mechanical properties :
#
#
# Convention : Reuss Voigt Hill
#
# Bulk Modulus (GPa) = 21.79594 52.62903 37.21248
# Shear Modulus (GPa) = 15.33901 22.77443 19.05672
#
# Velocity S-wave (km/s) = 2.98393 3.63591 3.32594
# Velocity P-wave (km/s) = 4.95214 6.94089 6.02908
#
# Compressibility (1/GPa) = 0.04588011
#
# Stress axis : x y z
#
# Youngs Moduli (GPa) = 59.06794 18.04837 62.87725
#
# Poissons Ratio (x) = 0.15532 0.20009
# Poissons Ratio (y) = 0.50834 0.59054
# Poissons Ratio (z) = 0.18797 0.16951
#
# Static dielectric constant tensor:
#      x y z
#    x 1.605740 0.000000 0.024530 
#    y 0.000000 1.581090 0.000000 
#    z 0.024530 0.000000 1.585200 
# 
# From -- ./inp_files/172130.got.cif
#   From: 2010.05.17/outbox.cif.g08.bks.cpg/sg12_87_cif.got.tgz:172130.got - 2010.06.03 13:09:07.
