data_PCOD9180065
_publ_section_title
;
Structure prediction by ZEFSAII (Michael W. Deem and Ramdas Pophale) SiO2 
 PCOD9180065
Probable space group: C 2/M
;
_chemical_formula_sum "Si O2"
_cell_formula_units_Z 64
_cell_length_a 29.709641
_cell_length_b 7.415238
_cell_length_c 12.981905
_cell_angle_alpha 90.000000
_cell_angle_beta 86.009502
_cell_angle_gamma 90.000000
_cell_volume 2853.032676
_symmetry_space_group_name_H-M "C 2/M"
_symmetry_group_IT_number 12
_symmetry_cell_setting 'monoclinic'
loop_
_space_group_symop_operation_xyz
x,y,z
-x,y,-z
-x,-y,-z
x,-y,z
1/2+x,1/2+y,z
1/2-x,1/2+y,-z
1/2-x,1/2-y,-z
1/2+x,1/2-y,z
loop_
_atom_site_type_symbol
_atom_site_label
_atom_site_fract_x
_atom_site_fract_y
_atom_site_fract_z
Si Si1 0.553409 0.781010 0.745268
Si Si2 0.202214 0.785873 0.791673
Si Si3 0.475071 0.219578 0.609203
Si Si4 0.450745 0.295170 0.018817
Si Si5 0.303448 0.783433 0.806456
Si Si6 0.128667 0.279267 0.381089
Si Si7 0.357830 0.783977 0.391203
Si Si8 0.145181 0.785027 0.992675
O O1 0.506505 0.727397 0.699590
O O2 0.558696 0.704504 0.857846
O O3 0.595040 0.723028 0.666981
O O4 0.554345 0.000000 0.752186
O O5 0.252771 0.714346 0.797160
O O6 0.181815 0.760289 0.681772
O O7 0.204668 0.000000 0.809711
O O8 0.168090 0.713366 0.884454
O O9 0.500000 0.276502 0.500000
O O10 0.423340 0.278314 0.623176
O O11 0.474584 0.000000 0.607049
O O12 0.455256 0.500000 0.977155
O O13 0.500000 0.208063 0.000000
O O14 0.405297 0.212219 0.978729
O O15 0.338756 0.717459 0.715236
O O16 0.322053 0.743715 0.916773
O O17 0.301859 0.000000 0.796227
O O18 0.128450 0.500000 0.379608
O O19 0.145948 0.220821 0.490964
O O20 0.360567 0.000000 0.395676
O O21 0.138995 0.000000 0.980393
#
# Coordination Sequence:
#
# PCOD9180065 Si02
#       8
#     8   8   8   8   8   8   8   8
#     4  10  19  31  53  83 106 133 179 224 256 304
#     4  10  21  38  57  78 105 140 180 222 273 325
#     4   9  15  27  49  76 106 137 166 202 255 311
#     4  10  22  38  54  75 108 147 175 207 267 326
#     4  10  22  37  56  81 107 138 178 226 274 317
#     4   9  18  33  51  78 114 142 170 218 273 317
#     4  10  19  33  56  83 109 140 180 221 263 316
#     4  10  21  38  57  76 105 143 179 218 266 322
#
# _framework density 22.432269999999999
#
# number of rings (size 3 to 8) (size 9 to 14) (size 15 to 20)
#    0.000    2.250    2.500    0.375    1.750    2.250 
#    0.000    0.625    0.000    1.125    0.000    0.000 
#    0.000    0.000    0.000    0.000    0.000    0.000 
#
# Total GULP energy -178808.199853 kJ/mol
# GULP energy per Si atom -5587.756245 kJ/mol
# Density = 2.238121 g / cm^3
# Si number density = 22.432270 Si / 1000 Ang^3
#
#
#
# Elastic Constant Matrix: (Units=GPa)
#
#
# Indices 1 2 3 4 5 6 
#
# 1 162.6634 6.5458 22.7533 0.0000 27.8798 0.0000
# 2 6.5458 74.8943 -8.2710 0.0000 -6.0856 0.0000
# 3 22.7533 -8.2710 56.6386 0.0000 22.3444 0.0000
# 4 0.0000 0.0000 0.0000 6.8652 0.0000 -2.8617
# 5 27.8798 -6.0856 22.3444 0.0000 40.3716 0.0000
# 6 0.0000 0.0000 0.0000 -2.8617 0.0000 -16.5442
#
#
#
# Elastic Compliance Matrix: (Units=1/GPa)
#
#
# Indices 1 2 3 4 5 6 
#
# 1 0.007124 -0.001121 -0.001302 0.000000 -0.004368 0.000000
# 2 -0.001121 0.013794 0.001713 0.000000 0.001906 0.000000
# 3 -0.001302 0.001713 0.022993 0.000000 -0.011568 0.000000
# 4 0.000000 0.000000 0.000000 0.135866 0.000000 -0.023501
# 5 -0.004368 0.001906 -0.011568 0.000000 0.034476 0.000000
# 6 0.000000 0.000000 0.000000 -0.023501 0.000000 -0.056379
#
#
# Mechanical properties :
#
#
# Convention : Reuss Voigt Hill
#
# Bulk Modulus (GPa) = 23.53531 37.36137 30.44834
# Shear Modulus (GPa) = 28.82537 24.34973 26.58755
#
# Velocity S-wave (km/s) = 3.58857 3.29823 3.44646
# Velocity P-wave (km/s) = 5.26165 5.58532 5.42590
#
# Compressibility (1/GPa) = 0.04248935
#
# Stress axis : x y z
#
# Youngs Moduli (GPa) = 140.37951 72.49433 43.49157
#
# Poissons Ratio (x) = 0.08129 0.05665
# Poissons Ratio (y) = 0.15741 -0.07451
# Poissons Ratio (z) = 0.18284 -0.12419
#
# Static dielectric constant tensor:
#      x y z
#    x 1.834840 0.000000 -0.006500 
#    y 0.000000 1.849770 0.000000 
#    z -0.006500 0.000000 1.770460 
# 
# From -- ./inp_files/187481.got.cif
#   From: 2010.05.17/outbox.cif.g08.bks.cpg/sg12_94_cif.got.tgz:187481.got - 2010.06.03 13:09:07.
