data_PCOD9180516
_publ_section_title
;
Structure prediction by ZEFSAII (Michael W. Deem and Ramdas Pophale) SiO2 
 PCOD9180516
Probable space group: C 2/M
;
_chemical_formula_sum "Si O2"
_cell_formula_units_Z 56
_cell_length_a 8.514628
_cell_length_b 19.717112
_cell_length_c 22.434355
_cell_angle_alpha 90.000000
_cell_angle_beta 124.701606
_cell_angle_gamma 90.000000
_cell_volume 3096.435613
_symmetry_space_group_name_H-M "C 2/M"
_symmetry_group_IT_number 12
_symmetry_cell_setting 'monoclinic'
loop_
_space_group_symop_operation_xyz
x,y,z
-x,y,-z
-x,-y,-z
x,-y,z
1/2+x,1/2+y,z
1/2-x,1/2+y,-z
1/2-x,1/2-y,-z
1/2+x,1/2-y,z
loop_
_atom_site_type_symbol
_atom_site_label
_atom_site_fract_x
_atom_site_fract_y
_atom_site_fract_z
Si Si1 0.747109 0.077378 0.292230
Si Si2 0.555562 0.673492 0.577792
Si Si3 0.119406 0.078570 0.872837
Si Si4 0.177815 0.326508 0.577792
Si Si5 0.129581 0.922622 0.292230
Si Si6 0.186293 0.826557 1.000000
Si Si7 0.000895 0.578569 0.127163
O O1 0.788666 0.127838 0.354990
O O2 0.576228 0.094740 0.209933
O O3 0.938633 0.078099 0.292422
O O4 0.720213 0.000000 0.306946
O O5 0.500000 0.647962 0.500000
O O6 0.364356 0.674280 0.576237
O O7 0.629574 0.750000 0.586382
O O8 0.314204 0.080922 0.876136
O O9 0.946427 0.094741 0.790067
O O10 0.097375 0.000000 0.888356
O O11 0.138995 0.131061 0.930267
O O12 0.223697 0.372162 0.645010
O O13 0.000000 0.352038 0.500000
O O14 0.200624 0.000000 0.306945
O O15 0.348193 0.868939 0.069732
O O16 0.250000 0.750000 0.000000
O O17 0.000000 0.823743 0.000000
O O18 0.932307 0.500000 0.111644
#
# Coordination Sequence:
#
# PCOD9180516 Si02
#       7
#     8   8   8   8   8   8   8
#     4   8  16  32  54  78 102 131 168 208 250 299
#     4  10  19  32  50  72 101 135 171 209 251 300
#     4   9  18  36  60  81 104 137 173 208 255 314
#     4  10  19  32  50  72 101 135 171 209 251 300
#     4   8  16  32  54  78 102 131 168 208 250 299
#     4  12  25  38  53  77 109 139 173 216 259 304
#     4   9  18  36  60  81 104 137 173 208 255 314
#
# _framework density 18.085311000000001
#
# number of rings (size 3 to 8) (size 9 to 14) (size 15 to 20)
#    0.000    2.571    0.000    5.143    0.000    4.000 
#    0.000    5.714    0.000    6.000    0.000    0.000 
#    0.000    0.000    0.000    0.000    0.000    0.000 
#
# Total GULP energy -156196.608695 kJ/mol
# GULP energy per Si atom -5578.450311 kJ/mol
# Density = 1.804415 g / cm^3
# Si number density = 18.085311 Si / 1000 Ang^3
#
#
#
# Elastic Constant Matrix: (Units=GPa)
#
#
# Indices 1 2 3 4 5 6 
#
# 1 43.0794 36.3793 40.8379 0.0000 2.0688 0.0000
# 2 36.3793 128.4975 131.4142 0.0000 7.6140 0.0000
# 3 40.8379 131.4142 188.0208 0.0000 9.5438 0.0000
# 4 0.0000 0.0000 0.0000 59.2385 0.0000 3.1094
# 5 2.0688 7.6140 9.5438 0.0000 14.6315 0.0000
# 6 0.0000 0.0000 0.0000 3.1094 0.0000 20.4356
#
#
#
# Elastic Compliance Matrix: (Units=1/GPa)
#
#
# Indices 1 2 3 4 5 6 
#
# 1 0.030740 -0.006585 -0.002097 0.000000 0.000448 0.000000
# 2 -0.006585 0.028744 -0.018563 0.000000 -0.001919 0.000000
# 3 -0.002097 -0.018563 0.018868 0.000000 -0.002351 0.000000
# 4 0.000000 0.000000 0.000000 0.017017 0.000000 -0.002589
# 5 0.000448 -0.001919 -0.002351 0.000000 0.070814 0.000000
# 6 0.000000 0.000000 0.000000 -0.002589 0.000000 0.049328
#
#
# Mechanical properties :
#
#
# Convention : Reuss Voigt Hill
#
# Bulk Modulus (GPa) = 41.90658 86.31785 64.11222
# Shear Modulus (GPa) = 17.98856 28.92553 23.45704
#
# Velocity S-wave (km/s) = 3.15723 4.00358 3.60533
# Velocity P-wave (km/s) = 6.04257 8.31885 7.27035
#
# Compressibility (1/GPa) = 0.02386260
#
# Stress axis : x y z
#
# Youngs Moduli (GPa) = 32.53084 34.78951 53.00105
#
# Poissons Ratio (x) = 0.22908 0.11115
# Poissons Ratio (y) = 0.21420 0.98385
# Poissons Ratio (z) = 0.06822 0.64579
#
# Static dielectric constant tensor:
#      x y z
#    x 1.618990 0.000000 0.000420 
#    y 0.000000 1.597640 0.000000 
#    z 0.000420 0.000000 1.624270 
# 
# From -- ./inp_files/300881.got.cif
#   From: 2010.05.17/outbox.cif.g08.bks.cpg/sg12_151_cif.got.tgz:300881.got - 2010.06.03 13:09:07.
