data_PCOD9180038
_publ_section_title
;
Structure prediction by ZEFSAII (Michael W. Deem and Ramdas Pophale) SiO2 
 PCOD9180038
Probable space group: C 2/M
;
_chemical_formula_sum "Si O2"
_cell_formula_units_Z 48
_cell_length_a 20.961538
_cell_length_b 7.398406
_cell_length_c 15.367736
_cell_angle_alpha 90.000000
_cell_angle_beta 109.687166
_cell_angle_gamma 90.000000
_cell_volume 2243.947813
_symmetry_space_group_name_H-M "C 2/M"
_symmetry_group_IT_number 12
_symmetry_cell_setting 'monoclinic'
loop_
_space_group_symop_operation_xyz
x,y,z
-x,y,-z
-x,-y,-z
x,-y,z
1/2+x,1/2+y,z
1/2-x,1/2+y,-z
1/2-x,1/2-y,-z
1/2+x,1/2-y,z
loop_
_atom_site_type_symbol
_atom_site_label
_atom_site_fract_x
_atom_site_fract_y
_atom_site_fract_z
Si Si1 0.583934 0.218697 0.308315
Si Si2 0.424856 0.711567 0.981149
Si Si3 0.684828 0.710354 0.202538
Si Si4 0.065384 0.717958 0.817158
Si Si5 0.336841 0.778698 0.294607
Si Si6 0.925187 0.720356 0.497289
O O1 0.644797 0.278958 0.274918
O O2 0.511714 0.279099 0.235580
O O3 0.588515 0.278561 0.410425
O O4 0.583709 0.000000 0.307702
O O5 0.429564 0.500000 0.958930
O O6 0.410308 0.725652 0.076509
O O7 0.500000 0.790303 0.000000
O O8 0.365914 0.789764 0.893324
O O9 0.694703 0.500000 0.183789
O O10 0.760277 0.785739 0.245670
O O11 0.064342 0.500000 0.815045
O O12 0.114375 0.777167 0.762012
O O13 0.370154 0.721936 0.401060
O O14 0.336811 0.000000 0.295781
O O15 0.925664 0.500000 0.498364
O O16 0.000000 0.775790 0.500000
#
# Coordination Sequence:
#
# PCOD9180038 Si02
#       6
#     8   8   8   8   8   8
#     4  10  19  31  53  81 103 127 167 214 252 292
#     4  10  20  34  51  72 101 139 174 201 245 309
#     4  10  21  36  52  72 104 140 169 203 251 305
#     4  10  19  32  54  80 100 125 170 220 252 285
#     4   9  18  33  52  76 104 133 167 207 252 301
#     4   9  15  28  52  79 103 129 164 206 252 300
#
# _framework density 21.390872000000002
#
# number of rings (size 3 to 8) (size 9 to 14) (size 15 to 20)
#    0.000    2.333    3.333    0.000    0.000    2.333 
#    0.000    0.833    0.000    1.500    0.000    0.000 
#    0.000    0.000    0.000    0.000    0.000    0.000 
#
# Total GULP energy -134080.473543 kJ/mol
# GULP energy per Si atom -5586.686398 kJ/mol
# Density = 2.134219 g / cm^3
# Si number density = 21.390872 Si / 1000 Ang^3
#
#
#
# Elastic Constant Matrix: (Units=GPa)
#
#
# Indices 1 2 3 4 5 6 
#
# 1 110.7663 -5.0737 39.3229 0.0000 22.6397 0.0000
# 2 -5.0737 70.7635 -7.3240 0.0000 11.6808 0.0000
# 3 39.3229 -7.3240 142.5355 0.0000 11.8828 0.0000
# 4 0.0000 0.0000 0.0000 12.1952 0.0000 -15.8044
# 5 22.6397 11.6808 11.8828 0.0000 37.9795 0.0000
# 6 0.0000 0.0000 0.0000 -15.8044 0.0000 6.2113
#
#
#
# Elastic Compliance Matrix: (Units=1/GPa)
#
#
# Indices 1 2 3 4 5 6 
#
# 1 0.011309 0.001618 -0.002498 0.000000 -0.006457 0.000000
# 2 0.001618 0.015314 0.000835 0.000000 -0.005936 0.000000
# 3 -0.002498 0.000835 0.007850 0.000000 -0.001224 0.000000
# 4 0.000000 0.000000 0.000000 -0.035691 0.000000 -0.090814
# 5 -0.006457 -0.005936 -0.001224 0.000000 0.032388 0.000000
# 6 0.000000 0.000000 0.000000 -0.090814 0.000000 -0.070075
#
#
# Mechanical properties :
#
#
# Convention : Reuss Voigt Hill
#
# Bulk Modulus (GPa) = 29.08437 41.99064 35.53751
# Shear Modulus (GPa) = -182.78458 31.08656 -75.84901
#
# Velocity S-wave (km/s) = -9.25393 3.81630 -5.96117
# Velocity P-wave (km/s) = 10.02767 6.25233 5.54358
#
# Compressibility (1/GPa) = 0.03438273
#
# Stress axis : x y z
#
# Youngs Moduli (GPa) = 88.42593 65.30040 127.38852
#
# Poissons Ratio (x) = -0.10566 0.31827
# Poissons Ratio (y) = -0.14308 -0.10641
# Poissons Ratio (z) = 0.22093 -0.05455
#
# Static dielectric constant tensor:
#      x y z
#    x 1.730810 0.000000 0.021380 
#    y 0.000000 1.816550 0.000000 
#    z 0.021380 0.000000 1.746580 
# 
# From -- ./inp_files/153708.got.cif
#   From: 2010.05.17/outbox.cif.g08.bks.cpg/sg12_77_cif.got.tgz:153708.got - 2010.06.03 13:09:07.
