data_PCOD9180097
_publ_section_title
;
Structure prediction by ZEFSAII (Michael W. Deem and Ramdas Pophale) SiO2 
 PCOD9180097
Probable space group: C 2/M
;
_chemical_formula_sum "Si O2"
_cell_formula_units_Z 58
_cell_length_a 19.801879
_cell_length_b 13.301210
_cell_length_c 10.182469
_cell_angle_alpha 90.000000
_cell_angle_beta 76.643679
_cell_angle_gamma 90.000000
_cell_volume 2609.409165
_symmetry_space_group_name_H-M "C 2/M"
_symmetry_group_IT_number 12
_symmetry_cell_setting 'monoclinic'
loop_
_space_group_symop_operation_xyz
x,y,z
-x,y,-z
-x,-y,-z
x,-y,z
1/2+x,1/2+y,z
1/2-x,1/2+y,-z
1/2-x,1/2-y,-z
1/2+x,1/2-y,z
loop_
_atom_site_type_symbol
_atom_site_label
_atom_site_fract_x
_atom_site_fract_y
_atom_site_fract_z
Si Si1 0.725761 0.888512 0.001651
Si Si2 0.108018 0.886330 0.129459
Si Si3 0.559706 0.389004 0.580826
Si Si4 0.097725 0.115348 0.843616
Si Si5 0.395859 0.841444 0.459640
Si Si6 0.693938 0.802836 0.739456
Si Si7 0.500000 0.000000 0.500000
Si Si8 0.663812 0.227058 0.273718
O O1 0.808657 0.887488 0.941787
O O2 0.690659 0.858892 0.880025
O O3 0.704846 0.000000 0.047998
O O4 0.701860 0.817456 0.129033
O O5 0.105381 0.802133 0.242834
O O6 0.090891 0.000000 0.180074
O O7 0.074853 0.862031 0.002818
O O8 0.500000 0.394137 0.500000
O O9 0.596655 0.500000 0.551824
O O10 0.544033 0.382904 0.745500
O O11 0.592922 0.279544 0.542033
O O12 0.156511 0.195060 0.777265
O O13 0.123591 0.000000 0.839079
O O14 0.344599 0.858419 0.361326
O O15 0.462847 0.910854 0.426055
O O16 0.363581 0.859159 0.618405
O O17 0.775372 0.786195 0.676694
#
# Coordination Sequence:
#
# PCOD9180097 Si02
#       8
#     8   8   8   8   8   8   2   8
#     4  10  19  31  53  84 125 163 199 237 311 394
#     4   9  16  30  52  84 124 156 175 231 321 403
#     4   9  18  36  60  83 102 141 205 263 313 358
#     4   9  15  27  53  84 113 147 183 235 306 384
#     4  11  25  40  64  82 121 165 219 269 305 376
#     4  10  19  37  59  89 118 159 201 257 314 380
#     4  12  28  52  58  82 124 196 228 246 320 368
#     4  11  20  35  57  93 122 153 198 265 314 369
#
# _framework density 22.227253999999999
#
# number of rings (size 3 to 8) (size 9 to 14) (size 15 to 20)
#    0.000    2.069    3.448    1.241    1.931    0.552 
#    0.000    0.000    3.034    4.138    0.000    3.862 
#    0.000    0.000    0.000    0.000    0.000    0.000 
#
# Total GULP energy -161466.169251 kJ/mol
# GULP energy per Si atom -5567.798940 kJ/mol
# Density = 2.217666 g / cm^3
# Si number density = 22.227254 Si / 1000 Ang^3
#
#
#
# Elastic Constant Matrix: (Units=GPa)
#
#
# Indices 1 2 3 4 5 6 
#
# 1 67.4596 27.6580 40.2741 0.0000 38.5158 0.0000
# 2 27.6580 97.1647 15.3176 0.0000 11.6946 0.0000
# 3 40.2741 15.3176 130.0781 0.0000 37.4104 0.0000
# 4 0.0000 0.0000 0.0000 14.3360 0.0000 10.4199
# 5 38.5158 11.6946 37.4104 0.0000 47.0282 0.0000
# 6 0.0000 0.0000 0.0000 10.4199 0.0000 15.9098
#
#
#
# Elastic Compliance Matrix: (Units=1/GPa)
#
#
# Indices 1 2 3 4 5 6 
#
# 1 0.031518 -0.005875 -0.002675 0.000000 -0.022225 0.000000
# 2 -0.005875 0.011745 -0.000140 0.000000 0.002002 0.000000
# 3 -0.002675 -0.000140 0.010234 0.000000 -0.005915 0.000000
# 4 0.000000 0.000000 0.000000 0.133127 0.000000 -0.087190
# 5 -0.022225 0.002002 -0.005915 0.000000 0.043673 0.000000
# 6 0.000000 0.000000 0.000000 -0.087190 0.000000 0.119958
#
#
# Mechanical properties :
#
#
# Convention : Reuss Voigt Hill
#
# Bulk Modulus (GPa) = 27.68764 51.24464 39.46614
# Shear Modulus (GPa) = 13.16917 29.55164 21.36040
#
# Velocity S-wave (km/s) = 2.43673 3.65022 3.10336
# Velocity P-wave (km/s) = 4.51669 6.39299 5.53493
#
# Compressibility (1/GPa) = 0.03611720
#
# Stress axis : x y z
#
# Youngs Moduli (GPa) = 31.72748 85.14098 97.71771
#
# Poissons Ratio (x) = 0.50021 0.26139
# Poissons Ratio (y) = 0.18640 0.01367
# Poissons Ratio (z) = 0.08487 0.01191
#
# Static dielectric constant tensor:
#      x y z
#    x 1.890870 0.000000 -0.035230 
#    y 0.000000 1.845640 0.000000 
#    z -0.035230 0.000000 1.872600 
# 
# From -- ./inp_files/96376.got.cif
#   From: 2010.05.17/outbox.cif.g08.bks.cpg/sg12_49_cif.got.tgz:96376.got - 2010.06.03 13:09:07.
