data_PCOD9180005
_publ_section_title
;
Structure prediction by ZEFSAII (Michael W. Deem and Ramdas Pophale) SiO2 
 PCOD9180005
Probable space group: C 2/M
;
_chemical_formula_sum "Si O2"
_cell_formula_units_Z 64
_cell_length_a 20.663822
_cell_length_b 8.539366
_cell_length_c 21.431959
_cell_angle_alpha 90.000000
_cell_angle_beta 64.566211
_cell_angle_gamma 90.000000
_cell_volume 3415.272983
_symmetry_space_group_name_H-M "C 2/M"
_symmetry_group_IT_number 12
_symmetry_cell_setting 'monoclinic'
loop_
_space_group_symop_operation_xyz
x,y,z
-x,y,-z
-x,-y,-z
x,-y,z
1/2+x,1/2+y,z
1/2-x,1/2+y,-z
1/2-x,1/2-y,-z
1/2+x,1/2-y,z
loop_
_atom_site_type_symbol
_atom_site_label
_atom_site_fract_x
_atom_site_fract_y
_atom_site_fract_z
Si Si1 0.468153 0.687291 0.947037
Si Si2 0.649764 0.810600 0.207654
Si Si3 0.731552 0.187737 0.408358
Si Si4 0.138311 0.689598 0.561786
Si Si5 0.740321 0.812649 0.738040
Si Si6 0.924694 0.689279 0.202019
Si Si7 0.492303 0.809790 0.307134
Si Si8 0.173736 0.687609 0.054386
O O1 0.462857 0.500000 0.950437
O O2 0.522502 0.739719 0.870636
O O3 0.390431 0.755365 0.963128
O O4 0.500000 0.741488 0.000000
O O5 0.714565 0.752680 0.223200
O O6 0.574009 0.755012 0.267964
O O7 0.657395 0.760309 0.132413
O O8 0.649284 0.000000 0.208035
O O9 0.803808 0.247092 0.412473
O O10 0.667015 0.235264 0.481676
O O11 0.727471 0.256124 0.341070
O O12 0.733209 0.000000 0.404181
O O13 0.140772 0.500000 0.564159
O O14 0.059104 0.741501 0.615149
O O15 0.657248 0.760973 0.774078
O O16 0.741178 0.000000 0.739258
O O17 0.928163 0.500000 0.196378
O O18 0.952125 0.732441 0.259524
O O19 0.495071 0.000000 0.308366
O O20 0.174909 0.500000 0.053681
O O21 0.250000 0.750000 0.000000
#
# Coordination Sequence:
#
# PCOD9180005 Si02
#       8
#     8   8   8   8   8   8   8   8
#     4  11  25  42  61  90 124 155 192 243 295 345
#     4  10  22  40  61  83 113 149 191 240 288 343
#     4  10  19  31  52  85 118 150 190 238 292 341
#     4   9  17  32  56  83 114 151 192 237 287 347
#     4  11  23  38  58  84 117 155 194 238 289 347
#     4  10  20  38  62  85 111 150 198 242 287 341
#     4   9  16  35  61  83 108 146 191 236 285 338
#     4  11  24  43  65  89 120 159 199 240 292 354
#
# _framework density 18.739350999999999
#
# number of rings (size 3 to 8) (size 9 to 14) (size 15 to 20)
#    0.000    1.875    2.500    1.500    1.750    3.500 
#    0.000    1.250    0.000    3.750    0.000    0.000 
#    0.000    0.000    0.000    0.000    0.000    0.000 
#
# Total GULP energy -178676.482491 kJ/mol
# GULP energy per Si atom -5583.640078 kJ/mol
# Density = 1.869670 g / cm^3
# Si number density = 18.739351 Si / 1000 Ang^3
#
#
#
# Elastic Constant Matrix: (Units=GPa)
#
#
# Indices 1 2 3 4 5 6 
#
# 1 127.4918 22.4348 48.0777 0.0001 -9.3995 0.0002
# 2 22.4348 16.9840 19.9622 0.0002 -2.9993 0.0004
# 3 48.0777 19.9622 98.4271 0.0000 -19.0612 0.0001
# 4 0.0001 0.0002 0.0000 27.9089 0.0000 1.7965
# 5 -9.3995 -2.9993 -19.0612 0.0000 32.2702 0.0001
# 6 0.0002 0.0004 0.0001 1.7965 0.0001 30.6114
#
#
#
# Elastic Compliance Matrix: (Units=1/GPa)
#
#
# Indices 1 2 3 4 5 6 
#
# 1 0.010924 -0.010736 -0.003089 0.000000 0.000360 0.000000
# 2 -0.010736 0.088015 -0.013130 -0.000001 -0.002702 -0.000001
# 3 -0.003089 -0.013130 0.015719 0.000000 0.007165 0.000000
# 4 0.000000 -0.000001 0.000000 0.035967 0.000000 -0.002111
# 5 0.000360 -0.002702 0.007165 0.000000 0.035074 0.000000
# 6 0.000000 -0.000001 0.000000 -0.002111 0.000000 0.032791
#
#
# Mechanical properties :
#
#
# Convention : Reuss Voigt Hill
#
# Bulk Modulus (GPa) = 16.46113 47.09470 31.77791
# Shear Modulus (GPa) = 17.08524 28.32000 22.70262
#
# Velocity S-wave (km/s) = 3.02276 3.89171 3.48443
# Velocity P-wave (km/s) = 4.58106 6.73646 5.76047
#
# Compressibility (1/GPa) = 0.06074916
#
# Stress axis : x y z
#
# Youngs Moduli (GPa) = 91.53935 11.36164 63.61706
#
# Poissons Ratio (x) = 0.12198 0.19652
# Poissons Ratio (y) = 0.98277 0.83527
# Poissons Ratio (z) = 0.28277 0.14918
#
# Static dielectric constant tensor:
#      x y z
#    x 1.621950 0.000000 -0.015340 
#    y 0.000000 1.639380 0.000000 
#    z -0.015340 0.000000 1.654970 
# 
# From -- ./inp_files/319794.got.cif
#   From: 2010.05.17/outbox.cif.g08.bks.cpg/sg12_160_cif.got.tgz:319794.got - 2010.06.03 13:09:07.
