data_PCOD9180464
_publ_section_title
;
Structure prediction by ZEFSAII (Michael W. Deem and Ramdas Pophale) SiO2 
 PCOD9180464
Probable space group: C 2/M
;
_chemical_formula_sum "Si O2"
_cell_formula_units_Z 64
_cell_length_a 22.731338
_cell_length_b 9.112431
_cell_length_c 19.383812
_cell_angle_alpha 90.000000
_cell_angle_beta 97.836384
_cell_angle_gamma 90.000000
_cell_volume 3977.623829
_symmetry_space_group_name_H-M "C 2/M"
_symmetry_group_IT_number 12
_symmetry_cell_setting 'monoclinic'
loop_
_space_group_symop_operation_xyz
x,y,z
-x,y,-z
-x,-y,-z
x,-y,z
1/2+x,1/2+y,z
1/2-x,1/2+y,-z
1/2-x,1/2-y,-z
1/2+x,1/2-y,z
loop_
_atom_site_type_symbol
_atom_site_label
_atom_site_fract_x
_atom_site_fract_y
_atom_site_fract_z
Si Si1 0.601482 0.668655 0.627899
Si Si2 0.992285 0.176255 0.201171
Si Si3 0.295852 0.326903 0.105481
Si Si4 0.538453 0.667886 0.352547
Si Si5 0.334757 0.173231 0.975184
Si Si6 0.369951 0.175379 0.230310
Si Si7 0.458988 0.173814 0.926545
Si Si8 0.569994 0.831669 0.489537
O O1 0.621324 0.500000 0.632849
O O2 0.531289 0.669313 0.636806
O O3 0.632540 0.764056 0.692043
O O4 0.604085 0.736903 0.552210
O O5 0.930085 0.256534 0.206856
O O6 0.036234 0.212762 0.272233
O O7 0.018478 0.231708 0.133739
O O8 0.983222 0.000000 0.200806
O O9 0.306782 0.500000 0.116904
O O10 0.331265 0.267215 0.044356
O O11 0.316996 0.237157 0.175030
O O12 0.226633 0.304951 0.075770
O O13 0.559112 0.500000 0.361788
O O14 0.572232 0.767249 0.412961
O O15 0.338449 0.000000 0.994634
O O16 0.391907 0.208587 0.938669
O O17 0.372633 0.000000 0.229781
O O18 0.462524 0.000000 0.909644
O O19 0.500000 0.197784 0.000000
O O20 0.500000 0.827419 0.500000
O O21 0.589001 0.000000 0.495021
#
# Coordination Sequence:
#
# PCOD9180464 Si02
#       8
#     8   8   8   8   8   8   8   8
#     4   9  16  26  39  57  84 116 149 184 223 267
#     4  10  20  32  46  66  91 120 155 191 228 272
#     4  10  19  32  50  69  91 119 152 188 226 271
#     4   8  15  26  38  54  80 114 148 182 220 262
#     4   9  19  34  50  70  94 120 150 185 227 272
#     4  11  20  30  45  65  91 121 154 191 231 272
#     4  10  20  33  49  69  94 122 150 184 227 271
#     4   9  15  22  35  56  81 112 149 183 217 260
#
# _framework density 16.090008000000001
#
# number of rings (size 3 to 8) (size 9 to 14) (size 15 to 20)
#    0.000    2.500    0.000    4.125    0.000    7.250 
#    0.000    0.000    0.000    0.000    0.000    0.000 
#    0.000    1.000    0.000    3.000    0.000    5.375 
#
# Total GULP energy -178401.371679 kJ/mol
# GULP energy per Si atom -5575.042865 kJ/mol
# Density = 1.605339 g / cm^3
# Si number density = 16.090008 Si / 1000 Ang^3
#
#
#
# Elastic Constant Matrix: (Units=GPa)
#
#
# Indices 1 2 3 4 5 6 
#
# 1 25.4884 22.0365 18.0712 0.0000 1.1014 0.0000
# 2 22.0365 105.1037 68.8091 0.0000 10.7402 0.0000
# 3 18.0712 68.8091 112.3677 0.0000 10.2392 0.0000
# 4 0.0000 0.0000 0.0000 32.1174 0.0000 1.5220
# 5 1.1014 10.7402 10.2392 0.0000 12.5794 0.0000
# 6 0.0000 0.0000 0.0000 1.5220 0.0000 14.4361
#
#
#
# Elastic Compliance Matrix: (Units=1/GPa)
#
#
# Indices 1 2 3 4 5 6 
#
# 1 0.048742 -0.008896 -0.002910 0.000000 0.005697 0.000000
# 2 -0.008896 0.017950 -0.008895 0.000000 -0.007306 0.000000
# 3 -0.002910 -0.008895 0.015229 0.000000 -0.004546 0.000000
# 4 0.000000 0.000000 0.000000 0.031292 0.000000 -0.003299
# 5 0.005697 -0.007306 -0.004546 0.000000 0.088935 0.000000
# 6 0.000000 0.000000 0.000000 -0.003299 0.000000 0.069619
#
#
# Mechanical properties :
#
#
# Convention : Reuss Voigt Hill
#
# Bulk Modulus (GPa) = 24.68095 51.19930 37.94012
# Shear Modulus (GPa) = 15.30573 20.76278 18.03425
#
# Velocity S-wave (km/s) = 3.08759 3.59613 3.35152
# Velocity P-wave (km/s) = 5.29939 7.00946 6.21354
#
# Compressibility (1/GPa) = 0.04051708
#
# Stress axis : x y z
#
# Youngs Moduli (GPa) = 20.51611 55.71112 65.66576
#
# Poissons Ratio (x) = 0.49563 0.19110
# Poissons Ratio (y) = 0.18252 0.58411
# Poissons Ratio (z) = 0.05970 0.49556
#
# Static dielectric constant tensor:
#      x y z
#    x 1.517500 0.000000 0.010660 
#    y 0.000000 1.541070 0.000000 
#    z 0.010660 0.000000 1.544690 
# 
# From -- ./inp_files/287703.got.cif
#   From: 2010.05.17/outbox.cif.g08.bks.cpg/sg12_144_cif.got.tgz:287703.got - 2010.06.03 13:09:07.
