data_PCOD9180387
_publ_section_title
;
Structure prediction by ZEFSAII (Michael W. Deem and Ramdas Pophale) SiO2 
 PCOD9180387
Probable space group: C 2/M
;
_chemical_formula_sum "Si O2"
_cell_formula_units_Z 40
_cell_length_a 15.747610
_cell_length_b 14.644362
_cell_length_c 15.922160
_cell_angle_alpha 90.000000
_cell_angle_beta 142.941267
_cell_angle_gamma 90.000000
_cell_volume 2212.790360
_symmetry_space_group_name_H-M "C 2/M"
_symmetry_group_IT_number 12
_symmetry_cell_setting 'monoclinic'
loop_
_space_group_symop_operation_xyz
x,y,z
-x,y,-z
-x,-y,-z
x,-y,z
1/2+x,1/2+y,z
1/2-x,1/2+y,-z
1/2-x,1/2-y,-z
1/2+x,1/2-y,z
loop_
_atom_site_type_symbol
_atom_site_label
_atom_site_fract_x
_atom_site_fract_y
_atom_site_fract_z
Si Si1 0.318787 0.277938 0.934912
Si Si2 0.294110 0.603394 0.072251
Si Si3 0.350102 0.608257 0.426055
Si Si4 0.653953 0.269200 0.228142
Si Si5 0.130602 0.897631 0.360453
O O1 0.254448 0.177701 0.898392
O O2 0.298146 0.309999 0.823493
O O3 0.257921 0.349490 0.954358
O O4 0.484694 0.266145 0.086372
O O5 0.239622 0.500000 0.038521
O O6 0.462966 0.598705 0.211399
O O7 0.500000 0.630630 0.500000
O O8 0.326939 0.500000 0.394626
O O9 0.226198 0.670969 0.292943
O O10 0.354202 0.625658 0.529559
O O11 0.691028 0.328149 0.339557
O O12 0.187724 0.000000 0.392629
#
# Coordination Sequence:
#
# PCOD9180387 Si02
#       5
#     8   8   8   8   8
#     4   9  19  31  47  74  97 123 160 187 230 289
#     4   9  17  32  51  70  97 126 154 193 232 274
#     4  10  20  33  50  71  93 123 162 196 232 279
#     4  10  19  32  49  70  99 125 152 197 237 273
#     4   9  18  32  51  72  93 123 160 194 232 277
#
# _framework density 18.076723000000001
#
# number of rings (size 3 to 8) (size 9 to 14) (size 15 to 20)
#    0.000    2.600    0.000    1.800    0.000    4.000 
#    0.000    6.000    0.000    0.600    0.000    0.000 
#    0.000    0.000    0.000    0.000    0.000    0.000 
#
# Total GULP energy -111394.733548 kJ/mol
# GULP energy per Si atom -5569.736677 kJ/mol
# Density = 1.803558 g / cm^3
# Si number density = 18.076723 Si / 1000 Ang^3
#
#
#
# Elastic Constant Matrix: (Units=GPa)
#
#
# Indices 1 2 3 4 5 6 
#
# 1 69.3847 20.3571 10.6954 0.0000 -22.9744 0.0000
# 2 20.3571 55.0359 13.6476 0.0000 -9.0663 0.0000
# 3 10.6954 13.6476 34.4993 0.0000 -20.0513 0.0000
# 4 0.0000 0.0000 0.0000 21.2973 0.0000 5.1399
# 5 -22.9744 -9.0663 -20.0513 0.0000 20.7741 0.0000
# 6 0.0000 0.0000 0.0000 5.1399 0.0000 21.5194
#
#
#
# Elastic Compliance Matrix: (Units=1/GPa)
#
#
# Indices 1 2 3 4 5 6 
#
# 1 0.031957 -0.009066 0.027153 0.000000 0.057594 0.000000
# 2 -0.009066 0.022776 -0.014235 0.000000 -0.013827 0.000000
# 3 0.027153 -0.014235 0.091210 0.000000 0.111853 0.000000
# 4 0.000000 0.000000 0.000000 0.049826 0.000000 -0.011901
# 5 0.057594 -0.013827 0.111853 0.000000 0.213758 0.000000
# 6 0.000000 0.000000 0.000000 -0.011901 0.000000 0.049312
#
#
# Mechanical properties :
#
#
# Convention : Reuss Voigt Hill
#
# Bulk Modulus (GPa) = 6.50848 27.59112 17.04980
# Shear Modulus (GPa) = 9.95321 20.33281 15.14301
#
# Velocity S-wave (km/s) = 2.34905 3.35745 2.89746
# Velocity P-wave (km/s) = 3.31145 5.50695 4.54379
#
# Compressibility (1/GPa) = 0.15364564
#
# Stress axis : x y z
#
# Youngs Moduli (GPa) = 31.29209 43.90635 10.96377
#
# Poissons Ratio (x) = 0.39806 -0.29770
# Poissons Ratio (y) = 0.28370 0.15607
# Poissons Ratio (z) = -0.84968 0.62502
#
# Static dielectric constant tensor:
#      x y z
#    x 1.636600 0.000000 -0.027920 
#    y 0.000000 1.619830 0.000000 
#    z -0.027920 0.000000 1.620570 
# 
# From -- ./inp_files/58960.got.cif
#   From: 2010.05.17/outbox.cif.g08.bks.cpg/sg12_30_cif.got.tgz:58960.got - 2010.06.03 13:09:07.
