data_PCOD9180934
_publ_section_title
;
Structure prediction by ZEFSAII (Michael W. Deem and Ramdas Pophale) SiO2 
 PCOD9180934
Probable space group: C 2/M
;
_chemical_formula_sum "Si O2"
_cell_formula_units_Z 56
_cell_length_a 22.891248
_cell_length_b 7.620256
_cell_length_c 19.390904
_cell_angle_alpha 90.000000
_cell_angle_beta 49.058901
_cell_angle_gamma 90.000000
_cell_volume 2555.080879
_symmetry_space_group_name_H-M "C 2/M"
_symmetry_group_IT_number 12
_symmetry_cell_setting 'monoclinic'
loop_
_space_group_symop_operation_xyz
x,y,z
-x,y,-z
-x,-y,-z
x,-y,z
1/2+x,1/2+y,z
1/2-x,1/2+y,-z
1/2-x,1/2-y,-z
1/2+x,1/2-y,z
loop_
_atom_site_type_symbol
_atom_site_label
_atom_site_fract_x
_atom_site_fract_y
_atom_site_fract_z
Si Si1 0.422502 0.786212 0.188268
Si Si2 0.532342 0.787939 0.690073
Si Si3 0.249195 0.210602 0.298680
Si Si4 0.582696 0.799778 0.021040
Si Si5 0.871631 0.203736 0.862572
Si Si6 0.247011 0.284418 0.852967
Si Si7 0.181372 0.293470 0.499179
O O1 0.437385 0.743404 0.256623
O O2 0.337488 0.723946 0.235726
O O3 0.496489 0.721897 0.087578
O O4 0.423445 0.000000 0.182604
O O5 0.445700 0.715748 0.754671
O O6 0.598248 0.720230 0.587380
O O7 0.526177 0.000000 0.690505
O O8 0.218448 0.267920 0.247792
O O9 0.204679 0.252744 0.403051
O O10 0.253328 0.000000 0.293211
O O11 0.606457 0.800720 0.083867
O O12 0.576221 0.000000 0.000482
O O13 0.658179 0.723063 0.926497
O O14 0.797759 0.273711 0.878576
O O15 0.859488 0.000000 0.890256
O O16 0.246335 0.500000 0.857070
O O17 0.172748 0.500000 0.511284
O O18 0.250000 0.250000 0.500000
#
# Coordination Sequence:
#
# PCOD9180934 Si02
#       7
#     8   8   8   8   8   8   8
#     4   8  14  27  49  75  99 126 166 208 249 297
#     4   9  18  34  53  76 101 130 169 212 253 307
#     4  10  19  34  52  75 107 140 171 212 257 304
#     4   9  17  32  52  75 102 137 176 215 255 304
#     4  10  19  32  51  78 103 133 177 220 258 298
#     4   9  19  33  51  74 105 141 178 213 252 305
#     4  11  21  35  56  81 105 132 169 209 256 313
#
# _framework density 21.917114000000002
#
# number of rings (size 3 to 8) (size 9 to 14) (size 15 to 20)
#    0.000    2.571    1.429    2.143    0.000    1.714 
#    0.000    6.429    0.000    4.286    0.000    3.000 
#    0.000    0.000    0.000    0.000    0.000    0.000 
#
# Total GULP energy -156248.844826 kJ/mol
# GULP energy per Si atom -5580.315887 kJ/mol
# Density = 2.186723 g / cm^3
# Si number density = 21.917114 Si / 1000 Ang^3
#
#
#
# Elastic Constant Matrix: (Units=GPa)
#
#
# Indices 1 2 3 4 5 6 
#
# 1 14.0731 1.2650 14.8947 0.0033 -2.9387 -0.0018
# 2 1.2650 48.3511 -4.1967 0.0030 0.9201 -0.0037
# 3 14.8947 -4.1967 138.4789 0.0012 -2.8678 -0.0010
# 4 0.0033 0.0030 0.0012 12.7851 -0.0021 -2.7682
# 5 -2.9387 0.9201 -2.8678 -0.0021 27.8070 0.0015
# 6 -0.0018 -0.0037 -0.0010 -2.7682 0.0015 7.0458
#
#
#
# Elastic Compliance Matrix: (Units=1/GPa)
#
#
# Indices 1 2 3 4 5 6 
#
# 1 0.082272 -0.003065 -0.008779 -0.000016 0.007891 0.000010
# 2 -0.003065 0.020862 0.000943 -0.000002 -0.000917 0.000010
# 3 -0.008779 0.000943 0.008192 0.000001 -0.000114 0.000000
# 4 -0.000016 -0.000002 0.000001 0.085488 0.000003 0.033587
# 5 0.007891 -0.000917 -0.000114 0.000003 0.036815 -0.000005
# 6 0.000010 0.000010 0.000000 0.033587 -0.000005 0.155124
#
#
# Mechanical properties :
#
#
# Convention : Reuss Voigt Hill
#
# Bulk Modulus (GPa) = 11.17014 24.98102 18.07558
# Shear Modulus (GPa) = 11.35347 22.12358 16.73853
#
# Velocity S-wave (km/s) = 2.27847 3.18058 2.76655
# Velocity P-wave (km/s) = 3.46836 4.99108 4.29769
#
# Compressibility (1/GPa) = 0.08952443
#
# Stress axis : x y z
#
# Youngs Moduli (GPa) = 12.15482 47.93510 122.07401
#
# Poissons Ratio (x) = 0.14690 1.07164
# Poissons Ratio (y) = 0.03725 -0.11510
# Poissons Ratio (z) = 0.10670 -0.04520
#
# Static dielectric constant tensor:
#      x y z
#    x 1.774430 0.000000 -0.038410 
#    y 0.000000 1.854450 0.000000 
#    z -0.038410 0.000000 1.825040 
# 
# From -- ./inp_files/287325.got.cif
#   From: 2010.05.17/outbox.cif.g08.bks.cpg/sg12_144_cif.got.tgz:287325.got - 2010.06.03 13:09:07.
