data_PCOD9180672
_publ_section_title
;
Structure prediction by ZEFSAII (Michael W. Deem and Ramdas Pophale) SiO2 
 PCOD9180672
Probable space group: C 2/M
;
_chemical_formula_sum "Si O2"
_cell_formula_units_Z 56
_cell_length_a 19.852909
_cell_length_b 7.334468
_cell_length_c 22.498464
_cell_angle_alpha 90.000000
_cell_angle_beta 47.417195
_cell_angle_gamma 90.000000
_cell_volume 2412.129124
_symmetry_space_group_name_H-M "C 2/M"
_symmetry_group_IT_number 12
_symmetry_cell_setting 'monoclinic'
loop_
_space_group_symop_operation_xyz
x,y,z
-x,y,-z
-x,-y,-z
x,-y,z
1/2+x,1/2+y,z
1/2-x,1/2+y,-z
1/2-x,1/2-y,-z
1/2+x,1/2-y,z
loop_
_atom_site_type_symbol
_atom_site_label
_atom_site_fract_x
_atom_site_fract_y
_atom_site_fract_z
Si Si1 0.960331 0.280223 0.380515
Si Si2 0.814318 0.782421 0.018188
Si Si3 0.896059 0.787964 0.294554
Si Si4 0.640895 0.221979 0.341039
Si Si5 0.301684 0.278023 0.157069
Si Si6 0.694335 0.777833 0.440420
Si Si7 0.477910 0.277027 0.121678
O O1 0.960353 0.500000 0.381951
O O2 0.962855 0.225562 0.310506
O O3 0.867481 0.214943 0.467941
O O4 0.047875 0.218238 0.365313
O O5 0.779194 0.717545 0.103587
O O6 0.820614 0.000000 0.019504
O O7 0.750000 0.750000 0.000000
O O8 0.918162 0.714632 0.947890
O O9 0.798555 0.711862 0.374180
O O10 0.937627 0.714230 0.209084
O O11 0.878007 0.000000 0.292115
O O12 0.728154 0.281196 0.250135
O O13 0.648755 0.274539 0.404955
O O14 0.641239 0.000000 0.340640
O O15 0.299363 0.500000 0.159548
O O16 0.404019 0.224905 0.115843
O O17 0.695104 0.000000 0.443209
O O18 0.480598 0.500000 0.119943
#
# Coordination Sequence:
#
# PCOD9180672 Si02
#       7
#     8   8   8   8   8   8   8
#     4  10  20  30  47  75 104 129 159 206 255 292
#     4  10  21  34  53  80 105 128 157 200 250 295
#     4  10  19  32  51  71  97 134 169 201 241 291
#     4   9  16  28  48  74  99 125 163 208 248 284
#     4   9  16  30  52  75  97 126 168 208 237 278
#     4   9  16  30  49  71  97 129 169 208 244 284
#     4   9  17  32  52  74  98 129 170 207 237 280
#
# _framework density 23.216006
#
# number of rings (size 3 to 8) (size 9 to 14) (size 15 to 20)
#    0.000    2.571    1.429    1.286    2.000    3.429 
#    0.000    0.000    0.000    5.143    0.000    0.000 
#    0.000    0.000    0.000    0.000    0.000    0.000 
#
# Total GULP energy -156486.269860 kJ/mol
# GULP energy per Si atom -5588.795352 kJ/mol
# Density = 2.316317 g / cm^3
# Si number density = 23.216006 Si / 1000 Ang^3
#
#
#
# Elastic Constant Matrix: (Units=GPa)
#
#
# Indices 1 2 3 4 5 6 
#
# 1 67.7441 -12.4878 6.3724 0.0002 28.5600 0.0006
# 2 -12.4878 87.4578 -0.0591 -0.0002 -3.5112 0.0011
# 3 6.3724 -0.0591 76.9179 0.0000 19.9180 0.0000
# 4 0.0002 -0.0002 0.0000 -10.9920 0.0000 10.4779
# 5 28.5600 -3.5112 19.9180 0.0000 42.1735 0.0000
# 6 0.0006 0.0011 0.0000 10.4779 0.0000 11.2045
#
#
#
# Elastic Compliance Matrix: (Units=1/GPa)
#
#
# Indices 1 2 3 4 5 6 
#
# 1 0.021497 0.002453 0.002208 -0.000001 -0.015396 -0.000001
# 2 0.002453 0.011757 -0.000020 -0.000001 -0.000673 -0.000001
# 3 0.002208 -0.000020 0.015046 0.000000 -0.008603 0.000000
# 4 -0.000001 -0.000001 0.000000 -0.048099 0.000000 0.044980
# 5 -0.015396 -0.000673 -0.008603 0.000000 0.038145 0.000001
# 6 -0.000001 -0.000001 0.000000 0.044980 0.000001 0.047187
#
#
# Mechanical properties :
#
#
# Convention : Reuss Voigt Hill
#
# Bulk Modulus (GPa) = 17.36688 24.41900 20.89294
# Shear Modulus (GPa) = 52.38661 24.36349 38.37505
#
# Velocity S-wave (km/s) = 4.75540 3.24300 4.07007
# Velocity P-wave (km/s) = 6.13585 4.95618 5.57729
#
# Compressibility (1/GPa) = 0.05758086
#
# Stress axis : x y z
#
# Youngs Moduli (GPa) = 46.51882 85.05361 66.46451
#
# Poissons Ratio (x) = -0.20862 -0.14674
# Poissons Ratio (y) = -0.11410 0.00133
# Poissons Ratio (z) = -0.10270 0.00170
#
# Static dielectric constant tensor:
#      x y z
#    x 1.826230 0.000000 -0.007830 
#    y 0.000000 1.935650 0.000000 
#    z -0.007830 0.000000 1.831380 
# 
# From -- ./inp_files/268624.got.cif
#   From: 2010.05.17/outbox.cif.g08.bks.cpg/sg12_135_cif.got.tgz:268624.got - 2010.06.03 13:09:07.
