data_PCOD9180514
_publ_section_title
;
Structure prediction by ZEFSAII (Michael W. Deem and Ramdas Pophale) SiO2 
 PCOD9180514
Probable space group: C 2/M
;
_chemical_formula_sum "Si O2"
_cell_formula_units_Z 48
_cell_length_a 28.251740
_cell_length_b 9.030869
_cell_length_c 11.608799
_cell_angle_alpha 90.000000
_cell_angle_beta 78.684922
_cell_angle_gamma 90.000000
_cell_volume 2904.273841
_symmetry_space_group_name_H-M "C 2/M"
_symmetry_group_IT_number 12
_symmetry_cell_setting 'monoclinic'
loop_
_space_group_symop_operation_xyz
x,y,z
-x,y,-z
-x,-y,-z
x,-y,z
1/2+x,1/2+y,z
1/2-x,1/2+y,-z
1/2-x,1/2-y,-z
1/2+x,1/2-y,z
loop_
_atom_site_type_symbol
_atom_site_label
_atom_site_fract_x
_atom_site_fract_y
_atom_site_fract_z
Si Si1 0.085585 0.177062 0.279516
Si Si2 0.487922 0.170135 0.368830
Si Si3 0.609544 0.323912 0.536423
Si Si4 0.794358 0.321980 0.410607
Si Si5 0.676949 0.321727 0.086782
Si Si6 0.221628 0.677597 0.847851
O O1 0.034750 0.258573 0.287582
O O2 0.103595 0.203969 0.402005
O O3 0.127546 0.224523 0.172050
O O4 0.078382 0.000000 0.272704
O O5 0.500000 0.171845 0.500000
O O6 0.439095 0.263674 0.380534
O O7 0.480630 0.000000 0.337656
O O8 0.614273 0.500000 0.550151
O O9 0.656000 0.240438 0.562168
O O10 0.792530 0.500000 0.421548
O O11 0.750000 0.250000 0.500000
O O12 0.789536 0.282588 0.277952
O O13 0.676376 0.500000 0.078426
O O14 0.723506 0.280984 0.142729
O O15 0.686753 0.252553 0.957598
O O16 0.217839 0.500000 0.860540
#
# Coordination Sequence:
#
# PCOD9180514 Si02
#       6
#     8   8   8   8   8   8
#     4   9  17  30  49  73 100 129 161 199 244 289
#     4   9  17  29  46  71 100 128 162 201 240 285
#     4  10  19  32  50  72 101 133 162 196 242 290
#     4  11  22  35  51  72 100 131 163 198 238 287
#     4   9  17  31  51  72  95 125 162 200 237 284
#     4   9  19  34  49  69  98 129 160 197 241 284
#
# _framework density 16.527367000000002
#
# number of rings (size 3 to 8) (size 9 to 14) (size 15 to 20)
#    0.000    2.500    0.000    2.500    0.000    7.333 
#    0.000    3.333    0.000    1.000    0.000    7.000 
#    0.000    0.000    0.000    0.000    0.000    0.000 
#
# Total GULP energy -133855.279044 kJ/mol
# GULP energy per Si atom -5577.303293 kJ/mol
# Density = 1.648975 g / cm^3
# Si number density = 16.527367 Si / 1000 Ang^3
#
#
#
# Elastic Constant Matrix: (Units=GPa)
#
#
# Indices 1 2 3 4 5 6 
#
# 1 128.0912 55.5418 73.4983 0.0000 -26.8951 0.0000
# 2 55.5418 56.0049 51.7603 0.0000 -7.0775 0.0000
# 3 73.4983 51.7603 100.7665 0.0000 -24.6460 0.0000
# 4 0.0000 0.0000 0.0000 25.8536 0.0000 -3.5086
# 5 -26.8951 -7.0775 -24.6460 0.0000 33.2967 0.0000
# 6 0.0000 0.0000 0.0000 -3.5086 0.0000 32.6201
#
#
#
# Elastic Compliance Matrix: (Units=1/GPa)
#
#
# Indices 1 2 3 4 5 6 
#
# 1 0.017254 -0.011969 -0.004457 0.000000 0.008093 0.000000
# 2 -0.011969 0.043670 -0.016846 0.000000 -0.012854 0.000000
# 3 -0.004457 -0.016846 0.024509 0.000000 0.010960 0.000000
# 4 0.000000 0.000000 0.000000 0.039252 0.000000 0.004222
# 5 0.008093 -0.012854 0.010960 0.000000 0.041951 0.000000
# 6 0.000000 0.000000 0.000000 0.004222 0.000000 0.031110
#
#
# Mechanical properties :
#
#
# Convention : Reuss Voigt Hill
#
# Bulk Modulus (GPa) = 52.94153 71.82925 62.38539
# Shear Modulus (GPa) = 18.47844 25.29155 21.88500
#
# Velocity S-wave (km/s) = 3.34735 3.91613 3.64286
# Velocity P-wave (km/s) = 6.85871 8.00020 7.45135
#
# Compressibility (1/GPa) = 0.01888876
#
# Stress axis : x y z
#
# Youngs Moduli (GPa) = 57.95914 22.89900 40.80142
#
# Poissons Ratio (x) = 0.27407 0.18186
# Poissons Ratio (y) = 0.69369 0.68734
# Poissons Ratio (z) = 0.25834 0.38576
#
# Static dielectric constant tensor:
#      x y z
#    x 1.541150 0.000000 -0.004230 
#    y 0.000000 1.553930 0.000000 
#    z -0.004230 0.000000 1.536100 
# 
# From -- ./inp_files/172186.got.cif
#   From: 2010.05.17/outbox.cif.g08.bks.cpg/sg12_87_cif.got.tgz:172186.got - 2010.06.03 13:09:07.
