data_PCOD9180914
_publ_section_title
;
Structure prediction by ZEFSAII (Michael W. Deem and Ramdas Pophale) SiO2 
 PCOD9180914
Probable space group: C 2/M
;
_chemical_formula_sum "Si O2"
_cell_formula_units_Z 56
_cell_length_a 25.282472
_cell_length_b 7.582698
_cell_length_c 19.830033
_cell_angle_alpha 90.000000
_cell_angle_beta 45.817537
_cell_angle_gamma 90.000000
_cell_volume 2726.220412
_symmetry_space_group_name_H-M "C 2/M"
_symmetry_group_IT_number 12
_symmetry_cell_setting 'monoclinic'
loop_
_space_group_symop_operation_xyz
x,y,z
-x,y,-z
-x,-y,-z
x,-y,z
1/2+x,1/2+y,z
1/2-x,1/2+y,-z
1/2-x,1/2-y,-z
1/2+x,1/2-y,z
loop_
_atom_site_type_symbol
_atom_site_label
_atom_site_fract_x
_atom_site_fract_y
_atom_site_fract_z
Si Si1 0.353689 0.714901 0.710434
Si Si2 0.305039 0.215407 0.310539
Si Si3 0.048545 0.702358 0.753065
Si Si4 0.466790 0.704950 0.959727
Si Si5 0.689119 0.213276 0.851365
Si Si6 0.997602 0.795382 0.655899
Si Si7 0.640437 0.714950 0.451543
O O1 0.351196 0.500000 0.715318
O O2 0.270550 0.772699 0.801474
O O3 0.420459 0.779611 0.697472
O O4 0.368189 0.761897 0.619475
O O5 0.371056 0.278220 0.299369
O O6 0.319966 0.266390 0.219285
O O7 0.222095 0.272541 0.401999
O O8 0.306768 0.000000 0.309852
O O9 0.059081 0.500000 0.723637
O O10 0.007936 0.789427 0.726571
O O11 0.000698 0.708865 0.863578
O O12 0.488213 0.500000 0.937078
O O13 0.500000 0.779783 0.000000
O O14 0.379022 0.720222 0.044650
O O15 0.687055 0.000000 0.854608
O O16 0.071309 0.719701 0.555861
O O17 0.996180 0.000000 0.635732
O O18 0.641923 0.500000 0.453337
#
# Coordination Sequence:
#
# PCOD9180914 Si02
#       7
#     8   8   8   8   8   8   8
#     4   8  15  29  53  81 104 132 174 215 249 295
#     4   8  15  28  48  75 102 131 170 210 245 296
#     4  11  22  35  51  72 104 143 176 203 247 311
#     4  11  22  35  54  80 105 126 160 212 265 309
#     4   9  16  31  55  79 101 130 170 210 251 301
#     4  10  19  32  51  77 108 138 171 215 256 289
#     4   8  14  27  51  79 103 132 173 215 253 293
#
# _framework density 20.541259
#
# number of rings (size 3 to 8) (size 9 to 14) (size 15 to 20)
#    0.000    2.714    1.429    3.000    0.000    2.857 
#    0.000    1.429    0.000    6.000    0.000    0.000 
#    0.000    0.000    0.000    0.000    0.000    0.000 
#
# Total GULP energy -156235.824759 kJ/mol
# GULP energy per Si atom -5579.850884 kJ/mol
# Density = 2.049451 g / cm^3
# Si number density = 20.541259 Si / 1000 Ang^3
#
#
#
# Elastic Constant Matrix: (Units=GPa)
#
#
# Indices 1 2 3 4 5 6 
#
# 1 109.4951 -0.5623 86.3665 -0.0023 -14.4997 0.0113
# 2 -0.5623 44.6943 -7.1962 -0.0347 -2.4957 0.0057
# 3 86.3665 -7.1962 86.0051 -0.0066 -21.1243 0.0109
# 4 -0.0023 -0.0347 -0.0066 -86.0571 0.0063 -7.7265
# 5 -14.4997 -2.4957 -21.1243 0.0063 21.1565 -0.0077
# 6 0.0113 0.0057 0.0109 -7.7265 -0.0077 3.5699
#
#
#
# Elastic Compliance Matrix: (Units=1/GPa)
#
#
# Indices 1 2 3 4 5 6 
#
# 1 0.054709 -0.010771 -0.062196 0.000006 -0.025877 -0.000008
# 2 -0.010771 0.025401 0.015719 -0.000006 0.011310 -0.000044
# 3 -0.062196 0.015719 0.086632 -0.000007 0.045728 -0.000010
# 4 0.000006 -0.000006 -0.000007 -0.009730 -0.000008 -0.021058
# 5 -0.025877 0.011310 0.045728 -0.000008 0.076524 0.000072
# 6 -0.000008 -0.000044 -0.000010 -0.021058 0.000072 0.234543
#
#
# Mechanical properties :
#
#
# Convention : Reuss Voigt Hill
#
# Bulk Modulus (GPa) = 19.13993 44.15672 31.64833
# Shear Modulus (GPa) = 8.33346 -1.49369 3.41988
#
# Velocity S-wave (km/s) = 2.01637 -0.85367 1.29170
# Velocity P-wave (km/s) = 3.84175 4.53559 4.20301
#
# Compressibility (1/GPa) = 0.05224679
#
# Stress axis : x y z
#
# Youngs Moduli (GPa) = 18.27836 39.36819 11.54311
#
# Poissons Ratio (x) = 0.42403 0.71794
# Poissons Ratio (y) = 0.19687 -0.18145
# Poissons Ratio (z) = 1.13685 -0.61885
#
# Static dielectric constant tensor:
#      x y z
#    x 1.738020 0.000000 -0.032940 
#    y 0.000000 1.783010 0.000000 
#    z -0.032940 0.000000 1.699090 
# 
# From -- ./inp_files/288187.got.cif
#   From: 2010.05.17/outbox.cif.g08.bks.cpg/sg12_145_cif.got.tgz:288187.got - 2010.06.03 13:09:07.
