data_PCOD9180844
_publ_section_title
;
Structure prediction by ZEFSAII (Michael W. Deem and Ramdas Pophale) SiO2 
 PCOD9180844
Probable space group: C 2/M
;
_chemical_formula_sum "Si O2"
_cell_formula_units_Z 48
_cell_length_a 22.234919
_cell_length_b 23.018575
_cell_length_c 5.145636
_cell_angle_alpha 90.000000
_cell_angle_beta 88.648814
_cell_angle_gamma 90.000000
_cell_volume 2632.887312
_symmetry_space_group_name_H-M "C 2/M"
_symmetry_group_IT_number 12
_symmetry_cell_setting 'monoclinic'
loop_
_space_group_symop_operation_xyz
x,y,z
-x,y,-z
-x,-y,-z
x,-y,z
1/2+x,1/2+y,z
1/2-x,1/2+y,-z
1/2-x,1/2-y,-z
1/2+x,1/2-y,z
loop_
_atom_site_type_symbol
_atom_site_label
_atom_site_fract_x
_atom_site_fract_y
_atom_site_fract_z
Si Si1 0.753057 0.932164 0.783934
Si Si2 0.831075 0.932634 0.261925
Si Si3 0.332474 0.252744 0.751951
Si Si4 0.040625 0.183614 0.234268
Si Si5 0.206388 0.685315 0.733953
Si Si6 0.933718 0.934636 0.618029
O O1 0.781040 0.929486 0.493148
O O2 0.702535 0.882892 0.796759
O O3 0.737515 0.000000 0.838901
O O4 0.802551 0.913001 0.994989
O O5 0.890124 0.909284 0.398588
O O6 0.845980 0.000000 0.218168
O O7 0.397842 0.281225 0.736858
O O8 0.277594 0.297968 0.706584
O O9 0.324032 0.204346 0.530514
O O10 0.320180 0.224084 0.032326
O O11 0.060457 0.116533 0.175767
O O12 0.000000 0.184687 0.500000
O O13 0.000000 0.204639 0.000000
O O14 0.000000 0.941692 0.500000
O O15 0.913194 0.000000 0.700074
#
# Coordination Sequence:
#
# PCOD9180844 Si02
#       6
#     8   8   8   8   8   8
#     4  10  19  32  51  76 102 128 162 202 256 312
#     4   9  18  30  45  67  99 134 164 201 245 295
#     4  10  21  36  52  75 103 136 178 208 251 305
#     4  11  23  37  54  74 102 137 175 222 259 296
#     4  10  20  34  55  76 103 137 166 213 256 303
#     4   9  19  33  48  68  95 132 177 218 254 286
#
# _framework density 18.230934999999999
#
# number of rings (size 3 to 8) (size 9 to 14) (size 15 to 20)
#    0.000    2.167    0.000    3.000    0.000    8.333 
#    0.000    5.000    0.000    0.000    0.000    0.000 
#    0.000   13.333    0.000    0.000    0.000    0.000 
#
# Total GULP energy -133887.354750 kJ/mol
# GULP energy per Si atom -5578.639781 kJ/mol
# Density = 1.818944 g / cm^3
# Si number density = 18.230935 Si / 1000 Ang^3
#
#
#
# Elastic Constant Matrix: (Units=GPa)
#
#
# Indices 1 2 3 4 5 6 
#
# 1 82.2875 36.3691 24.4290 0.0000 6.9643 0.0000
# 2 36.3691 63.6152 -2.2319 0.0000 9.7986 0.0000
# 3 24.4290 -2.2319 77.2312 0.0000 1.7819 0.0000
# 4 0.0000 0.0000 0.0000 23.3040 0.0000 11.5213
# 5 6.9643 9.7986 1.7819 0.0000 20.9656 0.0000
# 6 0.0000 0.0000 0.0000 11.5213 0.0000 25.0738
#
#
#
# Elastic Compliance Matrix: (Units=1/GPa)
#
#
# Indices 1 2 3 4 5 6 
#
# 1 0.018900 -0.010928 -0.006279 0.000000 -0.000637 0.000000
# 2 -0.010928 0.023292 0.004305 0.000000 -0.007622 0.000000
# 3 -0.006279 0.004305 0.015087 0.000000 -0.001209 0.000000
# 4 0.000000 0.000000 0.000000 0.055525 0.000000 -0.025514
# 5 -0.000637 -0.007622 -0.001209 0.000000 0.051574 0.000000
# 6 0.000000 0.000000 0.000000 -0.025514 0.000000 0.051606
#
#
# Mechanical properties :
#
#
# Convention : Reuss Voigt Hill
#
# Bulk Modulus (GPa) = 31.77040 37.80738 34.78889
# Shear Modulus (GPa) = 19.81937 24.83986 22.32962
#
# Velocity S-wave (km/s) = 3.30074 3.69523 3.50354
# Velocity P-wave (km/s) = 5.65606 6.24414 5.95736
#
# Compressibility (1/GPa) = 0.03147584
#
# Stress axis : x y z
#
# Youngs Moduli (GPa) = 52.90896 42.93338 66.28353
#
# Poissons Ratio (x) = 0.46916 0.41623
# Poissons Ratio (y) = 0.57817 -0.28538
# Poissons Ratio (z) = 0.33224 -0.18485
#
# Static dielectric constant tensor:
#      x y z
#    x 1.631450 0.000000 0.004210 
#    y 0.000000 1.671700 0.000000 
#    z 0.004210 0.000000 1.676650 
# 
# From -- ./inp_files/16665.got.cif
#   From: 2010.05.17/outbox.cif.g08.bks.cpg/sg12_9_cif.got.tgz:16665.got - 2010.06.03 13:09:07.
