data_PCOD9180545
_publ_section_title
;
Structure prediction by ZEFSAII (Michael W. Deem and Ramdas Pophale) SiO2 
 PCOD9180545
Probable space group: C 2/M
;
_chemical_formula_sum "Si O2"
_cell_formula_units_Z 64
_cell_length_a 10.191308
_cell_length_b 18.408461
_cell_length_c 18.023567
_cell_angle_alpha 90.000000
_cell_angle_beta 87.836576
_cell_angle_gamma 90.000000
_cell_volume 3378.924490
_symmetry_space_group_name_H-M "C 2/M"
_symmetry_group_IT_number 12
_symmetry_cell_setting 'monoclinic'
loop_
_space_group_symop_operation_xyz
x,y,z
-x,y,-z
-x,-y,-z
x,-y,z
1/2+x,1/2+y,z
1/2-x,1/2+y,-z
1/2-x,1/2-y,-z
1/2+x,1/2-y,z
loop_
_atom_site_type_symbol
_atom_site_label
_atom_site_fract_x
_atom_site_fract_y
_atom_site_fract_z
Si Si1 0.598567 0.920855 0.362258
Si Si2 0.292507 0.174868 0.216796
Si Si3 0.881694 0.237170 0.450877
Si Si4 0.180843 0.082927 0.523102
Si Si5 0.393631 0.813094 0.773252
Si Si6 0.138132 0.583397 0.091365
Si Si7 0.687772 0.125533 0.628384
Si Si8 0.677772 0.083328 0.925618
O O1 0.682721 0.912693 0.434612
O O2 0.624239 0.857876 0.302555
O O3 0.444772 0.918539 0.382371
O O4 0.631431 0.000000 0.328666
O O5 0.448531 0.196300 0.217230
O O6 0.191060 0.240430 0.227834
O O7 0.271347 0.120909 0.287255
O O8 0.268473 0.135169 0.139171
O O9 0.750000 0.250000 0.500000
O O10 0.898818 0.150737 0.440043
O O11 0.857818 0.290167 0.382797
O O12 0.000000 0.263560 0.500000
O O13 0.209474 0.101626 0.436464
O O14 0.132676 0.000000 0.532515
O O15 0.339203 0.862445 0.841728
O O16 0.176906 0.500000 0.106729
O O17 0.980209 0.582442 0.082860
O O18 0.199556 0.605415 0.010746
O O19 0.722781 0.000000 0.915731
#
# Coordination Sequence:
#
# PCOD9180545 Si02
#       8
#     8   8   8   8   8   8   8   8
#     4  10  19  32  52  76 100 126 165 214 251 286
#     4  10  21  32  50  74 102 133 163 204 245 292
#     4  10  20  34  52  71  95 129 167 206 247 294
#     4  10  20  32  48  72 100 129 162 205 256 302
#     4  10  20  34  50  76 104 131 166 201 247 297
#     4   8  14  28  52  76  99 127 163 207 248 287
#     4  10  19  32  50  72  98 130 168 206 248 290
#     4   8  15  29  49  75 101 127 163 206 248 286
#
# _framework density 18.940939
#
# number of rings (size 3 to 8) (size 9 to 14) (size 15 to 20)
#    0.000    2.500    0.000    4.125    0.000    8.250 
#    0.000    0.000    0.000    1.500    0.000    1.750 
#    0.000    0.000    0.000    0.000    0.000    0.000 
#
# Total GULP energy -178332.219631 kJ/mol
# GULP energy per Si atom -5572.881863 kJ/mol
# Density = 1.889783 g / cm^3
# Si number density = 18.940939 Si / 1000 Ang^3
#
#
#
# Elastic Constant Matrix: (Units=GPa)
#
#
# Indices 1 2 3 4 5 6 
#
# 1 42.0029 11.3782 16.2312 0.0000 2.3129 0.0000
# 2 11.3782 78.5504 14.6516 0.0000 -10.9996 0.0000
# 3 16.2312 14.6516 74.5236 0.0000 -8.8607 0.0000
# 4 0.0000 0.0000 0.0000 31.2363 0.0000 -4.1290
# 5 2.3129 -10.9996 -8.8607 0.0000 14.4294 0.0000
# 6 0.0000 0.0000 0.0000 -4.1290 0.0000 13.5914
#
#
#
# Elastic Compliance Matrix: (Units=1/GPa)
#
#
# Indices 1 2 3 4 5 6 
#
# 1 0.028300 -0.004545 -0.006712 0.000000 -0.012122 0.000000
# 2 -0.004545 0.015168 -0.000573 0.000000 0.011939 0.000000
# 3 -0.006712 -0.000573 0.016256 0.000000 0.010622 0.000000
# 4 0.000000 0.000000 0.000000 0.033353 0.000000 0.010133
# 5 -0.012122 0.011939 0.010622 0.000000 0.086870 0.000000
# 6 0.000000 0.000000 0.000000 0.010133 0.000000 0.076654
#
#
# Mechanical properties :
#
#
# Convention : Reuss Voigt Hill
#
# Bulk Modulus (GPa) = 27.72730 31.06653 29.39692
# Shear Modulus (GPa) = 17.10682 22.03915 19.57298
#
# Velocity S-wave (km/s) = 3.00853 3.41482 3.21809
# Velocity P-wave (km/s) = 5.17097 5.65556 5.41869
#
# Compressibility (1/GPa) = 0.03606554
#
# Stress axis : x y z
#
# Youngs Moduli (GPa) = 35.33549 65.92939 61.51653
#
# Poissons Ratio (x) = 0.29965 0.41287
# Poissons Ratio (y) = 0.16060 0.03522
# Poissons Ratio (z) = 0.23715 0.03775
#
# Static dielectric constant tensor:
#      x y z
#    x 1.649770 0.000000 0.001190 
#    y 0.000000 1.715800 0.000000 
#    z 0.001190 0.000000 1.662010 
# 
# From -- ./inp_files/263888.got.cif
#   From: 2010.05.17/outbox.cif.g08.bks.cpg/sg12_132_cif.got.tgz:263888.got - 2010.06.03 13:09:07.
