data_PCOD9180500
_publ_section_title
;
Structure prediction by ZEFSAII (Michael W. Deem and Ramdas Pophale) SiO2 
 PCOD9180500
Probable space group: C 2/M
;
_chemical_formula_sum "Si O2"
_cell_formula_units_Z 48
_cell_length_a 18.980749
_cell_length_b 8.730026
_cell_length_c 24.943261
_cell_angle_alpha 90.000000
_cell_angle_beta 138.678131
_cell_angle_gamma 90.000000
_cell_volume 2729.076817
_symmetry_space_group_name_H-M "C 2/M"
_symmetry_group_IT_number 12
_symmetry_cell_setting 'monoclinic'
loop_
_space_group_symop_operation_xyz
x,y,z
-x,y,-z
-x,-y,-z
x,-y,z
1/2+x,1/2+y,z
1/2-x,1/2+y,-z
1/2-x,1/2-y,-z
1/2+x,1/2-y,z
loop_
_atom_site_type_symbol
_atom_site_label
_atom_site_fract_x
_atom_site_fract_y
_atom_site_fract_z
Si Si1 0.326032 0.816153 0.671591
Si Si2 0.070557 0.818709 0.163044
Si Si3 0.836370 0.315596 0.008558
Si Si4 0.873701 0.677108 0.912936
Si Si5 0.866761 0.315994 0.579582
Si Si6 0.592791 0.814657 0.512355
O O1 0.372603 0.740465 0.751155
O O2 0.390823 0.769042 0.654358
O O3 0.204538 0.762096 0.592377
O O4 0.329679 0.000000 0.678777
O O5 0.135959 0.771577 0.146978
O O6 0.953970 0.741942 0.091739
O O7 0.057869 0.000000 0.157170
O O8 0.835768 0.500000 0.009108
O O9 0.750000 0.250000 0.000000
O O10 0.817337 0.268294 0.935387
O O11 0.845054 0.500000 0.886273
O O12 0.000000 0.679872 0.000000
O O13 0.860534 0.500000 0.576984
O O14 0.750000 0.250000 0.500000
O O15 0.933659 0.273954 0.564891
O O16 0.500000 0.769781 0.500000
O O17 0.605638 0.000000 0.522525
#
# Coordination Sequence:
#
# PCOD9180500 Si02
#       6
#     8   8   8   8   8   8
#     4  10  19  32  50  71  98 131 166 204 246 295
#     4  11  21  33  52  76 101 132 171 211 252 298
#     4  10  20  35  55  78 104 133 166 205 249 298
#     4   8  16  32  52  73  99 131 165 203 248 298
#     4   8  15  28  47  69  92 124 162 197 239 292
#     4   9  17  31  51  74  99 125 158 203 250 297
#
# _framework density 17.588366000000001
#
# number of rings (size 3 to 8) (size 9 to 14) (size 15 to 20)
#    0.000    2.667    0.000    3.500    0.000    4.667 
#    0.000    1.667    0.000    6.000    0.000    0.000 
#    0.000    0.000    0.000    0.000    0.000    0.000 
#
# Total GULP energy -133665.748562 kJ/mol
# GULP energy per Si atom -5569.406190 kJ/mol
# Density = 1.754833 g / cm^3
# Si number density = 17.588366 Si / 1000 Ang^3
#
#
#
# Elastic Constant Matrix: (Units=GPa)
#
#
# Indices 1 2 3 4 5 6 
#
# 1 149.5023 39.7873 58.4649 0.0000 -44.6747 0.0000
# 2 39.7873 51.6495 36.5434 0.0000 -18.7123 0.0000
# 3 58.4649 36.5434 102.6712 0.0000 -41.8589 0.0000
# 4 0.0000 0.0000 0.0000 22.7527 0.0000 -0.1155
# 5 -44.6747 -18.7123 -41.8589 0.0000 32.8438 0.0000
# 6 0.0000 0.0000 0.0000 -0.1155 0.0000 23.4335
#
#
#
# Elastic Compliance Matrix: (Units=1/GPa)
#
#
# Indices 1 2 3 4 5 6 
#
# 1 0.011971 -0.004424 0.000768 0.000000 0.014741 0.000000
# 2 -0.004424 0.028146 -0.007107 0.000000 0.000960 0.000000
# 3 0.000768 -0.007107 0.022080 0.000000 0.025136 0.000000
# 4 0.000000 0.000000 0.000000 0.043952 0.000000 0.000217
# 5 0.014741 0.000960 0.025136 0.000000 0.083081 0.000000
# 6 0.000000 0.000000 0.000000 0.000217 0.000000 0.042675
#
#
# Mechanical properties :
#
#
# Convention : Reuss Voigt Hill
#
# Bulk Modulus (GPa) = 24.58837 63.71269 44.15053
# Shear Modulus (GPa) = 18.72744 27.07451 22.90098
#
# Velocity S-wave (km/s) = 3.26661 3.92770 3.61231
# Velocity P-wave (km/s) = 5.31394 7.54136 6.52342
#
# Compressibility (1/GPa) = 0.04066963
#
# Stress axis : x y z
#
# Youngs Moduli (GPa) = 83.53521 35.52949 45.28963
#
# Poissons Ratio (x) = 0.15720 -0.03478
# Poissons Ratio (y) = 0.36959 0.32188
# Poissons Ratio (z) = -0.06415 0.25251
#
# Static dielectric constant tensor:
#      x y z
#    x 1.630630 0.000000 -0.048340 
#    y 0.000000 1.584680 0.000000 
#    z -0.048340 0.000000 1.584630 
# 
# From -- ./inp_files/314477.got.cif
#   From: 2010.05.17/outbox.cif.g08.bks.cpg/sg12_158_cif.got.tgz:314477.got - 2010.06.03 13:09:07.
