data_PCOD9180852
_publ_section_title
;
Structure prediction by ZEFSAII (Michael W. Deem and Ramdas Pophale) SiO2 
 PCOD9180852
Probable space group: C 2/M
;
_chemical_formula_sum "Si O2"
_cell_formula_units_Z 64
_cell_length_a 25.401993
_cell_length_b 8.568870
_cell_length_c 17.293943
_cell_angle_alpha 90.000000
_cell_angle_beta 77.592253
_cell_angle_gamma 90.000000
_cell_volume 3676.387793
_symmetry_space_group_name_H-M "C 2/M"
_symmetry_group_IT_number 12
_symmetry_cell_setting 'monoclinic'
loop_
_space_group_symop_operation_xyz
x,y,z
-x,y,-z
-x,-y,-z
x,-y,z
1/2+x,1/2+y,z
1/2-x,1/2+y,-z
1/2-x,1/2-y,-z
1/2+x,1/2-y,z
loop_
_atom_site_type_symbol
_atom_site_label
_atom_site_fract_x
_atom_site_fract_y
_atom_site_fract_z
Si Si1 0.933562 0.688272 0.181646
Si Si2 0.889118 0.812931 0.713095
Si Si3 0.439707 0.814968 0.546815
Si Si4 0.065231 0.179216 0.984261
Si Si5 0.719077 0.689827 0.337619
Si Si6 0.839045 0.184618 0.490012
Si Si7 0.941672 0.686366 0.848700
Si Si8 0.336638 0.187751 0.318993
O O1 0.934502 0.500000 0.182153
O O2 0.916715 0.742590 0.101273
O O3 0.889818 0.745179 0.257708
O O4 0.995359 0.739410 0.178083
O O5 0.929332 0.736021 0.638121
O O6 0.828952 0.762960 0.704913
O O7 0.906270 0.761603 0.792630
O O8 0.892144 0.000000 0.705066
O O9 0.500000 0.784076 0.500000
O O10 0.397167 0.721003 0.508706
O O11 0.429155 0.000000 0.542154
O O12 0.082899 0.000000 0.982499
O O13 0.078410 0.266297 0.059642
O O14 0.000000 0.181744 0.000000
O O15 0.718864 0.500000 0.338250
O O16 0.702263 0.739630 0.429965
O O17 0.779659 0.742027 0.300891
O O18 0.835330 0.266298 0.408995
O O19 0.831895 0.000000 0.482033
O O20 0.940744 0.500000 0.841252
O O21 0.337877 0.000000 0.313890
#
# Coordination Sequence:
#
# PCOD9180852 Si02
#       8
#     8   8   8   8   8   8   8   8
#     4   9  19  32  49  75 104 131 161 199 249 301
#     4  10  20  34  52  75 100 130 169 210 251 294
#     4  10  21  35  50  68  97 135 171 207 250 300
#     4   9  17  31  51  74 101 132 163 198 246 298
#     4   8  17  34  52  70  97 132 173 213 251 293
#     4  10  20  33  49  73 100 130 170 213 256 296
#     4  10  19  32  51  76 105 134 165 200 241 301
#     4  10  19  33  53  74  99 134 170 209 251 298
#
# _framework density 17.408391999999999
#
# number of rings (size 3 to 8) (size 9 to 14) (size 15 to 20)
#    0.000    2.500    0.000    3.000    1.750    3.500 
#    0.000    3.125    0.000    0.750    0.000    0.000 
#    0.000    0.000    0.000    0.000    0.000    0.000 
#
# Total GULP energy -178416.223174 kJ/mol
# GULP energy per Si atom -5575.506974 kJ/mol
# Density = 1.736877 g / cm^3
# Si number density = 17.408392 Si / 1000 Ang^3
#
#
#
# Elastic Constant Matrix: (Units=GPa)
#
#
# Indices 1 2 3 4 5 6 
#
# 1 47.7044 3.2889 45.8978 0.0000 -0.9876 0.0000
# 2 3.2889 8.8163 3.6592 0.0000 -3.5183 0.0000
# 3 45.8978 3.6592 90.2439 0.0000 15.3583 0.0000
# 4 0.0000 0.0000 0.0000 30.9325 0.0000 5.9948
# 5 -0.9876 -3.5183 15.3583 0.0000 17.9330 0.0000
# 6 0.0000 0.0000 0.0000 5.9948 0.0000 12.9610
#
#
#
# Elastic Compliance Matrix: (Units=1/GPa)
#
#
# Indices 1 2 3 4 5 6 
#
# 1 0.052117 0.006564 -0.032169 0.000000 0.031709 0.000000
# 2 0.006564 0.133303 -0.015517 0.000000 0.039804 0.000000
# 3 -0.032169 -0.015517 0.033821 0.000000 -0.033781 0.000000
# 4 0.000000 0.000000 0.000000 0.035512 0.000000 -0.016425
# 5 0.031709 0.039804 -0.033781 0.000000 0.094250 0.000000
# 6 0.000000 0.000000 0.000000 -0.016425 0.000000 0.084752
#
#
# Mechanical properties :
#
#
# Convention : Reuss Voigt Hill
#
# Bulk Modulus (GPa) = 7.29956 28.05070 17.67513
# Shear Modulus (GPa) = 8.90211 18.62653 13.76432
#
# Velocity S-wave (km/s) = 2.26380 3.27459 2.81494
# Velocity P-wave (km/s) = 3.32194 5.51775 4.55417
#
# Compressibility (1/GPa) = 0.13699450
#
# Stress axis : x y z
#
# Youngs Moduli (GPa) = 19.18747 7.50172 29.56784
#
# Poissons Ratio (x) = -0.04924 0.95118
# Poissons Ratio (y) = -0.12594 0.45882
# Poissons Ratio (z) = 0.61725 0.11641
#
# Static dielectric constant tensor:
#      x y z
#    x 1.603000 0.000000 -0.006280 
#    y 0.000000 1.594690 0.000000 
#    z -0.006280 0.000000 1.577310 
# 
# From -- ./inp_files/244007.got.cif
#   From: 2010.05.17/outbox.cif.g08.bks.cpg/sg12_123_cif.got.tgz:244007.got - 2010.06.03 13:09:07.
