data_PCOD9180344
_publ_section_title
;
Structure prediction by ZEFSAII (Michael W. Deem and Ramdas Pophale) SiO2 
 PCOD9180344
Probable space group: C 2/M
;
_chemical_formula_sum "Si O2"
_cell_formula_units_Z 56
_cell_length_a 20.051730
_cell_length_b 8.295370
_cell_length_c 22.563722
_cell_angle_alpha 90.000000
_cell_angle_beta 124.953043
_cell_angle_gamma 90.000000
_cell_volume 3076.180931
_symmetry_space_group_name_H-M "C 2/M"
_symmetry_group_IT_number 12
_symmetry_cell_setting 'monoclinic'
loop_
_space_group_symop_operation_xyz
x,y,z
-x,y,-z
-x,-y,-z
x,-y,z
1/2+x,1/2+y,z
1/2-x,1/2+y,-z
1/2-x,1/2-y,-z
1/2+x,1/2-y,z
loop_
_atom_site_type_symbol
_atom_site_label
_atom_site_fract_x
_atom_site_fract_y
_atom_site_fract_z
Si Si1 0.518488 0.689693 0.599123
Si Si2 0.085042 0.805642 0.759608
Si Si3 0.624341 0.812856 0.544034
Si Si4 0.962907 0.693914 0.794886
Si Si5 0.758670 0.696133 0.807196
Si Si6 0.940085 0.697141 0.917848
Si Si7 0.218326 0.305526 0.317948
O O1 0.538248 0.500000 0.604506
O O2 0.538163 0.743611 0.675520
O O3 0.575461 0.778015 0.580299
O O4 0.426111 0.717755 0.531462
O O5 0.178093 0.748307 0.799838
O O6 0.037020 0.747271 0.792234
O O7 0.085965 0.000000 0.761248
O O8 0.716750 0.762358 0.603053
O O9 0.619078 0.000000 0.527186
O O10 0.960419 0.500000 0.794800
O O11 0.966882 0.747693 0.865407
O O12 0.875473 0.747338 0.723814
O O13 0.758240 0.500000 0.807830
O O14 0.845923 0.747705 0.877051
O O15 0.755901 0.740901 0.736198
O O16 0.940745 0.500000 0.918861
O O17 0.000000 0.752941 0.000000
O O18 0.221375 0.500000 0.322507
#
# Coordination Sequence:
#
# PCOD9180344 Si02
#       7
#     8   8   8   8   8   8   8
#     4  10  19  32  49  67  94 136 172 200 242 300
#     4  10  19  32  50  71  98 133 167 202 244 295
#     4  11  20  29  46  75 101 122 159 217 262 283
#     4   9  19  32  51  75 101 130 162 207 248 288
#     4   8  14  27  48  71  93 126 171 203 231 285
#     4   8  14  28  52  78 100 126 164 204 239 285
#     4   9  16  32  51  67  92 131 174 204 239 296
#
# _framework density 18.204391000000001
#
# number of rings (size 3 to 8) (size 9 to 14) (size 15 to 20)
#    0.000    2.714    1.429    4.286    0.000    1.714 
#    0.000    1.429    0.000    0.429    0.000    0.000 
#    0.000    0.000    0.000    0.000    0.000    0.000 
#
# Total GULP energy -156095.125288 kJ/mol
# GULP energy per Si atom -5574.825903 kJ/mol
# Density = 1.816296 g / cm^3
# Si number density = 18.204391 Si / 1000 Ang^3
#
#
#
# Elastic Constant Matrix: (Units=GPa)
#
#
# Indices 1 2 3 4 5 6 
#
# 1 136.3749 3.8773 64.7179 0.0000 9.9276 0.0000
# 2 3.8773 9.0440 1.2767 0.0000 -0.9161 0.0000
# 3 64.7179 1.2767 125.6649 0.0000 19.3389 0.0000
# 4 0.0000 0.0000 0.0000 3.7921 0.0000 -3.0354
# 5 9.9276 -0.9161 19.3389 0.0000 20.0860 0.0000
# 6 0.0000 0.0000 0.0000 -3.0354 0.0000 22.1158
#
#
#
# Elastic Compliance Matrix: (Units=1/GPa)
#
#
# Indices 1 2 3 4 5 6 
#
# 1 0.009815 -0.003525 -0.004986 0.000000 -0.000211 0.000000
# 2 -0.003525 0.112889 -0.000460 0.000000 0.007334 0.000000
# 3 -0.004986 -0.000460 0.011921 0.000000 -0.009034 0.000000
# 4 0.000000 0.000000 0.000000 0.296253 0.000000 0.040660
# 5 -0.000211 0.007334 -0.009034 0.000000 0.058922 0.000000
# 6 0.000000 0.000000 0.000000 0.040660 0.000000 0.050797
#
#
# Mechanical properties :
#
#
# Convention : Reuss Voigt Hill
#
# Bulk Modulus (GPa) = 8.57037 45.64751 27.10894
# Shear Modulus (GPa) = 8.36913 22.61289 15.49101
#
# Velocity S-wave (km/s) = 2.14646 3.52826 2.92027
# Velocity P-wave (km/s) = 3.29562 6.45969 5.12780
#
# Compressibility (1/GPa) = 0.11668109
#
# Stress axis : x y z
#
# Youngs Moduli (GPa) = 101.88917 8.85825 83.88903
#
# Poissons Ratio (x) = 0.03123 0.41829
# Poissons Ratio (y) = 0.35917 0.03860
# Poissons Ratio (z) = 0.50805 0.00408
#
# Static dielectric constant tensor:
#      x y z
#    x 1.625850 0.000000 0.024810 
#    y 0.000000 1.636250 0.000000 
#    z 0.024810 0.000000 1.626920 
# 
# From -- ./inp_files/314433.got.cif
#   From: 2010.05.17/outbox.cif.g08.bks.cpg/sg12_158_cif.got.tgz:314433.got - 2010.06.03 13:09:07.
