data_PCOD9180395
_publ_section_title
;
Structure prediction by ZEFSAII (Michael W. Deem and Ramdas Pophale) SiO2 
 PCOD9180395
Probable space group: C 2/M
;
_chemical_formula_sum "Si O2"
_cell_formula_units_Z 36
_cell_length_a 15.246909
_cell_length_b 28.704371
_cell_length_c 5.044728
_cell_angle_alpha 90.000000
_cell_angle_beta 114.606266
_cell_angle_gamma 90.000000
_cell_volume 2007.347329
_symmetry_space_group_name_H-M "C 2/M"
_symmetry_group_IT_number 12
_symmetry_cell_setting 'monoclinic'
loop_
_space_group_symop_operation_xyz
x,y,z
-x,y,-z
-x,-y,-z
x,-y,z
1/2+x,1/2+y,z
1/2-x,1/2+y,-z
1/2-x,1/2-y,-z
1/2+x,1/2-y,z
loop_
_atom_site_type_symbol
_atom_site_label
_atom_site_fract_x
_atom_site_fract_y
_atom_site_fract_z
Si Si1 0.614548 0.901513 0.587596
Si Si2 0.797255 0.645830 0.800756
Si Si3 0.071444 0.500000 0.344544
Si Si4 0.385474 0.694984 0.349867
Si Si5 0.385339 0.755206 0.853879
O O1 0.500000 0.895457 0.500000
O O2 0.656739 0.866883 0.422715
O O3 0.628526 0.952186 0.466988
O O4 0.666073 0.889987 0.929750
O O5 0.682183 0.651778 0.661220
O O6 0.835602 0.698247 0.895391
O O7 0.000000 0.500000 0.500000
O O8 0.000000 0.500000 0.000000
O O9 0.500000 0.685391 0.500000
O O10 0.363047 0.736391 0.532222
O O11 0.363177 0.713651 0.029231
O O12 0.500000 0.763997 0.000000
#
# Coordination Sequence:
#
# PCOD9180395 Si02
#       5
#     8   8   4   8   8
#     4  11  22  35  54  80 106 132 164 207 261 321
#     4  12  21  33  53  79 103 136 178 218 252 300
#     4  10  20  38  56  76 109 140 159 198 266 334
#     4  10  21  35  50  71 104 145 181 214 255 295
#     4  10  19  32  49  71 105 142 174 214 259 303
#
# _framework density 17.934118000000002
#
# number of rings (size 3 to 8) (size 9 to 14) (size 15 to 20)
#    0.000    1.333    0.000    8.667    0.000    1.778 
#    0.000    0.000    0.000    0.000    0.000    4.667 
#    0.000    0.000    0.000    0.000    0.000    0.000 
#
# Total GULP energy -100418.988466 kJ/mol
# GULP energy per Si atom -5578.832693 kJ/mol
# Density = 1.789330 g / cm^3
# Si number density = 17.934118 Si / 1000 Ang^3
#
#
#
# Elastic Constant Matrix: (Units=GPa)
#
#
# Indices 1 2 3 4 5 6 
#
# 1 94.4969 32.0319 20.3117 0.0000 -7.4882 0.0000
# 2 32.0319 46.8750 7.2651 0.0000 9.7267 0.0000
# 3 20.3117 7.2651 73.5815 0.0000 -19.5848 0.0000
# 4 0.0000 0.0000 0.0000 13.3313 0.0000 0.8073
# 5 -7.4882 9.7267 -19.5848 0.0000 21.8969 0.0000
# 6 0.0000 0.0000 0.0000 0.8073 0.0000 13.8202
#
#
#
# Elastic Compliance Matrix: (Units=1/GPa)
#
#
# Indices 1 2 3 4 5 6 
#
# 1 0.015986 -0.013241 -0.000111 0.000000 0.011249 0.000000
# 2 -0.013241 0.037277 -0.007400 0.000000 -0.027705 0.000000
# 3 -0.000111 -0.007400 0.019971 0.000000 0.021111 0.000000
# 4 0.000000 0.000000 0.000000 0.075278 0.000000 -0.004398
# 5 0.011249 -0.027705 0.021111 0.000000 0.080704 0.000000
# 6 0.000000 0.000000 0.000000 -0.004398 0.000000 0.072615
#
#
# Mechanical properties :
#
#
# Convention : Reuss Voigt Hill
#
# Bulk Modulus (GPa) = 31.51596 37.13010 34.32303
# Shear Modulus (GPa) = 14.12786 20.16599 17.14692
#
# Velocity S-wave (km/s) = 2.80976 3.35692 3.09545
# Velocity P-wave (km/s) = 5.30449 5.98112 5.65294
#
# Compressibility (1/GPa) = 0.03172995
#
# Stress axis : x y z
#
# Youngs Moduli (GPa) = 62.55484 26.82616 50.07345
#
# Poissons Ratio (x) = 0.35520 0.00558
# Poissons Ratio (y) = 0.82828 0.37052
# Poissons Ratio (z) = 0.00697 0.19850
#
# Static dielectric constant tensor:
#      x y z
#    x 1.628200 0.000000 0.018090 
#    y 0.000000 1.694380 0.000000 
#    z 0.018090 0.000000 1.628360 
# 
# From -- ./inp_files/11432.got.cif
#   From: 2010.05.17/outbox.cif.g08.bks.cpg/sg12_6_cif.got.tgz:11432.got - 2010.06.03 13:09:07.
