data_PCOD9180535
_publ_section_title
;
Structure prediction by ZEFSAII (Michael W. Deem and Ramdas Pophale) SiO2 
 PCOD9180535
Probable space group: C 2/M
;
_chemical_formula_sum "Si O2"
_cell_formula_units_Z 64
_cell_length_a 25.424381
_cell_length_b 14.173460
_cell_length_c 9.838163
_cell_angle_alpha 90.000000
_cell_angle_beta 87.161589
_cell_angle_gamma 90.000000
_cell_volume 3540.846900
_symmetry_space_group_name_H-M "C 2/M"
_symmetry_group_IT_number 12
_symmetry_cell_setting 'monoclinic'
loop_
_space_group_symop_operation_xyz
x,y,z
-x,y,-z
-x,-y,-z
x,-y,z
1/2+x,1/2+y,z
1/2-x,1/2+y,-z
1/2-x,1/2-y,-z
1/2+x,1/2-y,z
loop_
_atom_site_type_symbol
_atom_site_label
_atom_site_fract_x
_atom_site_fract_y
_atom_site_fract_z
Si Si1 0.484303 0.188978 0.662821
Si Si2 0.834969 0.386331 0.013057
Si Si3 0.530812 0.603178 0.353184
Si Si4 0.253995 0.112426 0.245300
Si Si5 0.329959 0.794939 0.448061
Si Si6 0.087625 0.389139 0.756458
Si Si7 0.134286 0.386410 0.287823
Si Si8 0.653496 0.607007 0.410625
O O1 0.500000 0.183289 0.500000
O O2 0.486951 0.298407 0.709022
O O3 0.526337 0.131069 0.745303
O O4 0.425411 0.150286 0.686820
O O5 0.833048 0.500000 0.003321
O O6 0.782444 0.357537 0.102208
O O7 0.884887 0.364269 0.103887
O O8 0.843249 0.352083 0.859662
O O9 0.500000 0.599409 0.500000
O O10 0.522786 0.500000 0.287309
O O11 0.592759 0.614707 0.376758
O O12 0.282123 0.169977 0.362096
O O13 0.192014 0.122998 0.276992
O O14 0.265939 0.000000 0.260670
O O15 0.381736 0.829068 0.360678
O O16 0.331649 0.846101 0.592959
O O17 0.333054 0.684459 0.478581
O O18 0.097891 0.500000 0.730885
O O19 0.133886 0.500000 0.292987
O O20 0.662841 0.500000 0.457476
#
# Coordination Sequence:
#
# PCOD9180535 Si02
#       8
#     8   8   8   8   8   8   8   8
#     4  11  19  29  46  75 103 128 168 208 251 296
#     4   8  18  34  48  69 102 141 170 195 241 301
#     4   9  17  31  48  71 101 130 161 209 255 293
#     4   9  18  33  53  74 101 136 168 201 248 304
#     4  11  18  31  50  78 103 128 167 207 253 293
#     4  10  19  32  50  72 106 142 167 196 246 308
#     4  11  20  30  48  73 106 135 166 206 246 296
#     4  10  19  32  51  75 100 131 171 211 249 297
#
# _framework density 18.074773
#
# number of rings (size 3 to 8) (size 9 to 14) (size 15 to 20)
#    0.000    2.125    2.500    3.375    0.000    1.000 
#    0.000    2.500    0.000    0.000    0.000    9.625 
#    0.000    0.000    0.000    0.000    0.000    0.000 
#
# Total GULP energy -178367.356845 kJ/mol
# GULP energy per Si atom -5573.979901 kJ/mol
# Density = 1.803363 g / cm^3
# Si number density = 18.074773 Si / 1000 Ang^3
#
#
#
# Elastic Constant Matrix: (Units=GPa)
#
#
# Indices 1 2 3 4 5 6 
#
# 1 79.1509 1.4980 32.0313 0.0000 -25.5633 0.0000
# 2 1.4980 82.9631 22.3099 0.0000 -8.2539 0.0000
# 3 32.0313 22.3099 109.4809 0.0000 -13.0557 0.0000
# 4 0.0000 0.0000 0.0000 -12.4347 0.0000 10.6517
# 5 -25.5633 -8.2539 -13.0557 0.0000 15.0268 0.0000
# 6 0.0000 0.0000 0.0000 10.6517 0.0000 -5.8871
#
#
#
# Elastic Compliance Matrix: (Units=1/GPa)
#
#
# Indices 1 2 3 4 5 6 
#
# 1 0.031169 0.005759 -0.004008 0.000000 0.052705 0.000000
# 2 0.005759 0.014206 -0.002768 0.000000 0.015194 0.000000
# 3 -0.004008 -0.002768 0.011018 0.000000 0.001235 0.000000
# 4 0.000000 0.000000 0.000000 0.146247 0.000000 0.264609
# 5 0.052705 0.015194 0.001235 0.000000 0.165628 0.000000
# 6 0.000000 0.000000 0.000000 0.264609 0.000000 0.308902
#
#
# Mechanical properties :
#
#
# Convention : Reuss Voigt Hill
#
# Bulk Modulus (GPa) = 18.39619 42.58593 30.49106
# Shear Modulus (GPa) = 7.17029 13.72471 10.44750
#
# Velocity S-wave (km/s) = 1.99390 2.75858 2.40680
# Velocity P-wave (km/s) = 3.93710 5.81021 4.96282
#
# Compressibility (1/GPa) = 0.05435907
#
# Stress axis : x y z
#
# Youngs Moduli (GPa) = 32.08304 70.39515 90.76262
#
# Poissons Ratio (x) = -0.40537 0.36374
# Poissons Ratio (y) = -0.18475 0.25120
# Poissons Ratio (z) = 0.12858 0.19483
#
# Static dielectric constant tensor:
#      x y z
#    x 1.638430 0.000000 -0.022770 
#    y 0.000000 1.652000 0.000000 
#    z -0.022770 0.000000 1.611170 
# 
# From -- ./inp_files/104564.got.cif
#   From: 2010.05.17/outbox.cif.g08.bks.cpg/sg12_53_cif.got.tgz:104564.got - 2010.06.03 13:09:07.
