data_PCOD9180748
_publ_section_title
;
Structure prediction by ZEFSAII (Michael W. Deem and Ramdas Pophale) SiO2 
 PCOD9180748
Probable space group: C 2/M
;
_chemical_formula_sum "Si O2"
_cell_formula_units_Z 64
_cell_length_a 25.164981
_cell_length_b 18.332086
_cell_length_c 21.385370
_cell_angle_alpha 90.000000
_cell_angle_beta 22.798596
_cell_angle_gamma 90.000000
_cell_volume 3822.866385
_symmetry_space_group_name_H-M "C 2/M"
_symmetry_group_IT_number 12
_symmetry_cell_setting 'monoclinic'
loop_
_space_group_symop_operation_xyz
x,y,z
-x,y,-z
-x,-y,-z
x,-y,z
1/2+x,1/2+y,z
1/2-x,1/2+y,-z
1/2-x,1/2-y,-z
1/2+x,1/2-y,z
loop_
_atom_site_type_symbol
_atom_site_label
_atom_site_fract_x
_atom_site_fract_y
_atom_site_fract_z
Si Si1 0.800459 0.913745 0.157733
Si Si2 0.052244 0.414605 0.337612
Si Si3 0.759961 0.661573 0.652429
Si Si4 0.476249 0.363160 0.183793
Si Si5 0.978833 0.083876 0.725825
Si Si6 0.948903 0.294189 0.265126
Si Si7 0.842065 0.414239 0.916988
Si Si8 0.179492 0.204663 0.482016
O O1 0.654814 0.897183 0.282776
O O2 0.814239 0.865969 0.204773
O O3 0.805193 0.000000 0.167737
O O4 0.915167 0.895540 0.982197
O O5 0.017352 0.500000 0.380691
O O6 0.131791 0.404500 0.185712
O O7 0.911970 0.370899 0.489209
O O8 0.671853 0.633828 0.688662
O O9 0.773558 0.748181 0.627995
O O10 0.483070 0.404096 0.242376
O O11 0.503855 0.277657 0.169239
O O12 0.075206 0.139280 0.583978
O O13 0.000622 0.000000 0.685211
O O14 0.817158 0.100753 0.895731
O O15 0.897400 0.261289 0.387369
O O16 0.814061 0.320303 0.374142
O O17 0.057740 0.357819 0.157411
O O18 0.869918 0.500000 0.900637
#
# Coordination Sequence:
#
# PCOD9180748 Si02
#       8
#     8   8   8   8   8   8   8   8
#     4  11  22  36  50  72 104 139 175 205 236 286
#     4  10  20  33  47  69 102 135 170 207 238 284
#     4  11  21  34  49  69 100 137 174 205 243 286
#     4  10  21  34  51  72 102 132 170 209 244 293
#     4  10  20  33  50  73 101 128 161 210 256 298
#     4   9  18  34  49  71  98 130 166 209 252 293
#     4  10  19  32  51  74 101 132 166 204 252 302
#     4   9  19  33  48  71  99 128 169 209 247 300
#
# _framework density 16.741364999999998
#
# number of rings (size 3 to 8) (size 9 to 14) (size 15 to 20)
#    0.000    2.000    2.500    2.250    0.000    7.000 
#    0.000    0.000    0.000    0.000    0.000    0.875 
#    0.000    8.000    0.000    0.000    0.000    0.000 
#
# Total GULP energy -178540.403207 kJ/mol
# GULP energy per Si atom -5579.387600 kJ/mol
# Density = 1.670326 g / cm^3
# Si number density = 16.741365 Si / 1000 Ang^3
#
#
#
# Elastic Constant Matrix: (Units=GPa)
#
#
# Indices 1 2 3 4 5 6 
#
# 1 51.9701 38.3821 19.2915 -0.0003 -7.5501 -0.0001
# 2 38.3821 66.0819 38.6522 -0.0055 -14.5557 -0.0002
# 3 19.2915 38.6522 55.9654 -0.0029 -12.8947 0.0004
# 4 -0.0003 -0.0055 -0.0029 80.1915 0.0023 12.2978
# 5 -7.5501 -14.5557 -12.8947 0.0023 25.7512 0.0002
# 6 -0.0001 -0.0002 0.0004 12.2978 0.0002 29.8641
#
#
#
# Elastic Compliance Matrix: (Units=1/GPa)
#
#
# Indices 1 2 3 4 5 6 
#
# 1 0.034052 -0.021773 0.003125 -0.000001 -0.000759 0.000000
# 2 -0.021773 0.040248 -0.018675 0.000002 0.007014 0.000000
# 3 0.003125 -0.018675 0.031050 0.000000 0.005908 0.000000
# 4 -0.000001 0.000002 0.000000 0.013311 -0.000001 -0.005481
# 5 -0.000759 0.007014 0.005908 -0.000001 0.045534 0.000000
# 6 0.000000 0.000000 0.000000 -0.005481 0.000000 0.035742
#
#
# Mechanical properties :
#
#
# Convention : Reuss Voigt Hill
#
# Bulk Modulus (GPa) = 32.57036 40.74101 36.65568
# Shear Modulus (GPa) = 17.55499 32.34080 24.94790
#
# Velocity S-wave (km/s) = 3.24172 4.39998 3.86449
# Velocity P-wave (km/s) = 5.78869 7.08530 6.46956
#
# Compressibility (1/GPa) = 0.03070276
#
# Stress axis : x y z
#
# Youngs Moduli (GPa) = 29.36670 24.84605 32.20572
#
# Poissons Ratio (x) = 0.54098 -0.10064
# Poissons Ratio (y) = 0.63941 0.60146
# Poissons Ratio (z) = -0.09177 0.46401
#
# Static dielectric constant tensor:
#      x y z
#    x 1.567170 0.000000 -0.001690 
#    y 0.000000 1.565620 0.000000 
#    z -0.001690 0.000000 1.578590 
# 
# From -- ./inp_files/97700.got.cif
#   From: 2010.05.17/outbox.cif.g08.bks.cpg/sg12_49_cif.got.tgz:97700.got - 2010.06.03 13:09:07.
