data_PCOD9180995
_publ_section_title
;
Structure prediction by ZEFSAII (Michael W. Deem and Ramdas Pophale) SiO2 
 PCOD9180995
Probable space group: C 2/M
;
_chemical_formula_sum "Si O2"
_cell_formula_units_Z 60
_cell_length_a 5.291165
_cell_length_b 24.496079
_cell_length_c 23.103886
_cell_angle_alpha 90.000000
_cell_angle_beta 84.542730
_cell_angle_gamma 90.000000
_cell_volume 2980.986124
_symmetry_space_group_name_H-M "C 2/M"
_symmetry_group_IT_number 12
_symmetry_cell_setting 'monoclinic'
loop_
_space_group_symop_operation_xyz
x,y,z
-x,y,-z
-x,-y,-z
x,-y,z
1/2+x,1/2+y,z
1/2-x,1/2+y,-z
1/2-x,1/2-y,-z
1/2+x,1/2-y,z
loop_
_atom_site_type_symbol
_atom_site_label
_atom_site_fract_x
_atom_site_fract_y
_atom_site_fract_z
Si Si1 0.771011 0.000000 0.460385
Si Si2 0.352514 0.769959 0.589488
Si Si3 0.461201 0.933619 0.066790
Si Si4 0.931910 0.933826 0.137026
Si Si5 0.907809 0.389504 0.567602
Si Si6 0.583550 0.271933 0.279440
Si Si7 0.396322 0.604996 0.269098
Si Si8 0.862175 0.435597 0.333382
O O1 0.500000 0.000000 0.500000
O O2 0.767753 0.943431 0.425732
O O3 0.000000 0.000000 0.500000
O O4 0.639944 0.764243 0.561336
O O5 0.281639 0.833384 0.589919
O O6 0.387073 0.746356 0.653880
O O7 0.692071 0.917274 0.103269
O O8 0.191982 0.917464 0.099607
O O9 0.462422 0.000000 0.065257
O O10 0.500000 0.914917 0.000000
O O11 0.916621 0.910014 0.201407
O O12 0.929829 0.000000 0.141854
O O13 0.138230 0.403277 0.605894
O O14 0.000000 0.383205 0.500000
O O15 0.376340 0.232723 0.253387
O O16 0.463989 0.331518 0.276544
O O17 0.116660 0.587790 0.296961
O O18 0.615827 0.574135 0.300072
O O19 0.890069 0.500000 0.343685
#
# Coordination Sequence:
#
# PCOD9180995 Si02
#       8
#     4   8   8   8   8   8   8   8
#     4  10  24  44  64  86 114 148 188 236 297 368
#     4  10  21  39  62  88 114 145 189 242 308 364
#     4   9  17  30  51  80 121 170 210 246 288 339
#     4  10  19  32  51  82 123 163 206 247 291 356
#     4  11  25  45  66  89 119 155 199 256 314 385
#     4  10  20  38  60  83 112 148 194 251 313 366
#     4  12  24  40  62  88 123 163 204 258 315 363
#     4  12  24  40  60  86 119 159 204 246 308 385
#
# _framework density 20.127566000000002
#
# number of rings (size 3 to 8) (size 9 to 14) (size 15 to 20)
#    0.000    1.467    0.667    6.400    0.000    7.467 
#    0.000    0.000    0.000    0.000    0.000    0.000 
#    0.000   10.667    0.000    0.000    0.000    0.000 
#
# Total GULP energy -167642.652059 kJ/mol
# GULP energy per Si atom -5588.088402 kJ/mol
# Density = 2.008175 g / cm^3
# Si number density = 20.127566 Si / 1000 Ang^3
#
#
#
# Elastic Constant Matrix: (Units=GPa)
#
#
# Indices 1 2 3 4 5 6 
#
# 1 136.9203 11.3593 26.9503 0.0000 15.8675 0.0000
# 2 11.3593 101.4642 16.2978 0.0000 6.4808 0.0000
# 3 26.9503 16.2978 111.1357 0.0000 9.2635 0.0000
# 4 0.0000 0.0000 0.0000 11.5554 0.0000 3.1191
# 5 15.8675 6.4808 9.2635 0.0000 27.3672 0.0000
# 6 0.0000 0.0000 0.0000 3.1191 0.0000 18.8163
#
#
#
# Elastic Compliance Matrix: (Units=1/GPa)
#
#
# Indices 1 2 3 4 5 6 
#
# 1 0.008119 -0.000396 -0.001570 0.000000 -0.004082 0.000000
# 2 -0.000396 0.010214 -0.001255 0.000000 -0.001765 0.000000
# 3 -0.001570 -0.001255 0.009737 0.000000 -0.002088 0.000000
# 4 0.000000 0.000000 0.000000 0.090593 0.000000 -0.015017
# 5 -0.004082 -0.001765 -0.002088 0.000000 0.040031 0.000000
# 6 0.000000 0.000000 0.000000 -0.015017 0.000000 0.055635
#
#
# Mechanical properties :
#
#
# Convention : Reuss Voigt Hill
#
# Bulk Modulus (GPa) = 46.23777 50.97054 48.60416
# Shear Modulus (GPa) = 21.93169 31.20863 26.57016
#
# Velocity S-wave (km/s) = 3.30454 3.94196 3.63724
# Velocity P-wave (km/s) = 6.13043 6.78951 6.46837
#
# Compressibility (1/GPa) = 0.02162734
#
# Stress axis : x y z
#
# Youngs Moduli (GPa) = 123.17528 97.90219 102.70201
#
# Poissons Ratio (x) = 0.03876 0.16129
# Poissons Ratio (y) = 0.04877 0.12887
# Poissons Ratio (z) = 0.19344 0.12285
#
# Static dielectric constant tensor:
#      x y z
#    x 1.853130 0.000000 -0.079220 
#    y 0.000000 1.742240 0.000000 
#    z -0.079220 0.000000 1.731820 
# 
# From -- ./inp_files/298090.got.cif
#   From: 2010.05.17/outbox.cif.g08.bks.cpg/sg12_150_cif.got.tgz:298090.got - 2010.06.03 13:09:07.
