data_PCOD9180495
_publ_section_title
;
Structure prediction by ZEFSAII (Michael W. Deem and Ramdas Pophale) SiO2 
 PCOD9180495
Probable space group: C 2/M
;
_chemical_formula_sum "Si O2"
_cell_formula_units_Z 52
_cell_length_a 16.236247
_cell_length_b 7.425356
_cell_length_c 17.402764
_cell_angle_alpha 90.000000
_cell_angle_beta 99.772510
_cell_angle_gamma 90.000000
_cell_volume 2067.631500
_symmetry_space_group_name_H-M "C 2/M"
_symmetry_group_IT_number 12
_symmetry_cell_setting 'monoclinic'
loop_
_space_group_symop_operation_xyz
x,y,z
-x,y,-z
-x,-y,-z
x,-y,z
1/2+x,1/2+y,z
1/2-x,1/2+y,-z
1/2-x,1/2-y,-z
1/2+x,1/2-y,z
loop_
_atom_site_type_symbol
_atom_site_label
_atom_site_fract_x
_atom_site_fract_y
_atom_site_fract_z
Si Si1 0.577290 0.214587 0.249201
Si Si2 0.515538 0.220126 0.915260
Si Si3 0.564907 0.219604 0.658453
Si Si4 0.703059 0.214776 0.913490
Si Si5 0.622516 0.801466 0.507421
Si Si6 0.260032 0.215746 0.245945
Si Si7 0.710439 0.500000 0.432200
O O1 0.549844 0.280111 0.159878
O O2 0.511439 0.282701 0.301219
O O3 0.674464 0.251941 0.277431
O O4 0.568227 0.000000 0.246639
O O5 0.607755 0.278474 0.903833
O O6 0.514092 0.000000 0.916367
O O7 0.500000 0.279835 0.000000
O O8 0.565246 0.263256 0.568621
O O9 0.652644 0.285415 0.707830
O O10 0.566340 0.000000 0.662137
O O11 0.747498 0.282276 0.843330
O O12 0.698357 0.000000 0.905084
O O13 0.750000 0.250000 0.000000
O O14 0.643781 0.657638 0.447045
O O15 0.712810 0.847372 0.562049
O O16 0.595682 0.000000 0.472676
O O17 0.267068 0.000000 0.247099
#
# Coordination Sequence:
#
# PCOD9180495 Si02
#       7
#     8   8   8   8   8   8   4
#     4  10  19  34  53  74  99 133 179 221 256 314
#     4   9  16  28  48  70  92 126 173 215 256 313
#     4   9  17  33  55  75 102 144 175 209 265 322
#     4  10  19  32  50  71  96 131 172 216 267 319
#     4   8  14  27  49  78 111 140 179 221 264 319
#     4  10  20  35  51  73 105 136 170 219 271 319
#     4   8  14  26  48  84 110 134 184 222 254 320
#
# _framework density 25.149549
#
# number of rings (size 3 to 8) (size 9 to 14) (size 15 to 20)
#    0.462    2.308    1.538    0.923    0.000    1.846 
#    2.769    0.769    0.000    2.769    0.000    6.462 
#    0.000    0.000    0.000    0.000    0.000    0.000 
#
# Total GULP energy -144869.454912 kJ/mol
# GULP energy per Si atom -5571.902112 kJ/mol
# Density = 2.509231 g / cm^3
# Si number density = 25.149549 Si / 1000 Ang^3
#
#
#
# Elastic Constant Matrix: (Units=GPa)
#
#
# Indices 1 2 3 4 5 6 
#
# 1 190.8363 7.1719 96.3053 0.0000 -14.3359 0.0000
# 2 7.1719 85.5712 16.6757 0.0000 -7.3087 0.0000
# 3 96.3053 16.6757 142.7734 0.0000 -8.5531 0.0000
# 4 0.0000 0.0000 0.0000 6.4981 0.0000 -14.1868
# 5 -14.3359 -7.3087 -8.5531 0.0000 51.8038 0.0000
# 6 0.0000 0.0000 0.0000 -14.1868 0.0000 2.9384
#
#
#
# Elastic Compliance Matrix: (Units=1/GPa)
#
#
# Indices 1 2 3 4 5 6 
#
# 1 0.008056 0.000499 -0.005408 0.000000 0.001407 0.000000
# 2 0.000499 0.012101 -0.001656 0.000000 0.001572 0.000000
# 3 -0.005408 -0.001656 0.010849 0.000000 0.000061 0.000000
# 4 0.000000 0.000000 0.000000 -0.016130 0.000000 -0.077876
# 5 0.001407 0.001572 0.000061 0.000000 0.019925 0.000000
# 6 0.000000 0.000000 0.000000 -0.077876 0.000000 -0.035670
#
#
# Mechanical properties :
#
#
# Convention : Reuss Voigt Hill
#
# Bulk Modulus (GPa) = 55.93909 73.27626 64.60768
# Shear Modulus (GPa) = 274.41893 32.18327 153.30110
#
# Velocity S-wave (km/s) = 10.45714 3.58114 7.81589
# Velocity P-wave (km/s) = 12.96508 6.80433 10.35355
#
# Compressibility (1/GPa) = 0.01787659
#
# Stress axis : x y z
#
# Youngs Moduli (GPa) = 124.12677 82.63580 92.17302
#
# Poissons Ratio (x) = -0.04123 0.49849
# Poissons Ratio (y) = -0.06192 0.15261
# Poissons Ratio (z) = 0.67130 0.13682
#
# Static dielectric constant tensor:
#      x y z
#    x 1.947430 0.000000 0.071450 
#    y 0.000000 4.866750 0.000000 
#    z 0.071450 0.000000 2.001410 
# 
# From -- ./inp_files/308466.got.cif
#   From: 2010.05.17/outbox.cif.g08.bks.cpg/sg12_155_cif.got.tgz:308466.got - 2010.06.03 13:09:07.
