data_PCOD9180794
_publ_section_title
;
Structure prediction by ZEFSAII (Michael W. Deem and Ramdas Pophale) SiO2 
 PCOD9180794
Probable space group: C 2/M
;
_chemical_formula_sum "Si O2"
_cell_formula_units_Z 56
_cell_length_a 21.002153
_cell_length_b 22.314771
_cell_length_c 18.452140
_cell_angle_alpha 90.000000
_cell_angle_beta 19.886773
_cell_angle_gamma 90.000000
_cell_volume 2941.639112
_symmetry_space_group_name_H-M "C 2/M"
_symmetry_group_IT_number 12
_symmetry_cell_setting 'monoclinic'
loop_
_space_group_symop_operation_xyz
x,y,z
-x,y,-z
-x,-y,-z
x,-y,z
1/2+x,1/2+y,z
1/2-x,1/2+y,-z
1/2-x,1/2-y,-z
1/2+x,1/2-y,z
loop_
_atom_site_type_symbol
_atom_site_label
_atom_site_fract_x
_atom_site_fract_y
_atom_site_fract_z
Si Si1 0.529001 0.260138 0.652475
Si Si2 0.402348 0.693225 0.002502
Si Si3 0.698936 0.172184 0.357192
Si Si4 0.385040 0.192696 0.941554
Si Si5 0.710819 0.066892 0.994437
Si Si6 0.130525 0.568098 0.530656
Si Si7 0.547710 0.373937 0.713010
O O1 0.613272 0.227822 0.492835
O O2 0.506322 0.211561 0.741242
O O3 0.628597 0.319418 0.577591
O O4 0.323599 0.283883 0.853338
O O5 0.224422 0.681325 0.244061
O O6 0.588263 0.669100 0.841201
O O7 0.437992 0.763672 0.950424
O O8 0.406761 0.660144 0.920265
O O9 0.612590 0.111304 0.480684
O O10 0.364200 0.121951 0.974066
O O11 0.916267 0.083571 0.805362
O O12 0.709525 0.000000 0.964108
O O13 0.564673 0.067282 0.217461
O O14 0.179417 0.500000 0.458019
O O15 0.291144 0.593040 0.413887
#
# Coordination Sequence:
#
# PCOD9180794 Si02
#       7
#     8   8   8   8   8   8   8
#     4   9  17  29  51  70  95 124 162 208 256 278
#     4   9  20  31  49  72 100 129 166 202 260 278
#     4  10  19  33  47  73 101 131 165 208 237 301
#     4   9  17  31  47  75  94 124 162 208 246 298
#     4  10  19  32  51  75 101 128 164 207 242 294
#     4  10  20  32  50  72 100 138 169 195 240 294
#     4   9  19  34  50  72  99 131 165 210 245 291
#
# _framework density 19.037005000000001
#
# number of rings (size 3 to 8) (size 9 to 14) (size 15 to 20)
#    0.000    2.571    1.429    1.286    2.000    2.286 
#    0.000    6.429    0.000    1.714    0.000   11.000 
#    0.000    0.000    0.000    0.000    0.000    0.000 
#
# Total GULP energy -156056.911196 kJ/mol
# GULP energy per Si atom -5573.461114 kJ/mol
# Density = 1.899368 g / cm^3
# Si number density = 19.037005 Si / 1000 Ang^3
#
#
#
# Elastic Constant Matrix: (Units=GPa)
#
#
# Indices 1 2 3 4 5 6 
#
# 1 27.0151 11.9478 2.2367 0.0110 0.8696 -0.0041
# 2 11.9478 135.8654 8.8428 0.0348 3.9001 -0.0116
# 3 2.2367 8.8428 48.2750 0.0041 3.9271 0.0069
# 4 0.0110 0.0348 0.0041 21.0804 -0.0007 -6.4520
# 5 0.8696 3.9001 3.9271 -0.0007 23.6451 -0.0013
# 6 -0.0041 -0.0116 0.0069 -6.4520 -0.0013 11.9288
#
#
#
# Elastic Compliance Matrix: (Units=1/GPa)
#
#
# Indices 1 2 3 4 5 6 
#
# 1 0.038592 -0.003301 -0.001128 -0.000013 -0.000688 0.000003
# 2 -0.003301 0.007755 -0.001190 -0.000010 -0.000960 0.000001
# 3 -0.001128 -0.001190 0.021253 -0.000007 -0.003292 -0.000018
# 4 -0.000013 -0.000010 -0.000007 0.056848 0.000007 0.030748
# 5 -0.000688 -0.000960 -0.003292 0.000007 0.043022 0.000009
# 6 0.000003 0.000001 -0.000018 0.030748 0.000009 0.100462
#
#
# Mechanical properties :
#
#
# Convention : Reuss Voigt Hill
#
# Bulk Modulus (GPa) = 17.74171 28.57888 23.16030
# Shear Modulus (GPa) = 16.78101 23.87274 20.32687
#
# Velocity S-wave (km/s) = 2.97222 3.54505 3.27120
# Velocity P-wave (km/s) = 4.59550 5.63927 5.14393
#
# Compressibility (1/GPa) = 0.05636434
#
# Stress axis : x y z
#
# Youngs Moduli (GPa) = 25.91243 128.94138 47.05303
#
# Poissons Ratio (x) = 0.42558 0.05305
# Poissons Ratio (y) = 0.08553 0.05597
# Poissons Ratio (z) = 0.02922 0.15338
#
# Static dielectric constant tensor:
#      x y z
#    x 1.716930 -0.000010 -0.018630 
#    y -0.000010 1.697110 0.000020 
#    z -0.018630 0.000020 1.709960 
# 
# From -- ./inp_files/76802.got.cif
#   From: 2010.05.17/outbox.cif.g08.bks.cpg/sg12_39_cif.got.tgz:76802.got - 2010.06.03 13:09:07.
