data_PCOD9180539
_publ_section_title
;
Structure prediction by ZEFSAII (Michael W. Deem and Ramdas Pophale) SiO2 
 PCOD9180539
Probable space group: C 2/M
;
_chemical_formula_sum "Si O2"
_cell_formula_units_Z 56
_cell_length_a 27.463923
_cell_length_b 9.719836
_cell_length_c 20.789770
_cell_angle_alpha 90.000000
_cell_angle_beta 150.194529
_cell_angle_gamma 90.000000
_cell_volume 2758.526948
_symmetry_space_group_name_H-M "C 2/M"
_symmetry_group_IT_number 12
_symmetry_cell_setting 'monoclinic'
loop_
_space_group_symop_operation_xyz
x,y,z
-x,y,-z
-x,-y,-z
x,-y,z
1/2+x,1/2+y,z
1/2-x,1/2+y,-z
1/2-x,1/2-y,-z
1/2+x,1/2-y,z
loop_
_atom_site_type_symbol
_atom_site_label
_atom_site_fract_x
_atom_site_fract_y
_atom_site_fract_z
Si Si1 0.095268 0.346718 0.514530
Si Si2 0.315740 0.667481 0.779360
Si Si3 0.117053 0.665357 0.743679
Si Si4 0.831399 0.345418 0.676775
Si Si5 0.674155 0.665050 0.070387
Si Si6 0.112527 0.755001 0.396394
Si Si7 0.899358 0.156042 0.150846
O O1 0.095445 0.500000 0.542817
O O2 0.201022 0.286627 0.652481
O O3 0.099258 0.348445 0.440998
O O4 0.987872 0.286393 0.405089
O O5 0.318195 0.500000 0.775875
O O6 0.355949 0.737740 0.761255
O O7 0.361637 0.710299 0.900353
O O8 0.109808 0.500000 0.745945
O O9 0.209846 0.690251 0.805083
O O10 0.134324 0.744877 0.830352
O O11 0.851763 0.500000 0.721352
O O12 0.882702 0.313102 0.667975
O O13 0.715499 0.329636 0.527403
O O14 0.660135 0.500000 0.054320
O O15 0.626514 0.713727 0.949393
O O16 0.016867 0.848279 0.289556
O O17 0.859620 0.000000 0.111846
#
# Coordination Sequence:
#
# PCOD9180539 Si02
#       7
#     8   8   8   8   8   8   8
#     4   8  14  26  46  71  95 120 153 193 232 273
#     4   9  18  32  48  68  97 131 163 193 231 279
#     4   9  17  30  49  73  98 124 158 198 238 275
#     4  10  19  32  52  75  96 119 154 200 244 285
#     4   9  18  32  49  69  96 131 165 194 226 275
#     4   9  18  30  49  72  97 122 149 190 244 289
#     4  10  19  32  50  72  97 124 158 196 234 280
#
# _framework density 20.300689999999999
#
# number of rings (size 3 to 8) (size 9 to 14) (size 15 to 20)
#    0.000    2.857    0.000    1.286    0.000    5.143 
#    0.000    5.000    0.000    3.429    0.000    6.000 
#    0.000    0.000    0.000    0.000    0.000    0.000 
#
# Total GULP energy -155906.564245 kJ/mol
# GULP energy per Si atom -5568.091580 kJ/mol
# Density = 2.025448 g / cm^3
# Si number density = 20.300690 Si / 1000 Ang^3
#
#
#
# Elastic Constant Matrix: (Units=GPa)
#
#
# Indices 1 2 3 4 5 6 
#
# 1 68.2875 20.7074 24.9498 0.0000 -32.5518 0.0000
# 2 20.7074 55.3609 8.9573 0.0000 -14.8711 0.0000
# 3 24.9498 8.9573 26.7817 0.0000 -24.0172 0.0000
# 4 0.0000 0.0000 0.0000 12.8329 0.0000 -4.5924
# 5 -32.5518 -14.8711 -24.0172 0.0000 36.5338 0.0000
# 6 0.0000 0.0000 0.0000 -4.5924 0.0000 13.1573
#
#
#
# Elastic Compliance Matrix: (Units=1/GPa)
#
#
# Indices 1 2 3 4 5 6 
#
# 1 0.027081 -0.004246 -0.009063 0.000000 0.016443 0.000000
# 2 -0.004246 0.020972 0.002934 0.000000 0.006682 0.000000
# 3 -0.009063 0.002934 0.094114 0.000000 0.054990 0.000000
# 4 0.000000 0.000000 0.000000 0.089047 0.000000 0.031081
# 5 0.016443 0.006682 0.054990 0.000000 0.080893 0.000000
# 6 0.000000 0.000000 0.000000 0.031081 0.000000 0.086852
#
#
# Mechanical properties :
#
#
# Convention : Reuss Voigt Hill
#
# Bulk Modulus (GPa) = 8.23607 28.85098 18.54353
# Shear Modulus (GPa) = 10.86528 18.89249 14.87889
#
# Velocity S-wave (km/s) = 2.31599 3.05394 2.71020
# Velocity P-wave (km/s) = 3.34926 5.16508 4.35291
#
# Compressibility (1/GPa) = 0.12141709
#
# Stress axis : x y z
#
# Youngs Moduli (GPa) = 36.92635 47.68317 10.62538
#
# Poissons Ratio (x) = 0.20247 0.09629
# Poissons Ratio (y) = 0.15680 -0.03117
# Poissons Ratio (z) = 0.33465 -0.13989
#
# Static dielectric constant tensor:
#      x y z
#    x 1.736070 0.000000 0.008220 
#    y 0.000000 1.705350 0.000000 
#    z 0.008220 0.000000 1.777900 
# 
# From -- ./inp_files/289159.got.cif
#   From: 2010.05.17/outbox.cif.g08.bks.cpg/sg12_145_cif.got.tgz:289159.got - 2010.06.03 13:09:07.
