data_PCOD9180358
_publ_section_title
;
Structure prediction by ZEFSAII (Michael W. Deem and Ramdas Pophale) SiO2 
 PCOD9180358
Probable space group: C 2/M
;
_chemical_formula_sum "Si O2"
_cell_formula_units_Z 48
_cell_length_a 15.973663
_cell_length_b 21.887806
_cell_length_c 11.508293
_cell_angle_alpha 90.000000
_cell_angle_beta 36.128116
_cell_angle_gamma 90.000000
_cell_volume 2372.301132
_symmetry_space_group_name_H-M "C 2/M"
_symmetry_group_IT_number 12
_symmetry_cell_setting 'monoclinic'
loop_
_space_group_symop_operation_xyz
x,y,z
-x,y,-z
-x,-y,-z
x,-y,z
1/2+x,1/2+y,z
1/2-x,1/2+y,-z
1/2-x,1/2-y,-z
1/2+x,1/2-y,z
loop_
_atom_site_type_symbol
_atom_site_label
_atom_site_fract_x
_atom_site_fract_y
_atom_site_fract_z
Si Si1 0.268106 0.566265 0.987926
Si Si2 0.926791 0.802554 0.251391
Si Si3 0.194848 0.231137 0.374204
Si Si4 0.746333 0.801768 0.104549
Si Si5 0.608454 0.565708 0.656790
Si Si6 0.830489 0.902200 0.666418
O O1 0.213470 0.500000 0.091116
O O2 0.437745 0.567644 0.826754
O O3 0.260112 0.567678 0.856841
O O4 0.207994 0.630387 0.102975
O O5 0.917973 0.784277 0.398148
O O6 0.832395 0.754766 0.288514
O O7 0.860352 0.870613 0.314499
O O8 0.090117 0.804764 0.035049
O O9 0.159651 0.278578 0.312709
O O10 0.222323 0.167004 0.281301
O O11 0.750000 0.750000 0.000000
O O12 0.642242 0.500000 0.674080
O O13 0.681987 0.569288 0.447478
O O14 0.000000 0.901320 0.500000
#
# Coordination Sequence:
#
# PCOD9180358 Si02
#       6
#     8   8   8   8   8   8
#     4   9  16  27  42  69 101 125 154 198 248 294
#     4   9  20  33  47  73 104 129 161 201 243 295
#     4  10  19  32  49  69 105 129 161 202 243 282
#     4  11  20  31  51  76  99 130 165 202 242 293
#     4   8  14  25  44  67  97 128 151 189 250 304
#     4   9  15  25  45  72  99 122 157 200 247 295
#
# _framework density 20.233519000000001
#
# number of rings (size 3 to 8) (size 9 to 14) (size 15 to 20)
#    0.000    2.667    1.667    2.000    0.000    2.000 
#    0.000    0.833    0.000    4.000    0.000   15.167 
#    0.000    0.000    0.000    0.000    0.000    0.000 
#
# Total GULP energy -133719.411510 kJ/mol
# GULP energy per Si atom -5571.642146 kJ/mol
# Density = 2.018747 g / cm^3
# Si number density = 20.233519 Si / 1000 Ang^3
#
#
#
# Elastic Constant Matrix: (Units=GPa)
#
#
# Indices 1 2 3 4 5 6 
#
# 1 8.4858 -1.3890 7.2283 0.0032 1.9202 -0.0070
# 2 -1.3890 143.3861 36.1864 0.0013 11.6816 -0.0038
# 3 7.2283 36.1864 47.7827 0.0019 9.5487 -0.0051
# 4 0.0032 0.0013 0.0019 12.9905 -0.0020 -3.9374
# 5 1.9202 11.6816 9.5487 -0.0020 17.1858 0.0055
# 6 -0.0070 -0.0038 -0.0051 -3.9374 0.0055 16.2535
#
#
#
# Elastic Compliance Matrix: (Units=1/GPa)
#
#
# Indices 1 2 3 4 5 6 
#
# 1 0.143883 0.008784 -0.027011 -0.000017 -0.007039 0.000054
# 2 0.008784 0.009256 -0.007745 -0.000001 -0.002970 0.000004
# 3 -0.027011 -0.007745 0.032875 0.000001 -0.009983 0.000001
# 4 -0.000017 -0.000001 0.000001 0.083079 0.000005 0.020126
# 5 -0.007039 -0.002970 -0.009983 0.000005 0.066539 -0.000028
# 6 0.000054 0.000004 0.000001 0.020126 -0.000028 0.066401
#
#
# Mechanical properties :
#
#
# Convention : Reuss Voigt Hill
#
# Bulk Modulus (GPa) = 7.45882 31.52286 19.49084
# Shear Modulus (GPa) = 10.02672 19.79457 14.91065
#
# Velocity S-wave (km/s) = 2.22851 3.13118 2.71759
# Velocity P-wave (km/s) = 3.21186 5.35591 4.41598
#
# Compressibility (1/GPa) = 0.13406942
#
# Stress axis : x y z
#
# Youngs Moduli (GPa) = 6.95007 108.04064 30.41870
#
# Poissons Ratio (x) = -0.94905 0.82165
# Poissons Ratio (y) = -0.06105 0.23559
# Poissons Ratio (z) = 0.18773 0.83676
#
# Static dielectric constant tensor:
#      x y z
#    x 1.728280 0.000000 0.035870 
#    y 0.000000 1.773010 0.000000 
#    z 0.035870 0.000000 1.726490 
# 
# From -- ./inp_files/146908.got.cif
#   From: 2010.05.17/outbox.cif.g08.bks.cpg/sg12_74_cif.got.tgz:146908.got - 2010.06.03 13:09:07.
