data_PCOD9180197
_publ_section_title
;
Structure prediction by ZEFSAII (Michael W. Deem and Ramdas Pophale) SiO2 
 PCOD9180197
Probable space group: C 2/M
;
_chemical_formula_sum "Si O2"
_cell_formula_units_Z 40
_cell_length_a 7.596929
_cell_length_b 23.183987
_cell_length_c 9.281255
_cell_angle_alpha 90.000000
_cell_angle_beta 93.016938
_cell_angle_gamma 90.000000
_cell_volume 1632.414921
_symmetry_space_group_name_H-M "C 2/M"
_symmetry_group_IT_number 12
_symmetry_cell_setting 'monoclinic'
loop_
_space_group_symop_operation_xyz
x,y,z
-x,y,-z
-x,-y,-z
x,-y,z
1/2+x,1/2+y,z
1/2-x,1/2+y,-z
1/2-x,1/2-y,-z
1/2+x,1/2-y,z
loop_
_atom_site_type_symbol
_atom_site_label
_atom_site_fract_x
_atom_site_fract_y
_atom_site_fract_z
Si Si1 0.724266 0.065949 0.905266
Si Si2 0.579312 0.313039 0.353356
Si Si3 0.237406 0.232089 0.830963
Si Si4 0.876613 0.385023 0.798620
Si Si5 0.485928 0.566491 0.304648
O O1 0.565204 0.084561 0.791495
O O2 0.917044 0.068688 0.846213
O O3 0.694174 0.000000 0.949041
O O4 0.691116 0.105122 0.040916
O O5 0.500000 0.289329 0.500000
O O6 0.743969 0.282746 0.286195
O O7 0.439533 0.302242 0.217638
O O8 0.595634 0.381326 0.380484
O O9 0.382816 0.184101 0.790856
O O10 0.250000 0.250000 0.000000
O O11 0.718684 0.414973 0.703105
O O12 0.506426 0.500000 0.350453
#
# Coordination Sequence:
#
# PCOD9180197 Si02
#       5
#     8   8   8   8   8
#     4  10  19  31  55  89 125 165 206 264 331 386
#     4  11  25  43  64  94 130 174 217 265 336 394
#     4  11  24  40  65  95 127 170 217 275 323 388
#     4  10  20  33  55  88 126 164 207 265 329 383
#     4  10  21  38  60  86 123 167 218 268 317 389
#
# _framework density 24.503575000000001
#
# number of rings (size 3 to 8) (size 9 to 14) (size 15 to 20)
#    0.000    1.600    0.000    5.400    8.400    5.200 
#    0.000    0.000    0.000    0.000    0.000    7.000 
#    0.000    0.000    0.000    0.000    0.000    0.000 
#
# Total GULP energy -111537.172522 kJ/mol
# GULP energy per Si atom -5576.858626 kJ/mol
# Density = 2.444780 g / cm^3
# Si number density = 24.503575 Si / 1000 Ang^3
#
#
#
# Elastic Constant Matrix: (Units=GPa)
#
#
# Indices 1 2 3 4 5 6 
#
# 1 89.5645 24.4340 32.0283 0.0000 -1.9282 0.0000
# 2 24.4340 162.7803 21.9072 0.0000 -9.6816 0.0000
# 3 32.0283 21.9072 96.2718 0.0000 -15.3573 0.0000
# 4 0.0000 0.0000 0.0000 -15.4485 0.0000 -3.6142
# 5 -1.9282 -9.6816 -15.3573 0.0000 26.5256 0.0000
# 6 0.0000 0.0000 0.0000 -3.6142 0.0000 33.6865
#
#
#
# Elastic Compliance Matrix: (Units=1/GPa)
#
#
# Indices 1 2 3 4 5 6 
#
# 1 0.013085 -0.001505 -0.004348 0.000000 -0.002116 0.000000
# 2 -0.001505 0.006575 -0.000694 0.000000 0.001888 0.000000
# 3 -0.004348 -0.000694 0.013112 0.000000 0.007022 0.000000
# 4 0.000000 0.000000 0.000000 -0.063146 0.000000 -0.006775
# 5 -0.002116 0.001888 0.007022 0.000000 0.042300 0.000000
# 6 0.000000 0.000000 0.000000 -0.006775 0.000000 0.028959
#
#
# Mechanical properties :
#
#
# Convention : Reuss Voigt Hill
#
# Bulk Modulus (GPa) = 50.82006 56.15061 53.48533
# Shear Modulus (GPa) = 82.59214 26.96919 54.78066
#
# Velocity S-wave (km/s) = 5.81200 3.32116 4.73336
# Velocity P-wave (km/s) = 8.11320 6.13774 7.19360
#
# Compressibility (1/GPa) = 0.01967727
#
# Stress axis : x y z
#
# Youngs Moduli (GPa) = 76.42313 152.09421 76.26613
#
# Poissons Ratio (x) = 0.22886 0.33163
# Poissons Ratio (y) = 0.11500 0.05295
# Poissons Ratio (z) = 0.33231 0.10560
#
# Static dielectric constant tensor:
#      x y z
#    x 4.610470 0.000000 0.170820 
#    y 0.000000 2.029510 0.000000 
#    z 0.170820 0.000000 1.987710 
# 
# From -- ./inp_files/39411.got.cif
#   From: 2010.05.17/outbox.cif.g08.bks.cpg/sg12_20_cif.got.tgz:39411.got - 2010.06.03 13:09:07.
