data_PCOD9180767
_publ_section_title
;
Structure prediction by ZEFSAII (Michael W. Deem and Ramdas Pophale) SiO2 
 PCOD9180767
Probable space group: C 2/M
;
_chemical_formula_sum "Si O2"
_cell_formula_units_Z 64
_cell_length_a 28.917785
_cell_length_b 9.262613
_cell_length_c 14.505651
_cell_angle_alpha 90.000000
_cell_angle_beta 87.698325
_cell_angle_gamma 90.000000
_cell_volume 3882.265630
_symmetry_space_group_name_H-M "C 2/M"
_symmetry_group_IT_number 12
_symmetry_cell_setting 'monoclinic'
loop_
_space_group_symop_operation_xyz
x,y,z
-x,y,-z
-x,-y,-z
x,-y,z
1/2+x,1/2+y,z
1/2-x,1/2+y,-z
1/2-x,1/2-y,-z
1/2+x,1/2-y,z
loop_
_atom_site_type_symbol
_atom_site_label
_atom_site_fract_x
_atom_site_fract_y
_atom_site_fract_z
Si Si1 0.657634 0.829864 0.953217
Si Si2 0.774244 0.830134 0.182828
Si Si3 0.852832 0.830156 0.333570
Si Si4 0.798465 0.173711 0.517582
Si Si5 0.186460 0.828743 0.272109
Si Si6 0.886884 0.828347 0.871336
Si Si7 0.579551 0.830433 0.801021
Si Si8 0.492954 0.327116 0.892409
O O1 0.701491 0.750626 0.904263
O O2 0.615356 0.811657 0.883736
O O3 0.666520 0.000000 0.963469
O O4 0.641232 0.757184 0.048686
O O5 0.809518 0.813624 0.266653
O O6 0.726307 0.758928 0.216641
O O7 0.769191 0.000000 0.164151
O O8 0.835208 0.785554 0.435737
O O9 0.894764 0.740003 0.288102
O O10 0.864825 0.000000 0.333612
O O11 0.750000 0.250000 0.500000
O O12 0.813812 0.209507 0.620060
O O13 0.792388 0.000000 0.511702
O O14 0.138183 0.804874 0.223956
O O15 0.197317 0.000000 0.264574
O O16 0.940722 0.786970 0.869063
O O17 0.884642 0.000000 0.893182
O O18 0.532131 0.752454 0.831172
O O19 0.572491 0.000000 0.788127
O O20 0.498363 0.500000 0.881570
O O21 0.500000 0.292789 0.000000
#
# Coordination Sequence:
#
# PCOD9180767 Si02
#       8
#     8   8   8   8   8   8   8   8
#     4  10  20  33  50  74 104 138 173 211 254 301
#     4  10  19  32  51  74 103 138 175 210 248 302
#     4   9  18  32  51  76 104 133 168 207 251 303
#     4  10  19  33  54  79 104 134 170 212 256 300
#     4  10  21  35  52  75 106 137 170 213 257 302
#     4  10  21  36  52  74 103 138 174 209 255 308
#     4  10  20  32  51  79 106 130 165 213 261 301
#     4  10  19  33  55  77 100 133 172 211 254 304
#
# _framework density 16.485219000000001
#
# number of rings (size 3 to 8) (size 9 to 14) (size 15 to 20)
#    0.000    2.125    2.500    1.125    0.000    3.750 
#    0.000    0.000    0.000    0.750    0.000    5.250 
#    0.000    0.000    0.000    0.000    0.000    0.000 
#
# Total GULP energy -178597.315809 kJ/mol
# GULP energy per Si atom -5581.166119 kJ/mol
# Density = 1.644770 g / cm^3
# Si number density = 16.485219 Si / 1000 Ang^3
#
#
#
# Elastic Constant Matrix: (Units=GPa)
#
#
# Indices 1 2 3 4 5 6 
#
# 1 107.2228 56.5733 75.8736 0.0000 -11.5914 0.0000
# 2 56.5733 50.7353 57.8617 0.0000 -4.7801 0.0000
# 3 75.8736 57.8617 117.7346 0.0000 -14.3228 0.0000
# 4 0.0000 0.0000 0.0000 20.4367 0.0000 -7.5125
# 5 -11.5914 -4.7801 -14.3228 0.0000 23.1723 0.0000
# 6 0.0000 0.0000 0.0000 -7.5125 0.0000 25.9681
#
#
#
# Elastic Compliance Matrix: (Units=1/GPa)
#
#
# Indices 1 2 3 4 5 6 
#
# 1 0.024528 -0.021718 -0.004526 0.000000 0.004992 0.000000
# 2 -0.021718 0.064560 -0.018851 0.000000 -0.009198 0.000000
# 3 -0.004526 -0.018851 0.021547 0.000000 0.007165 0.000000
# 4 0.000000 0.000000 0.000000 0.054754 0.000000 0.015840
# 5 0.004992 -0.009198 0.007165 0.000000 0.048183 0.000000
# 6 0.000000 0.000000 0.000000 0.015840 0.000000 0.043091
#
#
# Mechanical properties :
#
#
# Convention : Reuss Voigt Hill
#
# Bulk Modulus (GPa) = 48.91525 72.92332 60.91928
# Shear Modulus (GPa) = 14.13756 19.60771 16.87263
#
# Velocity S-wave (km/s) = 2.93164 3.45253 3.20269
# Velocity P-wave (km/s) = 6.41841 7.76047 7.12112
#
# Compressibility (1/GPa) = 0.02044352
#
# Stress axis : x y z
#
# Youngs Moduli (GPa) = 40.77043 15.48957 46.41057
#
# Poissons Ratio (x) = 0.33640 0.21006
# Poissons Ratio (y) = 0.88544 0.87490
# Poissons Ratio (z) = 0.18453 0.29200
#
# Static dielectric constant tensor:
#      x y z
#    x 1.534800 0.000000 0.016220 
#    y 0.000000 1.547720 0.000000 
#    z 0.016220 0.000000 1.544690 
# 
# From -- ./inp_files/244010.got.cif
#   From: 2010.05.17/outbox.cif.g08.bks.cpg/sg12_123_cif.got.tgz:244010.got - 2010.06.03 13:09:07.
