data_PCOD9180789
_publ_section_title
;
Structure prediction by ZEFSAII (Michael W. Deem and Ramdas Pophale) SiO2 
 PCOD9180789
Probable space group: C 2/M
;
_chemical_formula_sum "Si O2"
_cell_formula_units_Z 64
_cell_length_a 23.801908
_cell_length_b 8.429561
_cell_length_c 17.547200
_cell_angle_alpha 90.000000
_cell_angle_beta 74.991787
_cell_angle_gamma 90.000000
_cell_volume 3400.569448
_symmetry_space_group_name_H-M "C 2/M"
_symmetry_group_IT_number 12
_symmetry_cell_setting 'monoclinic'
loop_
_space_group_symop_operation_xyz
x,y,z
-x,y,-z
-x,-y,-z
x,-y,z
1/2+x,1/2+y,z
1/2-x,1/2+y,-z
1/2-x,1/2-y,-z
1/2+x,1/2-y,z
loop_
_atom_site_type_symbol
_atom_site_label
_atom_site_fract_x
_atom_site_fract_y
_atom_site_fract_z
Si Si1 0.430519 0.685320 0.450702
Si Si2 0.604942 0.191602 0.100435
Si Si3 0.379879 0.189595 0.317260
Si Si4 0.159107 0.306344 0.238159
Si Si5 0.471606 0.191280 0.156322
Si Si6 0.711757 0.307975 0.766517
Si Si7 0.119957 0.189380 0.927773
Si Si8 0.941758 0.312376 0.610982
O O1 0.425715 0.500000 0.469275
O O2 0.389187 0.734474 0.396166
O O3 0.420771 0.781334 0.532101
O O4 0.496690 0.725196 0.402470
O O5 0.644129 0.244794 0.157617
O O6 0.538124 0.245466 0.136236
O O7 0.604445 0.000000 0.100821
O O8 0.625695 0.247848 0.010895
O O9 0.432295 0.242960 0.242042
O O10 0.320943 0.238892 0.295315
O O11 0.383074 0.000000 0.323009
O O12 0.159876 0.500000 0.238210
O O13 0.222167 0.254454 0.244954
O O14 0.106809 0.258560 0.312332
O O15 0.438530 0.248020 0.092252
O O16 0.471595 0.000000 0.156317
O O17 0.710670 0.500000 0.761753
O O18 0.672763 0.261676 0.853562
O O19 0.117944 0.000000 0.929877
O O20 0.952272 0.500000 0.618423
#
# Coordination Sequence:
#
# PCOD9180789 Si02
#       8
#     8   8   8   8   8   8   8   8
#     4  11  21  34  54  83 115 141 164 200 259 317
#     4  10  19  32  51  74  99 132 173 213 256 308
#     4  10  19  34  56  80 103 134 179 219 253 302
#     4   9  19  36  57  76  99 136 178 217 258 305
#     4   9  18  32  51  74 101 132 169 214 259 305
#     4   9  19  37  55  73 102 138 174 216 265 307
#     4  10  20  32  48  73 104 135 168 210 261 310
#     4  10  19  35  58  82 107 137 174 213 252 300
#
# _framework density 18.820377000000001
#
# number of rings (size 3 to 8) (size 9 to 14) (size 15 to 20)
#    0.000    2.250    0.000    4.125    0.000    5.500 
#    0.000    5.000    0.000    0.000    0.000    0.000 
#    0.000    0.000    0.000    0.000    0.000    0.000 
#
# Total GULP energy -178672.387894 kJ/mol
# GULP energy per Si atom -5583.512122 kJ/mol
# Density = 1.877754 g / cm^3
# Si number density = 18.820377 Si / 1000 Ang^3
#
#
#
# Elastic Constant Matrix: (Units=GPa)
#
#
# Indices 1 2 3 4 5 6 
#
# 1 55.2558 -1.7795 21.5696 0.0000 18.1268 0.0000
# 2 -1.7795 10.6628 -8.9986 0.0000 0.0297 0.0000
# 3 21.5696 -8.9986 61.3689 0.0000 28.1903 0.0000
# 4 0.0000 0.0000 0.0000 17.1556 0.0000 3.6564
# 5 18.1268 0.0297 28.1903 0.0000 20.2933 0.0000
# 6 0.0000 0.0000 0.0000 3.6564 0.0000 21.0185
#
#
#
# Elastic Compliance Matrix: (Units=1/GPa)
#
#
# Indices 1 2 3 4 5 6 
#
# 1 0.027071 0.012700 0.009571 0.000000 -0.037495 0.000000
# 2 0.012700 0.149162 0.062781 0.000000 -0.098774 0.000000
# 3 0.009571 0.062781 0.072139 0.000000 -0.108853 0.000000
# 4 0.000000 0.000000 0.000000 0.060535 0.000000 -0.010531
# 5 -0.037495 -0.098774 -0.108853 0.000000 0.234126 0.000000
# 6 0.000000 0.000000 0.000000 -0.010531 0.000000 0.049409
#
#
# Mechanical properties :
#
#
# Convention : Reuss Voigt Hill
#
# Bulk Modulus (GPa) = 2.38963 16.54115 9.46539
# Shear Modulus (GPa) = 8.89950 19.45987 14.17969
#
# Velocity S-wave (km/s) = 2.17691 3.21904 2.74783
# Velocity P-wave (km/s) = 2.75518 4.75651 3.88686
#
# Compressibility (1/GPa) = 0.41847425
#
# Stress axis : x y z
#
# Youngs Moduli (GPa) = 36.94020 6.70414 13.86217
#
# Poissons Ratio (x) = -0.08514 -0.13268
# Poissons Ratio (y) = -0.46913 -0.87028
# Poissons Ratio (z) = -0.35356 -0.42089
#
# Static dielectric constant tensor:
#      x y z
#    x 1.641010 0.000000 -0.003340 
#    y 0.000000 1.645630 0.000000 
#    z -0.003340 0.000000 1.641860 
# 
# From -- ./inp_files/281315.got.cif
#   From: 2010.05.17/outbox.cif.g08.bks.cpg/sg12_141_cif.got.tgz:281315.got - 2010.06.03 13:09:07.
