data_PCOD9180194
_publ_section_title
;
Structure prediction by ZEFSAII (Michael W. Deem and Ramdas Pophale) SiO2 
 PCOD9180194
Probable space group: C 2/M
;
_chemical_formula_sum "Si O2"
_cell_formula_units_Z 56
_cell_length_a 19.580354
_cell_length_b 15.013291
_cell_length_c 15.664958
_cell_angle_alpha 90.000000
_cell_angle_beta 35.121136
_cell_angle_gamma 90.000000
_cell_volume 2649.264695
_symmetry_space_group_name_H-M "C 2/M"
_symmetry_group_IT_number 12
_symmetry_cell_setting 'monoclinic'
loop_
_space_group_symop_operation_xyz
x,y,z
-x,y,-z
-x,-y,-z
x,-y,z
1/2+x,1/2+y,z
1/2-x,1/2+y,-z
1/2-x,1/2-y,-z
1/2+x,1/2-y,z
loop_
_atom_site_type_symbol
_atom_site_label
_atom_site_fract_x
_atom_site_fract_y
_atom_site_fract_z
Si Si1 0.481645 0.100597 0.609544
Si Si2 0.248952 0.657622 0.084773
Si Si3 0.702655 0.605119 0.279588
Si Si4 0.601588 0.662337 0.212946
Si Si5 0.651387 0.607282 0.523711
Si Si6 0.929960 0.287222 0.985566
Si Si7 0.585211 0.892126 0.685464
O O1 0.500000 0.148702 0.500000
O O2 0.340568 0.098808 0.770061
O O3 0.545519 0.133130 0.630274
O O4 0.528700 0.000000 0.552646
O O5 0.160135 0.739908 0.152859
O O6 0.304813 0.612412 0.944301
O O7 0.360138 0.702493 0.018647
O O8 0.715670 0.500000 0.273320
O O9 0.608482 0.627225 0.302244
O O10 0.670491 0.638380 0.406485
O O11 0.825105 0.646583 0.121819
O O12 0.467421 0.652455 0.319489
O O13 0.631461 0.500000 0.544540
O O14 0.774885 0.624465 0.445132
O O15 0.010998 0.337394 0.832360
O O16 0.000000 0.264264 0.000000
O O17 0.564609 0.000000 0.717900
#
# Coordination Sequence:
#
# PCOD9180194 Si02
#       7
#     8   8   8   8   8   8   8
#     4  10  22  43  67  85 105 141 195 251 295 337
#     4  10  23  40  57  81 110 148 199 242 282 339
#     4  10  19  31  55  88 120 157 191 222 273 340
#     4  10  20  36  54  80 121 157 189 231 275 334
#     4  10  20  33  53  88 127 156 186 226 278 343
#     4  11  21  37  57  85 124 156 188 232 284 340
#     4  10  20  36  60  90 121 154 190 229 279 339
#
# _framework density 21.137938999999999
#
# number of rings (size 3 to 8) (size 9 to 14) (size 15 to 20)
#    0.000    1.857    1.429    3.857    0.000    6.286 
#    2.571    1.429    0.000    0.429    0.000    0.000 
#    0.000    0.000    0.000    0.000    0.000    0.000 
#
# Total GULP energy -156259.879111 kJ/mol
# GULP energy per Si atom -5580.709968 kJ/mol
# Density = 2.108983 g / cm^3
# Si number density = 21.137939 Si / 1000 Ang^3
#
#
#
# Elastic Constant Matrix: (Units=GPa)
#
#
# Indices 1 2 3 4 5 6 
#
# 1 165.2039 18.7448 66.8900 0.0000 0.9591 0.0000
# 2 18.7448 33.0378 12.2531 0.0000 -0.3113 0.0000
# 3 66.8900 12.2531 124.8454 0.0000 2.0099 0.0000
# 4 0.0000 0.0000 0.0000 29.7713 0.0000 -3.5470
# 5 0.9591 -0.3113 2.0099 0.0000 39.9218 0.0000
# 6 0.0000 0.0000 0.0000 -3.5470 0.0000 15.1964
#
#
#
# Elastic Compliance Matrix: (Units=1/GPa)
#
#
# Indices 1 2 3 4 5 6 
#
# 1 0.008019 -0.003068 -0.003995 0.000000 -0.000015 0.000000
# 2 -0.003068 0.032592 -0.001561 0.000000 0.000406 0.000000
# 3 -0.003995 -0.001561 0.010311 0.000000 -0.000435 0.000000
# 4 0.000000 0.000000 0.000000 0.034550 0.000000 0.008064
# 5 -0.000015 0.000406 -0.000435 0.000000 0.025074 0.000000
# 6 0.000000 0.000000 0.000000 0.008064 0.000000 0.067687
#
#
# Mechanical properties :
#
#
# Convention : Reuss Voigt Hill
#
# Bulk Modulus (GPa) = 29.69794 57.65143 43.67468
# Shear Modulus (GPa) = 24.18883 31.99118 28.09001
#
# Velocity S-wave (km/s) = 3.38647 3.89453 3.64935
# Velocity P-wave (km/s) = 5.41950 6.89610 6.20190
#
# Compressibility (1/GPa) = 0.03367237
#
# Stress axis : x y z
#
# Youngs Moduli (GPa) = 124.70534 30.68223 96.98741
#
# Poissons Ratio (x) = 0.09414 0.38747
# Poissons Ratio (y) = 0.38262 0.15144
# Poissons Ratio (z) = 0.49820 0.04791
#
# Static dielectric constant tensor:
#      x y z
#    x 1.812090 0.000000 0.043870 
#    y 0.000000 1.817590 0.000000 
#    z 0.043870 0.000000 1.788030 
# 
# From -- ./inp_files/226534.got.cif
#   From: 2010.05.17/outbox.cif.g08.bks.cpg/sg12_114_cif.got.tgz:226534.got - 2010.06.03 13:09:07.
