data_PCOD9180237
_publ_section_title
;
Structure prediction by ZEFSAII (Michael W. Deem and Ramdas Pophale) SiO2 
 PCOD9180237
Probable space group: C 2/M
;
_chemical_formula_sum "Si O2"
_cell_formula_units_Z 26
_cell_length_a 5.245825
_cell_length_b 28.927455
_cell_length_c 8.696745
_cell_angle_alpha 90.000000
_cell_angle_beta 59.862278
_cell_angle_gamma 90.000000
_cell_volume 1141.318913
_symmetry_space_group_name_H-M "C 2/M"
_symmetry_group_IT_number 12
_symmetry_cell_setting 'monoclinic'
loop_
_space_group_symop_operation_xyz
x,y,z
-x,y,-z
-x,-y,-z
x,-y,z
1/2+x,1/2+y,z
1/2-x,1/2+y,-z
1/2-x,1/2-y,-z
1/2+x,1/2-y,z
loop_
_atom_site_type_symbol
_atom_site_label
_atom_site_fract_x
_atom_site_fract_y
_atom_site_fract_z
Si Si1 0.126667 0.731765 0.203882
Si Si2 0.771879 0.077172 0.691106
Si Si3 0.500000 0.000000 0.000000
Si Si4 0.681034 0.627033 0.793330
O O1 0.279683 0.763335 0.285646
O O2 0.227662 0.680126 0.210516
O O3 0.250000 0.750000 0.000000
O O4 0.480032 0.097498 0.699135
O O5 0.000000 0.056824 0.500000
O O6 0.959936 0.117108 0.720827
O O7 0.667120 0.040241 0.847193
O O8 0.500000 0.612782 0.000000
#
# Coordination Sequence:
#
# PCOD9180237 Si02
#       4
#     8   8   2   8
#     4  10  19  31  61 105 132 178 243 283 322 398
#     4  12  28  47  72 105 143 179 230 292 352 423
#     4  12  26  50  80 104 132 182 234 282 360 428
#     4  12  22  43  71 104 140 190 234 281 348 414
#
# _framework density 22.780660999999998
#
# number of rings (size 3 to 8) (size 9 to 14) (size 15 to 20)
#    0.000    0.615    6.154    3.231    4.308    2.462 
#    0.000    3.077    0.000   18.462    0.000    0.000 
#    0.000    0.000    0.000    0.000    0.000    0.000 
#
# Total GULP energy -72398.113195 kJ/mol
# GULP energy per Si atom -5569.085630 kJ/mol
# Density = 2.272881 g / cm^3
# Si number density = 22.780661 Si / 1000 Ang^3
#
#
#
# Elastic Constant Matrix: (Units=GPa)
#
#
# Indices 1 2 3 4 5 6 
#
# 1 153.4408 29.1913 16.5341 0.0000 2.3830 0.0000
# 2 29.1913 127.7430 31.4605 0.0000 -5.4643 0.0000
# 3 16.5341 31.4605 144.3898 0.0000 -28.8293 0.0000
# 4 0.0000 0.0000 0.0000 -55.6509 0.0000 5.7518
# 5 2.3830 -5.4643 -28.8293 0.0000 31.0934 0.0000
# 6 0.0000 0.0000 0.0000 5.7518 0.0000 -38.0143
#
#
#
# Elastic Compliance Matrix: (Units=1/GPa)
#
#
# Indices 1 2 3 4 5 6 
#
# 1 0.006900 -0.001450 -0.000774 0.000000 -0.001501 0.000000
# 2 -0.001450 0.008579 -0.001693 0.000000 0.000049 0.000000
# 3 -0.000774 -0.001693 0.009002 0.000000 0.008108 0.000000
# 4 0.000000 0.000000 0.000000 -0.018255 0.000000 -0.002762
# 5 -0.001501 0.000049 0.008108 0.000000 0.039803 0.000000
# 6 0.000000 0.000000 0.000000 -0.002762 0.000000 -0.026724
#
#
# Mechanical properties :
#
#
# Convention : Reuss Voigt Hill
#
# Bulk Modulus (GPa) = 60.07562 64.43837 62.25699
# Shear Modulus (GPa) = 152.95773 10.71150 81.83461
#
# Velocity S-wave (km/s) = 8.20301 2.17077 6.00007
# Velocity P-wave (km/s) = 10.77719 5.88479 8.68270
#
# Compressibility (1/GPa) = 0.01664569
#
# Stress axis : x y z
#
# Youngs Moduli (GPa) = 144.93206 116.56680 111.08365
#
# Poissons Ratio (x) = 0.16906 0.08596
# Poissons Ratio (y) = 0.21020 0.18811
# Poissons Ratio (z) = 0.11215 0.19739
#
# Static dielectric constant tensor:
#      x y z
#    x 2.021960 0.000000 -0.194890 
#    y 0.000000 1.822090 0.000000 
#    z -0.194890 0.000000 2.130220 
# 
# From -- ./inp_files/34171.got.cif
#   From: 2010.05.17/outbox.cif.g08.bks.cpg/sg12_18_cif.got.tgz:34171.got - 2010.06.03 13:09:07.
