data_PCOD9180168
_publ_section_title
;
Structure prediction by ZEFSAII (Michael W. Deem and Ramdas Pophale) SiO2 
 PCOD9180168
Probable space group: C 2/M
;
_chemical_formula_sum "Si O2"
_cell_formula_units_Z 32
_cell_length_a 29.353668
_cell_length_b 10.024688
_cell_length_c 5.330950
_cell_angle_alpha 90.000000
_cell_angle_beta 83.445212
_cell_angle_gamma 90.000000
_cell_volume 1558.438311
_symmetry_space_group_name_H-M "C 2/M"
_symmetry_group_IT_number 12
_symmetry_cell_setting 'monoclinic'
loop_
_space_group_symop_operation_xyz
x,y,z
-x,y,-z
-x,-y,-z
x,-y,z
1/2+x,1/2+y,z
1/2-x,1/2+y,-z
1/2-x,1/2-y,-z
1/2+x,1/2-y,z
loop_
_atom_site_type_symbol
_atom_site_label
_atom_site_fract_x
_atom_site_fract_y
_atom_site_fract_z
Si Si1 0.970470 0.341964 0.767139
Si Si2 0.870918 0.273420 0.885061
Si Si3 0.715186 0.650699 0.881574
Si Si4 0.172608 0.642373 0.595577
O O1 0.924398 0.254670 0.807313
O O2 0.000000 0.314548 0.500000
O O3 0.863997 0.349632 0.153696
O O4 0.000000 0.322748 0.000000
O O5 0.851160 0.349543 0.656639
O O6 0.457108 0.000000 0.765856
O O7 0.834232 0.154737 0.946725
O O8 0.731801 0.500000 0.852372
O O9 0.703136 0.727394 0.630490
O O10 0.750000 0.750000 0.000000
O O11 0.197099 0.500000 0.608603
#
# Coordination Sequence:
#
# PCOD9180168 Si02
#       4
#     8   8   8   8
#     4  10  19  31  54  88 123 157 200 250 303 356
#     4  10  22  37  61  89 129 159 203 251 310 359
#     4  10  24  42  65  93 124 163 208 252 307 369
#     4  10  20  36  62  89 121 163 203 247 304 360
#
# _framework density 20.533373999999998
#
# number of rings (size 3 to 8) (size 9 to 14) (size 15 to 20)
#    1.500    0.500    0.000    4.500    0.000    4.000 
#    0.000    0.000    0.000    1.500    0.000    0.000 
#    0.000    0.000    0.000    0.000    0.000    0.000 
#
# Total GULP energy -89083.091793 kJ/mol
# GULP energy per Si atom -5567.693237 kJ/mol
# Density = 2.048664 g / cm^3
# Si number density = 20.533374 Si / 1000 Ang^3
#
#
#
# Elastic Constant Matrix: (Units=GPa)
#
#
# Indices 1 2 3 4 5 6 
#
# 1 114.0898 33.1668 40.7680 0.0000 -23.3804 0.0000
# 2 33.1668 112.0565 12.6732 0.0000 -2.0795 0.0000
# 3 40.7680 12.6732 142.7800 0.0000 -11.5407 0.0000
# 4 0.0000 0.0000 0.0000 -36.1298 0.0000 5.5557
# 5 -23.3804 -2.0795 -11.5407 0.0000 38.6353 0.0000
# 6 0.0000 0.0000 0.0000 5.5557 0.0000 16.4754
#
#
#
# Elastic Compliance Matrix: (Units=1/GPa)
#
#
# Indices 1 2 3 4 5 6 
#
# 1 0.011880 -0.003105 -0.002612 0.000000 0.006242 0.000000
# 2 -0.003105 0.009829 -0.000097 0.000000 -0.001379 0.000000
# 3 -0.002612 -0.000097 0.007819 0.000000 0.000750 0.000000
# 4 0.000000 0.000000 0.000000 -0.026314 0.000000 0.008873
# 5 0.006242 -0.001379 0.000750 0.000000 0.029810 0.000000
# 6 0.000000 0.000000 0.000000 0.008873 0.000000 0.057704
#
#
# Mechanical properties :
#
#
# Convention : Reuss Voigt Hill
#
# Bulk Modulus (GPa) = 55.86955 60.23804 58.05380
# Shear Modulus (GPa) = 46.15801 22.61740 34.38770
#
# Velocity S-wave (km/s) = 4.74640 3.32248 4.09678
# Velocity P-wave (km/s) = 7.57007 6.64220 7.12126
#
# Compressibility (1/GPa) = 0.01789884
#
# Stress axis : x y z
#
# Youngs Moduli (GPa) = 84.17341 101.74466 127.89652
#
# Poissons Ratio (x) = 0.31593 0.33407
# Poissons Ratio (y) = 0.26137 0.01244
# Poissons Ratio (z) = 0.21986 0.00990
#
# Static dielectric constant tensor:
#      x y z
#    x 1.747410 0.000000 -0.037190 
#    y 0.000000 1.749500 0.000000 
#    z -0.037190 0.000000 1.761740 
# 
# From -- ./inp_files/30181.got.cif
#   From: 2010.05.17/outbox.cif.g08.bks.cpg/sg12_16_cif.got.tgz:30181.got - 2010.06.03 13:09:07.
