data_PCOD9180045
_publ_section_title
;
Structure prediction by ZEFSAII (Michael W. Deem and Ramdas Pophale) SiO2 
 PCOD9180045
Probable space group: C 2/M
;
_chemical_formula_sum "Si O2"
_cell_formula_units_Z 64
_cell_length_a 19.775475
_cell_length_b 8.992593
_cell_length_c 21.963854
_cell_angle_alpha 90.000000
_cell_angle_beta 111.142004
_cell_angle_gamma 90.000000
_cell_volume 3642.985444
_symmetry_space_group_name_H-M "C 2/M"
_symmetry_group_IT_number 12
_symmetry_cell_setting 'monoclinic'
loop_
_space_group_symop_operation_xyz
x,y,z
-x,y,-z
-x,-y,-z
x,-y,z
1/2+x,1/2+y,z
1/2-x,1/2+y,-z
1/2-x,1/2-y,-z
1/2+x,1/2-y,z
loop_
_atom_site_type_symbol
_atom_site_label
_atom_site_fract_x
_atom_site_fract_y
_atom_site_fract_z
Si Si1 0.221890 0.820230 0.053289
Si Si2 0.413904 0.829254 0.465490
Si Si3 0.384181 0.671137 0.807910
Si Si4 0.216910 0.670260 0.799933
Si Si5 0.669474 0.325510 0.666913
Si Si6 0.423857 0.823193 0.941794
Si Si7 0.173583 0.823318 0.457752
Si Si8 0.335137 0.824239 0.673387
O O1 0.275498 0.781976 0.127392
O O2 0.142919 0.755906 0.045272
O O3 0.218440 0.000000 0.049075
O O4 0.250000 0.750000 0.000000
O O5 0.500000 0.826775 0.500000
O O6 0.385683 0.767962 0.391897
O O7 0.380575 0.727197 0.507135
O O8 0.388528 0.000000 0.464892
O O9 0.407411 0.500000 0.809493
O O10 0.300384 0.669829 0.803644
O O11 0.426382 0.756287 0.874678
O O12 0.382066 0.755480 0.743242
O O13 0.190514 0.500000 0.788528
O O14 0.174109 0.770427 0.738057
O O15 0.652777 0.500000 0.658458
O O16 0.750099 0.303988 0.664065
O O17 0.409565 0.000000 0.934365
O O18 0.500000 0.798625 0.000000
O O19 0.250000 0.750000 0.500000
O O20 0.151146 0.758874 0.385159
O O21 0.180432 0.000000 0.457664
O O22 0.347664 0.000000 0.671437
#
# Coordination Sequence:
#
# PCOD9180045 Si02
#       8
#     8   8   8   8   8   8   8   8
#     4  10  20  34  55  82 111 143 180 225 274 322
#     4  11  24  40  58  79 108 146 183 222 272 327
#     4   9  17  30  50  78 109 142 180 224 271 317
#     4   8  16  30  49  75 106 138 175 219 266 318
#     4  10  19  31  53  81 107 139 177 222 268 317
#     4  10  20  34  54  80 111 147 185 225 270 323
#     4  12  23  36  57  84 112 142 180 227 272 320
#     4  10  19  32  53  82 112 141 177 224 274 320
#
# _framework density 17.568009
#
# number of rings (size 3 to 8) (size 9 to 14) (size 15 to 20)
#    0.000    2.000    1.250    4.125    0.000    6.500 
#    0.000    0.000    2.750    0.000    0.000    0.000 
#    0.000    0.000    0.000    0.000    0.000    0.000 
#
# Total GULP energy -178584.041153 kJ/mol
# GULP energy per Si atom -5580.751286 kJ/mol
# Density = 1.752802 g / cm^3
# Si number density = 17.568009 Si / 1000 Ang^3
#
#
#
# Elastic Constant Matrix: (Units=GPa)
#
#
# Indices 1 2 3 4 5 6 
#
# 1 34.5909 32.7320 38.4058 0.0000 -5.3786 0.0000
# 2 32.7320 129.3916 89.1002 0.0000 1.3624 0.0000
# 3 38.4058 89.1002 168.7909 0.0000 -11.8938 0.0000
# 4 0.0000 0.0000 0.0000 35.8964 0.0000 -3.7397
# 5 -5.3786 1.3624 -11.8938 0.0000 24.3031 0.0000
# 6 0.0000 0.0000 0.0000 -3.7397 0.0000 21.5592
#
#
#
# Elastic Compliance Matrix: (Units=1/GPa)
#
#
# Indices 1 2 3 4 5 6 
#
# 1 0.042875 -0.007155 -0.005470 0.000000 0.007213 0.000000
# 2 -0.007155 0.013714 -0.005984 0.000000 -0.005281 0.000000
# 3 -0.005470 -0.005984 0.010633 0.000000 0.004328 0.000000
# 4 0.000000 0.000000 0.000000 0.028371 0.000000 0.004921
# 5 0.007213 -0.005281 0.004328 0.000000 0.045158 0.000000
# 6 0.000000 0.000000 0.000000 0.004921 0.000000 0.047238
#
#
# Mechanical properties :
#
#
# Convention : Reuss Voigt Hill
#
# Bulk Modulus (GPa) = 33.32855 72.58329 52.95592
# Shear Modulus (GPa) = 21.25783 27.85409 24.55596
#
# Velocity S-wave (km/s) = 3.48232 3.98615 3.74273
# Velocity P-wave (km/s) = 5.93137 7.91146 6.99186
#
# Compressibility (1/GPa) = 0.03000430
#
# Stress axis : x y z
#
# Youngs Moduli (GPa) = 23.32357 72.91612 94.04910
#
# Poissons Ratio (x) = 0.52172 0.51449
# Poissons Ratio (y) = 0.16688 0.56275
# Poissons Ratio (z) = 0.12759 0.43630
#
# Static dielectric constant tensor:
#      x y z
#    x 1.574980 0.000000 -0.007000 
#    y 0.000000 1.590980 0.000000 
#    z -0.007000 0.000000 1.601220 
# 
# From -- ./inp_files/320077.got.cif
#   From: 2010.05.17/outbox.cif.g08.bks.cpg/sg12_161_cif.got.tgz:320077.got - 2010.06.03 13:09:07.
