data_PCOD9180223
_publ_section_title
;
Structure prediction by ZEFSAII (Michael W. Deem and Ramdas Pophale) SiO2 
 PCOD9180223
Probable space group: C 2/M
;
_chemical_formula_sum "Si O2"
_cell_formula_units_Z 34
_cell_length_a 15.115931
_cell_length_b 7.344831
_cell_length_c 15.708081
_cell_angle_alpha 90.000000
_cell_angle_beta 47.658842
_cell_angle_gamma 90.000000
_cell_volume 1289.053444
_symmetry_space_group_name_H-M "C 2/M"
_symmetry_group_IT_number 12
_symmetry_cell_setting 'monoclinic'
loop_
_space_group_symop_operation_xyz
x,y,z
-x,y,-z
-x,-y,-z
x,-y,z
1/2+x,1/2+y,z
1/2-x,1/2+y,-z
1/2-x,1/2-y,-z
1/2+x,1/2-y,z
loop_
_atom_site_type_symbol
_atom_site_label
_atom_site_fract_x
_atom_site_fract_y
_atom_site_fract_z
Si Si1 0.540641 0.790190 0.211445
Si Si2 0.000000 0.500000 0.000000
Si Si3 0.076900 0.780596 0.532555
Si Si4 0.803193 0.722751 0.287543
Si Si5 0.293205 0.290467 0.102461
O O1 0.479852 0.788469 0.344189
O O2 0.436672 0.710397 0.219993
O O3 0.674795 0.717766 0.131031
O O4 0.554525 0.000000 0.177650
O O5 0.905693 0.658550 0.027888
O O6 0.212387 0.726926 0.421457
O O7 0.000000 0.726715 0.500000
O O8 0.073317 0.000000 0.539952
O O9 0.808031 0.500000 0.278792
O O10 0.758215 0.788332 0.225814
O O11 0.318419 0.500000 0.062742
#
# Coordination Sequence:
#
# PCOD9180223 Si02
#       5
#     8   2   8   8   8
#     4  10  22  37  61  93 133 169 214 260 311 380
#     4  12  26  48  76  88 128 158 210 288 340 372
#     4  10  19  31  57  92 130 179 216 246 303 378
#     4  10  20  39  62  92 135 174 208 259 317 373
#     4  11  24  44  70  96 121 168 214 264 331 390
#
# _framework density 26.375942999999999
#
# number of rings (size 3 to 8) (size 9 to 14) (size 15 to 20)
#    0.000    1.647    3.529    1.059    1.647    2.353 
#    0.000    1.176    0.000    0.000    0.000    0.000 
#    0.000    0.000    0.000    0.000    0.000    0.000 
#
# Total GULP energy -94997.796990 kJ/mol
# GULP energy per Si atom -5588.105705 kJ/mol
# Density = 2.631591 g / cm^3
# Si number density = 26.375943 Si / 1000 Ang^3
#
#
#
# Elastic Constant Matrix: (Units=GPa)
#
#
# Indices 1 2 3 4 5 6 
#
# 1 134.2383 21.8691 51.1126 0.0000 -60.1987 0.0000
# 2 21.8691 145.6225 25.8391 0.0000 -31.5418 0.0000
# 3 51.1126 25.8391 144.7244 0.0000 -8.9281 0.0000
# 4 0.0000 0.0000 0.0000 25.8058 0.0000 1.2825
# 5 -60.1987 -31.5418 -8.9281 0.0000 63.9021 0.0000
# 6 0.0000 0.0000 0.0000 1.2825 0.0000 15.8766
#
#
#
# Elastic Compliance Matrix: (Units=1/GPa)
#
#
# Indices 1 2 3 4 5 6 
#
# 1 0.015817 0.001773 -0.004972 0.000000 0.015081 0.000000
# 2 0.001773 0.008082 -0.001735 0.000000 0.005418 0.000000
# 3 -0.004972 -0.001735 0.008709 0.000000 -0.004324 0.000000
# 4 0.000000 0.000000 0.000000 0.038907 0.000000 -0.003143
# 5 0.015081 0.005418 -0.004324 0.000000 0.031926 0.000000
# 6 0.000000 0.000000 0.000000 -0.003143 0.000000 0.063240
#
#
# Mechanical properties :
#
#
# Convention : Reuss Voigt Hill
#
# Bulk Modulus (GPa) = 43.97612 69.13630 56.55621
# Shear Modulus (GPa) = 27.15508 42.83453 34.99480
#
# Velocity S-wave (km/s) = 3.21212 4.03426 3.64644
# Velocity P-wave (km/s) = 5.51960 6.92597 6.26239
#
# Compressibility (1/GPa) = 0.02273961
#
# Stress axis : x y z
#
# Youngs Moduli (GPa) = 63.22453 123.73103 114.82621
#
# Poissons Ratio (x) = -0.21943 0.57095
# Poissons Ratio (y) = -0.11213 0.19923
# Poissons Ratio (z) = 0.31437 0.21469
#
# Static dielectric constant tensor:
#      x y z
#    x 2.030950 0.000000 0.020240 
#    y 0.000000 1.997710 0.000000 
#    z 0.020240 0.000000 2.124280 
# 
# From -- ./inp_files/151289.got.cif
#   From: 2010.05.17/outbox.cif.g08.bks.cpg/sg12_76_cif.got.tgz:151289.got - 2010.06.03 13:09:07.
