data_PCOD9180768
_publ_section_title
;
Structure prediction by ZEFSAII (Michael W. Deem and Ramdas Pophale) SiO2 
 PCOD9180768
Probable space group: C 2/M
;
_chemical_formula_sum "Si O2"
_cell_formula_units_Z 56
_cell_length_a 16.519353
_cell_length_b 7.563102
_cell_length_c 26.109860
_cell_angle_alpha 90.000000
_cell_angle_beta 129.330942
_cell_angle_gamma 90.000000
_cell_volume 2523.229511
_symmetry_space_group_name_H-M "C 2/M"
_symmetry_group_IT_number 12
_symmetry_cell_setting 'monoclinic'
loop_
_space_group_symop_operation_xyz
x,y,z
-x,y,-z
-x,-y,-z
x,-y,z
1/2+x,1/2+y,z
1/2-x,1/2+y,-z
1/2-x,1/2-y,-z
1/2+x,1/2-y,z
loop_
_atom_site_type_symbol
_atom_site_label
_atom_site_fract_x
_atom_site_fract_y
_atom_site_fract_z
Si Si1 0.968825 0.784640 0.568264
Si Si2 0.456302 0.283308 0.291905
Si Si3 0.165448 0.212200 0.922652
Si Si4 0.756027 0.210536 0.156231
Si Si5 0.164236 0.212450 0.574805
Si Si6 0.430679 0.712701 0.851009
Si Si7 0.126276 0.791122 0.281151
O O1 0.867899 0.724993 0.495053
O O2 0.990603 0.721784 0.634209
O O3 0.069800 0.735582 0.574757
O O4 0.964890 0.000000 0.568312
O O5 0.457489 0.500000 0.294482
O O6 0.338146 0.225638 0.232573
O O7 0.526853 0.223522 0.272668
O O8 0.207649 0.279784 0.884650
O O9 0.050144 0.277046 0.893117
O O10 0.155693 0.000000 0.913758
O O11 0.250000 0.250000 0.000000
O O12 0.638070 0.241496 0.127189
O O13 0.769116 0.000000 0.159089
O O14 0.272084 0.267267 0.643353
O O15 0.164798 0.000000 0.573569
O O16 0.434001 0.500000 0.852318
O O17 0.370918 0.778251 0.775554
O O18 0.109640 0.000000 0.269436
#
# Coordination Sequence:
#
# PCOD9180768 Si02
#       7
#     8   8   8   8   8   8   8
#     4   8  15  28  47  69  97 134 177 223 272 320
#     4   9  16  30  52  74 100 140 184 223 267 323
#     4  10  22  41  62  86 118 150 182 222 271 329
#     4  10  20  37  62  87 110 145 193 232 263 321
#     4   9  17  30  47  71 100 132 176 229 273 317
#     4  10  21  38  58  83 116 149 181 226 282 329
#     4  10  19  32  51  74 103 140 179 221 273 329
#
# _framework density 22.193781000000001
#
# number of rings (size 3 to 8) (size 9 to 14) (size 15 to 20)
#    0.000    2.571    1.429    1.714    0.000    4.000 
#    0.000    5.000    0.000    1.714    0.000    0.000 
#    0.000    0.000    0.000    0.000    0.000    0.000 
#
# Total GULP energy -156235.113129 kJ/mol
# GULP energy per Si atom -5579.825469 kJ/mol
# Density = 2.214327 g / cm^3
# Si number density = 22.193781 Si / 1000 Ang^3
#
#
#
# Elastic Constant Matrix: (Units=GPa)
#
#
# Indices 1 2 3 4 5 6 
#
# 1 121.8770 -7.4222 51.6993 0.0000 13.4482 0.0000
# 2 -7.4222 43.6680 -7.6605 0.0000 -0.3799 0.0000
# 3 51.6993 -7.6605 121.4168 0.0000 12.8039 0.0000
# 4 0.0000 0.0000 0.0000 19.7912 0.0000 4.1293
# 5 13.4482 -0.3799 12.8039 0.0000 26.7913 0.0000
# 6 0.0000 0.0000 0.0000 4.1293 0.0000 9.9547
#
#
#
# Elastic Compliance Matrix: (Units=1/GPa)
#
#
# Indices 1 2 3 4 5 6 
#
# 1 0.010317 0.001026 -0.003985 0.000000 -0.003260 0.000000
# 2 0.001026 0.023262 0.001106 0.000000 -0.000714 0.000000
# 3 -0.003985 0.001106 0.010310 0.000000 -0.002911 0.000000
# 4 0.000000 0.000000 0.000000 0.055315 0.000000 -0.022945
# 5 -0.003260 -0.000714 -0.002911 0.000000 0.040343 0.000000
# 6 0.000000 0.000000 0.000000 -0.022945 0.000000 0.109973
#
#
# Mechanical properties :
#
#
# Convention : Reuss Voigt Hill
#
# Bulk Modulus (GPa) = 24.88522 40.02169 32.45345
# Shear Modulus (GPa) = 18.75326 27.99710 23.37518
#
# Velocity S-wave (km/s) = 2.91000 3.55559 3.24887
# Velocity P-wave (km/s) = 4.74635 5.91002 5.35986
#
# Compressibility (1/GPa) = 0.04018449
#
# Stress axis : x y z
#
# Youngs Moduli (GPa) = 96.92296 42.98802 96.99757
#
# Poissons Ratio (x) = -0.04412 0.38650
# Poissons Ratio (y) = -0.09947 -0.10728
# Poissons Ratio (z) = 0.38620 -0.04754
#
# Static dielectric constant tensor:
#      x y z
#    x 1.809870 0.000000 -0.005940 
#    y 0.000000 1.721120 0.000000 
#    z -0.005940 0.000000 1.822420 
# 
# From -- ./inp_files/339102.got.cif
#   From: 2010.05.17/outbox.cif.g08.bks.cpg/sg12_170_cif.got.tgz:339102.got - 2010.06.03 13:09:07.
