data_PCOD9180542
_publ_section_title
;
Structure prediction by ZEFSAII (Michael W. Deem and Ramdas Pophale) SiO2 
 PCOD9180542
Probable space group: C 2/M
;
_chemical_formula_sum "Si O2"
_cell_formula_units_Z 48
_cell_length_a 33.036976
_cell_length_b 8.955218
_cell_length_c 9.394556
_cell_angle_alpha 90.000000
_cell_angle_beta 88.796929
_cell_angle_gamma 90.000000
_cell_volume 2778.797908
_symmetry_space_group_name_H-M "C 2/M"
_symmetry_group_IT_number 12
_symmetry_cell_setting 'monoclinic'
loop_
_space_group_symop_operation_xyz
x,y,z
-x,y,-z
-x,-y,-z
x,-y,z
1/2+x,1/2+y,z
1/2-x,1/2+y,-z
1/2-x,1/2-y,-z
1/2+x,1/2-y,z
loop_
_atom_site_type_symbol
_atom_site_label
_atom_site_fract_x
_atom_site_fract_y
_atom_site_fract_z
Si Si1 0.332949 0.827789 0.155351
Si Si2 0.630617 0.679903 0.419451
Si Si3 0.042228 0.819947 0.924363
Si Si4 0.622286 0.678807 0.092371
Si Si5 0.416257 0.826904 0.334082
Si Si6 0.290907 0.819126 0.436538
O O1 0.374499 0.820790 0.244964
O O2 0.299013 0.776769 0.270182
O O3 0.325440 0.000000 0.119686
O O4 0.342115 0.738633 0.011721
O O5 0.633282 0.500000 0.428798
O O6 0.625179 0.725283 0.255796
O O7 0.594188 0.737834 0.521974
O O8 0.671476 0.753674 0.477304
O O9 0.079592 0.775808 0.024272
O O10 0.043133 0.000000 0.908417
O O11 0.050452 0.746243 0.770802
O O12 0.000000 0.777861 0.000000
O O13 0.623633 0.500000 0.089268
O O14 0.424911 0.000000 0.362946
O O15 0.250000 0.750000 0.500000
O O16 0.291042 0.000000 0.443976
#
# Coordination Sequence:
#
# PCOD9180542 Si02
#       6
#     8   8   8   8   8   8
#     4   8  16  30  48  69  93 122 157 195 234 281
#     4  10  19  32  50  72  98 127 160 199 240 285
#     4   9  17  31  51  73  97 127 163 203 246 289
#     4   9  18  31  49  73  97 124 161 200 240 287
#     4   9  17  30  48  70  95 126 164 200 237 287
#     4  10  20  34  52  75  99 126 161 198 239 286
#
# _framework density 17.273655000000002
#
# number of rings (size 3 to 8) (size 9 to 14) (size 15 to 20)
#    0.000    2.833    0.000    2.500    0.000    6.333 
#    0.000    1.667    0.000    5.000    0.000    0.000 
#    0.000    0.000    0.000    0.000    0.000    0.000 
#
# Total GULP energy -133712.747254 kJ/mol
# GULP energy per Si atom -5571.364469 kJ/mol
# Density = 1.723434 g / cm^3
# Si number density = 17.273655 Si / 1000 Ang^3
#
#
#
# Elastic Constant Matrix: (Units=GPa)
#
#
# Indices 1 2 3 4 5 6 
#
# 1 83.3299 32.9718 62.5815 0.0000 -39.8141 0.0000
# 2 32.9718 50.5592 56.3387 0.0000 -15.5652 0.0000
# 3 62.5815 56.3387 167.8483 0.0000 -36.2434 0.0000
# 4 0.0000 0.0000 0.0000 26.7508 0.0000 -7.8017
# 5 -39.8141 -15.5652 -36.2434 0.0000 32.5448 0.0000
# 6 0.0000 0.0000 0.0000 -7.8017 0.0000 21.0946
#
#
#
# Elastic Compliance Matrix: (Units=1/GPa)
#
#
# Indices 1 2 3 4 5 6 
#
# 1 0.033583 -0.008991 -0.002055 0.000000 0.034495 0.000000
# 2 -0.008991 0.034478 -0.009262 0.000000 -0.004825 0.000000
# 3 -0.002055 -0.009262 0.010972 0.000000 0.005275 0.000000
# 4 0.000000 0.000000 0.000000 0.041902 0.000000 0.015497
# 5 0.034495 -0.004825 0.005275 0.000000 0.076495 0.000000
# 6 0.000000 0.000000 0.000000 0.015497 0.000000 0.053137
#
#
# Mechanical properties :
#
#
# Convention : Reuss Voigt Hill
#
# Bulk Modulus (GPa) = 26.03059 67.28012 46.65535
# Shear Modulus (GPa) = 16.44809 26.06775 21.25792
#
# Velocity S-wave (km/s) = 3.08913 3.88893 3.51188
# Velocity P-wave (km/s) = 5.27503 7.69410 6.59640
#
# Compressibility (1/GPa) = 0.03841634
#
# Stress axis : x y z
#
# Youngs Moduli (GPa) = 29.77722 29.00412 91.14359
#
# Poissons Ratio (x) = 0.26079 0.18726
# Poissons Ratio (y) = 0.26774 0.84416
# Poissons Ratio (z) = 0.06118 0.26863
#
# Static dielectric constant tensor:
#      x y z
#    x 1.583080 0.000000 -0.010530 
#    y 0.000000 1.581350 0.000000 
#    z -0.010530 0.000000 1.589920 
# 
# From -- ./inp_files/108595.got.cif
#   From: 2010.05.17/outbox.cif.g08.bks.cpg/sg12_55_cif.got.tgz:108595.got - 2010.06.03 13:09:07.
