data_PCOD9180933
_publ_section_title
;
Structure prediction by ZEFSAII (Michael W. Deem and Ramdas Pophale) SiO2 
 PCOD9180933
Probable space group: C 2/M
;
_chemical_formula_sum "Si O2"
_cell_formula_units_Z 56
_cell_length_a 14.820859
_cell_length_b 12.000970
_cell_length_c 15.944384
_cell_angle_alpha 90.000000
_cell_angle_beta 56.644387
_cell_angle_gamma 90.000000
_cell_volume 2368.789505
_symmetry_space_group_name_H-M "C 2/M"
_symmetry_group_IT_number 12
_symmetry_cell_setting 'monoclinic'
loop_
_space_group_symop_operation_xyz
x,y,z
-x,y,-z
-x,-y,-z
x,-y,z
1/2+x,1/2+y,z
1/2-x,1/2+y,-z
1/2-x,1/2-y,-z
1/2+x,1/2-y,z
loop_
_atom_site_type_symbol
_atom_site_label
_atom_site_fract_x
_atom_site_fract_y
_atom_site_fract_z
Si Si1 0.067283 0.879678 0.880138
Si Si2 0.634772 0.882539 0.020827
Si Si3 0.422514 0.840253 0.207520
Si Si4 0.671748 0.377035 0.291442
Si Si5 0.127081 0.871420 0.507367
Si Si6 0.884839 0.375088 0.415124
Si Si7 0.727547 0.801525 0.144521
O O1 0.055618 0.790909 0.813295
O O2 0.193433 0.876231 0.840289
O O3 0.031024 0.000000 0.870088
O O4 0.000000 0.856174 0.000000
O O5 0.506357 0.883605 0.095885
O O6 0.671574 0.866068 0.098373
O O7 0.674830 0.000000 0.967548
O O8 0.689159 0.784696 0.942010
O O9 0.300851 0.867915 0.243171
O O10 0.435116 0.876926 0.296039
O O11 0.647939 0.500000 0.269951
O O12 0.620134 0.366564 0.409701
O O13 0.650254 0.275103 0.240184
O O14 0.088419 0.747885 0.559330
O O15 0.254455 0.873286 0.468333
O O16 0.089043 0.000000 0.550865
O O17 0.910116 0.500000 0.440463
#
# Coordination Sequence:
#
# PCOD9180933 Si02
#       7
#     8   8   8   8   8   8   8
#     4  10  19  34  50  69 101 136 168 209 250 296
#     4  11  21  34  50  71 100 134 168 209 250 301
#     4  10  19  32  51  78 102 130 170 207 255 301
#     4   9  17  32  53  76 101 130 165 213 256 298
#     4   8  15  28  48  73 102 131 164 206 256 309
#     4   9  16  28  47  74 106 132 160 208 260 305
#     4  10  21  34  49  73  98 133 174 203 250 306
#
# _framework density 23.640765999999999
#
# number of rings (size 3 to 8) (size 9 to 14) (size 15 to 20)
#    0.000    2.429    1.429    3.000    0.000    0.571 
#    0.000   10.714    0.000    0.857    0.000    4.000 
#    0.000    0.000    0.000    0.000    0.000    0.000 
#
# Total GULP energy -156170.831213 kJ/mol
# GULP energy per Si atom -5577.529686 kJ/mol
# Density = 2.358696 g / cm^3
# Si number density = 23.640766 Si / 1000 Ang^3
#
#
#
# Elastic Constant Matrix: (Units=GPa)
#
#
# Indices 1 2 3 4 5 6 
#
# 1 32.2061 16.4264 13.5996 0.0000 -6.7666 0.0000
# 2 16.4264 199.8955 46.9192 0.0000 7.3101 0.0000
# 3 13.5996 46.9192 86.0447 0.0000 -9.7320 0.0000
# 4 0.0000 0.0000 0.0000 25.6195 0.0000 7.1279
# 5 -6.7666 7.3101 -9.7320 0.0000 31.7450 0.0000
# 6 0.0000 0.0000 0.0000 7.1279 0.0000 -1.2614
#
#
#
# Elastic Compliance Matrix: (Units=1/GPa)
#
#
# Indices 1 2 3 4 5 6 
#
# 1 0.035177 -0.002322 -0.003507 0.000000 0.006958 0.000000
# 2 -0.002322 0.006066 -0.003268 0.000000 -0.002894 0.000000
# 3 -0.003507 -0.003268 0.014460 0.000000 0.004438 0.000000
# 4 0.000000 0.000000 0.000000 0.015175 0.000000 0.085750
# 5 0.006958 -0.002894 0.004438 0.000000 0.035011 0.000000
# 6 0.000000 0.000000 0.000000 0.085750 0.000000 -0.308208
#
#
# Mechanical properties :
#
#
# Convention : Reuss Voigt Hill
#
# Bulk Modulus (GPa) = 26.65976 52.44851 39.55414
# Shear Modulus (GPa) = -29.13402 27.30069 -0.91666
#
# Velocity S-wave (km/s) = -3.51431 3.40194 -0.62337
# Velocity P-wave (km/s) = 2.27281 6.13716 4.03107
#
# Compressibility (1/GPa) = 0.03750971
#
# Stress axis : x y z
#
# Youngs Moduli (GPa) = 28.42768 164.84342 69.15529
#
# Poissons Ratio (x) = 0.38277 0.24250
# Poissons Ratio (y) = 0.06601 0.22601
# Poissons Ratio (z) = 0.09969 0.53874
#
# Static dielectric constant tensor:
#      x y z
#    x 1.915770 0.000000 -0.043730 
#    y 0.000000 1.963000 0.000000 
#    z -0.043730 0.000000 1.882920 
# 
# From -- ./inp_files/276388.got.cif
#   From: 2010.05.17/outbox.cif.g08.bks.cpg/sg12_139_cif.got.tgz:276388.got - 2010.06.03 13:09:07.
