data_PCOD9180423
_publ_section_title
;
Structure prediction by ZEFSAII (Michael W. Deem and Ramdas Pophale) SiO2 
 PCOD9180423
Probable space group: C 2/M
;
_chemical_formula_sum "Si O2"
_cell_formula_units_Z 64
_cell_length_a 23.478822
_cell_length_b 8.918084
_cell_length_c 18.179440
_cell_angle_alpha 90.000000
_cell_angle_beta 95.389879
_cell_angle_gamma 90.000000
_cell_volume 3789.691905
_symmetry_space_group_name_H-M "C 2/M"
_symmetry_group_IT_number 12
_symmetry_cell_setting 'monoclinic'
loop_
_space_group_symop_operation_xyz
x,y,z
-x,y,-z
-x,-y,-z
x,-y,z
1/2+x,1/2+y,z
1/2-x,1/2+y,-z
1/2-x,1/2-y,-z
1/2+x,1/2-y,z
loop_
_atom_site_type_symbol
_atom_site_label
_atom_site_fract_x
_atom_site_fract_y
_atom_site_fract_z
Si Si1 0.286039 0.179045 0.741095
Si Si2 0.188366 0.679931 0.976426
Si Si3 0.506120 0.319627 0.085710
Si Si4 0.839253 0.680680 0.289817
Si Si5 0.808982 0.170916 0.595404
Si Si6 0.828154 0.327774 0.451654
Si Si7 0.390068 0.680244 0.156087
Si Si8 0.874222 0.320658 0.878935
O O1 0.224513 0.259348 0.736137
O O2 0.315363 0.226351 0.667781
O O3 0.326567 0.224342 0.813536
O O4 0.277206 0.000000 0.742294
O O5 0.192365 0.500000 0.968927
O O6 0.159652 0.753155 0.901717
O O7 0.250000 0.750000 0.000000
O O8 0.148807 0.714439 0.042308
O O9 0.509355 0.500000 0.085269
O O10 0.450283 0.277603 0.125715
O O11 0.564715 0.255107 0.124660
O O12 0.500000 0.268338 0.000000
O O13 0.838904 0.500000 0.286294
O O14 0.852542 0.724277 0.376103
O O15 0.881500 0.750995 0.235515
O O16 0.838924 0.230960 0.525389
O O17 0.740689 0.172150 0.569892
O O18 0.825131 0.000000 0.613744
O O19 0.845147 0.500000 0.466923
O O20 0.385605 0.500000 0.157767
O O21 0.880587 0.500000 0.874432
#
# Coordination Sequence:
#
# PCOD9180423 Si02
#       8
#     8   8   8   8   8   8   8   8
#     4  10  19  32  49  73 106 138 168 207 254 302
#     4  11  22  35  52  75 102 133 167 204 249 300
#     4  10  21  38  57  75  95 126 168 213 257 300
#     4  10  20  33  50  75 104 136 171 207 252 301
#     4   9  16  26  43  69  99 134 172 203 241 295
#     4   8  15  27  43  66  98 133 168 203 242 293
#     4  11  22  36  53  74 100 131 168 208 254 303
#     4  10  22  36  52  74  98 129 169 210 253 297
#
# _framework density 16.887916000000001
#
# number of rings (size 3 to 8) (size 9 to 14) (size 15 to 20)
#    0.000    2.125    1.250    3.375    0.000    7.250 
#    0.000    0.000    0.000    0.000    0.000    0.875 
#    0.000    7.000    0.000    0.000    0.000    0.000 
#
# Total GULP energy -178524.651432 kJ/mol
# GULP energy per Si atom -5578.895357 kJ/mol
# Density = 1.684948 g / cm^3
# Si number density = 16.887916 Si / 1000 Ang^3
#
#
#
# Elastic Constant Matrix: (Units=GPa)
#
#
# Indices 1 2 3 4 5 6 
#
# 1 57.4383 16.1847 15.0055 0.0000 -22.5234 0.0000
# 2 16.1847 40.2081 24.8788 0.0000 -13.7668 0.0000
# 3 15.0055 24.8788 88.6981 0.0000 -33.1408 0.0000
# 4 0.0000 0.0000 0.0000 28.3262 0.0000 -2.3592
# 5 -22.5234 -13.7668 -33.1408 0.0000 22.9815 0.0000
# 6 0.0000 0.0000 0.0000 -2.3592 0.0000 24.2640
#
#
#
# Elastic Compliance Matrix: (Units=1/GPa)
#
#
# Indices 1 2 3 4 5 6 
#
# 1 0.036830 -0.005686 0.016432 0.000000 0.056385 0.000000
# 2 -0.005686 0.032782 -0.006457 0.000000 0.004753 0.000000
# 3 0.016432 -0.006457 0.032258 0.000000 0.058755 0.000000
# 4 0.000000 0.000000 0.000000 0.035591 0.000000 0.003461
# 5 0.056385 0.004753 0.058755 0.000000 0.186350 0.000000
# 6 0.000000 0.000000 0.000000 0.003461 0.000000 0.041550
#
#
# Mechanical properties :
#
#
# Convention : Reuss Voigt Hill
#
# Bulk Modulus (GPa) = 9.05413 33.16473 21.10943
# Shear Modulus (GPa) = 12.70323 23.79936 18.25129
#
# Velocity S-wave (km/s) = 2.74562 3.75808 3.29101
# Velocity P-wave (km/s) = 3.92736 6.20577 5.19306
#
# Compressibility (1/GPa) = 0.11044684
#
# Stress axis : x y z
#
# Youngs Moduli (GPa) = 27.15191 30.50422 30.99967
#
# Poissons Ratio (x) = 0.17346 -0.50938
# Poissons Ratio (y) = 0.15440 0.20017
# Poissons Ratio (z) = -0.44615 0.19697
#
# Static dielectric constant tensor:
#      x y z
#    x 1.544050 0.000000 -0.020590 
#    y 0.000000 1.567110 0.000000 
#    z -0.020590 0.000000 1.587720 
# 
# From -- ./inp_files/281233.got.cif
#   From: 2010.05.17/outbox.cif.g08.bks.cpg/sg12_141_cif.got.tgz:281233.got - 2010.06.03 13:09:07.
