data_PCOD9180976
_publ_section_title
;
Structure prediction by ZEFSAII (Michael W. Deem and Ramdas Pophale) SiO2 
 PCOD9180976
Probable space group: C 2/M
;
_chemical_formula_sum "Si O2"
_cell_formula_units_Z 40
_cell_length_a 24.482777
_cell_length_b 7.466939
_cell_length_c 8.547776
_cell_angle_alpha 90.000000
_cell_angle_beta 83.111671
_cell_angle_gamma 90.000000
_cell_volume 1551.351524
_symmetry_space_group_name_H-M "C 2/M"
_symmetry_group_IT_number 12
_symmetry_cell_setting 'monoclinic'
loop_
_space_group_symop_operation_xyz
x,y,z
-x,y,-z
-x,-y,-z
x,-y,z
1/2+x,1/2+y,z
1/2-x,1/2+y,-z
1/2-x,1/2-y,-z
1/2+x,1/2-y,z
loop_
_atom_site_type_symbol
_atom_site_label
_atom_site_fract_x
_atom_site_fract_y
_atom_site_fract_z
Si Si1 0.823225 0.198931 0.552539
Si Si2 0.309996 0.286638 0.910899
Si Si3 0.439353 0.790321 0.594178
Si Si4 0.988962 0.284254 0.172559
Si Si5 0.139066 0.786146 0.783296
O O1 0.810618 0.282538 0.729191
O O2 0.889135 0.184770 0.545503
O O3 0.821532 0.279892 0.375412
O O4 0.797875 0.000000 0.553922
O O5 0.320015 0.500000 0.891606
O O6 0.250000 0.250000 0.000000
O O7 0.347991 0.219121 0.043928
O O8 0.500000 0.777477 0.500000
O O9 0.456905 0.720454 0.755570
O O10 0.423869 0.000000 0.594128
O O11 0.993264 0.500000 0.179590
O O12 0.925305 0.248257 0.232975
O O13 0.000000 0.213703 0.000000
O O14 0.147609 0.000000 0.783348
#
# Coordination Sequence:
#
# PCOD9180976 Si02
#       5
#     8   8   8   8   8
#     4  10  21  37  58  83 112 147 185 225 272 328
#     4  10  23  42  60  82 110 139 181 235 284 332
#     4  10  19  32  51  79 115 148 182 222 262 314
#     4  10  20  33  51  78 113 150 186 224 266 317
#     4  10  21  37  57  81 110 143 182 227 273 325
#
# _framework density 25.783967000000001
#
# number of rings (size 3 to 8) (size 9 to 14) (size 15 to 20)
#    0.000    2.000    2.000    1.200    0.000    4.000 
#    0.000    0.000    0.000    0.000    0.000    0.000 
#    0.000    0.000    0.000    0.000    0.000    0.000 
#
# Total GULP energy -111375.207326 kJ/mol
# GULP energy per Si atom -5568.760366 kJ/mol
# Density = 2.572528 g / cm^3
# Si number density = 25.783967 Si / 1000 Ang^3
#
#
#
# Elastic Constant Matrix: (Units=GPa)
#
#
# Indices 1 2 3 4 5 6 
#
# 1 73.2652 3.3221 10.8331 0.0000 -2.5245 0.0000
# 2 3.3221 82.5456 4.6865 0.0000 -4.8877 0.0000
# 3 10.8331 4.6865 160.0160 0.0000 -28.3915 0.0000
# 4 0.0000 0.0000 0.0000 -0.4061 0.0000 5.0921
# 5 -2.5245 -4.8877 -28.3915 0.0000 44.4184 0.0000
# 6 0.0000 0.0000 0.0000 5.0921 0.0000 60.3878
#
#
#
# Elastic Compliance Matrix: (Units=1/GPa)
#
#
# Indices 1 2 3 4 5 6 
#
# 1 0.013809 -0.000496 -0.000892 0.000000 0.000160 0.000000
# 2 -0.000496 0.012214 -0.000102 0.000000 0.001250 0.000000
# 3 -0.000892 -0.000102 0.007108 0.000000 0.004481 0.000000
# 4 0.000000 0.000000 0.000000 -1.196917 0.000000 0.100928
# 5 0.000160 0.001250 0.004481 0.000000 0.025524 0.000000
# 6 0.000000 0.000000 0.000000 0.100928 0.000000 0.008049
#
#
# Mechanical properties :
#
#
# Convention : Reuss Voigt Hill
#
# Bulk Modulus (GPa) = 33.16597 39.27891 36.22244
# Shear Modulus (GPa) = -4.47555 40.67902 18.10174
#
# Velocity S-wave (km/s) = -1.31892 3.97632 2.65250
# Velocity P-wave (km/s) = 3.25139 6.02896 4.84355
#
# Compressibility (1/GPa) = 0.03015139
#
# Stress axis : x y z
#
# Youngs Moduli (GPa) = 72.41696 81.87116 140.68917
#
# Poissons Ratio (x) = 0.04058 0.12548
# Poissons Ratio (y) = 0.03589 0.01439
# Poissons Ratio (z) = 0.06459 0.00838
#
# Static dielectric constant tensor:
#      x y z
#    x 1.953130 0.000000 -0.070230 
#    y 0.000000 1.980170 0.000000 
#    z -0.070230 0.000000 2.047290 
# 
# From -- ./inp_files/92838.got.cif
#   From: 2010.05.17/outbox.cif.g08.bks.cpg/sg12_47_cif.got.tgz:92838.got - 2010.06.03 13:09:07.
