data_PCOD9180625
_publ_section_title
;
Structure prediction by ZEFSAII (Michael W. Deem and Ramdas Pophale) SiO2 
 PCOD9180625
Probable space group: C 2/M
;
_chemical_formula_sum "Si O2"
_cell_formula_units_Z 50
_cell_length_a 28.359811
_cell_length_b 7.933840
_cell_length_c 11.041671
_cell_angle_alpha 90.000000
_cell_angle_beta 53.040058
_cell_angle_gamma 90.000000
_cell_volume 1985.175139
_symmetry_space_group_name_H-M "C 2/M"
_symmetry_group_IT_number 12
_symmetry_cell_setting 'monoclinic'
loop_
_space_group_symop_operation_xyz
x,y,z
-x,y,-z
-x,-y,-z
x,-y,z
1/2+x,1/2+y,z
1/2-x,1/2+y,-z
1/2-x,1/2-y,-z
1/2+x,1/2-y,z
loop_
_atom_site_type_symbol
_atom_site_label
_atom_site_fract_x
_atom_site_fract_y
_atom_site_fract_z
Si Si1 0.955422 0.814146 0.300375
Si Si2 0.049201 0.688707 0.015643
Si Si3 0.293461 0.195169 0.756164
Si Si4 0.673658 0.702730 0.563938
Si Si5 0.681108 0.701211 0.819021
Si Si6 0.000000 0.500000 0.500000
Si Si7 0.084686 0.814209 0.359671
O O1 0.897194 0.774616 0.312938
O O2 0.931120 0.820631 0.472999
O O3 0.977664 0.000000 0.235906
O O4 0.008291 0.688402 0.197560
O O5 0.061223 0.500000 0.953691
O O6 0.112167 0.768024 0.945712
O O7 0.000000 0.766110 0.000000
O O8 0.310354 0.206934 0.585942
O O9 0.226614 0.265098 0.850647
O O10 0.344528 0.288669 0.751098
O O11 0.293921 0.000000 0.792252
O O12 0.682975 0.500000 0.535734
O O13 0.697175 0.765367 0.657774
O O14 0.689424 0.500000 0.800974
O O15 0.047735 0.649653 0.384287
O O16 0.069216 0.000000 0.330973
#
# Coordination Sequence:
#
# PCOD9180625 Si02
#       7
#     8   8   8   8   8   2   8
#     4   9  18  33  53  74 108 148 185 227 276 324
#     4  11  22  31  45  72 107 150 200 244 272 305
#     4  10  19  32  50  76 109 146 185 228 281 331
#     4   9  17  29  46  69 100 150 191 231 272 319
#     4  10  20  32  47  69 104 151 201 232 269 318
#     4  12  22  40  68  94 114 136 172 232 288 360
#     4  10  22  39  61  90 118 144 174 222 293 353
#
# _framework density 25.186693000000002
#
# number of rings (size 3 to 8) (size 9 to 14) (size 15 to 20)
#    0.000    2.080    2.400    2.640    1.120    3.200 
#    0.000    0.000    0.000    0.000    0.000    1.120 
#    0.000    0.000    0.000    0.000    0.000    0.000 
#
# Total GULP energy -139263.712271 kJ/mol
# GULP energy per Si atom -5570.548491 kJ/mol
# Density = 2.512937 g / cm^3
# Si number density = 25.186693 Si / 1000 Ang^3
#
#
#
# Elastic Constant Matrix: (Units=GPa)
#
#
# Indices 1 2 3 4 5 6 
#
# 1 126.1477 44.6887 19.5775 0.0000 -38.3866 0.0000
# 2 44.6887 119.8754 10.1480 0.0000 -10.3912 0.0000
# 3 19.5775 10.1480 41.7518 0.0000 -30.0413 0.0000
# 4 0.0000 0.0000 0.0000 9.9475 0.0000 -11.0082
# 5 -38.3866 -10.3912 -30.0413 0.0000 38.9496 0.0000
# 6 0.0000 0.0000 0.0000 -11.0082 0.0000 18.5517
#
#
#
# Elastic Compliance Matrix: (Units=1/GPa)
#
#
# Indices 1 2 3 4 5 6 
#
# 1 0.013878 -0.004228 0.007976 0.000000 0.018701 0.000000
# 2 -0.004228 0.009845 -0.003412 0.000000 -0.004172 0.000000
# 3 0.007976 -0.003412 0.058514 0.000000 0.052082 0.000000
# 4 0.000000 0.000000 0.000000 0.292785 0.000000 0.173733
# 5 0.018701 -0.004172 0.052082 0.000000 0.083162 0.000000
# 6 0.000000 0.000000 0.000000 0.173733 0.000000 0.156994
#
#
# Mechanical properties :
#
#
# Convention : Reuss Voigt Hill
#
# Bulk Modulus (GPa) = 12.06134 48.51147 30.28641
# Shear Modulus (GPa) = 7.78644 27.71382 17.75013
#
# Velocity S-wave (km/s) = 1.76017 3.32073 2.65758
# Velocity P-wave (km/s) = 2.98833 5.83143 4.63334
#
# Compressibility (1/GPa) = 0.08290952
#
# Stress axis : x y z
#
# Youngs Moduli (GPa) = 72.05752 101.57151 17.08987
#
# Poissons Ratio (x) = 0.42941 -0.13631
# Poissons Ratio (y) = 0.30464 0.05832
# Poissons Ratio (z) = -0.57474 0.34660
#
# Static dielectric constant tensor:
#      x y z
#    x 2.103670 0.000000 0.020900 
#    y 0.000000 2.290550 0.000000 
#    z 0.020900 0.000000 2.103070 
# 
# From -- ./inp_files/248080.got.cif
#   From: 2010.05.17/outbox.cif.g08.bks.cpg/sg12_125_cif.got.tgz:248080.got - 2010.06.03 13:09:07.
