data_PCOD9180011
_publ_section_title
;
Structure prediction by ZEFSAII (Michael W. Deem and Ramdas Pophale) SiO2 
 PCOD9180011
Probable space group: C 2/M
;
_chemical_formula_sum "Si O2"
_cell_formula_units_Z 48
_cell_length_a 26.109879
_cell_length_b 18.722566
_cell_length_c 5.061541
_cell_angle_alpha 90.000000
_cell_angle_beta 107.594251
_cell_angle_gamma 90.000000
_cell_volume 2358.558166
_symmetry_space_group_name_H-M "C 2/M"
_symmetry_group_IT_number 12
_symmetry_cell_setting 'monoclinic'
loop_
_space_group_symop_operation_xyz
x,y,z
-x,y,-z
-x,-y,-z
x,-y,z
1/2+x,1/2+y,z
1/2-x,1/2+y,-z
1/2-x,1/2-y,-z
1/2+x,1/2-y,z
loop_
_atom_site_type_symbol
_atom_site_label
_atom_site_fract_x
_atom_site_fract_y
_atom_site_fract_z
Si Si1 0.979867 0.215740 0.219984
Si Si2 0.216916 0.420265 0.000826
Si Si3 0.853792 0.768795 0.955568
Si Si4 0.208823 0.801989 0.602022
Si Si5 0.030103 0.376485 0.298102
Si Si6 0.652890 0.120662 0.375792
O O1 0.000000 0.174107 0.500000
O O2 0.015574 0.290396 0.275594
O O3 0.916641 0.227572 0.120584
O O4 0.000000 0.175144 0.000000
O O5 0.238562 0.500000 0.988971
O O6 0.258336 0.366160 0.207838
O O7 0.170216 0.425029 0.149807
O O8 0.193006 0.391212 0.685510
O O9 0.831033 0.824689 0.700973
O O10 0.821457 0.768777 0.184542
O O11 0.848554 0.698012 0.767063
O O12 0.250000 0.750000 0.500000
O O13 0.092887 0.390120 0.388602
O O14 0.000000 0.406687 0.500000
O O15 0.000000 0.405943 0.000000
#
# Coordination Sequence:
#
# PCOD9180011 Si02
#       6
#     8   8   8   8   8   8
#     4  10  19  31  52  87 128 164 181 243 326 383
#     4  12  28  46  62  85 126 177 223 269 324 387
#     4  12  23  37  61 100 126 156 209 264 325 385
#     4  12  26  39  63  94 127 160 214 279 329 375
#     4  10  19  31  54  89 117 161 196 250 322 370
#     4  12  23  39  67  90 120 170 216 259 318 385
#
# _framework density 20.351414999999999
#
# number of rings (size 3 to 8) (size 9 to 14) (size 15 to 20)
#    0.000    0.667    5.000    5.000    4.667    0.000 
#    0.000    0.000    0.000   10.000    0.000    0.000 
#    0.000   13.333    0.000    0.000    0.000    0.000 
#
# Total GULP energy -133667.410190 kJ/mol
# GULP energy per Si atom -5569.475425 kJ/mol
# Density = 2.030509 g / cm^3
# Si number density = 20.351415 Si / 1000 Ang^3
#
#
#
# Elastic Constant Matrix: (Units=GPa)
#
#
# Indices 1 2 3 4 5 6 
#
# 1 124.9548 39.1566 61.8085 0.0000 -15.9549 0.0000
# 2 39.1566 53.1505 34.0039 0.0000 5.0015 0.0000
# 3 61.8085 34.0039 196.7246 0.0000 -21.4112 0.0000
# 4 0.0000 0.0000 0.0000 -67.6707 0.0000 20.5493
# 5 -15.9549 5.0015 -21.4112 0.0000 54.4193 0.0000
# 6 0.0000 0.0000 0.0000 20.5493 0.0000 -1.2124
#
#
#
# Elastic Compliance Matrix: (Units=1/GPa)
#
#
# Indices 1 2 3 4 5 6 
#
# 1 0.011871 -0.007776 -0.002015 0.000000 0.003402 0.000000
# 2 -0.007776 0.026919 -0.002849 0.000000 -0.005875 0.000000
# 3 -0.002015 -0.002849 0.006449 0.000000 0.002208 0.000000
# 4 0.000000 0.000000 0.000000 0.003563 0.000000 0.060398
# 5 0.003402 -0.005875 0.002208 0.000000 0.020782 0.000000
# 6 0.000000 0.000000 0.000000 0.060398 0.000000 0.198897
#
#
# Mechanical properties :
#
#
# Convention : Reuss Voigt Hill
#
# Bulk Modulus (GPa) = 50.10585 71.64087 60.87336
# Shear Modulus (GPa) = 16.64362 13.09798 14.87080
#
# Velocity S-wave (km/s) = 2.86284 2.53966 2.70608
# Velocity P-wave (km/s) = 5.96671 6.62406 6.30396
#
# Compressibility (1/GPa) = 0.01995775
#
# Stress axis : x y z
#
# Youngs Moduli (GPa) = 84.23897 37.14846 155.05627
#
# Poissons Ratio (x) = 0.28888 0.31248
# Poissons Ratio (y) = 0.65507 0.44178
# Poissons Ratio (z) = 0.16977 0.10584
#
# Static dielectric constant tensor:
#      x y z
#    x 1.805710 0.000000 0.018540 
#    y 0.000000 1.980910 0.000000 
#    z 0.018540 0.000000 1.841490 
# 
# From -- ./inp_files/29094.got.cif
#   From: 2010.05.17/outbox.cif.g08.bks.cpg/sg12_15_cif.got.tgz:29094.got - 2010.06.03 13:09:07.
