data_PCOD9180831
_publ_section_title
;
Structure prediction by ZEFSAII (Michael W. Deem and Ramdas Pophale) SiO2 
 PCOD9180831
Probable space group: C 2/M
;
_chemical_formula_sum "Si O2"
_cell_formula_units_Z 56
_cell_length_a 18.757721
_cell_length_b 7.736334
_cell_length_c 19.333532
_cell_angle_alpha 90.000000
_cell_angle_beta 74.695161
_cell_angle_gamma 90.000000
_cell_volume 2706.104319
_symmetry_space_group_name_H-M "C 2/M"
_symmetry_group_IT_number 12
_symmetry_cell_setting 'monoclinic'
loop_
_space_group_symop_operation_xyz
x,y,z
-x,y,-z
-x,-y,-z
x,-y,z
1/2+x,1/2+y,z
1/2-x,1/2+y,-z
1/2-x,1/2-y,-z
1/2+x,1/2-y,z
loop_
_atom_site_type_symbol
_atom_site_label
_atom_site_fract_x
_atom_site_fract_y
_atom_site_fract_z
Si Si1 0.873388 0.298348 0.838558
Si Si2 0.335290 0.705692 0.995311
Si Si3 0.436736 0.711630 0.570200
Si Si4 0.773058 0.793557 0.572069
Si Si5 0.849935 0.795459 0.285129
Si Si6 0.706223 0.712007 0.848110
Si Si7 0.995455 0.799029 0.701556
O O1 0.876066 0.500000 0.820248
O O2 0.880769 0.279645 0.919464
O O3 0.791444 0.232640 0.838363
O O4 0.937185 0.209938 0.778563
O O5 0.344888 0.500000 0.991101
O O6 0.250000 0.750000 0.000000
O O7 0.342644 0.765246 0.072815
O O8 0.500000 0.762960 0.500000
O O9 0.434161 0.500000 0.570702
O O10 0.355477 0.770894 0.568416
O O11 0.459326 0.773006 0.640888
O O12 0.750000 0.750000 0.500000
O O13 0.713988 0.724496 0.642045
O O14 0.773330 0.000000 0.578832
O O15 0.824246 0.725928 0.217306
O O16 0.926569 0.720800 0.294737
O O17 0.862073 0.000000 0.270411
O O18 0.707805 0.500000 0.848522
O O19 0.010672 0.000000 0.681106
#
# Coordination Sequence:
#
# PCOD9180831 Si02
#       7
#     8   8   8   8   8   8   8
#     4  10  19  32  51  75 105 138 174 217 259 303
#     4   9  16  29  50  76 105 135 172 215 259 309
#     4   9  18  34  55  79 105 133 168 209 253 303
#     4  11  22  36  56  80 106 136 170 209 252 300
#     4  10  20  36  56  77 104 136 171 212 258 308
#     4   8  16  31  52  77 102 132 170 213 260 306
#     4  10  20  34  54  77 102 136 173 210 257 309
#
# _framework density 20.693954999999999
#
# number of rings (size 3 to 8) (size 9 to 14) (size 15 to 20)
#    0.000    2.429    0.000    3.857    0.000    2.857 
#    0.000    5.000    0.000    7.286    0.000    0.000 
#    0.000    0.000    0.000    0.000    0.000    0.000 
#
# Total GULP energy -156251.906012 kJ/mol
# GULP energy per Si atom -5580.425215 kJ/mol
# Density = 2.064685 g / cm^3
# Si number density = 20.693955 Si / 1000 Ang^3
#
#
#
# Elastic Constant Matrix: (Units=GPa)
#
#
# Indices 1 2 3 4 5 6 
#
# 1 154.5865 -1.6408 92.2041 0.0000 10.1603 0.0000
# 2 -1.6408 28.7381 -20.9351 0.0000 5.3340 0.0000
# 3 92.2041 -20.9351 172.0362 0.0000 17.2723 0.0000
# 4 0.0000 0.0000 0.0000 18.9535 0.0000 -3.6824
# 5 10.1603 5.3340 17.2723 0.0000 32.1484 0.0000
# 6 0.0000 0.0000 0.0000 -3.6824 0.0000 8.2604
#
#
#
# Elastic Compliance Matrix: (Units=1/GPa)
#
#
# Indices 1 2 3 4 5 6 
#
# 1 0.009848 -0.003781 -0.005801 0.000000 0.000632 0.000000
# 2 -0.003781 0.042482 0.008228 0.000000 -0.010274 0.000000
# 3 -0.005801 0.008228 0.010439 0.000000 -0.005140 0.000000
# 4 0.000000 0.000000 0.000000 0.057764 0.000000 0.025750
# 5 0.000632 -0.010274 -0.005140 0.000000 0.035372 0.000000
# 6 0.000000 0.000000 0.000000 0.025750 0.000000 0.132539
#
#
# Mechanical properties :
#
#
# Convention : Reuss Voigt Hill
#
# Bulk Modulus (GPa) = 16.65041 54.95748 35.80395
# Shear Modulus (GPa) = 16.06819 30.92129 23.49474
#
# Velocity S-wave (km/s) = 2.78954 3.86971 3.37314
# Velocity P-wave (km/s) = 4.29405 6.82503 5.70175
#
# Compressibility (1/GPa) = 0.06005857
#
# Stress axis : x y z
#
# Youngs Moduli (GPa) = 101.54847 23.53950 95.79104
#
# Poissons Ratio (x) = 0.08901 0.55573
# Poissons Ratio (y) = 0.38399 -0.78814
# Poissons Ratio (z) = 0.58913 -0.19368
#
# Static dielectric constant tensor:
#      x y z
#    x 1.728260 0.000000 0.031190 
#    y 0.000000 1.772260 0.000000 
#    z 0.031190 0.000000 1.716840 
# 
# From -- ./inp_files/275185.got.cif
#   From: 2010.05.17/outbox.cif.g08.bks.cpg/sg12_138_cif.got.tgz:275185.got - 2010.06.03 13:09:07.
