data_PCOD9180664
_publ_section_title
;
Structure prediction by ZEFSAII (Michael W. Deem and Ramdas Pophale) SiO2 
 PCOD9180664
Probable space group: C 2/M
;
_chemical_formula_sum "Si O2"
_cell_formula_units_Z 56
_cell_length_a 26.655719
_cell_length_b 14.051034
_cell_length_c 15.129717
_cell_angle_alpha 90.000000
_cell_angle_beta 29.869720
_cell_angle_gamma 90.000000
_cell_volume 2822.179177
_symmetry_space_group_name_H-M "C 2/M"
_symmetry_group_IT_number 12
_symmetry_cell_setting 'monoclinic'
loop_
_space_group_symop_operation_xyz
x,y,z
-x,y,-z
-x,-y,-z
x,-y,z
1/2+x,1/2+y,z
1/2-x,1/2+y,-z
1/2-x,1/2-y,-z
1/2+x,1/2-y,z
loop_
_atom_site_type_symbol
_atom_site_label
_atom_site_fract_x
_atom_site_fract_y
_atom_site_fract_z
Si Si1 0.466279 0.773319 0.791392
Si Si2 0.610347 0.264781 0.843274
Si Si3 0.757543 0.751841 0.188579
Si Si4 0.715664 0.602164 0.554755
Si Si5 0.427812 0.890425 0.525459
Si Si6 0.057413 0.393122 0.809114
Si Si7 0.875893 0.889768 0.497498
O O1 0.511101 0.844025 0.649274
O O2 0.497229 0.819427 0.839286
O O3 0.526619 0.675055 0.677714
O O4 0.344484 0.764720 0.982160
O O5 0.674685 0.283463 0.830997
O O6 0.669964 0.308019 0.671365
O O7 0.591630 0.153224 0.850914
O O8 0.500000 0.309513 0.000000
O O9 0.673809 0.831707 0.299346
O O10 0.690922 0.661416 0.324189
O O11 0.670437 0.500000 0.652549
O O12 0.832044 0.599118 0.402598
O O13 0.692235 0.609708 0.486803
O O14 0.500000 0.885781 0.500000
O O15 0.404245 0.000000 0.541507
O O16 0.015407 0.500000 0.876576
O O17 0.900578 0.000000 0.480753
#
# Coordination Sequence:
#
# PCOD9180664 Si02
#       7
#     8   8   8   8   8   8   8
#     4  11  22  40  61  91 125 162 203 257 309 372
#     4  12  21  34  50  82 126 162 199 241 292 357
#     4  11  23  37  64  92 124 163 208 253 308 369
#     4  10  19  32  51  71 108 166 212 245 285 341
#     4  10  24  47  71  93 119 155 205 265 323 376
#     4  11  21  33  52  80 118 164 206 243 285 348
#     4  10  20  35  55  83 121 165 208 248 300 357
#
# _framework density 19.842822000000002
#
# number of rings (size 3 to 8) (size 9 to 14) (size 15 to 20)
#    0.000    1.286    4.286    2.571    0.000    4.571 
#    0.000    0.000    0.000    6.857    0.000    0.000 
#    0.000    0.000    0.000    0.000    0.000    0.000 
#
# Total GULP energy -156023.188755 kJ/mol
# GULP energy per Si atom -5572.256741 kJ/mol
# Density = 1.979766 g / cm^3
# Si number density = 19.842822 Si / 1000 Ang^3
#
#
#
# Elastic Constant Matrix: (Units=GPa)
#
#
# Indices 1 2 3 4 5 6 
#
# 1 39.0644 23.9463 14.8187 0.0000 -8.4891 0.0000
# 2 23.9463 127.3953 46.7525 0.0000 -21.4825 0.0000
# 3 14.8187 46.7525 123.8627 0.0000 -23.3666 0.0000
# 4 0.0000 0.0000 0.0000 15.8351 0.0000 -2.9999
# 5 -8.4891 -21.4825 -23.3666 0.0000 21.0606 0.0000
# 6 0.0000 0.0000 0.0000 -2.9999 0.0000 23.6418
#
#
#
# Elastic Compliance Matrix: (Units=1/GPa)
#
#
# Indices 1 2 3 4 5 6 
#
# 1 0.029958 -0.004196 -0.000670 0.000000 0.007052 0.000000
# 2 -0.004196 0.010576 -0.002243 0.000000 0.006607 0.000000
# 3 -0.000670 -0.002243 0.010772 0.000000 0.009394 0.000000
# 4 0.000000 0.000000 0.000000 0.064706 0.000000 0.008211
# 5 0.007052 0.006607 0.009394 0.000000 0.067486 0.000000
# 6 0.000000 0.000000 0.000000 0.008211 0.000000 0.043340
#
#
# Mechanical properties :
#
#
# Convention : Reuss Voigt Hill
#
# Bulk Modulus (GPa) = 26.96367 51.26194 39.11280
# Shear Modulus (GPa) = 19.73017 25.76117 22.74567
#
# Velocity S-wave (km/s) = 3.15671 3.60705 3.38937
# Velocity P-wave (km/s) = 5.18696 6.57555 5.92209
#
# Compressibility (1/GPa) = 0.03708694
#
# Stress axis : x y z
#
# Youngs Moduli (GPa) = 33.38062 94.55565 92.82914
#
# Poissons Ratio (x) = 0.39676 0.06219
# Poissons Ratio (y) = 0.14007 0.20825
# Poissons Ratio (z) = 0.02236 0.21213
#
# Static dielectric constant tensor:
#      x y z
#    x 1.681360 0.000000 0.031220 
#    y 0.000000 1.745810 0.000000 
#    z 0.031220 0.000000 1.827380 
# 
# From -- ./inp_files/246531.got.cif
#   From: 2010.05.17/outbox.cif.g08.bks.cpg/sg12_124_cif.got.tgz:246531.got - 2010.06.03 13:09:07.
