data_PCOD9180921
_publ_section_title
;
Structure prediction by ZEFSAII (Michael W. Deem and Ramdas Pophale) SiO2 
 PCOD9180921
Probable space group: C 2/M
;
_chemical_formula_sum "Si O2"
_cell_formula_units_Z 64
_cell_length_a 28.033836
_cell_length_b 14.677362
_cell_length_c 9.621620
_cell_angle_alpha 90.000000
_cell_angle_beta 52.412829
_cell_angle_gamma 90.000000
_cell_volume 3137.166602
_symmetry_space_group_name_H-M "C 2/M"
_symmetry_group_IT_number 12
_symmetry_cell_setting 'monoclinic'
loop_
_space_group_symop_operation_xyz
x,y,z
-x,y,-z
-x,-y,-z
x,-y,z
1/2+x,1/2+y,z
1/2-x,1/2+y,-z
1/2-x,1/2-y,-z
1/2+x,1/2-y,z
loop_
_atom_site_type_symbol
_atom_site_label
_atom_site_fract_x
_atom_site_fract_y
_atom_site_fract_z
Si Si1 0.382264 0.395358 0.857330
Si Si2 0.562319 0.290596 0.477420
Si Si3 0.427990 0.100314 0.619795
Si Si4 0.125402 0.106788 0.585846
Si Si5 0.258124 0.897292 0.834366
Si Si6 0.325256 0.893126 0.009330
Si Si7 0.558096 0.390905 0.975550
Si Si8 0.742758 0.275618 0.350427
O O1 0.400525 0.500000 0.794510
O O2 0.389212 0.336153 0.709628
O O3 0.313913 0.396320 0.026453
O O4 0.423477 0.355946 0.907149
O O5 0.500000 0.296265 0.500000
O O6 0.581042 0.185964 0.463967
O O7 0.569342 0.347908 0.604215
O O8 0.500000 0.095020 0.500000
O O9 0.406353 0.000000 0.614503
O O10 0.393042 0.120905 0.827049
O O11 0.113247 0.118730 0.771028
O O12 0.187204 0.154639 0.436508
O O13 0.126713 0.000000 0.551580
O O14 0.273624 0.816203 0.703442
O O15 0.275198 0.000000 0.759094
O O16 0.285477 0.881367 0.939381
O O17 0.299565 0.825246 0.172361
O O18 0.320210 0.000000 0.061241
O O19 0.548386 0.500000 0.010938
O O20 0.500000 0.353238 0.000000
O O21 0.750000 0.250000 0.500000
#
# Coordination Sequence:
#
# PCOD9180921 Si02
#       8
#     8   8   8   8   8   8   8   8
#     4  10  19  32  51  77 109 145 188 235 284 341
#     4  11  21  33  56  88 117 148 189 239 294 351
#     4   9  19  36  58  85 116 150 193 248 303 352
#     4  11  23  38  55  82 120 154 190 240 298 354
#     4  10  21  37  58  81 109 150 199 253 304 355
#     4  10  20  37  61  86 114 151 197 250 310 370
#     4   9  18  33  51  71 105 154 195 227 274 342
#     4  12  24  37  57  85 121 162 204 248 302 371
#
# _framework density 20.400573000000001
#
# number of rings (size 3 to 8) (size 9 to 14) (size 15 to 20)
#    0.000    1.750    0.000    4.875    0.000    5.000 
#    0.000    0.000    0.000    0.000    0.000    0.875 
#    0.000   15.500    0.000    0.000    0.000    0.000 
#
# Total GULP energy -178564.366771 kJ/mol
# GULP energy per Si atom -5580.136462 kJ/mol
# Density = 2.035414 g / cm^3
# Si number density = 20.400573 Si / 1000 Ang^3
#
#
#
# Elastic Constant Matrix: (Units=GPa)
#
#
# Indices 1 2 3 4 5 6 
#
# 1 69.6797 17.5006 44.4520 0.0000 -2.5998 0.0000
# 2 17.5006 129.6107 50.4755 0.0000 9.9176 0.0000
# 3 44.4520 50.4755 81.5282 0.0000 -0.0220 0.0000
# 4 0.0000 0.0000 0.0000 25.9673 0.0000 -0.8990
# 5 -2.5998 9.9176 -0.0220 0.0000 39.1822 0.0000
# 6 0.0000 0.0000 0.0000 -0.8990 0.0000 -0.6949
#
#
#
# Elastic Compliance Matrix: (Units=1/GPa)
#
#
# Indices 1 2 3 4 5 6 
#
# 1 0.022544 0.002203 -0.013655 0.000000 0.000931 0.000000
# 2 0.002203 0.010649 -0.007795 0.000000 -0.002554 0.000000
# 3 -0.013655 -0.007795 0.024537 0.000000 0.001081 0.000000
# 4 0.000000 0.000000 0.000000 0.036859 0.000000 -0.047685
# 5 0.000931 -0.002554 0.001081 0.000000 0.026230 0.000000
# 6 0.000000 0.000000 0.000000 -0.047685 0.000000 -1.377332
#
#
# Mechanical properties :
#
#
# Convention : Reuss Voigt Hill
#
# Bulk Modulus (GPa) = 51.98649 56.18607 54.08628
# Shear Modulus (GPa) = -4.12676 24.11697 9.99511
#
# Velocity S-wave (km/s) = -1.42382 3.44200 2.21587
# Velocity P-wave (km/s) = 4.77862 6.58769 5.75469
#
# Compressibility (1/GPa) = 0.01923577
#
# Stress axis : x y z
#
# Youngs Moduli (GPa) = 44.35710 93.90632 40.75451
#
# Poissons Ratio (x) = -0.20685 0.55652
# Poissons Ratio (y) = -0.09771 0.31767
# Poissons Ratio (z) = 0.60571 0.73196
#
# Static dielectric constant tensor:
#      x y z
#    x 1.753220 0.000000 -0.042290 
#    y 0.000000 1.763470 0.000000 
#    z -0.042290 0.000000 1.728250 
# 
# From -- ./inp_files/111949.got.cif
#   From: 2010.05.17/outbox.cif.g08.bks.cpg/sg12_56_cif.got.tgz:111949.got - 2010.06.03 13:09:07.
