data_PCOD9180747
_publ_section_title
;
Structure prediction by ZEFSAII (Michael W. Deem and Ramdas Pophale) SiO2 
 PCOD9180747
Probable space group: C 2/M
;
_chemical_formula_sum "Si O2"
_cell_formula_units_Z 56
_cell_length_a 26.191807
_cell_length_b 13.520438
_cell_length_c 14.708755
_cell_angle_alpha 90.000000
_cell_angle_beta 140.441756
_cell_angle_gamma 90.000000
_cell_volume 3317.245919
_symmetry_space_group_name_H-M "C 2/M"
_symmetry_group_IT_number 12
_symmetry_cell_setting 'monoclinic'
loop_
_space_group_symop_operation_xyz
x,y,z
-x,y,-z
-x,-y,-z
x,-y,z
1/2+x,1/2+y,z
1/2-x,1/2+y,-z
1/2-x,1/2-y,-z
1/2+x,1/2-y,z
loop_
_atom_site_type_symbol
_atom_site_label
_atom_site_fract_x
_atom_site_fract_y
_atom_site_fract_z
Si Si1 0.931910 0.615354 0.033544
Si Si2 0.604566 0.882310 0.328761
Si Si3 0.130753 0.232430 0.526502
Si Si4 0.978285 0.888198 0.362872
Si Si5 0.308441 0.113187 0.021896
Si Si6 0.838053 0.748383 0.222610
Si Si7 0.294396 0.882124 0.708578
O O1 0.941492 0.500000 0.020299
O O2 0.888366 0.620284 0.071230
O O3 0.021709 0.654053 0.167572
O O4 0.867488 0.655277 0.873001
O O5 0.619458 0.820594 0.439869
O O6 0.675633 0.870525 0.353442
O O7 0.595647 0.000000 0.335178
O O8 0.135112 0.268082 0.637312
O O9 0.212547 0.174166 0.616916
O O10 0.054799 0.158504 0.418132
O O11 0.903447 0.814153 0.258243
O O12 0.000000 0.893872 0.500000
O O13 0.960190 0.000000 0.307340
O O14 0.323772 0.150232 0.144795
O O15 0.280423 0.000000 0.979077
O O16 0.242325 0.185827 0.888788
O O17 0.283414 0.000000 0.712156
#
# Coordination Sequence:
#
# PCOD9180747 Si02
#       7
#     8   8   8   8   8   8   8
#     4   9  17  32  53  74  98 128 166 211 257 297
#     4  10  21  34  50  75 106 137 169 210 258 308
#     4  11  20  33  51  76 105 135 169 210 256 306
#     4   9  18  31  49  72 100 129 162 204 249 295
#     4  10  19  32  51  74 101 131 170 212 252 302
#     4  10  20  32  49  74 102 136 170 205 252 307
#     4  10  19  33  54  77  99 130 174 218 259 296
#
# _framework density 16.881474000000001
#
# number of rings (size 3 to 8) (size 9 to 14) (size 15 to 20)
#    0.000    2.143    1.429    2.571    0.000    3.429 
#    0.000    0.000    0.000    5.143    0.000    0.000 
#    0.000    6.857    0.000    0.000    0.000    0.000 
#
# Total GULP energy -156094.529671 kJ/mol
# GULP energy per Si atom -5574.804631 kJ/mol
# Density = 1.684305 g / cm^3
# Si number density = 16.881474 Si / 1000 Ang^3
#
#
#
# Elastic Constant Matrix: (Units=GPa)
#
#
# Indices 1 2 3 4 5 6 
#
# 1 85.3567 32.2911 34.8797 0.0000 5.0028 0.0000
# 2 32.2911 42.4445 12.5671 0.0000 -10.3735 0.0000
# 3 34.8797 12.5671 51.6879 0.0000 4.8334 0.0000
# 4 0.0000 0.0000 0.0000 19.6647 0.0000 1.3818
# 5 5.0028 -10.3735 4.8334 0.0000 26.0840 0.0000
# 6 0.0000 0.0000 0.0000 1.3818 0.0000 20.1071
#
#
#
# Elastic Compliance Matrix: (Units=1/GPa)
#
#
# Indices 1 2 3 4 5 6 
#
# 1 0.022724 -0.016349 -0.010526 0.000000 -0.008910 0.000000
# 2 -0.016349 0.041015 -0.000771 0.000000 0.019590 0.000000
# 3 -0.010526 -0.000771 0.026945 0.000000 -0.003281 0.000000
# 4 0.000000 0.000000 0.000000 0.051099 0.000000 -0.003512
# 5 -0.008910 0.019590 -0.003281 0.000000 0.048445 0.000000
# 6 0.000000 0.000000 0.000000 -0.003512 0.000000 0.049975
#
#
# Mechanical properties :
#
#
# Convention : Reuss Voigt Hill
#
# Bulk Modulus (GPa) = 28.25688 37.66279 32.95983
# Shear Modulus (GPa) = 16.27111 19.82124 18.04618
#
# Velocity S-wave (km/s) = 3.10795 3.43029 3.27309
# Velocity P-wave (km/s) = 5.44554 6.16829 5.81815
#
# Compressibility (1/GPa) = 0.03538961
#
# Stress axis : x y z
#
# Youngs Moduli (GPa) = 44.00601 24.38158 37.11331
#
# Poissons Ratio (x) = 0.39862 0.39067
# Poissons Ratio (y) = 0.71946 0.02863
# Poissons Ratio (z) = 0.46322 0.01881
#
# Static dielectric constant tensor:
#      x y z
#    x 1.574950 0.000000 0.004090 
#    y 0.000000 1.555810 0.000000 
#    z 0.004090 0.000000 1.583700 
# 
# From -- ./inp_files/223714.got.cif
#   From: 2010.05.17/outbox.cif.g08.bks.cpg/sg12_112_cif.got.tgz:223714.got - 2010.06.03 13:09:07.
