data_PCOD9180847
_publ_section_title
;
Structure prediction by ZEFSAII (Michael W. Deem and Ramdas Pophale) SiO2 
 PCOD9180847
Probable space group: C 2/M
;
_chemical_formula_sum "Si O2"
_cell_formula_units_Z 56
_cell_length_a 19.836625
_cell_length_b 7.831689
_cell_length_c 28.264407
_cell_angle_alpha 90.000000
_cell_angle_beta 40.625183
_cell_angle_gamma 90.000000
_cell_volume 2859.012420
_symmetry_space_group_name_H-M "C 2/M"
_symmetry_group_IT_number 12
_symmetry_cell_setting 'monoclinic'
loop_
_space_group_symop_operation_xyz
x,y,z
-x,y,-z
-x,-y,-z
x,-y,z
1/2+x,1/2+y,z
1/2-x,1/2+y,-z
1/2-x,1/2-y,-z
1/2+x,1/2-y,z
loop_
_atom_site_type_symbol
_atom_site_label
_atom_site_fract_x
_atom_site_fract_y
_atom_site_fract_z
Si Si1 0.130940 0.296540 0.563822
Si Si2 0.470601 0.207780 0.568826
Si Si3 0.677668 0.797379 0.082098
Si Si4 0.937014 0.796689 0.206024
Si Si5 0.266880 0.210381 0.738178
Si Si6 0.297477 0.807806 0.828384
Si Si7 0.521328 0.695120 0.714880
O O1 0.118286 0.500000 0.575935
O O2 0.250000 0.250000 0.500000
O O3 0.065531 0.245881 0.552666
O O4 0.084292 0.206175 0.634066
O O5 0.500000 0.266573 0.500000
O O6 0.363867 0.262260 0.652654
O O7 0.464120 0.000000 0.569931
O O8 0.557789 0.750821 0.135404
O O9 0.720486 0.726438 0.109937
O O10 0.679294 0.000000 0.087110
O O11 0.750000 0.750000 0.000000
O O12 0.843323 0.730311 0.224085
O O13 0.915051 0.754616 0.272621
O O14 0.932737 0.000000 0.202446
O O15 0.273404 0.269064 0.789588
O O16 0.270949 0.000000 0.737104
O O17 0.421947 0.812552 0.762580
O O18 0.252800 0.000000 0.852123
O O19 0.484856 0.500000 0.741916
#
# Coordination Sequence:
#
# PCOD9180847 Si02
#       7
#     8   8   8   8   8   8   8
#     4  11  22  35  52  73 101 135 177 225 269 315
#     4   9  18  31  52  77 102 136 179 224 264 302
#     4  10  20  35  57  81 110 139 172 212 260 314
#     4   9  19  33  55  82 107 136 176 217 256 308
#     4   9  16  31  54  78 104 136 179 223 258 303
#     4   9  17  33  56  79 101 135 175 214 255 301
#     4  10  19  32  51  76 103 134 172 214 260 312
#
# _framework density 19.587184000000001
#
# number of rings (size 3 to 8) (size 9 to 14) (size 15 to 20)
#    0.000    2.429    1.429    1.286    2.000    1.143 
#    0.000    1.429    0.000    6.000    0.000    0.000 
#    0.000    0.000    0.000    0.000    0.000    0.000 
#
# Total GULP energy -155917.274167 kJ/mol
# GULP energy per Si atom -5568.474077 kJ/mol
# Density = 1.954260 g / cm^3
# Si number density = 19.587184 Si / 1000 Ang^3
#
#
#
# Elastic Constant Matrix: (Units=GPa)
#
#
# Indices 1 2 3 4 5 6 
#
# 1 196.5144 19.5337 92.1922 0.0006 21.9503 -0.0005
# 2 19.5337 25.9964 1.4198 0.0014 1.4639 -0.0078
# 3 92.1922 1.4198 130.7841 -0.0001 31.2012 -0.0002
# 4 0.0006 0.0014 -0.0001 17.3234 0.0002 -3.6300
# 5 21.9503 1.4639 31.2012 0.0002 30.1748 0.0001
# 6 -0.0005 -0.0078 -0.0002 -3.6300 0.0001 17.3875
#
#
#
# Elastic Compliance Matrix: (Units=1/GPa)
#
#
# Indices 1 2 3 4 5 6 
#
# 1 0.008455 -0.006045 -0.005970 0.000000 0.000316 -0.000003
# 2 -0.006045 0.042894 0.004305 0.000001 -0.002135 0.000019
# 3 -0.005970 0.004305 0.014365 0.000000 -0.010720 0.000002
# 4 0.000000 0.000001 0.000000 0.060366 -0.000001 0.012603
# 5 0.000316 -0.002135 -0.010720 -0.000001 0.044099 -0.000001
# 6 -0.000003 0.000019 0.000002 0.012603 -0.000001 0.060143
#
#
# Mechanical properties :
#
#
# Convention : Reuss Voigt Hill
#
# Bulk Modulus (GPa) = 19.88288 64.39848 42.14068
# Shear Modulus (GPa) = 19.04714 28.98709 24.01711
#
# Velocity S-wave (km/s) = 3.12176 3.85112 3.50546
# Velocity P-wave (km/s) = 4.81320 7.26114 6.15999
#
# Compressibility (1/GPa) = 0.05029453
#
# Stress axis : x y z
#
# Youngs Moduli (GPa) = 118.27483 23.31330 69.61335
#
# Poissons Ratio (x) = 0.14092 0.41557
# Poissons Ratio (y) = 0.71494 -0.29966
# Poissons Ratio (z) = 0.70606 -0.10036
#
# Static dielectric constant tensor:
#      x y z
#    x 1.716140 0.000000 0.030570 
#    y 0.000000 1.749360 0.000000 
#    z 0.030570 0.000000 1.733710 
# 
# From -- ./inp_files/280452.got.cif
#   From: 2010.05.17/outbox.cif.g08.bks.cpg/sg12_141_cif.got.tgz:280452.got - 2010.06.03 13:09:07.
