data_PCOD9180868
_publ_section_title
;
Structure prediction by ZEFSAII (Michael W. Deem and Ramdas Pophale) SiO2 
 PCOD9180868
Probable space group: C 2/M
;
_chemical_formula_sum "Si O2"
_cell_formula_units_Z 56
_cell_length_a 17.825736
_cell_length_b 14.221481
_cell_length_c 12.300203
_cell_angle_alpha 90.000000
_cell_angle_beta 107.331493
_cell_angle_gamma 90.000000
_cell_volume 2976.629157
_symmetry_space_group_name_H-M "C 2/M"
_symmetry_group_IT_number 12
_symmetry_cell_setting 'monoclinic'
loop_
_space_group_symop_operation_xyz
x,y,z
-x,y,-z
-x,-y,-z
x,-y,z
1/2+x,1/2+y,z
1/2-x,1/2+y,-z
1/2-x,1/2-y,-z
1/2+x,1/2-y,z
loop_
_atom_site_type_symbol
_atom_site_label
_atom_site_fract_x
_atom_site_fract_y
_atom_site_fract_z
Si Si1 0.632895 0.296654 0.747219
Si Si2 0.568422 0.110524 0.452008
Si Si3 0.786237 0.390069 0.887590
Si Si4 0.603531 0.109425 0.858049
Si Si5 0.669280 0.269312 0.522574
Si Si6 0.473072 0.608641 0.614655
Si Si7 0.069462 0.612405 0.195107
O O1 0.702694 0.338260 0.851100
O O2 0.619747 0.187961 0.774548
O O3 0.667425 0.313879 0.640985
O O4 0.547129 0.346693 0.711293
O O5 0.500000 0.148881 0.500000
O O6 0.641923 0.162999 0.529962
O O7 0.566213 0.131790 0.322907
O O8 0.570668 0.000000 0.463845
O O9 0.771252 0.500000 0.853573
O O10 0.852972 0.350200 0.832266
O O11 0.829071 0.387230 0.022457
O O12 0.519752 0.135104 0.878437
O O13 0.596409 0.000000 0.815210
O O14 0.750000 0.250000 0.500000
O O15 0.605539 0.327252 0.422958
O O16 0.500000 0.607774 0.500000
O O17 0.458562 0.500000 0.640847
O O18 0.076029 0.500000 0.182986
#
# Coordination Sequence:
#
# PCOD9180868 Si02
#       7
#     8   8   8   8   8   8   8
#     4  11  21  34  54  75 104 142 177 214 259 315
#     4  10  19  32  51  76 107 138 166 199 249 316
#     4  10  20  34  53  78 103 132 178 229 270 306
#     4  10  20  34  53  77 106 138 174 220 270 316
#     4  11  22  34  51  77 106 135 172 212 254 308
#     4   9  19  36  55  75 102 137 174 212 256 307
#     4   9  17  31  52  76 103 133 166 212 267 312
#
# _framework density 18.813227999999999
#
# number of rings (size 3 to 8) (size 9 to 14) (size 15 to 20)
#    0.000    2.000    0.000    5.143    0.000    4.571 
#    0.000    0.000    0.000    0.429    0.000    0.000 
#    0.000   11.429    0.000    0.000    0.000    0.000 
#
# Total GULP energy -155900.642294 kJ/mol
# GULP energy per Si atom -5567.880082 kJ/mol
# Density = 1.877041 g / cm^3
# Si number density = 18.813228 Si / 1000 Ang^3
#
#
#
# Elastic Constant Matrix: (Units=GPa)
#
#
# Indices 1 2 3 4 5 6 
#
# 1 120.6099 48.1791 22.5828 0.0000 3.9402 0.0000
# 2 48.1791 83.8661 32.1858 0.0000 5.8367 0.0000
# 3 22.5828 32.1858 26.6546 0.0000 11.8415 0.0000
# 4 0.0000 0.0000 0.0000 22.0564 0.0000 6.0988
# 5 3.9402 5.8367 11.8415 0.0000 25.7175 0.0000
# 6 0.0000 0.0000 0.0000 6.0988 0.0000 -0.0305
#
#
#
# Elastic Compliance Matrix: (Units=1/GPa)
#
#
# Indices 1 2 3 4 5 6 
#
# 1 0.010927 -0.004842 -0.003967 0.000000 0.001251 0.000000
# 2 -0.004842 0.026242 -0.031766 0.000000 0.009413 0.000000
# 3 -0.003967 -0.031766 0.095247 0.000000 -0.036039 0.000000
# 4 0.000000 0.000000 0.000000 0.000806 0.000000 0.161053
# 5 0.001251 0.009413 -0.036039 0.000000 0.053150 0.000000
# 6 0.000000 0.000000 0.000000 0.161053 0.000000 -0.582453
#
#
# Mechanical properties :
#
#
# Convention : Reuss Voigt Hill
#
# Bulk Modulus (GPa) = 19.50662 48.55843 34.03253
# Shear Modulus (GPa) = -16.78741 18.09421 0.65340
#
# Velocity S-wave (km/s) = -2.99041 3.10462 0.58997
# Velocity P-wave (km/s) = 1.23788 6.22241 4.31196
#
# Compressibility (1/GPa) = 0.05126464
#
# Stress axis : x y z
#
# Youngs Moduli (GPa) = 91.51358 38.10752 10.49904
#
# Poissons Ratio (x) = 0.18452 0.04165
# Poissons Ratio (y) = 0.44312 0.33352
# Poissons Ratio (z) = 0.36304 1.21054
#
# Static dielectric constant tensor:
#      x y z
#    x 1.621630 0.000000 0.041290 
#    y 0.000000 1.671330 0.000000 
#    z 0.041290 0.000000 1.686220 
# 
# From -- ./inp_files/156146.got.cif
#   From: 2010.05.17/outbox.cif.g08.bks.cpg/sg12_79_cif.got.tgz:156146.got - 2010.06.03 13:09:07.
