data_PCOD9180057
_publ_section_title
;
Structure prediction by ZEFSAII (Michael W. Deem and Ramdas Pophale) SiO2 
 PCOD9180057
Probable space group: C 2/M
;
_chemical_formula_sum "Si O2"
_cell_formula_units_Z 48
_cell_length_a 14.304049
_cell_length_b 19.184686
_cell_length_c 25.308841
_cell_angle_alpha 90.000000
_cell_angle_beta 159.297405
_cell_angle_gamma 90.000000
_cell_volume 2455.254435
_symmetry_space_group_name_H-M "C 2/M"
_symmetry_group_IT_number 12
_symmetry_cell_setting 'monoclinic'
loop_
_space_group_symop_operation_xyz
x,y,z
-x,y,-z
-x,-y,-z
x,-y,z
1/2+x,1/2+y,z
1/2-x,1/2+y,-z
1/2-x,1/2-y,-z
1/2+x,1/2-y,z
loop_
_atom_site_type_symbol
_atom_site_label
_atom_site_fract_x
_atom_site_fract_y
_atom_site_fract_z
Si Si1 0.156231 0.774948 0.249296
Si Si2 0.266076 0.869495 0.664093
Si Si3 0.448049 0.221895 0.032218
Si Si4 0.812201 0.922646 0.756821
Si Si5 0.793812 0.580713 0.176086
Si Si6 0.947603 0.423013 0.080913
O O1 0.298935 0.708239 0.349060
O O2 0.268251 0.852434 0.316437
O O3 0.113573 0.763522 0.163786
O O4 0.859944 0.769627 0.116296
O O5 0.489278 0.871559 0.736977
O O6 0.391716 0.908980 0.780513
O O7 0.000000 0.901448 0.500000
O O8 0.509832 0.140249 0.074688
O O9 0.500000 0.241942 0.000000
O O10 0.708257 0.917454 0.761724
O O11 0.741845 0.000000 0.698846
O O12 0.134064 0.919509 0.928669
O O13 0.848358 0.500000 0.188908
O O14 0.500000 0.596862 0.000000
O O15 0.004791 0.500000 0.090349
#
# Coordination Sequence:
#
# PCOD9180057 Si02
#       6
#     8   8   8   8   8   8
#     4   9  20  33  49  78 108 141 183 225 270 325
#     4  11  22  34  50  79 115 151 176 215 279 330
#     4   9  18  30  51  79 105 140 178 224 279 318
#     4   9  17  32  55  79 101 130 180 238 275 307
#     4  10  19  31  53  82 106 136 180 226 271 317
#     4   9  17  32  51  77 111 139 177 223 264 325
#
# _framework density 19.549909
#
# number of rings (size 3 to 8) (size 9 to 14) (size 15 to 20)
#    0.000    2.500    1.667    1.500    2.333    1.667 
#    0.000    0.833    0.000    0.500    0.000    0.000 
#    0.000    0.000    0.000    0.000    0.000    0.000 
#
# Total GULP energy -133864.219968 kJ/mol
# GULP energy per Si atom -5577.675832 kJ/mol
# Density = 1.950541 g / cm^3
# Si number density = 19.549909 Si / 1000 Ang^3
#
#
#
# Elastic Constant Matrix: (Units=GPa)
#
#
# Indices 1 2 3 4 5 6 
#
# 1 76.7412 18.7931 7.7532 -0.0007 1.1793 0.0042
# 2 18.7931 120.6726 -8.2856 0.0080 -0.5440 0.0009
# 3 7.7532 -8.2856 22.1122 0.0337 0.9753 0.0160
# 4 -0.0007 0.0080 0.0337 7.2995 0.0055 1.0982
# 5 1.1793 -0.5440 0.9753 0.0055 10.1677 -0.0033
# 6 0.0042 0.0009 0.0160 1.0982 -0.0033 12.8091
#
#
#
# Elastic Compliance Matrix: (Units=1/GPa)
#
#
# Indices 1 2 3 4 5 6 
#
# 1 0.014297 -0.002641 -0.005948 0.000033 -0.001229 0.000000
# 2 -0.002641 0.008994 0.004279 -0.000030 0.000377 -0.000002
# 3 -0.005948 0.004279 0.049081 -0.000223 -0.003789 -0.000041
# 4 0.000033 -0.000030 -0.000223 0.138787 -0.000063 -0.011899
# 5 -0.001229 0.000377 -0.003789 -0.000063 0.098877 0.000036
# 6 0.000000 -0.000002 -0.000041 -0.011899 0.000036 0.079090
#
#
# Mechanical properties :
#
#
# Convention : Reuss Voigt Hill
#
# Bulk Modulus (GPa) = 15.68574 28.44972 22.06773
# Shear Modulus (GPa) = 11.93331 19.47296 15.70313
#
# Velocity S-wave (km/s) = 2.47331 3.15947 2.83721
# Velocity P-wave (km/s) = 4.02458 5.28144 4.69526
#
# Compressibility (1/GPa) = 0.06375217
#
# Stress axis : x y z
#
# Youngs Moduli (GPa) = 69.94331 111.18973 20.37468
#
# Poissons Ratio (x) = 0.29360 0.12120
# Poissons Ratio (y) = 0.18469 -0.08719
# Poissons Ratio (z) = 0.41605 -0.47581
#
# Static dielectric constant tensor:
#      x y z
#    x 1.659620 0.000000 -0.004150 
#    y 0.000000 1.767790 -0.000010 
#    z -0.004150 -0.000010 1.649900 
# 
# From -- ./inp_files/77276.got.cif
#   From: 2010.05.17/outbox.cif.g08.bks.cpg/sg12_39_cif.got.tgz:77276.got - 2010.06.03 13:09:07.
