data_PCOD9180452
_publ_section_title
;
Structure prediction by ZEFSAII (Michael W. Deem and Ramdas Pophale) SiO2 
 PCOD9180452
Probable space group: C 2/M
;
_chemical_formula_sum "Si O2"
_cell_formula_units_Z 56
_cell_length_a 9.941781
_cell_length_b 22.652037
_cell_length_c 20.030297
_cell_angle_alpha 90.000000
_cell_angle_beta 138.115799
_cell_angle_gamma 90.000000
_cell_volume 3011.569736
_symmetry_space_group_name_H-M "C 2/M"
_symmetry_group_IT_number 12
_symmetry_cell_setting 'monoclinic'
loop_
_space_group_symop_operation_xyz
x,y,z
-x,y,-z
-x,-y,-z
x,-y,z
1/2+x,1/2+y,z
1/2-x,1/2+y,-z
1/2-x,1/2-y,-z
1/2+x,1/2-y,z
loop_
_atom_site_type_symbol
_atom_site_label
_atom_site_fract_x
_atom_site_fract_y
_atom_site_fract_z
Si Si1 0.638947 0.120478 0.785453
Si Si2 0.282581 0.620481 0.214542
Si Si3 0.828703 0.117632 0.385802
Si Si4 0.833286 0.739889 0.388858
Si Si5 0.342700 0.929706 0.061800
Si Si6 0.493368 0.571303 0.828913
Si Si7 0.886308 0.749999 0.257537
O O1 0.405051 0.103895 0.683856
O O2 0.696172 0.092325 0.877522
O O3 0.650557 0.191680 0.799152
O O4 0.788466 0.097614 0.783698
O O5 0.353473 0.603896 0.316139
O O6 0.437364 0.597614 0.216298
O O7 0.253106 0.691683 0.200846
O O8 0.063598 0.592330 0.122473
O O9 0.842099 0.188830 0.394733
O O10 0.000000 0.094204 0.500000
O O11 0.874475 0.724981 0.327979
O O12 0.609464 0.724981 0.327980
O O13 0.000000 0.715075 0.500000
O O14 0.345535 0.000000 0.063684
O O15 0.169622 0.911450 0.946418
O O16 0.481359 0.500000 0.820907
#
# Coordination Sequence:
#
# PCOD9180452 Si02
#       7
#     8   8   8   8   8   8   8
#     4  10  20  35  56  82 112 141 174 221 272 318
#     4  10  20  35  56  82 112 141 174 221 272 318
#     4   8  17  34  55  78 107 148 186 211 248 316
#     4   9  16  28  48  74 105 142 182 216 250 299
#     4  10  21  39  60  77  98 139 193 231 258 309
#     4  11  22  37  58  82 104 133 182 237 276 305
#     4  10  19  32  49  78 114 140 166 212 270 328
#
# _framework density 18.594954999999999
#
# number of rings (size 3 to 8) (size 9 to 14) (size 15 to 20)
#    0.000    2.286    0.000    3.857    0.000    3.429 
#    0.000    5.000    0.000   16.286    0.000    0.000 
#    0.000    0.000    0.000    0.000    0.000    0.000 
#
# Total GULP energy -156127.423426 kJ/mol
# GULP energy per Si atom -5575.979408 kJ/mol
# Density = 1.855263 g / cm^3
# Si number density = 18.594955 Si / 1000 Ang^3
#
#
#
# Elastic Constant Matrix: (Units=GPa)
#
#
# Indices 1 2 3 4 5 6 
#
# 1 148.6582 27.8615 58.3888 0.0000 0.9160 0.0000
# 2 27.8615 51.9293 35.4771 0.0000 -0.0879 0.0000
# 3 58.3888 35.4771 113.3988 0.0000 -0.4718 0.0000
# 4 0.0000 0.0000 0.0000 12.1026 0.0000 0.2646
# 5 0.9160 -0.0879 -0.4718 0.0000 7.9462 0.0000
# 6 0.0000 0.0000 0.0000 0.2646 0.0000 33.6577
#
#
#
# Elastic Compliance Matrix: (Units=1/GPa)
#
#
# Indices 1 2 3 4 5 6 
#
# 1 0.008608 -0.002021 -0.003805 0.000000 -0.001241 0.000000
# 2 -0.002021 0.024966 -0.006770 0.000000 0.000107 0.000000
# 3 -0.003805 -0.006770 0.012900 0.000000 0.001130 0.000000
# 4 0.000000 0.000000 0.000000 0.082641 0.000000 -0.000650
# 5 -0.001241 0.000107 0.001130 0.000000 0.126057 0.000000
# 6 0.000000 0.000000 0.000000 -0.000650 0.000000 0.029716
#
#
# Mechanical properties :
#
#
# Convention : Reuss Voigt Hill
#
# Bulk Modulus (GPa) = 46.98587 61.93788 54.46187
# Shear Modulus (GPa) = 15.76419 23.55857 19.66138
#
# Velocity S-wave (km/s) = 2.91480 3.56326 3.25522
# Velocity P-wave (km/s) = 6.05401 7.09298 6.59399
#
# Compressibility (1/GPa) = 0.02128300
#
# Stress axis : x y z
#
# Youngs Moduli (GPa) = 116.17445 40.05390 77.51760
#
# Poissons Ratio (x) = 0.08094 0.29496
# Poissons Ratio (y) = 0.23477 0.52478
# Poissons Ratio (z) = 0.44205 0.27116
#
# Static dielectric constant tensor:
#      x y z
#    x 1.667360 0.000000 0.000420 
#    y 0.000000 1.633210 0.000000 
#    z 0.000420 0.000000 1.633260 
# 
# From -- ./inp_files/198377.got.cif
#   From: 2010.05.17/outbox.cif.g08.bks.cpg/sg12_100_cif.got.tgz:198377.got - 2010.06.03 13:09:07.
