data_PCOD9180612
_publ_section_title
;
Structure prediction by ZEFSAII (Michael W. Deem and Ramdas Pophale) SiO2 
 PCOD9180612
Probable space group: C 2/M
;
_chemical_formula_sum "Si O2"
_cell_formula_units_Z 56
_cell_length_a 18.548159
_cell_length_b 29.413047
_cell_length_c 9.752694
_cell_angle_alpha 90.000000
_cell_angle_beta 40.544279
_cell_angle_gamma 90.000000
_cell_volume 3458.617263
_symmetry_space_group_name_H-M "C 2/M"
_symmetry_group_IT_number 12
_symmetry_cell_setting 'monoclinic'
loop_
_space_group_symop_operation_xyz
x,y,z
-x,y,-z
-x,-y,-z
x,-y,z
1/2+x,1/2+y,z
1/2-x,1/2+y,-z
1/2-x,1/2-y,-z
1/2+x,1/2-y,z
loop_
_atom_site_type_symbol
_atom_site_label
_atom_site_fract_x
_atom_site_fract_y
_atom_site_fract_z
Si Si1 0.239959 0.309442 0.170381
Si Si2 0.623005 0.276619 0.776766
Si Si3 0.884539 0.600076 0.583621
Si Si4 0.626100 0.283460 0.277221
Si Si5 0.756484 0.687137 0.344753
Si Si6 0.609393 0.000000 0.750733
Si Si7 0.115049 0.399577 0.746518
Si Si8 0.611032 0.000000 0.428214
O O1 0.286233 0.298430 0.253700
O O2 0.189541 0.359430 0.249280
O O3 0.151038 0.270606 0.256402
O O4 0.341256 0.300829 0.919987
O O5 0.653093 0.295126 0.584431
O O6 0.646156 0.222906 0.758558
O O7 0.500000 0.287710 0.000000
O O8 0.902822 0.606749 0.392424
O O9 0.833763 0.549182 0.676006
O O10 0.000000 0.601074 0.500000
O O11 0.500000 0.292858 0.500000
O O12 0.715318 0.307096 0.249535
O O13 0.800073 0.638008 0.322016
O O14 0.662778 0.049233 0.698550
O O15 0.578502 0.000000 0.635120
O O16 0.500000 0.000000 0.000000
O O17 0.000000 0.395895 0.000000
O O18 0.500000 0.000000 0.500000
#
# Coordination Sequence:
#
# PCOD9180612 Si02
#       8
#     8   8   8   8   8   4   8   4
#     4  10  20  34  51  72  98 131 167 197 242 295
#     4  10  19  33  49  69  96 129 162 204 238 280
#     4  10  19  32  51  75 103 131 161 199 245 294
#     4  10  21  35  49  71 100 131 165 203 240 285
#     4  10  20  32  49  72  98 125 166 196 240 294
#     4   8  16  30  48  70 101 128 156 194 247 298
#     4  10  19  32  50  76 103 131 160 200 245 295
#     4   8  16  30  48  72  99 126 158 198 243 294
#
# _framework density 16.191441999999999
#
# number of rings (size 3 to 8) (size 9 to 14) (size 15 to 20)
#    0.000    2.286    1.429    1.714    2.000    0.000 
#    5.143    0.000    0.000    0.000    0.000    6.000 
#    0.000    0.000    0.000    0.000    0.000    0.000 
#
# Total GULP energy -155908.382556 kJ/mol
# GULP energy per Si atom -5568.156520 kJ/mol
# Density = 1.615459 g / cm^3
# Si number density = 16.191442 Si / 1000 Ang^3
#
#
#
# Elastic Constant Matrix: (Units=GPa)
#
#
# Indices 1 2 3 4 5 6 
#
# 1 21.9627 28.7565 2.6304 0.0000 5.2298 0.0000
# 2 28.7565 141.5957 12.1782 0.0000 -4.0741 0.0000
# 3 2.6304 12.1782 38.6396 0.0000 -4.2218 0.0000
# 4 0.0000 0.0000 0.0000 13.0642 0.0000 4.1319
# 5 5.2298 -4.0741 -4.2218 0.0000 21.3647 0.0000
# 6 0.0000 0.0000 0.0000 4.1319 0.0000 17.0830
#
#
#
# Elastic Compliance Matrix: (Units=1/GPa)
#
#
# Indices 1 2 3 4 5 6 
#
# 1 0.069673 -0.014529 -0.002381 0.000000 -0.020296 0.000000
# 2 -0.014529 0.010308 -0.001693 0.000000 0.005188 0.000000
# 3 -0.002381 -0.001693 0.027191 0.000000 0.005633 0.000000
# 4 0.000000 0.000000 0.000000 0.082886 0.000000 -0.020048
# 5 -0.020296 0.005188 0.005633 0.000000 0.053877 0.000000
# 6 0.000000 0.000000 0.000000 -0.020048 0.000000 0.063387
#
#
# Mechanical properties :
#
#
# Convention : Reuss Voigt Hill
#
# Bulk Modulus (GPa) = 14.29271 32.14758 23.22014
# Shear Modulus (GPa) = 13.59248 20.87791 17.23520
#
# Velocity S-wave (km/s) = 2.90053 3.59477 3.26615
# Velocity P-wave (km/s) = 4.47928 6.09325 5.34750
#
# Compressibility (1/GPa) = 0.06996575
#
# Stress axis : x y z
#
# Youngs Moduli (GPa) = 14.35272 97.01295 36.77638
#
# Poissons Ratio (x) = 1.40950 0.08758
# Poissons Ratio (y) = 0.20853 0.06226
# Poissons Ratio (z) = 0.03418 0.16423
#
# Static dielectric constant tensor:
#      x y z
#    x 1.521920 0.000000 0.021200 
#    y 0.000000 1.577620 0.000000 
#    z 0.021200 0.000000 1.534640 
# 
# From -- ./inp_files/80457.got.cif
#   From: 2010.05.17/outbox.cif.g08.bks.cpg/sg12_41_cif.got.tgz:80457.got - 2010.06.03 13:09:07.
