data_PCOD9180952
_publ_section_title
;
Structure prediction by ZEFSAII (Michael W. Deem and Ramdas Pophale) SiO2 
 PCOD9180952
Probable space group: C 2/M
;
_chemical_formula_sum "Si O2"
_cell_formula_units_Z 64
_cell_length_a 19.539249
_cell_length_b 8.846491
_cell_length_c 21.662893
_cell_angle_alpha 90.000000
_cell_angle_beta 64.760416
_cell_angle_gamma 90.000000
_cell_volume 3387.034522
_symmetry_space_group_name_H-M "C 2/M"
_symmetry_group_IT_number 12
_symmetry_cell_setting 'monoclinic'
loop_
_space_group_symop_operation_xyz
x,y,z
-x,y,-z
-x,-y,-z
x,-y,z
1/2+x,1/2+y,z
1/2-x,1/2+y,-z
1/2-x,1/2-y,-z
1/2+x,1/2-y,z
loop_
_atom_site_type_symbol
_atom_site_label
_atom_site_fract_x
_atom_site_fract_y
_atom_site_fract_z
Si Si1 0.207404 0.173111 0.424042
Si Si2 0.434584 0.182110 0.287375
Si Si3 0.867181 0.674520 0.437643
Si Si4 0.308106 0.820027 0.928675
Si Si5 0.774177 0.679319 0.153071
Si Si6 0.283393 0.320214 0.284195
Si Si7 0.535266 0.676209 0.150593
Si Si8 0.932337 0.823713 0.072224
O O1 0.144550 0.229004 0.496467
O O2 0.286853 0.178549 0.431634
O O3 0.220579 0.276503 0.359364
O O4 0.195481 0.000000 0.409934
O O5 0.427045 0.224145 0.362558
O O6 0.361648 0.252515 0.281086
O O7 0.507130 0.244056 0.223711
O O8 0.430345 0.000000 0.284984
O O9 0.881220 0.500000 0.448775
O O10 0.282670 0.762163 0.871249
O O11 0.392245 0.757467 0.906024
O O12 0.306072 0.000000 0.933265
O O13 0.250000 0.750000 0.000000
O O14 0.763081 0.500000 0.156244
O O15 0.767668 0.744124 0.224571
O O16 0.858541 0.721702 0.097172
O O17 0.290348 0.500000 0.274905
O O18 0.552228 0.500000 0.154577
O O19 0.467556 0.684780 0.126982
O O20 0.911694 0.000000 0.067598
O O21 0.000000 0.782405 0.000000
#
# Coordination Sequence:
#
# PCOD9180952 Si02
#       8
#     8   8   8   8   8   8   8   8
#     4   9  16  26  42  68 103 143 185 228 276 330
#     4  10  19  32  51  78 112 148 188 234 281 332
#     4   8  15  26  41  66 103 145 184 224 274 329
#     4  12  26  45  65  85 114 148 190 236 286 342
#     4  12  24  39  60  85 114 147 190 235 285 340
#     4  11  20  32  51  77 111 149 188 232 284 335
#     4  11  22  37  59  86 116 150 189 233 286 340
#     4  10  21  37  58  84 114 145 181 227 281 339
#
# _framework density 18.895583999999999
#
# number of rings (size 3 to 8) (size 9 to 14) (size 15 to 20)
#    0.000    1.625    1.250    6.000    0.000    5.250 
#    0.000    0.000    0.000    0.000    0.000    0.875 
#    0.000    7.000    0.000    0.000    0.000    0.000 
#
# Total GULP energy -178731.687643 kJ/mol
# GULP energy per Si atom -5585.365239 kJ/mol
# Density = 1.885258 g / cm^3
# Si number density = 18.895584 Si / 1000 Ang^3
#
#
#
# Elastic Constant Matrix: (Units=GPa)
#
#
# Indices 1 2 3 4 5 6 
#
# 1 17.2591 8.1150 -12.6016 0.0000 1.4948 0.0000
# 2 8.1150 110.2109 24.5612 0.0000 -4.9252 0.0001
# 3 -12.6016 24.5612 101.1180 0.0000 -9.7430 0.0000
# 4 0.0000 0.0000 0.0000 34.8759 0.0000 -1.6616
# 5 1.4948 -4.9252 -9.7430 0.0000 17.4559 0.0000
# 6 0.0000 0.0001 0.0000 -1.6616 0.0000 20.4263
#
#
#
# Elastic Compliance Matrix: (Units=1/GPa)
#
#
# Indices 1 2 3 4 5 6 
#
# 1 0.069100 -0.007465 0.010200 0.000000 -0.002330 0.000000
# 2 -0.007465 0.010436 -0.003297 0.000000 0.001743 0.000000
# 3 0.010200 -0.003297 0.012458 0.000000 0.005149 0.000000
# 4 0.000000 0.000000 0.000000 0.028785 0.000000 0.002341
# 5 -0.002330 0.001743 0.005149 0.000000 0.060853 0.000000
# 6 0.000000 0.000000 0.000000 0.002341 0.000000 0.049147
#
#
# Mechanical properties :
#
#
# Convention : Reuss Voigt Hill
#
# Bulk Modulus (GPa) = 11.00489 29.85970 20.43230
# Shear Modulus (GPa) = 19.07000 28.45252 23.76126
#
# Velocity S-wave (km/s) = 3.18029 3.88464 3.54998
# Velocity P-wave (km/s) = 4.39572 5.99645 5.25736
#
# Compressibility (1/GPa) = 0.09086868
#
# Stress axis : x y z
#
# Youngs Moduli (GPa) = 14.47183 95.82300 80.27202
#
# Poissons Ratio (x) = 0.71534 -0.81878
# Poissons Ratio (y) = 0.10804 0.26467
# Poissons Ratio (z) = -0.14761 0.31595
#
# Static dielectric constant tensor:
#      x y z
#    x 1.650830 0.000000 -0.003710 
#    y 0.000000 1.630200 0.000000 
#    z -0.003710 0.000000 1.685620 
# 
# From -- ./inp_files/319773.got.cif
#   From: 2010.05.17/outbox.cif.g08.bks.cpg/sg12_160_cif.got.tgz:319773.got - 2010.06.03 13:09:07.
