data_PCOD9180102
_publ_section_title
;
Structure prediction by ZEFSAII (Michael W. Deem and Ramdas Pophale) SiO2 
 PCOD9180102
Probable space group: C 2/M
;
_chemical_formula_sum "Si O2"
_cell_formula_units_Z 56
_cell_length_a 21.127268
_cell_length_b 8.483632
_cell_length_c 22.945322
_cell_angle_alpha 90.000000
_cell_angle_beta 48.485198
_cell_angle_gamma 90.000000
_cell_volume 3079.471382
_symmetry_space_group_name_H-M "C 2/M"
_symmetry_group_IT_number 12
_symmetry_cell_setting 'monoclinic'
loop_
_space_group_symop_operation_xyz
x,y,z
-x,y,-z
-x,-y,-z
x,-y,z
1/2+x,1/2+y,z
1/2-x,1/2+y,-z
1/2-x,1/2-y,-z
1/2+x,1/2-y,z
loop_
_atom_site_type_symbol
_atom_site_label
_atom_site_fract_x
_atom_site_fract_y
_atom_site_fract_z
Si Si1 0.383521 0.309338 0.421073
Si Si2 0.680598 0.811061 0.996508
Si Si3 0.252862 0.811177 0.404665
Si Si4 0.249483 0.190731 0.171508
Si Si5 0.482852 0.309390 0.840681
Si Si6 0.059009 0.807904 0.266281
Si Si7 0.172178 0.188482 0.757318
O O1 0.382137 0.500000 0.419629
O O2 0.328602 0.248824 0.399999
O O3 0.333319 0.260580 0.509855
O O4 0.480089 0.257337 0.354204
O O5 0.589293 0.751562 0.072299
O O6 0.682264 0.000000 0.996658
O O7 0.750000 0.750000 0.000000
O O8 0.706283 0.759138 0.915828
O O9 0.267504 0.746483 0.331484
O O10 0.254697 0.000000 0.401965
O O11 0.151649 0.244363 0.229251
O O12 0.296561 0.251672 0.199626
O O13 0.249761 0.000000 0.172566
O O14 0.481577 0.500000 0.842055
O O15 0.460002 0.259259 0.788696
O O16 0.576698 0.256396 0.800981
O O17 0.060060 0.000000 0.265760
O O18 0.171301 0.000000 0.757548
#
# Coordination Sequence:
#
# PCOD9180102 Si02
#       7
#     8   8   8   8   8   8   8
#     4   9  17  32  56  84 112 146 188 230 275 329
#     4  11  22  37  59  87 116 146 184 233 281 329
#     4  10  19  31  53  85 116 145 183 232 281 330
#     4  10  22  39  58  80 111 147 183 229 280 332
#     4  10  20  37  60  82 109 147 191 231 273 329
#     4   9  16  34  59  81 108 145 187 228 271 326
#     4  11  23  39  58  80 113 153 187 228 281 338
#
# _framework density 18.184939
#
# number of rings (size 3 to 8) (size 9 to 14) (size 15 to 20)
#    0.000    2.000    2.857    1.286    0.000    3.429 
#    0.000    4.286    0.000    4.286    0.000    0.000 
#    0.000    0.000    0.000    0.000    0.000    0.000 
#
# Total GULP energy -156288.192901 kJ/mol
# GULP energy per Si atom -5581.721175 kJ/mol
# Density = 1.814355 g / cm^3
# Si number density = 18.184939 Si / 1000 Ang^3
#
#
#
# Elastic Constant Matrix: (Units=GPa)
#
#
# Indices 1 2 3 4 5 6 
#
# 1 109.4899 17.2322 64.0837 0.0000 5.1334 0.0001
# 2 17.2322 12.4154 22.1012 0.0001 1.1447 0.0000
# 3 64.0837 22.1012 152.3593 0.0000 -0.2756 0.0000
# 4 0.0000 0.0001 0.0000 28.2194 0.0000 1.9651
# 5 5.1334 1.1447 -0.2756 0.0000 32.8867 0.0000
# 6 0.0001 0.0000 0.0000 1.9651 0.0000 28.4550
#
#
#
# Elastic Compliance Matrix: (Units=1/GPa)
#
#
# Indices 1 2 3 4 5 6 
#
# 1 0.013307 -0.011246 -0.003969 0.000000 -0.001719 0.000000
# 2 -0.011246 0.118594 -0.012478 0.000000 -0.002477 0.000000
# 3 -0.003969 -0.012478 0.010045 0.000000 0.001138 0.000000
# 4 0.000000 0.000000 0.000000 0.035608 0.000000 -0.002459
# 5 -0.001719 -0.002477 0.001138 0.000000 0.030772 0.000000
# 6 0.000000 0.000000 0.000000 -0.002459 0.000000 0.035313
#
#
# Mechanical properties :
#
#
# Convention : Reuss Voigt Hill
#
# Bulk Modulus (GPa) = 11.55250 53.45541 32.50395
# Shear Modulus (GPa) = 15.24966 29.30206 22.27586
#
# Velocity S-wave (km/s) = 2.89898 4.01850 3.50374
# Velocity P-wave (km/s) = 4.19190 7.14075 5.85501
#
# Compressibility (1/GPa) = 0.08656135
#
# Stress axis : x y z
#
# Youngs Moduli (GPa) = 75.15044 8.43211 99.55445
#
# Poissons Ratio (x) = 0.09483 0.39510
# Poissons Ratio (y) = 0.84513 1.24220
# Poissons Ratio (z) = 0.29825 0.10521
#
# Static dielectric constant tensor:
#      x y z
#    x 1.591640 0.000000 -0.016400 
#    y 0.000000 1.625620 0.000000 
#    z -0.016400 0.000000 1.634960 
# 
# From -- ./inp_files/345469.got.cif
#   From: 2010.05.17/outbox.cif.g08.bks.cpg/sg12_173_cif.got.tgz:345469.got - 2010.06.03 13:09:07.
