data_PCOD9180224
_publ_section_title
;
Structure prediction by ZEFSAII (Michael W. Deem and Ramdas Pophale) SiO2 
 PCOD9180224
Probable space group: C 2/M
;
_chemical_formula_sum "Si O2"
_cell_formula_units_Z 48
_cell_length_a 29.864492
_cell_length_b 17.727523
_cell_length_c 8.405982
_cell_angle_alpha 90.000000
_cell_angle_beta 150.858988
_cell_angle_gamma 90.000000
_cell_volume 2167.132950
_symmetry_space_group_name_H-M "C 2/M"
_symmetry_group_IT_number 12
_symmetry_cell_setting 'monoclinic'
loop_
_space_group_symop_operation_xyz
x,y,z
-x,y,-z
-x,-y,-z
x,-y,z
1/2+x,1/2+y,z
1/2-x,1/2+y,-z
1/2-x,1/2-y,-z
1/2+x,1/2-y,z
loop_
_atom_site_type_symbol
_atom_site_label
_atom_site_fract_x
_atom_site_fract_y
_atom_site_fract_z
Si Si1 0.768991 0.114766 0.806497
Si Si2 0.612275 0.412215 0.501939
Si Si3 0.061526 0.135953 0.853123
Si Si4 0.424851 0.082766 0.879271
Si Si5 0.407987 0.192122 0.114731
Si Si6 0.766139 0.218656 0.228911
O O1 0.672113 0.074955 0.508591
O O2 0.734254 0.201697 0.680319
O O3 0.826239 0.098698 0.145333
O O4 0.841174 0.097433 0.888721
O O5 0.621522 0.500000 0.478646
O O6 0.506248 0.396075 0.222983
O O7 0.653049 0.343569 0.521259
O O8 0.086159 0.224344 0.945536
O O9 0.000000 0.130741 0.500000
O O10 0.461803 0.000000 0.035518
O O11 0.500000 0.121400 0.000000
O O12 0.406406 0.129548 0.977621
O O13 0.500000 0.185592 0.500000
O O14 0.324251 0.182041 0.976581
O O15 0.750000 0.250000 0.000000
#
# Coordination Sequence:
#
# PCOD9180224 Si02
#       6
#     8   8   8   8   8   8
#     4   9  19  37  58  79 119 161 201 248 296 360
#     4  10  19  31  57  93 122 152 191 247 313 365
#     4   8  17  33  57  89 111 144 201 240 291 364
#     4  11  26  40  56  88 122 161 209 256 311 361
#     4  10  21  39  63  85 116 160 207 255 299 356
#     4   9  19  34  60  90 117 154 205 244 295 366
#
# _framework density 22.149080999999999
#
# number of rings (size 3 to 8) (size 9 to 14) (size 15 to 20)
#    0.000    2.500    0.000    3.500    7.000    7.333 
#    0.000    0.000    0.000    0.000    0.000    3.500 
#    0.000    0.000    0.000    0.000    0.000    0.000 
#
# Total GULP energy -133816.883705 kJ/mol
# GULP energy per Si atom -5575.703488 kJ/mol
# Density = 2.209867 g / cm^3
# Si number density = 22.149081 Si / 1000 Ang^3
#
#
#
# Elastic Constant Matrix: (Units=GPa)
#
#
# Indices 1 2 3 4 5 6 
#
# 1 128.7116 44.9293 37.4641 0.0000 43.3419 0.0000
# 2 44.9293 83.4791 31.2153 0.0000 25.2885 0.0000
# 3 37.4641 31.2153 62.1443 0.0000 25.4001 0.0000
# 4 0.0000 0.0000 0.0000 21.9794 0.0000 14.4915
# 5 43.3419 25.2885 25.4001 0.0000 38.7128 0.0000
# 6 0.0000 0.0000 0.0000 14.4915 0.0000 47.0679
#
#
#
# Elastic Compliance Matrix: (Units=1/GPa)
#
#
# Indices 1 2 3 4 5 6 
#
# 1 0.013267 -0.002923 -0.001694 0.000000 -0.011833 0.000000
# 2 -0.002923 0.016706 -0.004791 0.000000 -0.004497 0.000000
# 3 -0.001694 -0.004791 0.023865 0.000000 -0.010632 0.000000
# 4 0.000000 0.000000 0.000000 0.057085 0.000000 -0.017576
# 5 -0.011833 -0.004497 -0.010632 0.000000 0.048993 0.000000
# 6 0.000000 0.000000 0.000000 -0.017576 0.000000 0.026657
#
#
# Mechanical properties :
#
#
# Convention : Reuss Voigt Hill
#
# Bulk Modulus (GPa) = 28.55274 55.72805 42.14039
# Shear Modulus (GPa) = 23.03476 32.26709 27.65092
#
# Velocity S-wave (km/s) = 3.22838 3.82096 3.53710
# Velocity P-wave (km/s) = 5.17839 6.68442 5.97901
#
# Compressibility (1/GPa) = 0.03502291
#
# Stress axis : x y z
#
# Youngs Moduli (GPa) = 75.37424 59.85881 41.90227
#
# Poissons Ratio (x) = 0.17494 0.07097
# Poissons Ratio (y) = 0.22029 0.20077
# Poissons Ratio (z) = 0.12765 0.28681
#
# Static dielectric constant tensor:
#      x y z
#    x 1.809210 0.000000 -0.004540 
#    y 0.000000 1.859770 0.000000 
#    z -0.004540 0.000000 1.837910 
# 
# From -- ./inp_files/112945.got.cif
#   From: 2010.05.17/outbox.cif.g08.bks.cpg/sg12_57_cif.got.tgz:112945.got - 2010.06.03 13:09:07.
