data_PCOD9180432
_publ_section_title
;
Structure prediction by ZEFSAII (Michael W. Deem and Ramdas Pophale) SiO2 
 PCOD9180432
Probable space group: C 2/M
;
_chemical_formula_sum "Si O2"
_cell_formula_units_Z 56
_cell_length_a 19.060506
_cell_length_b 21.132063
_cell_length_c 12.927213
_cell_angle_alpha 90.000000
_cell_angle_beta 42.988554
_cell_angle_gamma 90.000000
_cell_volume 3550.352717
_symmetry_space_group_name_H-M "C 2/M"
_symmetry_group_IT_number 12
_symmetry_cell_setting 'monoclinic'
loop_
_space_group_symop_operation_xyz
x,y,z
-x,y,-z
-x,-y,-z
x,-y,z
1/2+x,1/2+y,z
1/2-x,1/2+y,-z
1/2-x,1/2-y,-z
1/2+x,1/2-y,z
loop_
_atom_site_type_symbol
_atom_site_label
_atom_site_fract_x
_atom_site_fract_y
_atom_site_fract_z
Si Si1 0.122416 0.430546 0.887418
Si Si2 0.310054 0.239250 0.676714
Si Si3 0.891394 0.702900 0.177482
Si Si4 0.535488 0.231253 0.673734
Si Si5 0.783015 0.570281 0.988021
Si Si6 0.917435 0.375773 0.670512
Si Si7 0.333439 0.699325 0.866348
O O1 0.163803 0.500000 0.810818
O O2 0.155613 0.367047 0.793061
O O3 0.150014 0.422396 0.978743
O O4 0.000000 0.432819 0.000000
O O5 0.191312 0.247552 0.776357
O O6 0.380471 0.252043 0.501061
O O7 0.341485 0.170693 0.688203
O O8 0.336377 0.287758 0.740428
O O9 0.913431 0.712958 0.273814
O O10 0.000000 0.707076 0.000000
O O11 0.477830 0.171386 0.683551
O O12 0.445252 0.282374 0.788269
O O13 0.736596 0.500000 0.041100
O O14 0.855346 0.577160 0.809848
O O15 0.705073 0.629064 0.069309
O O16 0.000000 0.402481 0.500000
O O17 0.250000 0.750000 0.000000
#
# Coordination Sequence:
#
# PCOD9180432 Si02
#       7
#     8   8   8   8   8   8   8
#     4   9  18  29  44  69 102 133 164 203 252 303
#     4  10  19  32  49  74 106 130 165 214 262 299
#     4  11  19  29  50  77 102 129 168 215 250 305
#     4  10  20  31  50  75 103 134 167 208 266 298
#     4  11  20  31  51  77 103 136 174 212 253 305
#     4   9  18  32  48  70 103 138 162 206 259 309
#     4  11  18  33  54  73 100 135 170 216 249 298
#
# _framework density 15.773080999999999
#
# number of rings (size 3 to 8) (size 9 to 14) (size 15 to 20)
#    0.000    1.857    4.286    4.286    0.000    0.286 
#    0.000    0.000    0.000    3.429    0.000    2.000 
#    0.000    0.000    0.000    0.000    0.000    0.000 
#
# Total GULP energy -156005.860518 kJ/mol
# GULP energy per Si atom -5571.637876 kJ/mol
# Density = 1.573718 g / cm^3
# Si number density = 15.773081 Si / 1000 Ang^3
#
#
#
# Elastic Constant Matrix: (Units=GPa)
#
#
# Indices 1 2 3 4 5 6 
#
# 1 79.1910 31.3218 24.6390 0.0000 11.1752 0.0000
# 2 31.3218 86.7201 42.4150 0.0000 4.7217 0.0000
# 3 24.6390 42.4150 82.1445 0.0000 13.0513 0.0000
# 4 0.0000 0.0000 0.0000 15.8506 0.0000 0.0449
# 5 11.1752 4.7217 13.0513 0.0000 25.8332 0.0000
# 6 0.0000 0.0000 0.0000 0.0449 0.0000 17.3896
#
#
#
# Elastic Compliance Matrix: (Units=1/GPa)
#
#
# Indices 1 2 3 4 5 6 
#
# 1 0.015657 -0.004654 -0.001470 0.000000 -0.005180 0.000000
# 2 -0.004654 0.016852 -0.007759 0.000000 0.002853 0.000000
# 3 -0.001470 -0.007759 0.017717 0.000000 -0.006897 0.000000
# 4 0.000000 0.000000 0.000000 0.063089 0.000000 -0.000163
# 5 -0.005180 0.002853 -0.006897 0.000000 0.043913 0.000000
# 6 0.000000 0.000000 0.000000 -0.000163 0.000000 0.057506
#
#
# Mechanical properties :
#
#
# Convention : Reuss Voigt Hill
#
# Bulk Modulus (GPa) = 44.52467 49.42303 46.97385
# Shear Modulus (GPa) = 20.00112 21.79333 20.89723
#
# Velocity S-wave (km/s) = 3.56484 3.72113 3.64382
# Velocity P-wave (km/s) = 6.72560 7.06146 6.89557
#
# Compressibility (1/GPa) = 0.02245946
#
# Stress axis : x y z
#
# Youngs Moduli (GPa) = 63.87016 59.34125 56.44433
#
# Poissons Ratio (x) = 0.27616 0.08299
# Poissons Ratio (y) = 0.29724 0.43793
# Poissons Ratio (z) = 0.09391 0.46041
#
# Static dielectric constant tensor:
#      x y z
#    x 1.519940 0.000000 0.002160 
#    y 0.000000 1.544580 0.000000 
#    z 0.002160 0.000000 1.541010 
# 
# From -- ./inp_files/159185.got.cif
#   From: 2010.05.17/outbox.cif.g08.bks.cpg/sg12_80_cif.got.tgz:159185.got - 2010.06.03 13:09:07.
