data_PCOD9180323
_publ_section_title
;
Structure prediction by ZEFSAII (Michael W. Deem and Ramdas Pophale) SiO2 
 PCOD9180323
Probable space group: C 2/M
;
_chemical_formula_sum "Si O2"
_cell_formula_units_Z 56
_cell_length_a 9.549046
_cell_length_b 23.449392
_cell_length_c 20.503707
_cell_angle_alpha 90.000000
_cell_angle_beta 39.224784
_cell_angle_gamma 90.000000
_cell_volume 2903.296630
_symmetry_space_group_name_H-M "C 2/M"
_symmetry_group_IT_number 12
_symmetry_cell_setting 'monoclinic'
loop_
_space_group_symop_operation_xyz
x,y,z
-x,y,-z
-x,-y,-z
x,-y,z
1/2+x,1/2+y,z
1/2-x,1/2+y,-z
1/2-x,1/2-y,-z
1/2+x,1/2-y,z
loop_
_atom_site_type_symbol
_atom_site_label
_atom_site_fract_x
_atom_site_fract_y
_atom_site_fract_z
Si Si1 0.789717 0.283449 0.766891
Si Si2 0.672654 0.067504 0.573407
Si Si3 0.244719 0.185661 0.919106
Si Si4 0.345078 0.350061 0.773495
Si Si5 0.630053 0.154838 0.388273
Si Si6 0.168369 0.068356 0.341514
Si Si7 0.778036 0.818238 0.935339
O O1 0.874456 0.311935 0.804069
O O2 0.793150 0.215487 0.772633
O O3 0.899973 0.300044 0.659388
O O4 0.541515 0.308780 0.851027
O O5 0.482144 0.098916 0.602331
O O6 0.693394 0.082684 0.642710
O O7 0.911779 0.079482 0.454311
O O8 0.639693 0.000000 0.582438
O O9 0.209136 0.253195 0.945766
O O10 0.329701 0.162580 0.957578
O O11 0.000000 0.159205 0.000000
O O12 0.612631 0.353165 0.686795
O O13 0.279400 0.394247 0.740904
O O14 0.249149 0.355863 0.881609
O O15 0.500000 0.171524 0.500000
O O16 0.190491 0.000000 0.321958
#
# Coordination Sequence:
#
# PCOD9180323 Si02
#       7
#     8   8   8   8   8   8   8
#     4   9  19  30  43  67 105 134 159 192 237 297
#     4   9  19  35  52  68  89 124 168 209 247 289
#     4   8  13  26  45  65  92 127 159 195 230 275
#     4  10  19  32  48  73  99 129 164 204 242 287
#     4  11  21  33  47  71  98 129 164 203 243 285
#     4   9  18  34  52  69  91 123 164 206 250 295
#     4   8  15  27  46  69  95 123 162 197 233 277
#
# _framework density 19.288419999999999
#
# number of rings (size 3 to 8) (size 9 to 14) (size 15 to 20)
#    0.000    2.857    1.429    0.857    0.000    4.857 
#    2.571    0.000    0.000    0.000    0.000    1.000 
#    0.000   65.143    0.000    1.714    0.000    0.143 
#
# Total GULP energy -155923.204881 kJ/mol
# GULP energy per Si atom -5568.685889 kJ/mol
# Density = 1.924452 g / cm^3
# Si number density = 19.288420 Si / 1000 Ang^3
#
#
#
# Elastic Constant Matrix: (Units=GPa)
#
#
# Indices 1 2 3 4 5 6 
#
# 1 89.2892 26.6676 65.2766 0.0000 33.7656 0.0000
# 2 26.6676 50.8266 45.5232 0.0001 25.4015 0.0000
# 3 65.2766 45.5232 125.4836 0.0001 54.7948 -0.0001
# 4 0.0000 0.0001 0.0001 23.3864 0.0001 11.9949
# 5 33.7656 25.4015 54.7948 0.0001 44.9372 0.0000
# 6 0.0000 0.0000 -0.0001 11.9949 0.0000 28.6269
#
#
#
# Elastic Compliance Matrix: (Units=1/GPa)
#
#
# Indices 1 2 3 4 5 6 
#
# 1 0.018540 -0.000905 -0.007393 0.000000 -0.004405 0.000000
# 2 -0.000905 0.030477 -0.007186 0.000000 -0.007785 0.000000
# 3 -0.007393 -0.007186 0.021864 0.000000 -0.017044 0.000000
# 4 0.000000 0.000000 0.000000 0.054465 0.000000 -0.022821
# 5 -0.004405 -0.007785 -0.017044 0.000000 0.050746 0.000000
# 6 0.000000 0.000000 0.000000 -0.022821 0.000000 0.044494
#
#
# Mechanical properties :
#
#
# Convention : Reuss Voigt Hill
#
# Bulk Modulus (GPa) = 25.05426 60.05937 42.55681
# Shear Modulus (GPa) = 18.87798 27.93222 23.40510
#
# Velocity S-wave (km/s) = 3.13185 3.80956 3.48721
# Velocity P-wave (km/s) = 5.10837 7.11024 6.19076
#
# Compressibility (1/GPa) = 0.03991338
#
# Stress axis : x y z
#
# Youngs Moduli (GPa) = 53.93651 32.81217 45.73635
#
# Poissons Ratio (x) = 0.02968 0.33813
# Poissons Ratio (y) = 0.04879 0.32868
# Poissons Ratio (z) = 0.39875 0.23580
#
# Static dielectric constant tensor:
#      x y z
#    x 1.792460 0.000000 -0.004070 
#    y 0.000000 1.627890 0.000000 
#    z -0.004070 0.000000 1.758520 
# 
# From -- ./inp_files/307016.got.cif
#   From: 2010.05.17/outbox.cif.g08.bks.cpg/sg12_154_cif.got.tgz:307016.got - 2010.06.03 13:09:07.
