data_PCOD9180210
_publ_section_title
;
Structure prediction by ZEFSAII (Michael W. Deem and Ramdas Pophale) SiO2 
 PCOD9180210
Probable space group: C 2/M
;
_chemical_formula_sum "Si O2"
_cell_formula_units_Z 48
_cell_length_a 16.653616
_cell_length_b 20.680499
_cell_length_c 9.075068
_cell_angle_alpha 90.000000
_cell_angle_beta 135.875017
_cell_angle_gamma 90.000000
_cell_volume 2176.053646
_symmetry_space_group_name_H-M "C 2/M"
_symmetry_group_IT_number 12
_symmetry_cell_setting 'monoclinic'
loop_
_space_group_symop_operation_xyz
x,y,z
-x,y,-z
-x,-y,-z
x,-y,z
1/2+x,1/2+y,z
1/2-x,1/2+y,-z
1/2-x,1/2-y,-z
1/2+x,1/2-y,z
loop_
_atom_site_type_symbol
_atom_site_label
_atom_site_fract_x
_atom_site_fract_y
_atom_site_fract_z
Si Si1 0.105122 0.432239 0.751932
Si Si2 0.750635 0.653316 0.437928
Si Si3 0.762160 0.285332 0.752849
Si Si4 0.355817 0.573179 0.937727
Si Si5 0.071446 0.819894 0.732318
Si Si6 0.015167 0.685033 0.804055
O O1 0.099197 0.500000 0.831779
O O2 0.225582 0.430969 0.827903
O O3 0.092058 0.367744 0.823188
O O4 0.000000 0.432722 0.500000
O O5 0.712390 0.673208 0.551099
O O6 0.740900 0.711990 0.308312
O O7 0.669924 0.598310 0.261941
O O8 0.890114 0.650307 0.639700
O O9 0.690661 0.297884 0.807457
O O10 0.898292 0.299760 0.947690
O O11 0.404478 0.500000 0.007999
O O12 0.414235 0.627455 0.119208
O O13 0.012890 0.753510 0.714597
O O14 0.000000 0.846997 0.500000
#
# Coordination Sequence:
#
# PCOD9180210 Si02
#       6
#     8   8   8   8   8   8
#     4  10  19  31  56  89 122 155 196 243 296 363
#     4  11  23  39  60  94 126 165 201 248 321 371
#     4  11  23  38  59  94 130 155 200 264 311 365
#     4  11  23  41  63  87 124 168 211 255 306 372
#     4  12  23  39  65  93 117 162 217 266 304 355
#     4  12  20  36  64  94 125 161 204 255 305 369
#
# _framework density 22.05828
#
# number of rings (size 3 to 8) (size 9 to 14) (size 15 to 20)
#    0.000    0.833    6.667    2.500    0.000    0.333 
#    0.000    2.500    0.000    3.000    0.000    0.000 
#    0.000    0.000    0.000    0.000    0.000    0.000 
#
# Total GULP energy -133827.076115 kJ/mol
# GULP energy per Si atom -5576.128171 kJ/mol
# Density = 2.200807 g / cm^3
# Si number density = 22.058280 Si / 1000 Ang^3
#
#
#
# Elastic Constant Matrix: (Units=GPa)
#
#
# Indices 1 2 3 4 5 6 
#
# 1 58.8485 6.8166 3.7655 0.0000 3.0553 0.0000
# 2 6.8166 93.4178 24.2395 0.0000 -12.0543 0.0000
# 3 3.7655 24.2395 100.7395 0.0000 3.2047 0.0000
# 4 0.0000 0.0000 0.0000 6.1807 0.0000 9.1324
# 5 3.0553 -12.0543 3.2047 0.0000 20.6025 0.0000
# 6 0.0000 0.0000 0.0000 9.1324 0.0000 12.0960
#
#
#
# Elastic Compliance Matrix: (Units=1/GPa)
#
#
# Indices 1 2 3 4 5 6 
#
# 1 0.017381 -0.001692 -0.000130 0.000000 -0.003548 0.000000
# 2 -0.001692 0.012734 -0.003262 0.000000 0.008209 0.000000
# 3 -0.000130 -0.003262 0.010830 0.000000 -0.003574 0.000000
# 4 0.000000 0.000000 0.000000 -1.400388 0.000000 1.057276
# 5 -0.003548 0.008209 -0.003574 0.000000 0.054423 0.000000
# 6 0.000000 0.000000 0.000000 1.057276 0.000000 -0.715559
#
#
# Mechanical properties :
#
#
# Convention : Reuss Voigt Hill
#
# Bulk Modulus (GPa) = 32.49151 35.84987 34.17069
# Shear Modulus (GPa) = -2.49981 22.32146 9.91083
#
# Velocity S-wave (km/s) = -1.06571 3.18454 2.12197
# Velocity P-wave (km/s) = 3.63971 5.45979 4.63987
#
# Compressibility (1/GPa) = 0.03077727
#
# Stress axis : x y z
#
# Youngs Moduli (GPa) = 57.53309 78.53196 92.33641
#
# Poissons Ratio (x) = 0.13291 0.01197
# Poissons Ratio (y) = 0.09737 0.30118
# Poissons Ratio (z) = 0.00746 0.25615
#
# Static dielectric constant tensor:
#      x y z
#    x 1.731490 0.000000 -0.317850 
#    y 0.000000 1.856850 0.000000 
#    z -0.317850 0.000000 1.230500 
# 
# From -- ./inp_files/89712.got.cif
#   From: 2010.05.17/outbox.cif.g08.bks.cpg/sg12_45_cif.got.tgz:89712.got - 2010.06.03 13:09:07.
