data_PCOD9180355
_publ_section_title
;
Structure prediction by ZEFSAII (Michael W. Deem and Ramdas Pophale) SiO2 
 PCOD9180355
Probable space group: C 2/M
;
_chemical_formula_sum "Si O2"
_cell_formula_units_Z 64
_cell_length_a 24.926454
_cell_length_b 7.738236
_cell_length_c 18.668952
_cell_angle_alpha 90.000000
_cell_angle_beta 119.295104
_cell_angle_gamma 90.000000
_cell_volume 3140.466887
_symmetry_space_group_name_H-M "C 2/M"
_symmetry_group_IT_number 12
_symmetry_cell_setting 'monoclinic'
loop_
_space_group_symop_operation_xyz
x,y,z
-x,y,-z
-x,-y,-z
x,-y,z
1/2+x,1/2+y,z
1/2-x,1/2+y,-z
1/2-x,1/2-y,-z
1/2+x,1/2-y,z
loop_
_atom_site_type_symbol
_atom_site_label
_atom_site_fract_x
_atom_site_fract_y
_atom_site_fract_z
Si Si1 0.047004 0.301264 0.587265
Si Si2 0.524218 0.300522 0.935450
Si Si3 0.488569 0.301925 0.283105
Si Si4 0.084406 0.697289 0.235553
Si Si5 0.642693 0.208292 0.860174
Si Si6 0.823497 0.290247 0.275923
Si Si7 0.836959 0.698320 0.974580
Si Si8 0.688840 0.794904 0.199817
O O1 0.056676 0.500000 0.570357
O O2 0.115350 0.226957 0.643607
O O3 0.000000 0.219834 0.500000
O O4 0.017436 0.300888 0.647074
O O5 0.531496 0.500000 0.914179
O O6 0.472024 0.206092 0.856750
O O7 0.588924 0.205038 0.978185
O O8 0.500000 0.309175 0.000000
O O9 0.479587 0.500000 0.296406
O O10 0.553114 0.280419 0.284733
O O11 0.430075 0.250000 0.195292
O O12 0.099538 0.500000 0.263993
O O13 0.141595 0.775553 0.228490
O O14 0.671923 0.268041 0.804358
O O15 0.674248 0.276878 0.953533
O O16 0.647317 0.000000 0.866051
O O17 0.825143 0.500000 0.275870
O O18 0.759414 0.230734 0.266421
O O19 0.814752 0.500000 0.960368
O O20 0.818014 0.779045 0.885828
O O21 0.674478 0.000000 0.184746
#
# Coordination Sequence:
#
# PCOD9180355 Si02
#       8
#     8   8   8   8   8   8   8   8
#     4   9  19  39  66  90 110 136 168 202 253 325
#     4  11  21  30  44  71 102 132 179 239 285 309
#     4  11  21  32  52  85 115 136 168 220 275 312
#     4  11  21  34  51  71 102 146 189 222 261 316
#     4   9  18  33  52  72 100 142 185 225 269 317
#     4   9  19  35  54  78 106 137 172 214 265 316
#     4  10  19  32  49  68  97 142 192 229 264 314
#     4  10  22  35  49  72 102 146 193 225 261 310
#
# _framework density 20.379137
#
# number of rings (size 3 to 8) (size 9 to 14) (size 15 to 20)
#    0.000    2.000    2.500    2.625    0.000    4.750 
#    0.000    0.000    0.000    0.750    0.000    0.000 
#    0.000    0.000    0.000    0.000    0.000    0.000 
#
# Total GULP energy -178472.524307 kJ/mol
# GULP energy per Si atom -5577.266385 kJ/mol
# Density = 2.033275 g / cm^3
# Si number density = 20.379137 Si / 1000 Ang^3
#
#
#
# Elastic Constant Matrix: (Units=GPa)
#
#
# Indices 1 2 3 4 5 6 
#
# 1 116.8614 -8.4866 46.6718 0.0000 21.6569 0.0000
# 2 -8.4866 44.8748 -7.8048 0.0000 -0.5470 0.0000
# 3 46.6718 -7.8048 74.6277 0.0000 8.7317 0.0000
# 4 0.0000 0.0000 0.0000 24.7050 0.0000 -6.2829
# 5 21.6569 -0.5470 8.7317 0.0000 15.8708 0.0000
# 6 0.0000 0.0000 0.0000 -6.2829 0.0000 22.5458
#
#
#
# Elastic Compliance Matrix: (Units=1/GPa)
#
#
# Indices 1 2 3 4 5 6 
#
# 1 0.014359 0.001305 -0.007007 0.000000 -0.015694 0.000000
# 2 0.001305 0.022820 0.001803 0.000000 -0.001987 0.000000
# 3 -0.007007 0.001803 0.018004 0.000000 -0.000281 0.000000
# 4 0.000000 0.000000 0.000000 0.043565 0.000000 0.012140
# 5 -0.015694 -0.001987 -0.000281 0.000000 0.084510 0.000000
# 6 0.000000 0.000000 0.000000 0.012140 0.000000 0.047737
#
#
# Mechanical properties :
#
#
# Convention : Reuss Voigt Hill
#
# Bulk Modulus (GPa) = 21.10390 33.01385 27.05887
# Shear Modulus (GPa) = 19.63953 26.35653 22.99803
#
# Velocity S-wave (km/s) = 3.10773 3.60016 3.36297
# Velocity P-wave (km/s) = 4.82239 5.78935 5.32785
#
# Compressibility (1/GPa) = 0.04738462
#
# Stress axis : x y z
#
# Youngs Moduli (GPa) = 69.64353 43.82040 55.54466
#
# Poissons Ratio (x) = -0.05721 0.38921
# Poissons Ratio (y) = -0.09092 -0.10013
# Poissons Ratio (z) = 0.48801 -0.07899
#
# Static dielectric constant tensor:
#      x y z
#    x 1.759370 0.000000 -0.028700 
#    y 0.000000 1.756300 0.000000 
#    z -0.028700 0.000000 1.729550 
# 
# From -- ./inp_files/323737.got.cif
#   From: 2010.05.17/outbox.cif.g08.bks.cpg/sg12_162_cif.got.tgz:323737.got - 2010.06.03 13:09:07.
