data_PCOD9180749
_publ_section_title
;
Structure prediction by ZEFSAII (Michael W. Deem and Ramdas Pophale) SiO2 
 PCOD9180749
Probable space group: C 2/M
;
_chemical_formula_sum "Si O2"
_cell_formula_units_Z 56
_cell_length_a 14.649359
_cell_length_b 9.330958
_cell_length_c 20.714472
_cell_angle_alpha 90.000000
_cell_angle_beta 116.024694
_cell_angle_gamma 90.000000
_cell_volume 2544.412785
_symmetry_space_group_name_H-M "C 2/M"
_symmetry_group_IT_number 12
_symmetry_cell_setting 'monoclinic'
loop_
_space_group_symop_operation_xyz
x,y,z
-x,y,-z
-x,-y,-z
x,-y,z
1/2+x,1/2+y,z
1/2-x,1/2+y,-z
1/2-x,1/2-y,-z
1/2+x,1/2-y,z
loop_
_atom_site_type_symbol
_atom_site_label
_atom_site_fract_x
_atom_site_fract_y
_atom_site_fract_z
Si Si1 0.808690 0.838791 0.071976
Si Si2 0.829368 0.837665 0.764835
Si Si3 0.986872 0.835330 0.347046
Si Si4 0.630602 0.839352 0.787421
Si Si5 0.602733 0.835278 0.487557
Si Si6 0.280448 0.335462 0.371828
Si Si7 0.471452 0.337888 0.921556
O O1 0.816753 0.746122 0.138649
O O2 0.922652 0.851453 0.081616
O O3 0.767832 0.000000 0.069152
O O4 0.750000 0.750000 0.000000
O O5 0.717635 0.853717 0.760760
O O6 0.808520 0.741555 0.696098
O O7 0.896946 0.773730 0.844371
O O8 0.867242 0.000000 0.762274
O O9 0.957273 0.755179 0.271952
O O10 0.883308 0.837405 0.358925
O O11 0.069697 0.748087 0.413201
O O12 0.016176 0.000000 0.345984
O O13 0.598186 0.000000 0.796453
O O14 0.500000 0.836637 0.500000
O O15 0.687040 0.752278 0.554930
O O16 0.630641 0.000000 0.484341
O O17 0.255631 0.500000 0.378378
O O18 0.429713 0.500000 0.923175
O O19 0.500000 0.270673 0.000000
#
# Coordination Sequence:
#
# PCOD9180749 Si02
#       7
#     8   8   8   8   8   8   8
#     4  11  22  36  55  77 101 129 162 202 247 295
#     4   9  17  31  51  72  96 130 170 207 244 291
#     4   9  16  26  41  64  96 131 166 205 249 293
#     4  10  19  32  51  74 101 132 166 205 248 295
#     4   9  15  23  37  60  92 130 170 207 245 291
#     4   9  16  25  39  63  96 130 163 204 253 296
#     4   9  18  34  55  76  97 126 165 204 242 289
#
# _framework density 22.009005999999999
#
# number of rings (size 3 to 8) (size 9 to 14) (size 15 to 20)
#    0.000    2.571    0.000    3.000    0.000    8.000 
#    0.000    1.429    0.000    3.000    0.000    1.000 
#    0.000    0.000    0.000    0.000    0.000    0.000 
#
# Total GULP energy -156340.211000 kJ/mol
# GULP energy per Si atom -5583.578964 kJ/mol
# Density = 2.195891 g / cm^3
# Si number density = 22.009006 Si / 1000 Ang^3
#
#
#
# Elastic Constant Matrix: (Units=GPa)
#
#
# Indices 1 2 3 4 5 6 
#
# 1 33.0775 0.9709 -1.8653 0.0000 3.5222 0.0000
# 2 0.9709 203.9936 131.0088 0.0000 -1.1284 0.0000
# 3 -1.8653 131.0088 239.1169 0.0000 10.6673 0.0000
# 4 0.0000 0.0000 0.0000 26.9601 0.0000 -9.6666
# 5 3.5222 -1.1284 10.6673 0.0000 25.1890 0.0000
# 6 0.0000 0.0000 0.0000 -9.6666 0.0000 -15.4885
#
#
#
# Elastic Compliance Matrix: (Units=1/GPa)
#
#
# Indices 1 2 3 4 5 6 
#
# 1 0.030800 -0.000712 0.000840 0.000000 -0.004694 0.000000
# 2 -0.000712 0.007694 -0.004323 0.000000 0.002275 0.000000
# 3 0.000840 -0.004323 0.006697 0.000000 -0.003147 0.000000
# 4 0.000000 0.000000 0.000000 0.030309 0.000000 -0.018917
# 5 -0.004694 0.002275 -0.003147 0.000000 0.041791 0.000000
# 6 0.000000 0.000000 0.000000 -0.018917 0.000000 -0.052758
#
#
# Mechanical properties :
#
#
# Convention : Reuss Voigt Hill
#
# Bulk Modulus (GPa) = 27.17226 81.82406 54.49816
# Shear Modulus (GPa) = 58.69198 30.40370 44.54784
#
# Velocity S-wave (km/s) = 5.16964 3.72078 4.50385
# Velocity P-wave (km/s) = 6.92866 7.46439 7.20151
#
# Compressibility (1/GPa) = 0.03680224
#
# Stress axis : x y z
#
# Youngs Moduli (GPa) = 32.46733 129.96981 149.31484
#
# Poissons Ratio (x) = 0.09252 -0.12538
# Poissons Ratio (y) = 0.02311 0.64542
# Poissons Ratio (z) = -0.02726 0.56180
#
# Static dielectric constant tensor:
#      x y z
#    x 1.869010 0.000000 -0.034140 
#    y 0.000000 1.807350 0.000000 
#    z -0.034140 0.000000 1.800510 
# 
# From -- ./inp_files/342493.got.cif
#   From: 2010.05.17/outbox.cif.g08.bks.cpg/sg12_172_cif.got.tgz:342493.got - 2010.06.03 13:09:07.
