data_PCOD9180115
_publ_section_title
;
Structure prediction by ZEFSAII (Michael W. Deem and Ramdas Pophale) SiO2 
 PCOD9180115
Probable space group: C 2/M
;
_chemical_formula_sum "Si O2"
_cell_formula_units_Z 34
_cell_length_a 20.622120
_cell_length_b 7.961321
_cell_length_c 10.272714
_cell_angle_alpha 90.000000
_cell_angle_beta 113.728138
_cell_angle_gamma 90.000000
_cell_volume 1543.993358
_symmetry_space_group_name_H-M "C 2/M"
_symmetry_group_IT_number 12
_symmetry_cell_setting 'monoclinic'
loop_
_space_group_symop_operation_xyz
x,y,z
-x,y,-z
-x,-y,-z
x,-y,z
1/2+x,1/2+y,z
1/2-x,1/2+y,-z
1/2-x,1/2-y,-z
1/2+x,1/2-y,z
loop_
_atom_site_type_symbol
_atom_site_label
_atom_site_fract_x
_atom_site_fract_y
_atom_site_fract_z
Si Si1 0.829536 0.191731 0.526863
Si Si2 0.941186 0.686936 0.815113
Si Si3 0.000000 0.000000 0.000000
Si Si4 0.329361 0.194680 0.958666
Si Si5 0.176597 0.692689 0.763578
O O1 0.750000 0.250000 0.500000
O O2 0.889949 0.294231 0.649840
O O3 0.838676 0.206984 0.379310
O O4 0.835907 0.000000 0.575452
O O5 0.975049 0.500000 0.839531
O O6 0.887405 0.696663 0.894489
O O7 0.988427 0.849684 0.879484
O O8 0.261298 0.296482 0.856169
O O9 0.306402 0.000000 0.955985
O O10 0.353496 0.252199 0.121439
O O11 0.155407 0.500000 0.724147
#
# Coordination Sequence:
#
# PCOD9180115 Si02
#       5
#     8   8   2   8   8
#     4  12  22  35  55  90 126 161 198 250 317 373
#     4  11  23  42  64  88 122 160 210 261 301 358
#     4  12  26  44  64  92 116 172 222 252 298 360
#     4   9  19  34  53  84 120 160 196 241 305 372
#     4  10  19  31  53  86 125 158 190 238 313 380
#
# _framework density 22.020821000000002
#
# number of rings (size 3 to 8) (size 9 to 14) (size 15 to 20)
#    0.000    1.412    3.529    3.176    1.647    0.941 
#    0.000    0.000    0.000    2.824    0.000    6.588 
#    0.000    0.000    0.000    0.000    0.000    0.000 
#
# Total GULP energy -94677.822285 kJ/mol
# GULP energy per Si atom -5569.283664 kJ/mol
# Density = 2.197070 g / cm^3
# Si number density = 22.020821 Si / 1000 Ang^3
#
#
#
# Elastic Constant Matrix: (Units=GPa)
#
#
# Indices 1 2 3 4 5 6 
#
# 1 15.4416 13.6937 11.9376 0.0000 -9.0441 0.0000
# 2 13.6937 125.6664 28.2740 0.0000 9.0946 0.0000
# 3 11.9376 28.2740 151.0390 0.0000 -2.0522 0.0000
# 4 0.0000 0.0000 0.0000 37.6033 0.0000 5.2837
# 5 -9.0441 9.0946 -2.0522 0.0000 33.5057 0.0000
# 6 0.0000 0.0000 0.0000 5.2837 0.0000 10.1469
#
#
#
# Elastic Compliance Matrix: (Units=1/GPa)
#
#
# Indices 1 2 3 4 5 6 
#
# 1 0.095397 -0.011327 -0.005032 0.000000 0.028516 0.000000
# 2 -0.011327 0.009842 -0.001026 0.000000 -0.005792 0.000000
# 3 -0.005032 -0.001026 0.007202 0.000000 -0.000639 0.000000
# 4 0.000000 0.000000 0.000000 0.028693 0.000000 -0.014941
# 5 0.028516 -0.005792 -0.000639 0.000000 0.039076 0.000000
# 6 0.000000 0.000000 0.000000 -0.014941 0.000000 0.106333
#
#
# Mechanical properties :
#
#
# Convention : Reuss Voigt Hill
#
# Bulk Modulus (GPa) = 12.87480 44.43972 28.65726
# Shear Modulus (GPa) = 14.40086 32.13397 23.26741
#
# Velocity S-wave (km/s) = 2.56005 3.82416 3.25408
# Velocity P-wave (km/s) = 3.82071 6.30266 5.21159
#
# Compressibility (1/GPa) = 0.07767112
#
# Stress axis : x y z
#
# Youngs Moduli (GPa) = 10.48253 101.60745 138.85288
#
# Poissons Ratio (x) = 1.15089 0.69871
# Poissons Ratio (y) = 0.11873 0.14244
# Poissons Ratio (z) = 0.05275 0.10423
#
# Static dielectric constant tensor:
#      x y z
#    x 1.818100 0.000000 0.001500 
#    y 0.000000 1.809130 0.000000 
#    z 0.001500 0.000000 1.820780 
# 
# From -- ./inp_files/101300.got.cif
#   From: 2010.05.17/outbox.cif.g08.bks.cpg/sg12_51_cif.got.tgz:101300.got - 2010.06.03 13:09:07.
