data_PCOD9180062
_publ_section_title
;
Structure prediction by ZEFSAII (Michael W. Deem and Ramdas Pophale) SiO2 
 PCOD9180062
Probable space group: C 2/M
;
_chemical_formula_sum "Si O2"
_cell_formula_units_Z 48
_cell_length_a 11.275569
_cell_length_b 18.327072
_cell_length_c 12.329114
_cell_angle_alpha 90.000000
_cell_angle_beta 91.881017
_cell_angle_gamma 90.000000
_cell_volume 2546.415897
_symmetry_space_group_name_H-M "C 2/M"
_symmetry_group_IT_number 12
_symmetry_cell_setting 'monoclinic'
loop_
_space_group_symop_operation_xyz
x,y,z
-x,y,-z
-x,-y,-z
x,-y,z
1/2+x,1/2+y,z
1/2-x,1/2+y,-z
1/2-x,1/2-y,-z
1/2+x,1/2-y,z
loop_
_atom_site_type_symbol
_atom_site_label
_atom_site_fract_x
_atom_site_fract_y
_atom_site_fract_z
Si Si1 0.678645 0.195592 0.251052
Si Si2 0.788470 0.644728 0.285322
Si Si3 0.646951 0.658406 0.917861
Si Si4 0.895794 0.914624 0.866349
Si Si5 0.450967 0.816446 0.109075
Si Si6 0.138129 0.307227 0.490426
O O1 0.751915 0.269993 0.272050
O O2 0.754807 0.147439 0.170730
O O3 0.559227 0.214612 0.183892
O O4 0.648826 0.163508 0.368040
O O5 0.672726 0.600242 0.247410
O O6 0.883254 0.632778 0.192449
O O7 0.838207 0.638493 0.408079
O O8 0.525285 0.621262 0.874438
O O9 0.623584 0.745093 0.929599
O O10 0.673018 0.624212 0.035749
O O11 0.904405 0.000000 0.887708
O O12 0.500000 0.850994 0.000000
O O13 0.250000 0.250000 0.500000
O O14 0.000000 0.279295 0.500000
#
# Coordination Sequence:
#
# PCOD9180062 Si02
#       6
#     8   8   8   8   8   8
#     4  10  19  31  53  82 114 145 171 236 287 339
#     4  10  20  32  52  80 113 144 191 216 287 339
#     4  10  19  33  52  82 113 145 185 225 290 345
#     4  11  21  37  56  77 114 153 189 233 278 342
#     4  11  17  28  51  80 116 136 170 224 284 340
#     4  10  20  34  54  84 121 154 185 229 293 350
#
# _framework density 18.850024000000001
#
# number of rings (size 3 to 8) (size 9 to 14) (size 15 to 20)
#    0.000    1.667    5.000    2.000    0.000    2.667 
#    0.000    0.000    0.000    9.000    0.000    0.000 
#    0.000    0.000    0.000    0.000    0.000    0.000 
#
# Total GULP energy -133674.358147 kJ/mol
# GULP energy per Si atom -5569.764923 kJ/mol
# Density = 1.880712 g / cm^3
# Si number density = 18.850024 Si / 1000 Ang^3
#
#
#
# Elastic Constant Matrix: (Units=GPa)
#
#
# Indices 1 2 3 4 5 6 
#
# 1 80.5086 5.4569 46.9707 0.0000 -4.2094 0.0000
# 2 5.4569 30.7281 3.8203 0.0000 -0.0503 0.0000
# 3 46.9707 3.8203 121.3792 0.0000 7.0794 0.0000
# 4 0.0000 0.0000 0.0000 3.0702 0.0000 -1.6237
# 5 -4.2094 -0.0503 7.0794 0.0000 32.2942 0.0000
# 6 0.0000 0.0000 0.0000 -1.6237 0.0000 2.7343
#
#
#
# Elastic Compliance Matrix: (Units=1/GPa)
#
#
# Indices 1 2 3 4 5 6 
#
# 1 0.016579 -0.002123 -0.006559 0.000000 0.003596 0.000000
# 2 -0.002123 0.032946 -0.000205 0.000000 -0.000181 0.000000
# 3 -0.006559 -0.000205 0.010973 0.000000 -0.003261 0.000000
# 4 0.000000 0.000000 0.000000 0.474843 0.000000 0.281975
# 5 0.003596 -0.000181 -0.003261 0.000000 0.032148 0.000000
# 6 0.000000 0.000000 0.000000 0.281975 0.000000 0.533168
#
#
# Mechanical properties :
#
#
# Convention : Reuss Voigt Hill
#
# Bulk Modulus (GPa) = 23.40530 38.34572 30.87551
# Shear Modulus (GPa) = 4.41434 19.37760 11.89597
#
# Velocity S-wave (km/s) = 1.53196 3.20970 2.51487
# Velocity P-wave (km/s) = 3.94623 5.84149 4.98476
#
# Compressibility (1/GPa) = 0.04272537
#
# Stress axis : x y z
#
# Youngs Moduli (GPa) = 60.31564 30.35296 91.13003
#
# Poissons Ratio (x) = 0.06444 0.59770
# Poissons Ratio (y) = 0.12805 0.01867
# Poissons Ratio (z) = 0.39559 0.00622
#
# Static dielectric constant tensor:
#      x y z
#    x 1.743010 0.000000 -0.007120 
#    y 0.000000 1.624030 0.000000 
#    z -0.007120 0.000000 1.701470 
# 
# From -- ./inp_files/131146.got.cif
#   From: 2010.05.17/outbox.cif.g08.bks.cpg/sg12_66_cif.got.tgz:131146.got - 2010.06.03 13:09:07.
