data_PCOD9180269
_publ_section_title
;
Structure prediction by ZEFSAII (Michael W. Deem and Ramdas Pophale) SiO2 
 PCOD9180269
Probable space group: C 2/M
;
_chemical_formula_sum "Si O2"
_cell_formula_units_Z 64
_cell_length_a 25.196364
_cell_length_b 9.717264
_cell_length_c 15.643411
_cell_angle_alpha 90.000000
_cell_angle_beta 72.930813
_cell_angle_gamma 90.000000
_cell_volume 3661.415088
_symmetry_space_group_name_H-M "C 2/M"
_symmetry_group_IT_number 12
_symmetry_cell_setting 'monoclinic'
loop_
_space_group_symop_operation_xyz
x,y,z
-x,y,-z
-x,-y,-z
x,-y,z
1/2+x,1/2+y,z
1/2-x,1/2+y,-z
1/2-x,1/2-y,-z
1/2+x,1/2-y,z
loop_
_atom_site_type_symbol
_atom_site_label
_atom_site_fract_x
_atom_site_fract_y
_atom_site_fract_z
Si Si1 0.066640 0.834573 0.477912
Si Si2 0.627991 0.843656 0.788812
Si Si3 0.501616 0.150749 0.100275
Si Si4 0.694276 0.835035 0.926375
Si Si5 0.023790 0.846572 0.227315
Si Si6 0.602817 0.346460 0.652459
Si Si7 0.401102 0.836333 0.694949
Si Si8 0.193291 0.337528 0.119131
O O1 0.090109 0.802649 0.561248
O O2 0.100305 0.744880 0.393501
O O3 0.000000 0.805872 0.500000
O O4 0.072328 0.000000 0.460993
O O5 0.562087 0.849628 0.838583
O O6 0.656759 0.793954 0.863006
O O7 0.636063 0.751858 0.700789
O O8 0.646779 0.000000 0.763766
O O9 0.531201 0.277428 0.131694
O O10 0.526476 0.000000 0.111101
O O11 0.500000 0.162723 0.000000
O O12 0.752396 0.755216 0.894720
O O13 0.702282 0.000000 0.916773
O O14 0.670696 0.809064 0.033408
O O15 0.047839 0.736611 0.281535
O O16 0.958716 0.857591 0.277881
O O17 0.047971 0.000000 0.224607
O O18 0.627321 0.500000 0.639107
O O19 0.350088 0.813132 0.784263
O O20 0.408239 0.000000 0.680090
O O21 0.207919 0.500000 0.114105
#
# Coordination Sequence:
#
# PCOD9180269 Si02
#       8
#     8   8   8   8   8   8   8   8
#     4  10  19  35  54  73 104 143 176 211 258 306
#     4   9  18  31  50  75 100 131 170 211 252 303
#     4   9  18  30  46  68  99 138 172 205 252 304
#     4   9  18  35  57  77 101 135 172 211 260 312
#     4  10  19  32  47  67 101 138 174 211 248 297
#     4   9  18  33  51  71 100 137 172 207 249 299
#     4  11  22  33  51  78 105 136 172 215 264 308
#     4   9  20  36  54  77 106 133 168 217 262 310
#
# _framework density 17.479581
#
# number of rings (size 3 to 8) (size 9 to 14) (size 15 to 20)
#    0.000    2.500    1.250    0.750    1.750    3.000 
#    0.000    0.000    0.000    0.750    0.000    0.000 
#    0.000    0.000    0.000    0.000    0.000    0.000 
#
# Total GULP energy -178183.879153 kJ/mol
# GULP energy per Si atom -5568.246224 kJ/mol
# Density = 1.743980 g / cm^3
# Si number density = 17.479581 Si / 1000 Ang^3
#
#
#
# Elastic Constant Matrix: (Units=GPa)
#
#
# Indices 1 2 3 4 5 6 
#
# 1 31.4058 30.0115 30.1087 0.0000 12.4195 0.0000
# 2 30.0115 70.1117 74.7744 0.0000 13.1363 0.0000
# 3 30.1087 74.7744 129.6822 0.0000 26.2698 0.0000
# 4 0.0000 0.0000 0.0000 13.2800 0.0000 -4.7304
# 5 12.4195 13.1363 26.2698 0.0000 25.6947 0.0000
# 6 0.0000 0.0000 0.0000 -4.7304 0.0000 16.7045
#
#
#
# Elastic Compliance Matrix: (Units=1/GPa)
#
#
# Indices 1 2 3 4 5 6 
#
# 1 0.062977 -0.031196 0.007947 0.000000 -0.022616 0.000000
# 2 -0.031196 0.052769 -0.026199 0.000000 0.014886 0.000000
# 3 0.007947 -0.026199 0.024010 0.000000 -0.014994 0.000000
# 4 0.000000 0.000000 0.000000 0.083749 0.000000 0.023716
# 5 -0.022616 0.014886 -0.014994 0.000000 0.057570 0.000000
# 6 0.000000 0.000000 0.000000 0.023716 0.000000 0.066580
#
#
# Mechanical properties :
#
#
# Convention : Reuss Voigt Hill
#
# Bulk Modulus (GPa) = 24.47366 55.66545 40.06956
# Shear Modulus (GPa) = 10.86558 17.55618 14.21088
#
# Velocity S-wave (km/s) = 2.49593 3.17264 2.85441
# Velocity P-wave (km/s) = 4.72630 6.73320 5.81695
#
# Compressibility (1/GPa) = 0.04086025
#
# Stress axis : x y z
#
# Youngs Moduli (GPa) = 15.87882 18.95064 41.64990
#
# Poissons Ratio (x) = 0.59118 -0.33101
# Poissons Ratio (y) = 0.49536 1.09118
# Poissons Ratio (z) = -0.12620 0.49649
#
# Static dielectric constant tensor:
#      x y z
#    x 1.596330 0.000000 0.022360 
#    y 0.000000 1.619590 0.000000 
#    z 0.022360 0.000000 1.618420 
# 
# From -- ./inp_files/243808.got.cif
#   From: 2010.05.17/outbox.cif.g08.bks.cpg/sg12_122_cif.got.tgz:243808.got - 2010.06.03 13:09:07.
