data_PCOD9180277
_publ_section_title
;
Structure prediction by ZEFSAII (Michael W. Deem and Ramdas Pophale) SiO2 
 PCOD9180277
Probable space group: C 2/M
;
_chemical_formula_sum "Si O2"
_cell_formula_units_Z 64
_cell_length_a 8.676706
_cell_length_b 26.060847
_cell_length_c 18.084145
_cell_angle_alpha 90.000000
_cell_angle_beta 77.127899
_cell_angle_gamma 90.000000
_cell_volume 3986.465406
_symmetry_space_group_name_H-M "C 2/M"
_symmetry_group_IT_number 12
_symmetry_cell_setting 'monoclinic'
loop_
_space_group_symop_operation_xyz
x,y,z
-x,y,-z
-x,-y,-z
x,-y,z
1/2+x,1/2+y,z
1/2-x,1/2+y,-z
1/2-x,1/2-y,-z
1/2+x,1/2-y,z
loop_
_atom_site_type_symbol
_atom_site_label
_atom_site_fract_x
_atom_site_fract_y
_atom_site_fract_z
Si Si1 0.317700 0.821701 0.350228
Si Si2 0.679774 0.307365 0.509583
Si Si3 0.864334 0.638047 0.187402
Si Si4 0.066488 0.560154 0.075925
Si Si5 0.069790 0.720712 0.075372
Si Si6 0.340493 0.640010 0.063753
Si Si7 0.029437 0.213889 0.665117
Si Si8 0.530974 0.676107 0.170013
O O1 0.279925 0.839663 0.438677
O O2 0.367821 0.857493 0.276332
O O3 0.437506 0.774299 0.344842
O O4 0.149357 0.798394 0.340631
O O5 0.500000 0.306094 0.500000
O O6 0.750000 0.250000 0.500000
O O7 0.652389 0.317064 0.599477
O O8 0.685629 0.644325 0.176868
O O9 0.947645 0.587904 0.145526
O O10 0.958662 0.685831 0.140281
O O11 0.084369 0.500000 0.088616
O O12 0.229288 0.591543 0.062354
O O13 0.000000 0.566976 0.000000
O O14 0.236027 0.690439 0.056843
O O15 0.079736 0.776392 0.111707
O O16 0.000000 0.721813 0.000000
O O17 0.500000 0.637903 0.000000
O O18 0.599762 0.643959 0.859028
O O19 0.043924 0.198914 0.748186
#
# Coordination Sequence:
#
# PCOD9180277 Si02
#       8
#     8   8   8   8   8   8   8   8
#     4   9  16  26  43  63  92 126 160 193 222 259
#     4   8  14  25  38  58  87 126 163 190 214 248
#     4  10  19  32  47  69  94 122 160 193 232 282
#     4  10  22  40  57  68  85 116 154 203 257 296
#     4  11  21  31  44  63  97 133 159 183 222 274
#     4  11  22  34  49  70  92 119 159 199 233 280
#     4   9  17  26  40  62  95 132 162 183 214 261
#     4  11  20  29  44  69  99 129 156 186 223 270
#
# _framework density 16.054323
#
# number of rings (size 3 to 8) (size 9 to 14) (size 15 to 20)
#    0.000    2.125    1.250    4.125    1.750    1.750 
#    0.000    1.250    0.000    0.000    0.000    0.000 
#    0.000   14.500    0.000    0.000    0.000    0.000 
#
# Total GULP energy -178339.740320 kJ/mol
# GULP energy per Si atom -5573.116885 kJ/mol
# Density = 1.601778 g / cm^3
# Si number density = 16.054323 Si / 1000 Ang^3
#
#
#
# Elastic Constant Matrix: (Units=GPa)
#
#
# Indices 1 2 3 4 5 6 
#
# 1 58.7908 29.3938 29.9693 0.0000 -7.5123 0.0000
# 2 29.3938 66.8672 32.8268 0.0000 -3.3528 0.0000
# 3 29.9693 32.8268 124.0083 0.0000 -12.7746 0.0000
# 4 0.0000 0.0000 0.0000 14.5712 0.0000 2.8259
# 5 -7.5123 -3.3528 -12.7746 0.0000 17.3447 0.0000
# 6 0.0000 0.0000 0.0000 2.8259 0.0000 9.5577
#
#
#
# Elastic Compliance Matrix: (Units=1/GPa)
#
#
# Indices 1 2 3 4 5 6 
#
# 1 0.023583 -0.008702 -0.002723 0.000000 0.006526 0.000000
# 2 -0.008702 0.020400 -0.003548 0.000000 -0.002439 0.000000
# 3 -0.002723 -0.003548 0.010247 0.000000 0.005681 0.000000
# 4 0.000000 0.000000 0.000000 0.072803 0.000000 -0.021526
# 5 0.006526 -0.002439 0.005681 0.000000 0.064194 0.000000
# 6 0.000000 0.000000 0.000000 -0.021526 0.000000 0.110993
#
#
# Mechanical properties :
#
#
# Convention : Reuss Voigt Hill
#
# Bulk Modulus (GPa) = 41.18399 48.22735 44.70567
# Shear Modulus (GPa) = 14.69459 18.79314 16.74386
#
# Velocity S-wave (km/s) = 3.02868 3.42511 3.23298
# Velocity P-wave (km/s) = 6.15948 6.76366 6.46863
#
# Compressibility (1/GPa) = 0.02428128
#
# Stress axis : x y z
#
# Youngs Moduli (GPa) = 42.40418 49.01921 97.59244
#
# Poissons Ratio (x) = 0.42658 0.26577
# Poissons Ratio (y) = 0.36902 0.34629
# Poissons Ratio (z) = 0.11548 0.17394
#
# Static dielectric constant tensor:
#      x y z
#    x 1.550680 0.000000 -0.036160 
#    y 0.000000 1.496670 0.000000 
#    z -0.036160 0.000000 1.534420 
# 
# From -- ./inp_files/259954.got.cif
#   From: 2010.05.17/outbox.cif.g08.bks.cpg/sg12_130_cif.got.tgz:259954.got - 2010.06.03 13:09:07.
