data_PCOD9180424
_publ_section_title
;
Structure prediction by ZEFSAII (Michael W. Deem and Ramdas Pophale) SiO2 
 PCOD9180424
Probable space group: C 2/M
;
_chemical_formula_sum "Si O2"
_cell_formula_units_Z 64
_cell_length_a 25.580396
_cell_length_b 7.707103
_cell_length_c 21.399002
_cell_angle_alpha 90.000000
_cell_angle_beta 129.207902
_cell_angle_gamma 90.000000
_cell_volume 3268.990683
_symmetry_space_group_name_H-M "C 2/M"
_symmetry_group_IT_number 12
_symmetry_cell_setting 'monoclinic'
loop_
_space_group_symop_operation_xyz
x,y,z
-x,y,-z
-x,-y,-z
x,-y,z
1/2+x,1/2+y,z
1/2-x,1/2+y,-z
1/2-x,1/2-y,-z
1/2+x,1/2-y,z
loop_
_atom_site_type_symbol
_atom_site_label
_atom_site_fract_x
_atom_site_fract_y
_atom_site_fract_z
Si Si1 0.539671 0.203167 0.219179
Si Si2 0.325576 0.211959 0.738169
Si Si3 0.826182 0.790377 0.377248
Si Si4 0.966674 0.202375 0.038592
Si Si5 0.034103 0.708467 0.714007
Si Si6 0.325534 0.708373 0.233653
Si Si7 0.465017 0.205520 0.535986
Si Si8 0.325699 0.790159 0.883100
O O1 0.613450 0.277028 0.258372
O O2 0.499789 0.277392 0.248292
O O3 0.550795 0.000000 0.240908
O O4 0.495864 0.214899 0.123065
O O5 0.249756 0.265696 0.663386
O O6 0.337572 0.261635 0.819634
O O7 0.326242 0.000000 0.738131
O O8 0.839571 0.730708 0.315652
O O9 0.885403 0.729471 0.466913
O O10 0.827107 0.000000 0.377605
O O11 0.886538 0.221811 0.970587
O O12 0.984730 0.000000 0.055496
O O13 0.000000 0.275523 0.000000
O O14 0.027358 0.500000 0.709723
O O15 0.113191 0.744155 0.764683
O O16 0.995981 0.776887 0.623314
O O17 0.322449 0.500000 0.234595
O O18 0.250375 0.767353 0.158159
O O19 0.500000 0.280229 0.500000
O O20 0.479387 0.000000 0.547470
O O21 0.327809 0.000000 0.887242
#
# Coordination Sequence:
#
# PCOD9180424 Si02
#       8
#     8   8   8   8   8   8   8   8
#     4  10  20  36  57  75  99 140 179 210 248 306
#     4   8  15  30  52  76 100 128 168 215 253 290
#     4   9  17  30  51  78 101 127 171 216 253 300
#     4  11  22  34  51  81 112 133 163 211 261 307
#     4  10  21  35  52  76 104 138 178 210 252 312
#     4   9  18  32  52  78 105 132 169 216 258 298
#     4  10  19  32  49  73 106 138 169 211 258 301
#     4   9  17  32  55  79 100 131 175 212 249 303
#
# _framework density 19.577908000000001
#
# number of rings (size 3 to 8) (size 9 to 14) (size 15 to 20)
#    0.000    2.500    2.500    1.875    0.000    2.250 
#    0.000    3.750    0.000    0.000    0.000    0.000 
#    0.000    0.000    0.000    0.000    0.000    0.000 
#
# Total GULP energy -178508.623311 kJ/mol
# GULP energy per Si atom -5578.394478 kJ/mol
# Density = 1.953335 g / cm^3
# Si number density = 19.577908 Si / 1000 Ang^3
#
#
#
# Elastic Constant Matrix: (Units=GPa)
#
#
# Indices 1 2 3 4 5 6 
#
# 1 182.0272 1.7253 72.4341 0.0000 5.2347 0.0000
# 2 1.7253 29.9185 -7.3045 0.0000 -6.8186 0.0001
# 3 72.4341 -7.3045 80.4800 0.0000 9.0589 0.0000
# 4 0.0000 0.0000 0.0000 21.5047 0.0000 7.5074
# 5 5.2347 -6.8186 9.0589 0.0000 28.0015 0.0000
# 6 0.0000 0.0001 0.0000 7.5074 0.0000 17.7039
#
#
#
# Elastic Compliance Matrix: (Units=1/GPa)
#
#
# Indices 1 2 3 4 5 6 
#
# 1 0.008740 -0.002395 -0.008130 0.000000 0.000413 0.000000
# 2 -0.002395 0.036469 0.004582 0.000000 0.007846 0.000000
# 3 -0.008130 0.004582 0.020612 0.000000 -0.004033 0.000000
# 4 0.000000 0.000000 0.000000 0.054582 0.000000 -0.023146
# 5 0.000413 0.007846 -0.004033 0.000000 0.038850 0.000000
# 6 0.000000 0.000000 0.000000 -0.023146 0.000000 0.066300
#
#
# Mechanical properties :
#
#
# Convention : Reuss Voigt Hill
#
# Bulk Modulus (GPa) = 18.54038 47.34840 32.94439
# Shear Modulus (GPa) = 19.57592 28.48005 24.02798
#
# Velocity S-wave (km/s) = 3.16555 3.81820 3.50709
# Velocity P-wave (km/s) = 4.78033 6.60873 5.76744
#
# Compressibility (1/GPa) = 0.05393632
#
# Stress axis : x y z
#
# Youngs Moduli (GPa) = 114.42248 27.42053 48.51499
#
# Poissons Ratio (x) = 0.06566 0.39441
# Poissons Ratio (y) = 0.27400 -0.22230
# Poissons Ratio (z) = 0.93022 -0.12564
#
# Static dielectric constant tensor:
#      x y z
#    x 1.710840 0.000000 0.010010 
#    y 0.000000 1.728420 0.000000 
#    z 0.010010 0.000000 1.664580 
# 
# From -- ./inp_files/320125.got.cif
#   From: 2010.05.17/outbox.cif.g08.bks.cpg/sg12_161_cif.got.tgz:320125.got - 2010.06.03 13:09:07.
