data_PCOD9180964
_publ_section_title
;
Structure prediction by ZEFSAII (Michael W. Deem and Ramdas Pophale) SiO2 
 PCOD9180964
Probable space group: C 2/M
;
_chemical_formula_sum "Si O2"
_cell_formula_units_Z 56
_cell_length_a 10.215042
_cell_length_b 15.463320
_cell_length_c 15.200921
_cell_angle_alpha 90.000000
_cell_angle_beta 98.126939
_cell_angle_gamma 90.000000
_cell_volume 2377.000453
_symmetry_space_group_name_H-M "C 2/M"
_symmetry_group_IT_number 12
_symmetry_cell_setting 'monoclinic'
loop_
_space_group_symop_operation_xyz
x,y,z
-x,y,-z
-x,-y,-z
x,-y,z
1/2+x,1/2+y,z
1/2-x,1/2+y,-z
1/2-x,1/2-y,-z
1/2+x,1/2-y,z
loop_
_atom_site_type_symbol
_atom_site_label
_atom_site_fract_x
_atom_site_fract_y
_atom_site_fract_z
Si Si1 0.398405 0.909047 0.818626
Si Si2 0.280113 0.596975 0.504931
Si Si3 0.200460 0.101224 0.952573
Si Si4 0.401594 0.829394 0.640220
Si Si5 0.880909 0.286786 0.098445
Si Si6 0.526187 0.596209 0.647431
Si Si7 0.329790 0.242685 0.283666
O O1 0.266875 0.908243 0.863190
O O2 0.380316 0.903596 0.712152
O O3 0.480833 0.827251 0.858819
O O4 0.468623 0.000000 0.845925
O O5 0.229277 0.500000 0.513290
O O6 0.158743 0.654905 0.461474
O O7 0.381699 0.614535 0.593151
O O8 0.376117 0.597413 0.428033
O O9 0.107991 0.187804 0.935220
O O10 0.163015 0.000000 0.974078
O O11 0.312502 0.144558 0.026416
O O12 0.558396 0.813958 0.656778
O O13 0.302769 0.759726 0.675650
O O14 0.800466 0.287754 0.182753
O O15 0.525998 0.500000 0.685264
O O16 0.584902 0.668702 0.714910
#
# Coordination Sequence:
#
# PCOD9180964 Si02
#       7
#     8   8   8   8   8   8   8
#     4  10  19  33  56  82 104 141 190 232 272 323
#     4   8  14  27  48  76 103 131 172 227 268 303
#     4  10  20  35  56  79 102 142 189 227 275 336
#     4  10  19  32  51  79 109 140 176 223 269 325
#     4  10  20  33  51  79 110 135 173 240 283 317
#     4   8  15  28  49  74 103 135 174 221 268 315
#     4  10  20  33  50  77 105 142 172 219 273 325
#
# _framework density 23.559101999999999
#
# number of rings (size 3 to 8) (size 9 to 14) (size 15 to 20)
#    0.000    2.571    1.429    2.143    0.000    2.857 
#    0.000    0.000    0.000   12.857    0.000    2.000 
#    0.000    0.000    0.000    0.000    0.000    0.000 
#
# Total GULP energy -155958.835575 kJ/mol
# GULP energy per Si atom -5569.958413 kJ/mol
# Density = 2.350548 g / cm^3
# Si number density = 23.559102 Si / 1000 Ang^3
#
#
#
# Elastic Constant Matrix: (Units=GPa)
#
#
# Indices 1 2 3 4 5 6 
#
# 1 32.7580 22.5275 1.3218 0.0000 3.9195 0.0000
# 2 22.5275 141.6505 32.0779 0.0000 4.3540 0.0000
# 3 1.3218 32.0779 71.2277 0.0000 11.9320 0.0000
# 4 0.0000 0.0000 0.0000 33.7412 0.0000 9.8797
# 5 3.9195 4.3540 11.9320 0.0000 26.3991 0.0000
# 6 0.0000 0.0000 0.0000 9.8797 0.0000 5.4908
#
#
#
# Elastic Compliance Matrix: (Units=1/GPa)
#
#
# Indices 1 2 3 4 5 6 
#
# 1 0.035290 -0.006130 0.003044 0.000000 -0.005605 0.000000
# 2 -0.006130 0.008929 -0.004125 0.000000 0.001302 0.000000
# 3 0.003044 -0.004125 0.017097 0.000000 -0.007499 0.000000
# 4 0.000000 0.000000 0.000000 0.062639 0.000000 -0.112707
# 5 -0.005605 0.001302 -0.007499 0.000000 0.041887 0.000000
# 6 0.000000 0.000000 0.000000 -0.112707 0.000000 0.384918
#
#
# Mechanical properties :
#
#
# Convention : Reuss Voigt Hill
#
# Bulk Modulus (GPa) = 21.32436 39.72117 30.52276
# Shear Modulus (GPa) = 8.60864 25.77349 17.19107
#
# Velocity S-wave (km/s) = 1.91363 3.31114 2.70423
# Velocity P-wave (km/s) = 3.73547 5.61383 4.76806
#
# Compressibility (1/GPa) = 0.04689473
#
# Stress axis : x y z
#
# Youngs Moduli (GPa) = 28.33672 111.99887 58.48915
#
# Poissons Ratio (x) = 0.68650 -0.17807
# Poissons Ratio (y) = 0.17369 0.24129
# Poissons Ratio (z) = -0.08627 0.46205
#
# Static dielectric constant tensor:
#      x y z
#    x 1.896510 0.000000 0.017640 
#    y 0.000000 2.008540 0.000000 
#    z 0.017640 0.000000 1.927780 
# 
# From -- ./inp_files/262981.got.cif
#   From: 2010.05.17/outbox.cif.g08.bks.cpg/sg12_132_cif.got.tgz:262981.got - 2010.06.03 13:09:07.
