data_PCOD9180312
_publ_section_title
;
Structure prediction by ZEFSAII (Michael W. Deem and Ramdas Pophale) SiO2 
 PCOD9180312
Probable space group: C 2/M
;
_chemical_formula_sum "Si O2"
_cell_formula_units_Z 56
_cell_length_a 24.053337
_cell_length_b 17.368689
_cell_length_c 7.988834
_cell_angle_alpha 90.000000
_cell_angle_beta 85.203642
_cell_angle_gamma 90.000000
_cell_volume 3325.847105
_symmetry_space_group_name_H-M "C 2/M"
_symmetry_group_IT_number 12
_symmetry_cell_setting 'monoclinic'
loop_
_space_group_symop_operation_xyz
x,y,z
-x,y,-z
-x,-y,-z
x,-y,z
1/2+x,1/2+y,z
1/2-x,1/2+y,-z
1/2-x,1/2-y,-z
1/2+x,1/2-y,z
loop_
_atom_site_type_symbol
_atom_site_label
_atom_site_fract_x
_atom_site_fract_y
_atom_site_fract_z
Si Si1 0.289046 0.319575 0.056703
Si Si2 0.242944 0.663409 0.437696
Si Si3 0.963102 0.340405 0.350569
Si Si4 0.736148 0.090245 0.777169
Si Si5 0.130899 0.417578 0.433989
Si Si6 0.626977 0.200344 0.855673
Si Si7 0.562207 0.912620 0.114989
O O1 0.270571 0.345522 0.248012
O O2 0.348430 0.277297 0.066947
O O3 0.250000 0.250000 0.000000
O O4 0.276995 0.383546 0.918401
O O5 0.250000 0.750000 0.500000
O O6 0.261651 0.609332 0.587617
O O7 0.177556 0.646532 0.430877
O O8 0.921453 0.405452 0.431978
O O9 0.917333 0.283050 0.281957
O O10 0.000000 0.312463 0.500000
O O11 0.005560 0.377920 0.207420
O O12 0.680454 0.145143 0.798523
O O13 0.722382 0.000000 0.798205
O O14 0.158010 0.500000 0.462930
O O15 0.105001 0.417684 0.257969
O O16 0.590190 0.147451 0.984981
O O17 0.556197 0.000000 0.051726
#
# Coordination Sequence:
#
# PCOD9180312 Si02
#       7
#     8   8   8   8   8   8   8
#     4  10  21  37  54  78 108 143 187 230 276 322
#     4  12  20  33  54  76 105 147 187 226 275 323
#     4  10  20  33  47  71 104 139 182 225 255 300
#     4  11  23  36  56  82 109 142 188 229 269 330
#     4  10  19  32  48  69 101 142 183 216 260 313
#     4  11  20  35  52  71 106 147 181 217 269 318
#     4  10  21  31  48  71 101 144 184 222 257 303
#
# _framework density 16.837816
#
# number of rings (size 3 to 8) (size 9 to 14) (size 15 to 20)
#    0.000    1.429    4.286    3.429    0.000    6.286 
#    0.000    0.000    0.000    0.000    0.000    0.000 
#    0.000    2.857    0.000    2.000    0.000    0.000 
#
# Total GULP energy -155937.387269 kJ/mol
# GULP energy per Si atom -5569.192402 kJ/mol
# Density = 1.679949 g / cm^3
# Si number density = 16.837816 Si / 1000 Ang^3
#
#
#
# Elastic Constant Matrix: (Units=GPa)
#
#
# Indices 1 2 3 4 5 6 
#
# 1 107.2543 43.4595 41.3094 0.0000 20.1047 0.0000
# 2 43.4595 51.8717 21.8002 0.0000 8.4729 0.0000
# 3 41.3094 21.8002 108.8550 0.0000 4.4864 0.0000
# 4 0.0000 0.0000 0.0000 18.8854 0.0000 5.5112
# 5 20.1047 8.4729 4.4864 0.0000 27.8816 0.0000
# 6 0.0000 0.0000 0.0000 5.5112 0.0000 14.8484
#
#
#
# Elastic Compliance Matrix: (Units=1/GPa)
#
#
# Indices 1 2 3 4 5 6 
#
# 1 0.016852 -0.011185 -0.003820 0.000000 -0.008138 0.000000
# 2 -0.011185 0.029433 -0.001625 0.000000 -0.000618 0.000000
# 3 -0.003820 -0.001625 0.010900 0.000000 0.001494 0.000000
# 4 0.000000 0.000000 0.000000 0.059383 0.000000 -0.022041
# 5 -0.008138 -0.000618 0.001494 0.000000 0.041682 0.000000
# 6 0.000000 0.000000 0.000000 -0.022041 0.000000 0.075529
#
#
# Mechanical properties :
#
#
# Convention : Reuss Voigt Hill
#
# Bulk Modulus (GPa) = 41.79403 53.45768 47.62585
# Shear Modulus (GPa) = 18.18099 23.08386 20.63243
#
# Velocity S-wave (km/s) = 3.28955 3.70666 3.50432
# Velocity P-wave (km/s) = 6.26926 7.08072 6.68731
#
# Compressibility (1/GPa) = 0.02392686
#
# Stress axis : x y z
#
# Youngs Moduli (GPa) = 59.33844 33.97567 91.74363
#
# Poissons Ratio (x) = 0.38001 0.35046
# Poissons Ratio (y) = 0.66368 0.14904
# Poissons Ratio (z) = 0.22667 0.05519
#
# Static dielectric constant tensor:
#      x y z
#    x 1.580630 0.000000 0.037320 
#    y 0.000000 1.563480 0.000000 
#    z 0.037320 0.000000 1.669710 
# 
# From -- ./inp_files/87253.got.cif
#   From: 2010.05.17/outbox.cif.g08.bks.cpg/sg12_44_cif.got.tgz:87253.got - 2010.06.03 13:09:07.
