data_PCOD9180897
_publ_section_title
;
Structure prediction by ZEFSAII (Michael W. Deem and Ramdas Pophale) SiO2 
 PCOD9180897
Probable space group: C 2/M
;
_chemical_formula_sum "Si O2"
_cell_formula_units_Z 56
_cell_length_a 30.438951
_cell_length_b 7.363442
_cell_length_c 21.904038
_cell_angle_alpha 90.000000
_cell_angle_beta 29.219574
_cell_angle_gamma 90.000000
_cell_volume 2396.597001
_symmetry_space_group_name_H-M "C 2/M"
_symmetry_group_IT_number 12
_symmetry_cell_setting 'monoclinic'
loop_
_space_group_symop_operation_xyz
x,y,z
-x,y,-z
-x,-y,-z
x,-y,z
1/2+x,1/2+y,z
1/2-x,1/2+y,-z
1/2-x,1/2-y,-z
1/2+x,1/2-y,z
loop_
_atom_site_type_symbol
_atom_site_label
_atom_site_fract_x
_atom_site_fract_y
_atom_site_fract_z
Si Si1 0.847183 0.279524 0.058561
Si Si2 0.303462 0.220146 0.242375
Si Si3 0.963717 0.294704 0.125754
Si Si4 0.118731 0.221477 0.524014
Si Si5 0.029870 0.221700 0.394881
Si Si6 0.777646 0.782696 0.896089
Si Si7 0.644058 0.285054 0.627077
O O1 0.852974 0.500000 0.046188
O O2 0.788454 0.238199 0.189741
O O3 0.801375 0.213787 0.052641
O O4 0.945498 0.210102 0.957912
O O5 0.400201 0.285506 0.149949
O O6 0.218680 0.282573 0.383988
O O7 0.307003 0.000000 0.243338
O O8 0.988353 0.500000 0.077726
O O9 0.898562 0.303683 0.262577
O O10 0.102433 0.278244 0.613360
O O11 0.046111 0.276727 0.561991
O O12 0.119762 0.000000 0.522693
O O13 0.126500 0.280521 0.249049
O O14 0.000000 0.278259 0.500000
O O15 0.031814 0.000000 0.394401
O O16 0.781814 0.000000 0.885312
O O17 0.750000 0.750000 0.000000
O O18 0.628904 0.500000 0.650494
O O19 0.750000 0.250000 0.500000
#
# Coordination Sequence:
#
# PCOD9180897 Si02
#       7
#     8   8   8   8   8   8   8
#     4   9  18  31  51  77 104 135 174 215 258 307
#     4   9  15  28  50  77 104 129 166 218 261 303
#     4  10  19  32  51  77 105 135 171 211 258 309
#     4   9  17  28  47  75 102 129 168 214 261 305
#     4   9  17  31  53  80 106 133 175 230 275 310
#     4  10  21  36  54  79 109 142 180 223 271 321
#     4  11  21  34  51  75 107 140 173 210 255 309
#
# _framework density 23.366465000000002
#
# number of rings (size 3 to 8) (size 9 to 14) (size 15 to 20)
#    0.000    2.429    1.429    1.714    2.000    5.143 
#    0.000    0.000    0.000    3.000    0.000    0.000 
#    0.000    0.000    0.000    0.000    0.000    0.000 
#
# Total GULP energy -156351.199201 kJ/mol
# GULP energy per Si atom -5583.971400 kJ/mol
# Density = 2.331328 g / cm^3
# Si number density = 23.366465 Si / 1000 Ang^3
#
#
#
# Elastic Constant Matrix: (Units=GPa)
#
#
# Indices 1 2 3 4 5 6 
#
# 1 226.7643 7.5100 72.1242 -0.0080 13.1130 -0.0012
# 2 7.5100 89.9211 2.9818 -0.0294 0.0817 0.0068
# 3 72.1242 2.9818 121.4359 -0.0365 6.8072 0.0035
# 4 -0.0080 -0.0294 -0.0365 0.5560 0.0074 9.2888
# 5 13.1130 0.0817 6.8072 0.0074 42.1236 0.0006
# 6 -0.0012 0.0068 0.0035 9.2888 0.0006 3.3217
#
#
#
# Elastic Compliance Matrix: (Units=1/GPa)
#
#
# Indices 1 2 3 4 5 6 
#
# 1 0.005507 -0.000353 -0.003195 0.000005 -0.001197 -0.000008
# 2 -0.000353 0.011153 -0.000070 -0.000021 0.000100 0.000036
# 3 -0.003195 -0.000070 0.010170 -0.000018 -0.000649 0.000039
# 4 0.000005 -0.000021 -0.000018 -0.039339 0.000007 0.110010
# 5 -0.001197 0.000100 -0.000649 0.000007 0.024217 -0.000023
# 6 -0.000008 0.000036 0.000039 0.110010 -0.000023 -0.006584
#
#
# Mechanical properties :
#
#
# Convention : Reuss Voigt Hill
#
# Bulk Modulus (GPa) = 51.03448 67.03924 59.03686
# Shear Modulus (GPa) = 264.68532 32.90059 148.79296
#
# Velocity S-wave (km/s) = 10.65465 3.75644 7.98851
# Velocity P-wave (km/s) = 13.16247 6.89689 10.50756
#
# Compressibility (1/GPa) = 0.01959459
#
# Stress axis : x y z
#
# Youngs Moduli (GPa) = 181.58799 89.66559 98.32400
#
# Poissons Ratio (x) = 0.03164 0.31414
# Poissons Ratio (y) = 0.06408 0.00687
# Poissons Ratio (z) = 0.58017 0.00626
#
# Static dielectric constant tensor:
#      x y z
#    x 1.848450 0.000010 -0.010790 
#    y 0.000010 1.932080 0.000020 
#    z -0.010790 0.000020 1.857460 
# 
# From -- ./inp_files/329468.got.cif
#   From: 2010.05.17/outbox.cif.g08.bks.cpg/sg12_165_cif.got.tgz:329468.got - 2010.06.03 13:09:07.
