data_PCOD9180145
_publ_section_title
;
Structure prediction by ZEFSAII (Michael W. Deem and Ramdas Pophale) SiO2 
 PCOD9180145
Probable space group: C 2/M
;
_chemical_formula_sum "Si O2"
_cell_formula_units_Z 56
_cell_length_a 16.753432
_cell_length_b 18.641373
_cell_length_c 19.857418
_cell_angle_alpha 90.000000
_cell_angle_beta 28.677761
_cell_angle_gamma 90.000000
_cell_volume 2976.047297
_symmetry_space_group_name_H-M "C 2/M"
_symmetry_group_IT_number 12
_symmetry_cell_setting 'monoclinic'
loop_
_space_group_symop_operation_xyz
x,y,z
-x,y,-z
-x,-y,-z
x,-y,z
1/2+x,1/2+y,z
1/2-x,1/2+y,-z
1/2-x,1/2-y,-z
1/2+x,1/2-y,z
loop_
_atom_site_type_symbol
_atom_site_label
_atom_site_fract_x
_atom_site_fract_y
_atom_site_fract_z
Si Si1 0.594582 0.170566 0.072853
Si Si2 0.489104 0.417676 0.428328
Si Si3 0.181725 0.283995 0.155815
Si Si4 0.063356 0.915065 0.169646
Si Si5 0.125331 0.080210 0.969335
Si Si6 0.137354 0.418165 0.840122
Si Si7 0.106599 0.808880 0.599422
O O1 0.591696 0.201027 0.150638
O O2 0.427643 0.135150 0.168995
O O3 0.656670 0.236156 0.980582
O O4 0.747068 0.112832 0.958251
O O5 0.500000 0.408500 0.500000
O O6 0.444890 0.500000 0.446385
O O7 0.680578 0.404905 0.264195
O O8 0.369440 0.362979 0.479978
O O9 0.057870 0.238359 0.291781
O O10 0.237039 0.359680 0.142755
O O11 0.041690 0.907111 0.104765
O O12 0.943216 0.861970 0.301054
O O13 0.046699 0.000000 0.199245
O O14 0.196707 0.000000 0.920087
O O15 0.000000 0.083454 0.000000
O O16 0.142346 0.500000 0.809914
O O17 0.000000 0.414170 0.000000
O O18 0.250000 0.750000 0.500000
#
# Coordination Sequence:
#
# PCOD9180145 Si02
#       7
#     8   8   8   8   8   8   8
#     4   9  17  30  52  81 112 134 172 231 285 347
#     4  10  23  42  59  82 117 156 195 240 291 344
#     4   9  19  33  49  78 109 140 178 229 286 331
#     4   9  17  34  59  82 110 149 186 229 282 340
#     4   9  18  34  56  82 109 139 180 231 289 342
#     4  10  19  31  54  84 109 140 184 233 287 347
#     4  11  23  38  55  80 112 154 195 231 269 340
#
# _framework density 18.816904999999998
#
# number of rings (size 3 to 8) (size 9 to 14) (size 15 to 20)
#    0.000    2.429    0.000    3.429    2.000    3.429 
#    2.571    1.429    0.000    0.000    0.000    3.000 
#    0.000    0.000    0.000    0.000    0.000    0.000 
#
# Total GULP energy -156141.360036 kJ/mol
# GULP energy per Si atom -5576.477144 kJ/mol
# Density = 1.877408 g / cm^3
# Si number density = 18.816905 Si / 1000 Ang^3
#
#
#
# Elastic Constant Matrix: (Units=GPa)
#
#
# Indices 1 2 3 4 5 6 
#
# 1 52.3940 50.4335 3.5446 -0.0023 6.2975 -0.0009
# 2 50.4335 151.7682 31.2570 -0.0088 -1.8907 0.0050
# 3 3.5446 31.2570 36.9490 -0.0065 7.4521 0.0014
# 4 -0.0023 -0.0088 -0.0065 22.7175 0.0033 -5.4183
# 5 6.2975 -1.8907 7.4521 0.0033 15.5083 -0.0001
# 6 -0.0009 0.0050 0.0014 -5.4183 -0.0001 38.1902
#
#
#
# Elastic Compliance Matrix: (Units=1/GPa)
#
#
# Indices 1 2 3 4 5 6 
#
# 1 0.035086 -0.014759 0.013682 0.000006 -0.022621 0.000003
# 2 -0.014759 0.014505 -0.013753 -0.000002 0.014370 -0.000002
# 3 0.013682 -0.013753 0.043013 0.000013 -0.027901 0.000002
# 4 0.000006 -0.000002 0.000013 0.045561 -0.000019 0.006464
# 5 -0.022621 0.014370 -0.027901 -0.000019 0.088827 -0.000004
# 6 0.000003 -0.000002 0.000002 0.006464 -0.000004 0.027102
#
#
# Mechanical properties :
#
#
# Convention : Reuss Voigt Hill
#
# Bulk Modulus (GPa) = 15.88698 45.73128 30.80913
# Shear Modulus (GPa) = 16.40766 25.67491 21.04129
#
# Velocity S-wave (km/s) = 2.95611 3.69787 3.34760
# Velocity P-wave (km/s) = 4.48472 6.52598 5.59915
#
# Compressibility (1/GPa) = 0.06294463
#
# Stress axis : x y z
#
# Youngs Moduli (GPa) = 28.50112 68.94188 23.24861
#
# Poissons Ratio (x) = 1.01752 -0.31809
# Poissons Ratio (y) = 0.42065 0.31973
# Poissons Ratio (z) = -0.38995 0.94815
#
# Static dielectric constant tensor:
#      x y z
#    x 1.670420 0.000000 0.026330 
#    y 0.000000 1.671890 0.000000 
#    z 0.026330 0.000000 1.684860 
# 
# From -- ./inp_files/317144.got.cif
#   From: 2010.05.17/outbox.cif.g08.bks.cpg/sg12_159_cif.got.tgz:317144.got - 2010.06.03 13:09:07.
