data_PCOD9180723
_publ_section_title
;
Structure prediction by ZEFSAII (Michael W. Deem and Ramdas Pophale) SiO2 
 PCOD9180723
Probable space group: C 2/M
;
_chemical_formula_sum "Si O2"
_cell_formula_units_Z 64
_cell_length_a 28.692293
_cell_length_b 7.751836
_cell_length_c 14.783921
_cell_angle_alpha 90.000000
_cell_angle_beta 104.205638
_cell_angle_gamma 90.000000
_cell_volume 3187.659923
_symmetry_space_group_name_H-M "C 2/M"
_symmetry_group_IT_number 12
_symmetry_cell_setting 'monoclinic'
loop_
_space_group_symop_operation_xyz
x,y,z
-x,y,-z
-x,-y,-z
x,-y,z
1/2+x,1/2+y,z
1/2-x,1/2+y,-z
1/2-x,1/2-y,-z
1/2+x,1/2-y,z
loop_
_atom_site_type_symbol
_atom_site_label
_atom_site_fract_x
_atom_site_fract_y
_atom_site_fract_z
Si Si1 0.863290 0.212530 0.107268
Si Si2 0.659329 0.703265 0.105837
Si Si3 0.805895 0.705591 0.531075
Si Si4 0.876313 0.204987 0.723333
Si Si5 0.385337 0.798050 0.430774
Si Si6 0.043487 0.789326 0.376368
Si Si7 0.261678 0.294982 0.109796
Si Si8 0.437955 0.299755 0.280471
O O1 0.816575 0.265272 0.144302
O O2 0.911262 0.273247 0.179811
O O3 0.862742 0.000000 0.106017
O O4 0.856055 0.272270 0.000264
O O5 0.648658 0.500000 0.097106
O O6 0.633930 0.778500 0.182270
O O7 0.717058 0.720439 0.143525
O O8 0.810777 0.500000 0.532469
O O9 0.750000 0.750000 0.500000
O O10 0.831308 0.768350 0.634899
O O11 0.838517 0.770755 0.462349
O O12 0.923034 0.267611 0.691513
O O13 0.882689 0.000000 0.736493
O O14 0.429753 0.775962 0.521518
O O15 0.400708 0.709766 0.345526
O O16 0.378307 0.000000 0.408445
O O17 0.989160 0.727187 0.336230
O O18 0.044078 0.000000 0.382851
O O19 0.260440 0.500000 0.121306
O O20 0.250000 0.250000 0.000000
O O21 0.447681 0.500000 0.264443
#
# Coordination Sequence:
#
# PCOD9180723 Si02
#       8
#     8   8   8   8   8   8   8   8
#     4   8  16  30  46  68  98 127 157 197 241 283
#     4   9  17  31  50  70  96 131 166 200 241 289
#     4  10  21  36  53  75 103 132 162 200 246 295
#     4   9  18  33  52  73  99 132 168 204 242 289
#     4  10  21  35  51  73  99 127 161 200 245 296
#     4   9  18  33  52  73  96 126 165 204 244 293
#     4   9  16  28  46  67  93 125 160 197 239 286
#     4  10  19  32  51  73  98 129 164 203 247 293
#
# _framework density 20.077424000000001
#
# number of rings (size 3 to 8) (size 9 to 14) (size 15 to 20)
#    0.000    2.750    0.000    2.250    0.000    5.000 
#    0.000    6.250    0.000    3.750    0.000    0.000 
#    0.000    9.000    0.000    0.000    0.000    0.000 
#
# Total GULP energy -178372.057585 kJ/mol
# GULP energy per Si atom -5574.126800 kJ/mol
# Density = 2.003173 g / cm^3
# Si number density = 20.077424 Si / 1000 Ang^3
#
#
#
# Elastic Constant Matrix: (Units=GPa)
#
#
# Indices 1 2 3 4 5 6 
#
# 1 87.8638 -9.2145 50.0940 0.0000 9.4130 0.0000
# 2 -9.2145 27.1974 -7.9321 0.0000 -1.3959 0.0000
# 3 50.0940 -7.9321 67.8231 0.0000 -9.2896 0.0000
# 4 0.0000 0.0000 0.0000 2.6120 0.0000 -2.3935
# 5 9.4130 -1.3959 -9.2896 0.0000 30.6897 0.0000
# 6 0.0000 0.0000 0.0000 -2.3935 0.0000 16.9923
#
#
#
# Elastic Compliance Matrix: (Units=1/GPa)
#
#
# Indices 1 2 3 4 5 6 
#
# 1 0.023975 0.001824 -0.019290 0.000000 -0.013110 0.000000
# 2 0.001824 0.038511 0.003464 0.000000 0.002241 0.000000
# 3 -0.019290 0.003464 0.031536 0.000000 0.015620 0.000000
# 4 0.000000 0.000000 0.000000 0.439585 0.000000 0.061919
# 5 -0.013110 0.002241 0.015620 0.000000 0.041435 0.000000
# 6 0.000000 0.000000 0.000000 0.061919 0.000000 0.067572
#
#
# Mechanical properties :
#
#
# Convention : Reuss Voigt Hill
#
# Bulk Modulus (GPa) = 15.14740 27.64213 21.39476
# Shear Modulus (GPa) = 7.21891 20.05460 13.63675
#
# Velocity S-wave (km/s) = 1.89825 3.16391 2.60899
# Velocity P-wave (km/s) = 3.51644 5.21006 4.44466
#
# Compressibility (1/GPa) = 0.06601792
#
# Stress axis : x y z
#
# Youngs Moduli (GPa) = 41.71029 25.96632 31.70941
#
# Poissons Ratio (x) = -0.04736 0.61168
# Poissons Ratio (y) = -0.07608 -0.10983
# Poissons Ratio (z) = 0.80459 -0.08994
#
# Static dielectric constant tensor:
#      x y z
#    x 1.716710 0.000000 -0.004340 
#    y 0.000000 1.747690 0.000000 
#    z -0.004340 0.000000 1.705310 
# 
# From -- ./inp_files/244225.got.cif
#   From: 2010.05.17/outbox.cif.g08.bks.cpg/sg12_123_cif.got.tgz:244225.got - 2010.06.03 13:09:07.
