data_PCOD9180470
_publ_section_title
;
Structure prediction by ZEFSAII (Michael W. Deem and Ramdas Pophale) SiO2 
 PCOD9180470
Probable space group: C 2/M
;
_chemical_formula_sum "Si O2"
_cell_formula_units_Z 64
_cell_length_a 27.677051
_cell_length_b 19.717198
_cell_length_c 5.599321
_cell_angle_alpha 90.000000
_cell_angle_beta 65.501315
_cell_angle_gamma 90.000000
_cell_volume 2780.531556
_symmetry_space_group_name_H-M "C 2/M"
_symmetry_group_IT_number 12
_symmetry_cell_setting 'monoclinic'
loop_
_space_group_symop_operation_xyz
x,y,z
-x,y,-z
-x,-y,-z
x,-y,z
1/2+x,1/2+y,z
1/2-x,1/2+y,-z
1/2-x,1/2-y,-z
1/2+x,1/2-y,z
loop_
_atom_site_type_symbol
_atom_site_label
_atom_site_fract_x
_atom_site_fract_y
_atom_site_fract_z
Si Si1 0.539133 0.423220 0.123314
Si Si2 0.710527 0.847110 0.261290
Si Si3 0.103062 0.145087 0.356683
Si Si4 0.601497 0.172499 0.975990
Si Si5 0.305636 0.920015 0.199050
Si Si6 0.683835 0.294795 0.814075
Si Si7 0.652795 0.572269 0.634652
Si Si8 0.408835 0.211195 0.493617
O O1 0.521145 0.500000 0.213094
O O2 0.551359 0.376876 0.321808
O O3 0.500000 0.396309 0.000000
O O4 0.598803 0.427979 0.897113
O O5 0.709885 0.895422 0.499222
O O6 0.755339 0.790962 0.229792
O O7 0.652513 0.814066 0.355944
O O8 0.720692 0.884597 0.984594
O O9 0.129083 0.079646 0.420696
O O10 0.088368 0.208183 0.554575
O O11 0.149120 0.175025 0.098995
O O12 0.632287 0.102135 0.946927
O O13 0.651239 0.226300 0.832015
O O14 0.570533 0.176013 0.789297
O O15 0.571094 0.194630 0.279030
O O16 0.298791 0.000000 0.191930
O O17 0.681177 0.356272 0.627988
O O18 0.680755 0.500000 0.614280
#
# Coordination Sequence:
#
# PCOD9180470 Si02
#       8
#     8   8   8   8   8   8   8   8
#     4   9  19  35  52  71  95 127 168 210 258 317
#     4  10  22  34  52  69  96 133 173 210 253 303
#     4  10  19  32  50  69  95 122 160 215 259 301
#     4   9  18  32  51  68  89 123 163 203 248 296
#     4  10  21  35  48  68  94 124 166 214 257 294
#     4  10  21  34  48  67  96 126 172 210 253 304
#     4  10  20  33  49  70  96 128 165 214 265 303
#     4   9  18  32  50  73  93 124 166 205 248 298
#
# _framework density 23.017178999999999
#
# number of rings (size 3 to 8) (size 9 to 14) (size 15 to 20)
#    0.000    2.375    1.250    0.750    1.750    8.500 
#    0.000    1.875    0.000    0.000    0.000    0.000 
#    0.000    0.000    0.000    0.000    0.000  330.000 
#
# Total GULP energy -178384.265456 kJ/mol
# GULP energy per Si atom -5574.508295 kJ/mol
# Density = 2.296479 g / cm^3
# Si number density = 23.017179 Si / 1000 Ang^3
#
#
#
# Elastic Constant Matrix: (Units=GPa)
#
#
# Indices 1 2 3 4 5 6 
#
# 1 37.9012 23.7824 24.5272 0.0000 17.2907 0.0000
# 2 23.7824 89.2207 20.6402 0.0000 11.1080 0.0000
# 3 24.5272 20.6402 100.4366 0.0000 33.9993 0.0000
# 4 0.0000 0.0000 0.0000 6.3825 0.0000 6.2904
# 5 17.2907 11.1080 33.9993 0.0000 34.4112 0.0000
# 6 0.0000 0.0000 0.0000 6.2904 0.0000 -14.2347
#
#
#
# Elastic Compliance Matrix: (Units=1/GPa)
#
#
# Indices 1 2 3 4 5 6 
#
# 1 0.040156 -0.008163 -0.003291 0.000000 -0.014290 0.000000
# 2 -0.008163 0.013531 -0.001047 0.000000 0.000769 0.000000
# 3 -0.003291 -0.001047 0.015478 0.000000 -0.013301 0.000000
# 4 0.000000 0.000000 0.000000 0.109143 0.000000 0.048231
# 5 -0.014290 0.000769 -0.013301 0.000000 0.049134 0.000000
# 6 0.000000 0.000000 0.000000 0.048231 0.000000 -0.048937
#
#
# Mechanical properties :
#
#
# Convention : Reuss Voigt Hill
#
# Bulk Modulus (GPa) = 22.64454 40.60645 31.62549
# Shear Modulus (GPa) = 22.91177 15.88573 19.39875
#
# Velocity S-wave (km/s) = 3.15845 2.62996 2.90624
# Velocity P-wave (km/s) = 4.81254 5.18674 5.00314
#
# Compressibility (1/GPa) = 0.04416076
#
# Stress axis : x y z
#
# Youngs Moduli (GPa) = 24.90291 73.90586 64.60754
#
# Poissons Ratio (x) = 0.60332 0.21264
# Poissons Ratio (y) = 0.20329 0.06767
# Poissons Ratio (z) = 0.08196 0.07741
#
# Static dielectric constant tensor:
#      x y z
#    x 1.896780 0.000000 0.066020 
#    y 0.000000 1.871730 0.000000 
#    z 0.066020 0.000000 2.030020 
# 
# From -- ./inp_files/32331.got.cif
#   From: 2010.05.17/outbox.cif.g08.bks.cpg/sg12_17_cif.got.tgz:32331.got - 2010.06.03 13:09:07.
