data_PCOD9180138
_publ_section_title
;
Structure prediction by ZEFSAII (Michael W. Deem and Ramdas Pophale) SiO2 
 PCOD9180138
Probable space group: C 2/M
;
_chemical_formula_sum "Si O2"
_cell_formula_units_Z 64
_cell_length_a 20.701508
_cell_length_b 8.628314
_cell_length_c 25.235871
_cell_angle_alpha 90.000000
_cell_angle_beta 126.472035
_cell_angle_gamma 90.000000
_cell_volume 3624.780526
_symmetry_space_group_name_H-M "C 2/M"
_symmetry_group_IT_number 12
_symmetry_cell_setting 'monoclinic'
loop_
_space_group_symop_operation_xyz
x,y,z
-x,y,-z
-x,-y,-z
x,-y,z
1/2+x,1/2+y,z
1/2-x,1/2+y,-z
1/2-x,1/2-y,-z
1/2+x,1/2-y,z
loop_
_atom_site_type_symbol
_atom_site_label
_atom_site_fract_x
_atom_site_fract_y
_atom_site_fract_z
Si Si1 0.224590 0.812984 0.154718
Si Si2 0.392540 0.685544 0.811973
Si Si3 0.135825 0.813474 0.702273
Si Si4 0.203588 0.685277 0.426920
Si Si5 0.473570 0.685773 0.676162
Si Si6 0.034100 0.685255 0.817857
Si Si7 0.752739 0.687242 0.668780
Si Si8 0.281853 0.813222 0.070700
O O1 0.147220 0.765865 0.151499
O O2 0.302842 0.753722 0.224333
O O3 0.230335 0.761619 0.096775
O O4 0.227261 0.000000 0.156885
O O5 0.401402 0.500000 0.815462
O O6 0.475688 0.764254 0.836843
O O7 0.327221 0.736063 0.735954
O O8 0.173113 0.771386 0.663356
O O9 0.045546 0.764534 0.671815
O O10 0.138281 0.000000 0.707603
O O11 0.204478 0.500000 0.429420
O O12 0.250000 0.750000 0.500000
O O13 0.111896 0.742389 0.379774
O O14 0.244876 0.733092 0.391320
O O15 0.466747 0.500000 0.671592
O O16 0.500800 0.737716 0.748029
O O17 0.031286 0.500000 0.809774
O O18 0.125736 0.732492 0.873487
O O19 0.762728 0.500000 0.676521
O O20 0.279561 0.000000 0.067744
O O21 0.250000 0.750000 0.000000
#
# Coordination Sequence:
#
# PCOD9180138 Si02
#       8
#     8   8   8   8   8   8   8   8
#     4   9  18  34  53  78 110 143 178 222 274 322
#     4  10  19  31  54  83 109 138 178 227 272 319
#     4   9  18  32  54  83 109 137 178 226 270 319
#     4  11  23  38  57  79 111 150 185 225 274 328
#     4  11  21  34  56  85 112 139 181 229 271 323
#     4  11  21  35  55  80 111 144 180 225 273 323
#     4   9  18  34  54  78 109 144 179 219 272 321
#     4  10  22  38  56  78 109 147 185 224 273 328
#
# _framework density 17.656241000000001
#
# number of rings (size 3 to 8) (size 9 to 14) (size 15 to 20)
#    0.000    2.000    2.500    1.500    0.000    3.000 
#    0.000    1.250    0.000    7.500    0.000    0.000 
#    0.000    0.000    0.000    0.000    0.000    0.000 
#
# Total GULP energy -178560.854743 kJ/mol
# GULP energy per Si atom -5580.026711 kJ/mol
# Density = 1.761605 g / cm^3
# Si number density = 17.656241 Si / 1000 Ang^3
#
#
#
# Elastic Constant Matrix: (Units=GPa)
#
#
# Indices 1 2 3 4 5 6 
#
# 1 136.7798 23.5361 42.6528 0.0000 -15.6844 0.0000
# 2 23.5361 18.2877 15.6798 0.0000 -3.0075 0.0000
# 3 42.6528 15.6798 72.3970 0.0000 -11.0950 0.0000
# 4 0.0000 0.0000 0.0000 29.2651 0.0000 1.1182
# 5 -15.6844 -3.0075 -11.0950 0.0000 25.9072 0.0000
# 6 0.0000 0.0000 0.0000 1.1182 0.0000 24.1452
#
#
#
# Elastic Compliance Matrix: (Units=1/GPa)
#
#
# Indices 1 2 3 4 5 6 
#
# 1 0.010539 -0.009967 -0.003478 0.000000 0.003734 0.000000
# 2 -0.009967 0.076646 -0.011012 0.000000 -0.001852 0.000000
# 3 -0.003478 -0.011012 0.018973 0.000000 0.004742 0.000000
# 4 0.000000 0.000000 0.000000 0.034231 0.000000 -0.001585
# 5 0.003734 -0.001852 0.004742 0.000000 0.042675 0.000000
# 6 0.000000 0.000000 0.000000 -0.001585 0.000000 0.041489
#
#
# Mechanical properties :
#
#
# Convention : Reuss Voigt Hill
#
# Bulk Modulus (GPa) = 17.46900 43.46688 30.46794
# Shear Modulus (GPa) = 17.09112 25.56990 21.33051
#
# Velocity S-wave (km/s) = 3.11463 3.80966 3.47954
# Velocity P-wave (km/s) = 4.78017 6.63500 5.78244
#
# Compressibility (1/GPa) = 0.05724426
#
# Stress axis : x y z
#
# Youngs Moduli (GPa) = 94.88714 13.04698 52.70531
#
# Poissons Ratio (x) = 0.13004 0.18331
# Poissons Ratio (y) = 0.94576 0.58038
# Poissons Ratio (z) = 0.33002 0.14367
#
# Static dielectric constant tensor:
#      x y z
#    x 1.644580 0.000000 -0.016090 
#    y 0.000000 1.600470 0.000000 
#    z -0.016090 0.000000 1.553670 
# 
# From -- ./inp_files/365219.got.cif
#   From: 2010.05.17/outbox.cif.g08.bks.cpg/sg12_183_cif.got.tgz:365219.got - 2010.06.03 13:09:07.
