data_PCOD9180617
_publ_section_title
;
Structure prediction by ZEFSAII (Michael W. Deem and Ramdas Pophale) SiO2 
 PCOD9180617
Probable space group: C 2/M
;
_chemical_formula_sum "Si O2"
_cell_formula_units_Z 64
_cell_length_a 15.964028
_cell_length_b 7.599272
_cell_length_c 29.497499
_cell_angle_alpha 90.000000
_cell_angle_beta 57.172840
_cell_angle_gamma 90.000000
_cell_volume 3007.038951
_symmetry_space_group_name_H-M "C 2/M"
_symmetry_group_IT_number 12
_symmetry_cell_setting 'monoclinic'
loop_
_space_group_symop_operation_xyz
x,y,z
-x,y,-z
-x,-y,-z
x,-y,z
1/2+x,1/2+y,z
1/2-x,1/2+y,-z
1/2-x,1/2-y,-z
1/2+x,1/2-y,z
loop_
_atom_site_type_symbol
_atom_site_label
_atom_site_fract_x
_atom_site_fract_y
_atom_site_fract_z
Si Si1 0.885328 0.784206 0.241801
Si Si2 0.160371 0.789500 0.060269
Si Si3 0.033924 0.290547 0.440900
Si Si4 0.470804 0.284825 0.058633
Si Si5 0.702359 0.290499 0.827714
Si Si6 0.613731 0.288550 0.172244
Si Si7 0.239636 0.784102 0.634110
Si Si8 0.659133 0.708593 0.560696
O O1 0.834736 0.723938 0.209833
O O2 0.823680 0.728270 0.303805
O O3 0.000296 0.726801 0.209236
O O4 0.885342 0.000000 0.241573
O O5 0.163649 0.721396 0.110688
O O6 0.057841 0.730640 0.067340
O O7 0.155680 0.000000 0.064453
O O8 0.250000 0.750000 0.000000
O O9 0.044883 0.500000 0.443071
O O10 0.144938 0.225534 0.396770
O O11 0.000000 0.219100 0.500000
O O12 0.945919 0.265078 0.430318
O O13 0.469078 0.500000 0.057214
O O14 0.367272 0.223341 0.110707
O O15 0.500000 0.223396 0.000000
O O16 0.687188 0.500000 0.830964
O O17 0.816143 0.257091 0.806527
O O18 0.609934 0.500000 0.170820
O O19 0.189340 0.723766 0.601699
O O20 0.239270 0.000000 0.633901
O O21 0.653295 0.500000 0.566377
O O22 0.750000 0.750000 0.500000
#
# Coordination Sequence:
#
# PCOD9180617 Si02
#       8
#     8   8   8   8   8   8   8   8
#     4   9  18  36  58  78 105 146 188 219 260 328
#     4  10  19  32  50  76 106 137 174 218 268 321
#     4  10  19  35  56  81 113 148 183 222 273 327
#     4   9  16  28  48  73 100 130 169 212 253 307
#     4  10  19  34  57  80 101 137 184 221 258 317
#     4  10  20  35  55  79 109 141 175 221 276 323
#     4   9  19  35  56  80 110 147 183 221 271 328
#     4  11  21  35  56  84 114 148 186 226 275 328
#
# _framework density 21.283396
#
# number of rings (size 3 to 8) (size 9 to 14) (size 15 to 20)
#    0.000    2.250    2.500    1.125    0.000    2.750 
#    0.000    1.250    0.000    5.250    0.000    0.000 
#    0.000    0.000    0.000    0.000    0.000    0.000 
#
# Total GULP energy -178682.835034 kJ/mol
# GULP energy per Si atom -5583.838595 kJ/mol
# Density = 2.123495 g / cm^3
# Si number density = 21.283396 Si / 1000 Ang^3
#
#
#
# Elastic Constant Matrix: (Units=GPa)
#
#
# Indices 1 2 3 4 5 6 
#
# 1 203.8479 -4.6217 108.3150 0.0000 0.8814 -0.0001
# 2 -4.6217 39.8901 6.2870 -0.0002 0.7605 -0.0003
# 3 108.3150 6.2870 184.1802 0.0000 1.9494 -0.0001
# 4 0.0000 -0.0002 0.0000 4.6503 0.0000 2.2176
# 5 0.8814 0.7605 1.9494 0.0000 29.6713 0.0000
# 6 -0.0001 -0.0003 -0.0001 2.2176 0.0000 19.9199
#
#
#
# Elastic Compliance Matrix: (Units=1/GPa)
#
#
# Indices 1 2 3 4 5 6 
#
# 1 0.007225 0.001514 -0.004301 0.000000 0.000029 0.000000
# 2 0.001514 0.025532 -0.001756 0.000001 -0.000584 0.000000
# 3 -0.004301 -0.001756 0.008023 0.000000 -0.000354 0.000000
# 4 0.000000 0.000001 0.000000 0.227097 0.000000 -0.025281
# 5 0.000029 -0.000584 -0.000354 0.000000 0.033740 0.000000
# 6 0.000000 0.000000 0.000000 -0.025281 0.000000 0.053015
#
#
# Mechanical properties :
#
#
# Convention : Reuss Voigt Hill
#
# Bulk Modulus (GPa) = 31.55094 71.98654 51.76874
# Shear Modulus (GPa) = 13.35887 32.04415 22.70151
#
# Velocity S-wave (km/s) = 2.50804 3.88441 3.26947
# Velocity P-wave (km/s) = 4.82114 7.34945 6.21522
#
# Compressibility (1/GPa) = 0.03169477
#
# Stress axis : x y z
#
# Youngs Moduli (GPa) = 138.40386 39.16614 124.64772
#
# Poissons Ratio (x) = -0.05932 0.53612
# Poissons Ratio (y) = -0.20961 0.21888
# Poissons Ratio (z) = 0.59529 0.06878
#
# Static dielectric constant tensor:
#      x y z
#    x 1.743630 0.000000 0.005720 
#    y 0.000000 1.813060 0.000000 
#    z 0.005720 0.000000 1.751760 
# 
# From -- ./inp_files/374980.got.cif
#   From: 2010.05.17/outbox.cif.g08.bks.cpg/sg12_188_cif.got.tgz:374980.got - 2010.06.03 13:09:07.
