data_PCOD9180430
_publ_section_title
;
Structure prediction by ZEFSAII (Michael W. Deem and Ramdas Pophale) SiO2 
 PCOD9180430
Probable space group: C 2/M
;
_chemical_formula_sum "Si O2"
_cell_formula_units_Z 64
_cell_length_a 30.627436
_cell_length_b 7.510167
_cell_length_c 22.956719
_cell_angle_alpha 90.000000
_cell_angle_beta 147.627440
_cell_angle_gamma 90.000000
_cell_volume 2827.265315
_symmetry_space_group_name_H-M "C 2/M"
_symmetry_group_IT_number 12
_symmetry_cell_setting 'monoclinic'
loop_
_space_group_symop_operation_xyz
x,y,z
-x,y,-z
-x,-y,-z
x,-y,z
1/2+x,1/2+y,z
1/2-x,1/2+y,-z
1/2-x,1/2-y,-z
1/2+x,1/2-y,z
loop_
_atom_site_type_symbol
_atom_site_label
_atom_site_fract_x
_atom_site_fract_y
_atom_site_fract_z
Si Si1 0.123139 0.781094 0.519101
Si Si2 0.034863 0.784058 0.203083
Si Si3 0.115923 0.706560 0.895986
Si Si4 0.441011 0.704791 0.293766
Si Si5 0.744372 0.211292 0.241449
Si Si6 0.079081 0.214451 0.124470
Si Si7 0.233632 0.219197 0.864053
Si Si8 0.668498 0.287439 0.443532
O O1 0.177771 0.720127 0.634650
O O2 0.165786 0.723394 0.506704
O O3 0.029203 0.719987 0.409981
O O4 0.122564 0.000000 0.519129
O O5 0.069936 0.723597 0.180704
O O6 0.093175 0.719250 0.320572
O O7 0.944275 0.723475 0.116657
O O8 0.034430 0.000000 0.202491
O O9 0.124637 0.500000 0.890455
O O10 0.073818 0.793899 0.792580
O O11 0.203017 0.778873 0.014950
O O12 0.443782 0.500000 0.316535
O O13 0.358270 0.780971 0.227487
O O14 0.662587 0.238295 0.186481
O O15 0.738958 0.278188 0.169299
O O16 0.756315 0.000000 0.249563
O O17 0.075929 0.000000 0.122220
O O18 0.000000 0.278092 0.000000
O O19 0.235193 0.000000 0.868212
O O20 0.659333 0.500000 0.436266
O O21 0.750000 0.250000 0.500000
#
# Coordination Sequence:
#
# PCOD9180430 Si02
#       8
#     8   8   8   8   8   8   8   8
#     4   9  18  33  55  79 106 138 179 222 261 320
#     4  10  20  35  54  75 106 145 180 216 266 325
#     4  11  21  34  53  83 114 137 178 230 273 323
#     4  10  19  37  59  78 108 146 180 221 274 325
#     4  10  20  36  56  81 111 142 180 226 272 318
#     4  10  21  36  54  79 109 145 188 223 260 321
#     4   9  20  35  55  82 109 141 181 225 273 325
#     4  10  19  32  49  74 102 133 174 213 259 313
#
# _framework density 22.636714999999999
#
# number of rings (size 3 to 8) (size 9 to 14) (size 15 to 20)
#    0.000    2.125    1.250    2.250    0.000    1.750 
#    0.000    5.000    0.000    0.000    0.000    1.750 
#    0.000    0.000    0.000    0.000    0.000    0.000 
#
# Total GULP energy -178818.218164 kJ/mol
# GULP energy per Si atom -5588.069318 kJ/mol
# Density = 2.258519 g / cm^3
# Si number density = 22.636715 Si / 1000 Ang^3
#
#
#
# Elastic Constant Matrix: (Units=GPa)
#
#
# Indices 1 2 3 4 5 6 
#
# 1 81.4808 -11.6868 20.9594 0.0000 8.0384 0.0000
# 2 -11.6868 59.5948 -2.5326 0.0000 -5.4305 0.0000
# 3 20.9594 -2.5326 139.0899 0.0000 7.4334 0.0000
# 4 0.0000 0.0000 0.0000 -3.4697 0.0000 3.1335
# 5 8.0384 -5.4305 7.4334 0.0000 40.4577 0.0000
# 6 0.0000 0.0000 0.0000 3.1335 0.0000 10.9278
#
#
#
# Elastic Compliance Matrix: (Units=1/GPa)
#
#
# Indices 1 2 3 4 5 6 
#
# 1 0.013281 0.002345 -0.001853 0.000000 -0.001984 0.000000
# 2 0.002345 0.017407 -0.000138 0.000000 0.001896 0.000000
# 3 -0.001853 -0.000138 0.007521 0.000000 -0.001032 0.000000
# 4 0.000000 0.000000 0.000000 -0.228927 0.000000 0.065644
# 5 -0.001984 0.001896 -0.001032 0.000000 0.025555 0.000000
# 6 0.000000 0.000000 0.000000 0.065644 0.000000 0.072687
#
#
# Mechanical properties :
#
#
# Convention : Reuss Voigt Hill
#
# Bulk Modulus (GPa) = 25.69442 32.62727 29.16085
# Shear Modulus (GPa) = -62.33499 27.81152 -17.26174
#
# Velocity S-wave (km/s) = -5.25328 3.50895 -2.76444
# Velocity P-wave (km/s) = 5.04187 5.55533 1.64942
#
# Compressibility (1/GPa) = 0.03891895
#
# Stress axis : x y z
#
# Youngs Moduli (GPa) = 75.29301 57.44893 132.95333
#
# Poissons Ratio (x) = -0.13472 0.24632
# Poissons Ratio (y) = -0.17657 0.01831
# Poissons Ratio (z) = 0.13949 0.00791
#
# Static dielectric constant tensor:
#      x y z
#    x 1.829020 0.000000 0.007600 
#    y 0.000000 2.047380 0.000000 
#    z 0.007600 0.000000 1.834340 
# 
# From -- ./inp_files/249753.got.cif
#   From: 2010.05.17/outbox.cif.g08.bks.cpg/sg12_125_cif.got.tgz:249753.got - 2010.06.03 13:09:07.
