data_PCOD9180484
_publ_section_title
;
Structure prediction by ZEFSAII (Michael W. Deem and Ramdas Pophale) SiO2 
 PCOD9180484
Probable space group: C 2/M
;
_chemical_formula_sum "Si O2"
_cell_formula_units_Z 48
_cell_length_a 18.559380
_cell_length_b 13.889380
_cell_length_c 12.263390
_cell_angle_alpha 90.000000
_cell_angle_beta 136.205311
_cell_angle_gamma 90.000000
_cell_volume 2187.816134
_symmetry_space_group_name_H-M "C 2/M"
_symmetry_group_IT_number 12
_symmetry_cell_setting 'monoclinic'
loop_
_space_group_symop_operation_xyz
x,y,z
-x,y,-z
-x,-y,-z
x,-y,z
1/2+x,1/2+y,z
1/2-x,1/2+y,-z
1/2-x,1/2-y,-z
1/2+x,1/2-y,z
loop_
_atom_site_type_symbol
_atom_site_label
_atom_site_fract_x
_atom_site_fract_y
_atom_site_fract_z
Si Si1 0.158186 0.897604 0.543558
Si Si2 0.896876 0.740593 0.337455
Si Si3 0.954205 0.110012 0.209528
Si Si4 0.170177 0.788487 0.101844
Si Si5 0.042030 0.611130 0.920166
Si Si6 0.339451 0.207570 0.675143
O O1 0.131558 0.813714 0.596331
O O2 0.278691 0.888561 0.648386
O O3 0.079934 0.888123 0.356098
O O4 0.134411 0.000000 0.569716
O O5 0.917540 0.810072 0.257112
O O6 0.789184 0.683963 0.204886
O O7 0.000000 0.690045 0.500000
O O8 0.922984 0.000000 0.202677
O O9 0.907937 0.140400 0.043695
O O10 0.150545 0.777171 0.209374
O O11 0.142444 0.680391 0.026916
O O12 0.057057 0.500000 0.903977
O O13 0.950639 0.669337 0.756350
O O14 0.000000 0.611554 0.000000
O O15 0.250000 0.250000 0.500000
#
# Coordination Sequence:
#
# PCOD9180484 Si02
#       6
#     8   8   8   8   8   8
#     4   9  17  30  50  74  96 123 163 207 245 282
#     4   9  18  32  52  74  95 124 164 209 253 291
#     4  10  19  32  50  74 104 133 162 198 244 301
#     4  10  20  33  51  73 100 131 163 204 251 297
#     4   9  18  32  51  74  97 123 160 207 253 288
#     4  10  19  32  50  70  99 133 166 202 242 290
#
# _framework density 21.939685999999998
#
# number of rings (size 3 to 8) (size 9 to 14) (size 15 to 20)
#    0.000    2.500    0.000    2.500    0.000    6.667 
#    0.000    1.667    0.000    7.000    0.000    0.000 
#    0.000    0.000    0.000    0.000    0.000    0.000 
#
# Total GULP energy -133752.563727 kJ/mol
# GULP energy per Si atom -5573.023489 kJ/mol
# Density = 2.188975 g / cm^3
# Si number density = 21.939686 Si / 1000 Ang^3
#
#
#
# Elastic Constant Matrix: (Units=GPa)
#
#
# Indices 1 2 3 4 5 6 
#
# 1 36.3235 2.9268 25.9675 0.0000 5.9741 0.0000
# 2 2.9268 31.9734 15.4915 0.0000 -8.4723 0.0000
# 3 25.9675 15.4915 138.7626 0.0000 2.1081 0.0000
# 4 0.0000 0.0000 0.0000 23.0373 0.0000 0.0436
# 5 5.9741 -8.4723 2.1081 0.0000 38.2629 0.0000
# 6 0.0000 0.0000 0.0000 0.0436 0.0000 4.2934
#
#
#
# Elastic Compliance Matrix: (Units=1/GPa)
#
#
# Indices 1 2 3 4 5 6 
#
# 1 0.032690 -0.001502 -0.005872 0.000000 -0.005113 0.000000
# 2 -0.001502 0.035454 -0.003803 0.000000 0.008294 0.000000
# 3 -0.005872 -0.003803 0.008736 0.000000 -0.000407 0.000000
# 4 0.000000 0.000000 0.000000 0.043409 0.000000 -0.000441
# 5 -0.005113 0.008294 -0.000407 0.000000 0.028792 0.000000
# 6 0.000000 0.000000 0.000000 -0.000441 0.000000 0.232919
#
#
# Mechanical properties :
#
#
# Convention : Reuss Voigt Hill
#
# Bulk Modulus (GPa) = 18.33989 32.87012 25.60501
# Shear Modulus (GPa) = 11.83348 23.96365 17.89857
#
# Velocity S-wave (km/s) = 2.32494 3.30851 2.85933
# Velocity P-wave (km/s) = 3.94772 5.44146 4.75363
#
# Compressibility (1/GPa) = 0.05452595
#
# Stress axis : x y z
#
# Youngs Moduli (GPa) = 30.59005 28.20557 114.46631
#
# Poissons Ratio (x) = 0.04237 0.67217
# Poissons Ratio (y) = 0.04595 0.43532
# Poissons Ratio (z) = 0.17963 0.10727
#
# Static dielectric constant tensor:
#      x y z
#    x 1.861140 0.000000 0.011380 
#    y 0.000000 1.848330 0.000000 
#    z 0.011380 0.000000 1.902210 
# 
# From -- ./inp_files/143515.got.cif
#   From: 2010.05.17/outbox.cif.g08.bks.cpg/sg12_72_cif.got.tgz:143515.got - 2010.06.03 13:09:07.
