data_PCOD9180940
_publ_section_title
;
Structure prediction by ZEFSAII (Michael W. Deem and Ramdas Pophale) SiO2 
 PCOD9180940
Probable space group: C 2/M
;
_chemical_formula_sum "Si O2"
_cell_formula_units_Z 64
_cell_length_a 15.999023
_cell_length_b 7.524790
_cell_length_c 24.701779
_cell_angle_alpha 90.000000
_cell_angle_beta 89.246019
_cell_angle_gamma 90.000000
_cell_volume 2973.572106
_symmetry_space_group_name_H-M "C 2/M"
_symmetry_group_IT_number 12
_symmetry_cell_setting 'monoclinic'
loop_
_space_group_symop_operation_xyz
x,y,z
-x,y,-z
-x,-y,-z
x,-y,z
1/2+x,1/2+y,z
1/2-x,1/2+y,-z
1/2-x,1/2-y,-z
1/2+x,1/2-y,z
loop_
_atom_site_type_symbol
_atom_site_label
_atom_site_fract_x
_atom_site_fract_y
_atom_site_fract_z
Si Si1 0.466973 0.787149 0.942206
Si Si2 0.778249 0.286892 0.938369
Si Si3 0.625171 0.286453 0.866196
Si Si4 0.967387 0.789019 0.672905
Si Si5 0.123077 0.781854 0.742461
Si Si6 0.783210 0.713419 0.672590
Si Si7 0.280747 0.287658 0.439454
Si Si8 0.028643 0.217286 0.558801
O O1 0.373420 0.720049 0.929795
O O2 0.538761 0.752690 0.897780
O O3 0.459189 0.000000 0.947563
O O4 0.500000 0.718393 0.000000
O O5 0.780613 0.500000 0.931305
O O6 0.705541 0.218417 0.899128
O O7 0.750000 0.250000 0.000000
O O8 0.632450 0.500000 0.864354
O O9 0.623780 0.222550 0.804485
O O10 0.874121 0.758674 0.693923
O O11 0.040827 0.721166 0.710796
O O12 0.976364 0.720869 0.611134
O O13 0.980620 0.000000 0.669361
O O14 0.205789 0.724939 0.709433
O O15 0.122606 0.000000 0.742563
O O16 0.778244 0.500000 0.671314
O O17 0.772574 0.781039 0.610832
O O18 0.282020 0.500000 0.434728
O O19 0.250000 0.250000 0.500000
O O20 0.376012 0.227276 0.432560
O O21 0.000000 0.278942 0.500000
O O22 0.025753 0.000000 0.557311
#
# Coordination Sequence:
#
# PCOD9180940 Si02
#       8
#     8   8   8   8   8   8   8   8
#     4  10  20  35  55  81 115 147 174 217 276 324
#     4  10  20  34  54  80 110 145 180 218 267 320
#     4  10  21  36  57  83 108 142 189 227 258 315
#     4  10  19  35  58  79 103 141 184 225 268 322
#     4   9  19  38  58  77 108 147 184 222 266 322
#     4  10  20  36  57  80 109 144 180 224 278 325
#     4  10  19  32  51  78 108 140 177 221 272 326
#     4   9  16  28  49  75 101 133 176 216 257 317
#
# _framework density 21.522933999999999
#
# number of rings (size 3 to 8) (size 9 to 14) (size 15 to 20)
#    0.000    2.250    2.500    0.750    0.000    3.250 
#    0.000    3.750    0.000    2.250    0.000    0.000 
#    0.000    0.000    0.000    0.000    0.000    0.000 
#
# Total GULP energy -178715.496701 kJ/mol
# GULP energy per Si atom -5584.859272 kJ/mol
# Density = 2.147395 g / cm^3
# Si number density = 21.522934 Si / 1000 Ang^3
#
#
#
# Elastic Constant Matrix: (Units=GPa)
#
#
# Indices 1 2 3 4 5 6 
#
# 1 218.3571 1.1008 109.5800 0.0000 8.7919 0.0000
# 2 1.1008 51.4369 1.8463 0.0000 4.9408 0.0000
# 3 109.5800 1.8463 177.8147 0.0000 5.5874 0.0000
# 4 0.0000 0.0000 0.0000 6.4069 0.0000 -2.7334
# 5 8.7919 4.9408 5.5874 0.0000 29.5735 0.0000
# 6 0.0000 0.0000 0.0000 -2.7334 0.0000 14.8126
#
#
#
# Elastic Compliance Matrix: (Units=1/GPa)
#
#
# Indices 1 2 3 4 5 6 
#
# 1 0.006674 0.000122 -0.004075 0.000000 -0.001235 0.000000
# 2 0.000122 0.019762 -0.000177 0.000000 -0.003305 0.000000
# 3 -0.004075 -0.000177 0.008146 0.000000 -0.000298 0.000000
# 4 0.000000 0.000000 0.000000 0.169418 0.000000 0.031263
# 5 -0.001235 -0.003305 -0.000298 0.000000 0.034789 0.000000
# 6 0.000000 0.000000 0.000000 0.031263 0.000000 0.073279
#
#
# Mechanical properties :
#
#
# Convention : Reuss Voigt Hill
#
# Bulk Modulus (GPa) = 37.98944 74.74032 56.36488
# Shear Modulus (GPa) = 15.19277 32.49739 23.84508
#
# Velocity S-wave (km/s) = 2.65974 3.88995 3.33211
# Velocity P-wave (km/s) = 5.20781 7.41464 6.40696
#
# Compressibility (1/GPa) = 0.02632311
#
# Stress axis : x y z
#
# Youngs Moduli (GPa) = 149.83726 50.60106 122.75217
#
# Poissons Ratio (x) = -0.00618 0.50026
# Poissons Ratio (y) = -0.01829 0.02167
# Poissons Ratio (z) = 0.61064 0.00893
#
# Static dielectric constant tensor:
#      x y z
#    x 1.772760 0.000000 0.012330 
#    y 0.000000 1.827460 0.000000 
#    z 0.012330 0.000000 1.754360 
# 
# From -- ./inp_files/338911.got.cif
#   From: 2010.05.17/outbox.cif.g08.bks.cpg/sg12_170_cif.got.tgz:338911.got - 2010.06.03 13:09:07.
