data_PCOD9180118
_publ_section_title
;
Structure prediction by ZEFSAII (Michael W. Deem and Ramdas Pophale) SiO2 
 PCOD9180118
Probable space group: C 2/M
;
_chemical_formula_sum "Si O2"
_cell_formula_units_Z 56
_cell_length_a 9.159941
_cell_length_b 19.067736
_cell_length_c 17.944349
_cell_angle_alpha 90.000000
_cell_angle_beta 112.903714
_cell_angle_gamma 90.000000
_cell_volume 2887.052423
_symmetry_space_group_name_H-M "C 2/M"
_symmetry_group_IT_number 12
_symmetry_cell_setting 'monoclinic'
loop_
_space_group_symop_operation_xyz
x,y,z
-x,y,-z
-x,-y,-z
x,-y,z
1/2+x,1/2+y,z
1/2-x,1/2+y,-z
1/2-x,1/2-y,-z
1/2+x,1/2-y,z
loop_
_atom_site_type_symbol
_atom_site_label
_atom_site_fract_x
_atom_site_fract_y
_atom_site_fract_z
Si Si1 0.977163 0.205347 0.788845
Si Si2 0.828119 0.921794 0.236841
Si Si3 0.594463 0.208295 0.945116
Si Si4 0.649475 0.766414 0.407321
Si Si5 0.948449 0.579898 0.165792
Si Si6 0.112879 0.669029 0.712532
Si Si7 0.933639 0.855064 0.403226
O O1 0.795773 0.185335 0.737625
O O2 0.088267 0.138956 0.794242
O O3 0.993144 0.237482 0.874558
O O4 0.037329 0.269837 0.749808
O O5 0.638678 0.912723 0.195688
O O6 0.881621 0.913649 0.334094
O O7 0.868582 0.000000 0.218700
O O8 0.627005 0.138986 0.902348
O O9 0.500000 0.187367 0.000000
O O10 0.750000 0.250000 0.000000
O O11 0.750000 0.750000 0.500000
O O12 0.502616 0.821831 0.381330
O O13 0.779971 0.804575 0.381927
O O14 0.563903 0.690811 0.385042
O O15 0.904388 0.500000 0.139326
O O16 0.906694 0.599316 0.242844
O O17 0.000000 0.872670 0.500000
#
# Coordination Sequence:
#
# PCOD9180118 Si02
#       7
#     8   8   8   8   8   8   8
#     4  11  22  36  60  88 114 148 198 246 292 354
#     4  11  22  38  58  83 120 162 203 245 290 348
#     4  11  22  39  61  88 116 148 187 239 299 354
#     4  10  19  31  53  87 118 148 194 247 296 339
#     4  10  22  39  61  87 118 157 199 238 290 358
#     4  11  19  35  61  84 118 154 196 248 292 344
#     4  10  20  34  54  86 118 153 197 247 302 343
#
# _framework density 19.396946
#
# number of rings (size 3 to 8) (size 9 to 14) (size 15 to 20)
#    0.000    1.429    2.857    5.143    0.000    1.143 
#    0.000    0.714    0.000    1.714    0.000    2.000 
#    0.000    0.000    0.000    0.000    0.000    0.000 
#
# Total GULP energy -156036.177304 kJ/mol
# GULP energy per Si atom -5572.720618 kJ/mol
# Density = 1.935280 g / cm^3
# Si number density = 19.396946 Si / 1000 Ang^3
#
#
#
# Elastic Constant Matrix: (Units=GPa)
#
#
# Indices 1 2 3 4 5 6 
#
# 1 85.6392 22.4099 2.6474 0.0000 13.8181 0.0000
# 2 22.4099 109.5782 28.5563 0.0000 6.7672 0.0000
# 3 2.6474 28.5563 73.7700 0.0000 6.8082 0.0000
# 4 0.0000 0.0000 0.0000 25.9039 0.0000 -0.9405
# 5 13.8181 6.7672 6.8082 0.0000 30.2739 0.0000
# 6 0.0000 0.0000 0.0000 -0.9405 0.0000 25.7922
#
#
#
# Elastic Compliance Matrix: (Units=1/GPa)
#
#
# Indices 1 2 3 4 5 6 
#
# 1 0.013254 -0.002638 0.001072 0.000000 -0.005701 0.000000
# 2 -0.002638 0.010734 -0.004034 0.000000 -0.000288 0.000000
# 3 0.001072 -0.004034 0.015359 0.000000 -0.003041 0.000000
# 4 0.000000 0.000000 0.000000 0.038655 0.000000 0.001410
# 5 -0.005701 -0.000288 -0.003041 0.000000 0.036382 0.000000
# 6 0.000000 0.000000 0.000000 0.001410 0.000000 0.038823
#
#
# Mechanical properties :
#
#
# Convention : Reuss Voigt Hill
#
# Bulk Modulus (GPa) = 35.52734 41.80164 38.66449
# Shear Modulus (GPa) = 28.77016 30.75224 29.76120
#
# Velocity S-wave (km/s) = 3.85545 3.98605 3.92129
# Velocity P-wave (km/s) = 6.17860 6.54081 6.36228
#
# Compressibility (1/GPa) = 0.02814734
#
# Stress axis : x y z
#
# Youngs Moduli (GPa) = 75.44966 93.15814 65.10650
#
# Poissons Ratio (x) = 0.24573 -0.06977
# Poissons Ratio (y) = 0.19902 0.26264
# Poissons Ratio (z) = -0.08085 0.37580
#
# Static dielectric constant tensor:
#      x y z
#    x 1.684140 0.000000 -0.002610 
#    y 0.000000 1.699450 0.000000 
#    z -0.002610 0.000000 1.822020 
# 
# From -- ./inp_files/257179.got.cif
#   From: 2010.05.17/outbox.cif.g08.bks.cpg/sg12_129_cif.got.tgz:257179.got - 2010.06.03 13:09:07.
