data_PCOD9180290
_publ_section_title
;
Structure prediction by ZEFSAII (Michael W. Deem and Ramdas Pophale) SiO2 
 PCOD9180290
Probable space group: C 2/M
;
_chemical_formula_sum "Si O2"
_cell_formula_units_Z 64
_cell_length_a 27.947548
_cell_length_b 9.247883
_cell_length_c 16.529403
_cell_angle_alpha 90.000000
_cell_angle_beta 87.126827
_cell_angle_gamma 90.000000
_cell_volume 4266.747339
_symmetry_space_group_name_H-M "C 2/M"
_symmetry_group_IT_number 12
_symmetry_cell_setting 'monoclinic'
loop_
_space_group_symop_operation_xyz
x,y,z
-x,y,-z
-x,-y,-z
x,-y,z
1/2+x,1/2+y,z
1/2-x,1/2+y,-z
1/2-x,1/2-y,-z
1/2+x,1/2-y,z
loop_
_atom_site_type_symbol
_atom_site_label
_atom_site_fract_x
_atom_site_fract_y
_atom_site_fract_z
Si Si1 0.820010 0.333475 0.446663
Si Si2 0.847695 0.826714 0.286816
Si Si3 0.208607 0.833752 0.397630
Si Si4 0.710508 0.826809 0.058894
Si Si5 0.071829 0.828670 0.849542
Si Si6 0.611080 0.328438 0.028357
Si Si7 0.759792 0.328711 0.758765
Si Si8 0.019541 0.333919 0.090904
O O1 0.834469 0.500000 0.453142
O O2 0.848005 0.252775 0.372765
O O3 0.821031 0.251818 0.532069
O O4 0.764096 0.331234 0.423307
O O5 0.891018 0.787287 0.223736
O O6 0.796517 0.792788 0.248879
O O7 0.848788 0.000000 0.298952
O O8 0.210232 0.757959 0.310512
O O9 0.193567 0.000000 0.393887
O O10 0.723994 0.800917 0.151456
O O11 0.710177 0.000000 0.045403
O O12 0.750000 0.750000 0.000000
O O13 0.659402 0.756770 0.043448
O O14 0.097212 0.809041 0.934830
O O15 0.022980 0.738190 0.854349
O O16 0.061143 0.000000 0.843526
O O17 0.616291 0.500000 0.042199
O O18 0.567419 0.261423 0.083530
O O19 0.764712 0.500000 0.741917
O O20 0.029000 0.500000 0.113227
O O21 0.000000 0.334604 0.000000
#
# Coordination Sequence:
#
# PCOD9180290 Si02
#       8
#     8   8   8   8   8   8   8   8
#     4   9  16  25  38  58  83 110 139 172 213 257
#     4   9  16  27  42  60  85 115 146 177 212 257
#     4   9  16  26  41  59  79 107 143 179 213 252
#     4  11  22  34  47  64  88 118 152 187 222 257
#     4   9  17  29  45  64  87 116 146 178 220 266
#     4  10  19  32  48  64  85 115 150 185 222 261
#     4   9  18  31  44  59  83 116 150 183 217 253
#     4   9  17  29  45  65  86 109 141 181 222 263
#
# _framework density 14.999717
#
# number of rings (size 3 to 8) (size 9 to 14) (size 15 to 20)
#    0.000    2.625    0.000    2.625    0.000    8.500 
#    0.000    2.500    0.000    0.000    0.000    0.000 
#    0.000    1.000    0.000   10.500    0.000    5.000 
#
# Total GULP energy -178356.824446 kJ/mol
# GULP energy per Si atom -5573.650764 kJ/mol
# Density = 1.496558 g / cm^3
# Si number density = 14.999717 Si / 1000 Ang^3
#
#
#
# Elastic Constant Matrix: (Units=GPa)
#
#
# Indices 1 2 3 4 5 6 
#
# 1 87.4273 60.2628 52.8304 0.0000 -21.9619 0.0000
# 2 60.2628 101.3865 76.5201 0.0000 -18.2195 0.0000
# 3 52.8304 76.5201 100.1126 0.0000 -27.0964 0.0000
# 4 0.0000 0.0000 0.0000 25.7003 0.0000 -4.4938
# 5 -21.9619 -18.2195 -27.0964 0.0000 23.6170 0.0000
# 6 0.0000 0.0000 0.0000 -4.4938 0.0000 23.6584
#
#
#
# Elastic Compliance Matrix: (Units=1/GPa)
#
#
# Indices 1 2 3 4 5 6 
#
# 1 0.021970 -0.010880 -0.000029 0.000000 0.012004 0.000000
# 2 -0.010880 0.028907 -0.018936 0.000000 -0.009543 0.000000
# 3 -0.000029 -0.018936 0.029758 0.000000 0.019506 0.000000
# 4 0.000000 0.000000 0.000000 0.040247 0.000000 0.007645
# 5 0.012004 -0.009543 0.019506 0.000000 0.068523 0.000000
# 6 0.000000 0.000000 0.000000 0.007645 0.000000 0.043720
#
#
# Mechanical properties :
#
#
# Convention : Reuss Voigt Hill
#
# Bulk Modulus (GPa) = 47.74580 74.23922 60.99251
# Shear Modulus (GPa) = 16.67795 21.21601 18.94698
#
# Velocity S-wave (km/s) = 3.33811 3.76497 3.55795
# Velocity P-wave (km/s) = 6.83795 8.27654 7.59140
#
# Compressibility (1/GPa) = 0.02094425
#
# Stress axis : x y z
#
# Youngs Moduli (GPa) = 45.51578 34.59351 33.60494
#
# Poissons Ratio (x) = 0.37637 0.00098
# Poissons Ratio (y) = 0.49520 0.63636
# Poissons Ratio (z) = 0.00133 0.65508
#
# Static dielectric constant tensor:
#      x y z
#    x 1.475820 0.000000 -0.006110 
#    y 0.000000 1.503900 0.000000 
#    z -0.006110 0.000000 1.481610 
# 
# From -- ./inp_files/238808.got.cif
#   From: 2010.05.17/outbox.cif.g08.bks.cpg/sg12_120_cif.got.tgz:238808.got - 2010.06.03 13:09:07.
