data_PCOD9180186
_publ_section_title
;
Structure prediction by ZEFSAII (Michael W. Deem and Ramdas Pophale) SiO2 
 PCOD9180186
Probable space group: C 2/M
;
_chemical_formula_sum "Si O2"
_cell_formula_units_Z 64
_cell_length_a 9.342740
_cell_length_b 17.923621
_cell_length_c 28.913508
_cell_angle_alpha 90.000000
_cell_angle_beta 139.243850
_cell_angle_gamma 90.000000
_cell_volume 3160.881871
_symmetry_space_group_name_H-M "C 2/M"
_symmetry_group_IT_number 12
_symmetry_cell_setting 'monoclinic'
loop_
_space_group_symop_operation_xyz
x,y,z
-x,y,-z
-x,-y,-z
x,-y,z
1/2+x,1/2+y,z
1/2-x,1/2+y,-z
1/2-x,1/2-y,-z
1/2+x,1/2-y,z
loop_
_atom_site_type_symbol
_atom_site_label
_atom_site_fract_x
_atom_site_fract_y
_atom_site_fract_z
Si Si1 0.748731 0.088422 0.424171
Si Si2 0.966620 0.090368 0.843161
Si Si3 0.284143 0.088023 0.755262
Si Si4 0.033535 0.289632 0.428215
Si Si5 0.387374 0.910175 0.887681
Si Si6 0.936747 0.799570 0.654978
Si Si7 0.882390 0.908954 0.018603
Si Si8 0.504432 0.157762 0.722581
O O1 0.599315 0.129465 0.425299
O O2 0.674149 0.123639 0.357113
O O3 0.000000 0.104720 0.500000
O O4 0.719798 0.000000 0.415573
O O5 0.742295 0.124318 0.769221
O O6 0.182248 0.116078 0.868002
O O7 0.952981 0.000000 0.836740
O O8 0.994481 0.110878 0.903974
O O9 0.347424 0.102438 0.823680
O O10 0.438360 0.131653 0.757306
O O11 0.041131 0.119972 0.687011
O O12 0.300608 0.000000 0.750345
O O13 0.250000 0.250000 0.500000
O O14 0.971350 0.239641 0.368435
O O15 0.825969 0.296300 0.410527
O O16 0.630139 0.882741 0.959746
O O17 0.392265 0.000000 0.895767
O O18 0.008299 0.745822 0.714476
O O19 0.878340 0.000000 0.016047
O O20 0.000000 0.884371 0.000000
#
# Coordination Sequence:
#
# PCOD9180186 Si02
#       8
#     8   8   8   8   8   8   8   8
#     4  10  22  38  62  91 121 158 202 254 309 370
#     4  10  19  31  55  86 119 160 207 258 306 359
#     4  11  23  39  61  90 124 160 204 259 309 359
#     4  11  22  42  63  86 117 158 203 248 311 380
#     4   9  19  32  51  83 122 159 201 254 307 360
#     4  11  24  40  62  88 118 159 205 252 307 374
#     4   9  16  29  50  80 120 163 205 248 301 365
#     4  11  22  40  60  85 122 162 206 250 310 375
#
# _framework density 20.247515
#
# number of rings (size 3 to 8) (size 9 to 14) (size 15 to 20)
#    0.000    1.750    1.250    4.125    3.500    4.000 
#    0.000    0.000    0.000    2.250    0.000    0.000 
#    0.000    0.000    0.000    0.000    0.000    0.000 
#
# Total GULP energy -178703.772694 kJ/mol
# GULP energy per Si atom -5584.492897 kJ/mol
# Density = 2.020143 g / cm^3
# Si number density = 20.247515 Si / 1000 Ang^3
#
#
#
# Elastic Constant Matrix: (Units=GPa)
#
#
# Indices 1 2 3 4 5 6 
#
# 1 100.9833 5.0086 21.8593 0.0001 6.6895 0.0000
# 2 5.0086 25.1070 0.3600 0.0001 -3.7230 0.0000
# 3 21.8593 0.3600 72.5373 0.0005 15.1400 0.0002
# 4 0.0001 0.0001 0.0005 7.3520 0.0002 -1.6712
# 5 6.6895 -3.7230 15.1400 0.0002 28.8744 0.0001
# 6 0.0000 0.0000 0.0002 -1.6712 0.0001 20.4979
#
#
#
# Elastic Compliance Matrix: (Units=1/GPa)
#
#
# Indices 1 2 3 4 5 6 
#
# 1 0.010740 -0.002282 -0.002969 0.000000 -0.001225 0.000000
# 2 -0.002282 0.041228 -0.000827 -0.000001 0.006278 0.000000
# 3 -0.002969 -0.000827 0.016353 -0.000001 -0.007993 0.000000
# 4 0.000000 -0.000001 -0.000001 0.138585 0.000000 0.011299
# 5 -0.001225 0.006278 -0.007993 0.000000 0.039917 0.000000
# 6 0.000000 0.000000 0.000000 0.011299 0.000000 0.049707
#
#
# Mechanical properties :
#
#
# Convention : Reuss Voigt Hill
#
# Bulk Modulus (GPa) = 17.80504 28.12037 22.96271
# Shear Modulus (GPa) = 15.27146 22.77150 19.02148
#
# Velocity S-wave (km/s) = 2.74932 3.35723 3.06837
# Velocity P-wave (km/s) = 4.34639 5.38019 4.89068
#
# Compressibility (1/GPa) = 0.05616386
#
# Stress axis : x y z
#
# Youngs Moduli (GPa) = 93.11223 24.25561 61.14958
#
# Poissons Ratio (x) = 0.05534 0.18158
# Poissons Ratio (y) = 0.21245 0.05060
# Poissons Ratio (z) = 0.27648 0.02007
#
# Static dielectric constant tensor:
#      x y z
#    x 1.739470 0.000000 0.004990 
#    y 0.000000 1.695450 0.000000 
#    z 0.004990 0.000000 1.730700 
# 
# From -- ./inp_files/372984.got.cif
#   From: 2010.05.17/outbox.cif.g08.bks.cpg/sg12_187_cif.got.tgz:372984.got - 2010.06.03 13:09:07.
