data_PCOD9180591
_publ_section_title
;
Structure prediction by ZEFSAII (Michael W. Deem and Ramdas Pophale) SiO2 
 PCOD9180591
Probable space group: C 2/M
;
_chemical_formula_sum "Si O2"
_cell_formula_units_Z 48
_cell_length_a 8.448391
_cell_length_b 19.089316
_cell_length_c 16.100006
_cell_angle_alpha 90.000000
_cell_angle_beta 58.845540
_cell_angle_gamma 90.000000
_cell_volume 2222.032342
_symmetry_space_group_name_H-M "C 2/M"
_symmetry_group_IT_number 12
_symmetry_cell_setting 'monoclinic'
loop_
_space_group_symop_operation_xyz
x,y,z
-x,y,-z
-x,-y,-z
x,-y,z
1/2+x,1/2+y,z
1/2-x,1/2+y,-z
1/2-x,1/2-y,-z
1/2+x,1/2-y,z
loop_
_atom_site_type_symbol
_atom_site_label
_atom_site_fract_x
_atom_site_fract_y
_atom_site_fract_z
Si Si1 0.849185 0.209822 0.737324
Si Si2 0.018129 0.083250 0.894609
Si Si3 0.240904 0.080109 0.527098
Si Si4 0.243514 0.844826 0.693436
Si Si5 0.793124 0.693330 0.058390
Si Si6 0.288667 0.418472 0.648936
O O1 0.867853 0.277130 0.675094
O O2 0.729869 0.233064 0.848331
O O3 0.746118 0.143051 0.724976
O O4 0.047332 0.187071 0.716761
O O5 0.846569 0.128607 0.907680
O O6 0.192866 0.110757 0.790802
O O7 0.002997 0.000000 0.883657
O O8 0.000000 0.093672 0.000000
O O9 0.307613 0.113324 0.594775
O O10 0.284144 0.105104 0.421897
O O11 0.014159 0.081267 0.588980
O O12 0.297386 0.000000 0.512651
O O13 0.750000 0.750000 0.000000
O O14 0.000000 0.666558 0.000000
O O15 0.233381 0.500000 0.680260
#
# Coordination Sequence:
#
# PCOD9180591 Si02
#       6
#     8   8   8   8   8   8
#     4  10  20  31  50  74  98 131 163 203 250 293
#     4  10  21  36  54  76 103 135 172 215 257 300
#     4   8  14  27  49  72  96 128 164 204 246 292
#     4  10  19  32  50  75 103 130 167 204 249 303
#     4  11  21  35  54  75 104 139 172 207 253 305
#     4   8  15  29  48  72  98 125 163 207 249 292
#
# _framework density 21.601846999999999
#
# number of rings (size 3 to 8) (size 9 to 14) (size 15 to 20)
#    0.000    2.500    0.000    5.000    0.000    5.000 
#    0.000    0.000    0.000    2.000    0.000    2.333 
#    0.000    0.000    0.000    0.000    0.000    0.000 
#
# Total GULP energy -133763.891682 kJ/mol
# GULP energy per Si atom -5573.495487 kJ/mol
# Density = 2.155268 g / cm^3
# Si number density = 21.601847 Si / 1000 Ang^3
#
#
#
# Elastic Constant Matrix: (Units=GPa)
#
#
# Indices 1 2 3 4 5 6 
#
# 1 31.0751 19.6103 17.0616 0.0000 11.5195 0.0000
# 2 19.6103 108.8804 47.4874 0.0000 25.8194 0.0000
# 3 17.0616 47.4874 102.6804 0.0000 32.4437 0.0000
# 4 0.0000 0.0000 0.0000 35.1280 0.0000 13.1841
# 5 11.5195 25.8194 32.4437 0.0000 30.2847 0.0000
# 6 0.0000 0.0000 0.0000 13.1841 0.0000 23.9897
#
#
#
# Elastic Compliance Matrix: (Units=1/GPa)
#
#
# Indices 1 2 3 4 5 6 
#
# 1 0.039227 -0.004069 -0.001538 0.000000 -0.009803 0.000000
# 2 -0.004069 0.012756 -0.003441 0.000000 -0.005641 0.000000
# 3 -0.001538 -0.003441 0.015834 0.000000 -0.013444 0.000000
# 4 0.000000 0.000000 0.000000 0.035865 0.000000 -0.019711
# 5 -0.009803 -0.005641 -0.013444 0.000000 0.055961 0.000000
# 6 0.000000 0.000000 0.000000 -0.019711 0.000000 0.052517
#
#
# Mechanical properties :
#
#
# Convention : Reuss Voigt Hill
#
# Bulk Modulus (GPa) = 20.11290 45.66160 32.88725
# Shear Modulus (GPa) = 20.25695 28.44557 24.35126
#
# Velocity S-wave (km/s) = 3.06558 3.63273 3.36114
# Velocity P-wave (km/s) = 4.67561 6.22730 5.50639
#
# Compressibility (1/GPa) = 0.04971933
#
# Stress axis : x y z
#
# Youngs Moduli (GPa) = 25.49269 78.39673 63.15672
#
# Poissons Ratio (x) = 0.31902 0.09716
# Poissons Ratio (y) = 0.10374 0.21730
# Poissons Ratio (z) = 0.03922 0.26973
#
# Static dielectric constant tensor:
#      x y z
#    x 1.828700 0.000000 -0.046020 
#    y 0.000000 1.764700 0.000000 
#    z -0.046020 0.000000 2.071330 
# 
# From -- ./inp_files/196890.got.cif
#   From: 2010.05.17/outbox.cif.g08.bks.cpg/sg12_99_cif.got.tgz:196890.got - 2010.06.03 13:09:07.
