data_PCOD9180258
_publ_section_title
;
Structure prediction by ZEFSAII (Michael W. Deem and Ramdas Pophale) SiO2 
 PCOD9180258
Probable space group: C 2/M
;
_chemical_formula_sum "Si O2"
_cell_formula_units_Z 64
_cell_length_a 9.246976
_cell_length_b 27.543924
_cell_length_c 22.444186
_cell_angle_alpha 90.000000
_cell_angle_beta 133.102874
_cell_angle_gamma 90.000000
_cell_volume 4173.768970
_symmetry_space_group_name_H-M "C 2/M"
_symmetry_group_IT_number 12
_symmetry_cell_setting 'monoclinic'
loop_
_space_group_symop_operation_xyz
x,y,z
-x,y,-z
-x,-y,-z
x,-y,z
1/2+x,1/2+y,z
1/2-x,1/2+y,-z
1/2-x,1/2-y,-z
1/2+x,1/2-y,z
loop_
_atom_site_type_symbol
_atom_site_label
_atom_site_fract_x
_atom_site_fract_y
_atom_site_fract_z
Si Si1 0.284562 0.730895 0.442428
Si Si2 0.977668 0.196239 0.084986
Si Si3 0.345966 0.210964 0.339174
Si Si4 0.786431 0.654702 0.090475
Si Si5 0.793092 0.945511 0.131659
Si Si6 0.327405 0.213308 0.802177
Si Si7 0.018887 0.846750 0.787456
Si Si8 0.668391 0.054715 0.961180
O O1 0.500000 0.704016 0.500000
O O2 0.250000 0.750000 0.500000
O O3 0.319556 0.771896 0.400838
O O4 0.068806 0.705642 0.375468
O O5 0.911965 0.176106 0.129972
O O6 0.151951 0.161901 0.109957
O O7 0.076830 0.248691 0.123435
O O8 0.809342 0.189627 0.987839
O O9 0.241732 0.254282 0.272535
O O10 0.211002 0.164408 0.287855
O O11 0.778487 0.599914 0.065017
O O12 0.003577 0.674450 0.164229
O O13 0.921088 0.902600 0.194974
O O14 0.566697 0.941803 0.091150
O O15 0.863928 0.000000 0.164649
O O16 0.776368 0.940014 0.055366
O O17 0.141039 0.184431 0.774421
O O18 0.708660 0.000000 0.949814
#
# Coordination Sequence:
#
# PCOD9180258 Si02
#       8
#     8   8   8   8   8   8   8   8
#     4   9  18  33  53  71  99 134 155 180 213 272
#     4  10  22  31  40  64  92 124 166 207 241 285
#     4  10  19  32  46  76 102 129 158 183 229 284
#     4  11  20  33  43  62  89 124 171 211 246 283
#     4   9  17  31  48  67  84 117 170 216 251 282
#     4  11  21  31  46  63  96 135 162 191 237 280
#     4  11  19  31  49  68  93 129 159 202 246 280
#     4   9  17  31  49  62  80 116 172 225 254 283
#
# _framework density 15.333862999999999
#
# number of rings (size 3 to 8) (size 9 to 14) (size 15 to 20)
#    0.000    2.000    3.750    2.625    1.750    1.500 
#    0.000    1.875    0.000    0.000    0.000    0.000 
#    0.000    5.000    0.000    1.000    0.000    0.000 
#
# Total GULP energy -178163.077671 kJ/mol
# GULP energy per Si atom -5567.596177 kJ/mol
# Density = 1.529896 g / cm^3
# Si number density = 15.333863 Si / 1000 Ang^3
#
#
#
# Elastic Constant Matrix: (Units=GPa)
#
#
# Indices 1 2 3 4 5 6 
#
# 1 70.1559 22.6120 18.5130 0.0000 8.9570 0.0000
# 2 22.6120 102.7087 20.5086 0.0000 5.6877 0.0000
# 3 18.5130 20.5086 47.5933 0.0000 8.4859 0.0000
# 4 0.0000 0.0000 0.0000 9.3571 0.0000 0.5665
# 5 8.9570 5.6877 8.4859 0.0000 28.6899 0.0000
# 6 0.0000 0.0000 0.0000 0.5665 0.0000 33.9933
#
#
#
# Elastic Compliance Matrix: (Units=1/GPa)
#
#
# Indices 1 2 3 4 5 6 
#
# 1 0.016772 -0.002543 -0.004840 0.000000 -0.003301 0.000000
# 2 -0.002543 0.011056 -0.003722 0.000000 -0.000297 0.000000
# 3 -0.004840 -0.003722 0.025438 0.000000 -0.005275 0.000000
# 4 0.000000 0.000000 0.000000 0.106979 0.000000 -0.001783
# 5 -0.003301 -0.000297 -0.005275 0.000000 0.037505 0.000000
# 6 0.000000 0.000000 0.000000 -0.001783 0.000000 0.029447
#
#
# Mechanical properties :
#
#
# Convention : Reuss Voigt Hill
#
# Bulk Modulus (GPa) = 32.19927 38.19169 35.19548
# Shear Modulus (GPa) = 19.24860 24.99635 22.12248
#
# Velocity S-wave (km/s) = 3.54687 4.04188 3.80244
# Velocity P-wave (km/s) = 6.14964 6.83690 6.50236
#
# Compressibility (1/GPa) = 0.03105661
#
# Stress axis : x y z
#
# Youngs Moduli (GPa) = 59.62236 90.45003 39.31086
#
# Poissons Ratio (x) = 0.23005 0.19025
# Poissons Ratio (y) = 0.15164 0.14631
# Poissons Ratio (z) = 0.28855 0.33664
#
# Static dielectric constant tensor:
#      x y z
#    x 1.542440 0.000000 0.022740 
#    y 0.000000 1.497210 0.000000 
#    z 0.022740 0.000000 1.538960 
# 
# From -- ./inp_files/302569.got.cif
#   From: 2010.05.17/outbox.cif.g08.bks.cpg/sg12_152_cif.got.tgz:302569.got - 2010.06.03 13:09:07.
