data_PCOD9180384
_publ_section_title
;
Structure prediction by ZEFSAII (Michael W. Deem and Ramdas Pophale) SiO2 
 PCOD9180384
Probable space group: C 2/M
;
_chemical_formula_sum "Si O2"
_cell_formula_units_Z 40
_cell_length_a 26.772666
_cell_length_b 12.967878
_cell_length_c 15.901787
_cell_angle_alpha 90.000000
_cell_angle_beta 21.924625
_cell_angle_gamma 90.000000
_cell_volume 2061.413441
_symmetry_space_group_name_H-M "C 2/M"
_symmetry_group_IT_number 12
_symmetry_cell_setting 'monoclinic'
loop_
_space_group_symop_operation_xyz
x,y,z
-x,y,-z
-x,-y,-z
x,-y,z
1/2+x,1/2+y,z
1/2-x,1/2+y,-z
1/2-x,1/2-y,-z
1/2+x,1/2-y,z
loop_
_atom_site_type_symbol
_atom_site_label
_atom_site_fract_x
_atom_site_fract_y
_atom_site_fract_z
Si Si1 0.469679 0.720146 0.818741
Si Si2 0.083170 0.385433 0.240065
Si Si3 0.816670 0.321656 0.738895
Si Si4 0.974777 0.384280 0.940776
Si Si5 0.340338 0.615546 0.609888
O O1 0.413806 0.804529 0.839364
O O2 0.530043 0.789822 0.798935
O O3 0.572425 0.650515 0.606839
O O4 0.334366 0.661128 0.056490
O O5 0.122133 0.500000 0.151895
O O6 0.169793 0.349790 0.184593
O O7 0.930390 0.384914 0.512520
O O8 0.856853 0.203402 0.654680
O O9 0.023414 0.500000 0.840730
O O10 0.815374 0.383015 0.172974
O O11 0.000000 0.370461 0.000000
O O12 0.376752 0.500000 0.579428
#
# Coordination Sequence:
#
# PCOD9180384 Si02
#       5
#     8   8   8   8   8
#     4  10  19  32  50  73  98 124 159 199 240 279
#     4  10  19  32  49  70  97 129 164 197 231 277
#     4   9  18  32  46  67  97 128 159 193 231 276
#     4   9  18  34  54  73  94 123 158 196 240 288
#     4   9  19  33  49  71  99 127 157 195 236 282
#
# _framework density 19.404163
#
# number of rings (size 3 to 8) (size 9 to 14) (size 15 to 20)
#    0.000    2.600    0.000    2.400    0.000    3.200 
#    0.000    8.000    0.000    0.600    0.000    0.000 
#    0.000    0.000    0.000    0.000    0.000    0.000 
#
# Total GULP energy -111528.720743 kJ/mol
# GULP energy per Si atom -5576.436037 kJ/mol
# Density = 1.936000 g / cm^3
# Si number density = 19.404163 Si / 1000 Ang^3
#
#
#
# Elastic Constant Matrix: (Units=GPa)
#
#
# Indices 1 2 3 4 5 6 
#
# 1 36.5651 -3.9412 -11.3495 0.0000 -1.0490 0.0000
# 2 -3.9412 82.0128 5.6964 0.0000 -3.1180 0.0000
# 3 -11.3495 5.6964 35.2028 0.0000 10.5098 0.0000
# 4 0.0000 0.0000 0.0000 10.2842 0.0000 -6.3311
# 5 -1.0490 -3.1180 10.5098 0.0000 13.3228 0.0000
# 6 0.0000 0.0000 0.0000 -6.3311 0.0000 16.9727
#
#
#
# Elastic Compliance Matrix: (Units=1/GPa)
#
#
# Indices 1 2 3 4 5 6 
#
# 1 0.030906 0.000391 0.011965 0.000000 -0.006913 0.000000
# 2 0.000391 0.012693 -0.003694 0.000000 0.005915 0.000000
# 3 0.011965 -0.003694 0.042956 0.000000 -0.033808 0.000000
# 4 0.000000 0.000000 0.000000 0.126222 0.000000 0.047083
# 5 -0.006913 0.005915 -0.033808 0.000000 0.102569 0.000000
# 6 0.000000 0.000000 0.000000 0.047083 0.000000 0.076481
#
#
# Mechanical properties :
#
#
# Convention : Reuss Voigt Hill
#
# Bulk Modulus (GPa) = 9.62648 14.95465 12.29057
# Shear Modulus (GPa) = 12.22109 19.00760 15.61435
#
# Velocity S-wave (km/s) = 2.51234 3.13319 2.83978
# Velocity P-wave (km/s) = 3.65891 4.56211 4.13524
#
# Compressibility (1/GPa) = 0.10388012
#
# Stress axis : x y z
#
# Youngs Moduli (GPa) = 32.35598 78.78060 23.27990
#
# Poissons Ratio (x) = -0.03083 -0.27854
# Poissons Ratio (y) = -0.01266 0.08599
# Poissons Ratio (z) = -0.38714 0.29101
#
# Static dielectric constant tensor:
#      x y z
#    x 1.656630 0.000000 0.016350 
#    y 0.000000 1.735980 0.000000 
#    z 0.016350 0.000000 1.704190 
# 
# From -- ./inp_files/182717.got.cif
#   From: 2010.05.17/outbox.cif.g08.bks.cpg/sg12_92_cif.got.tgz:182717.got - 2010.06.03 13:09:07.
