data_PCOD9180348
_publ_section_title
;
Structure prediction by ZEFSAII (Michael W. Deem and Ramdas Pophale) SiO2 
 PCOD9180348
Probable space group: C 2/M
;
_chemical_formula_sum "Si O2"
_cell_formula_units_Z 48
_cell_length_a 14.690884
_cell_length_b 31.377571
_cell_length_c 5.611271
_cell_angle_alpha 90.000000
_cell_angle_beta 112.454886
_cell_angle_gamma 90.000000
_cell_volume 2390.481165
_symmetry_space_group_name_H-M "C 2/M"
_symmetry_group_IT_number 12
_symmetry_cell_setting 'monoclinic'
loop_
_space_group_symop_operation_xyz
x,y,z
-x,y,-z
-x,-y,-z
x,-y,z
1/2+x,1/2+y,z
1/2-x,1/2+y,-z
1/2-x,1/2-y,-z
1/2+x,1/2-y,z
loop_
_atom_site_type_symbol
_atom_site_label
_atom_site_fract_x
_atom_site_fract_y
_atom_site_fract_z
Si Si1 0.116934 0.691332 0.616934
Si Si2 0.883897 0.174456 0.883897
Si Si3 0.884368 0.824393 0.384368
Si Si4 0.808308 0.729358 0.808308
Si Si5 0.380132 0.049639 0.880132
Si Si6 0.879557 0.593305 0.379557
O O1 0.146487 0.710573 0.388881
O O2 0.152390 0.642436 0.652390
O O3 0.000000 0.692225 0.500000
O O4 0.146487 0.710573 0.904094
O O5 0.866164 0.152021 0.614810
O O6 0.828388 0.219976 0.828388
O O7 0.866164 0.152021 0.117518
O O8 0.000000 0.185347 0.000000
O O9 0.805479 0.786113 0.305479
O O10 0.000000 0.810408 0.500000
O O11 0.348660 0.071416 0.598621
O O12 0.352058 0.000000 0.852058
O O13 0.500000 0.051644 0.000000
O O14 0.348660 0.071416 0.098698
O O15 0.000000 0.592531 0.500000
#
# Coordination Sequence:
#
# PCOD9180348 Si02
#       6
#     8   8   8   8   8   8
#     4  11  22  33  46  66  92 122 154 187 222 264
#     4  10  19  32  49  68  90 113 140 184 233 276
#     4  10  21  35  50  68  89 112 144 189 237 276
#     4  12  21  33  50  68  88 118 153 182 225 278
#     4   9  15  24  40  59  79 110 151 185 210 241
#     4   9  17  28  39  56  85 114 144 184 217 243
#
# _framework density 20.079640000000001
#
# number of rings (size 3 to 8) (size 9 to 14) (size 15 to 20)
#    0.000    1.833    0.000    6.000    0.000    6.000 
#    0.000    0.000    0.000    0.000    0.000    0.000 
#    0.000    0.000    0.000    0.000    0.000   58.333 
#
# Total GULP energy -133774.418206 kJ/mol
# GULP energy per Si atom -5573.934092 kJ/mol
# Density = 2.003394 g / cm^3
# Si number density = 20.079640 Si / 1000 Ang^3
#
#
#
# Elastic Constant Matrix: (Units=GPa)
#
#
# Indices 1 2 3 4 5 6 
#
# 1 78.5294 -9.8427 38.4559 0.0000 -8.5067 0.0000
# 2 -9.8427 62.6307 54.8211 0.0000 -30.6624 0.0000
# 3 38.4559 54.8211 234.1532 0.0000 -65.2874 0.0000
# 4 0.0000 0.0000 0.0000 11.2799 0.0000 -40.2056
# 5 -8.5067 -30.6624 -65.2874 0.0000 55.9310 0.0000
# 6 0.0000 0.0000 0.0000 -40.2056 0.0000 -73.5086
#
#
#
# Elastic Compliance Matrix: (Units=1/GPa)
#
#
# Indices 1 2 3 4 5 6 
#
# 1 0.015459 0.006372 -0.003560 0.000000 0.001689 0.000000
# 2 0.006372 0.025600 -0.004235 0.000000 0.010060 0.000000
# 3 -0.003560 -0.004235 0.007485 0.000000 0.005873 0.000000
# 4 0.000000 0.000000 0.000000 0.030057 0.000000 -0.016440
# 5 0.001689 0.010060 0.005873 0.000000 0.030507 0.000000
# 6 0.000000 0.000000 0.000000 -0.016440 0.000000 -0.004612
#
#
# Mechanical properties :
#
#
# Convention : Reuss Voigt Hill
#
# Bulk Modulus (GPa) = 21.88244 60.24244 41.06244
# Shear Modulus (GPa) = 40.79175 18.19905 29.49540
#
# Velocity S-wave (km/s) = 4.51210 3.01382 3.83681
# Velocity P-wave (km/s) = 6.16984 6.49444 6.33422
#
# Compressibility (1/GPa) = 0.04569874
#
# Stress axis : x y z
#
# Youngs Moduli (GPa) = 64.68709 39.06185 133.60849
#
# Poissons Ratio (x) = -0.24892 0.47562
# Poissons Ratio (y) = -0.41222 0.56587
# Poissons Ratio (z) = 0.23027 0.16544
#
# Static dielectric constant tensor:
#      x y z
#    x 1.774210 0.000000 -0.010360 
#    y 0.000000 1.675770 0.000000 
#    z -0.010360 0.000000 1.796060 
# 
# From -- ./inp_files/12960.got.cif
#   From: 2010.05.17/outbox.cif.g08.bks.cpg/sg12_7_cif.got.tgz:12960.got - 2010.06.03 13:09:07.
