data_PCOD9180791
_publ_section_title
;
Structure prediction by ZEFSAII (Michael W. Deem and Ramdas Pophale) SiO2 
 PCOD9180791
Probable space group: C 2/M
;
_chemical_formula_sum "Si O2"
_cell_formula_units_Z 64
_cell_length_a 14.357423
_cell_length_b 7.409041
_cell_length_c 27.299530
_cell_angle_alpha 90.000000
_cell_angle_beta 86.662786
_cell_angle_gamma 90.000000
_cell_volume 2899.055769
_symmetry_space_group_name_H-M "C 2/M"
_symmetry_group_IT_number 12
_symmetry_cell_setting 'monoclinic'
loop_
_space_group_symop_operation_xyz
x,y,z
-x,y,-z
-x,-y,-z
x,-y,z
1/2+x,1/2+y,z
1/2-x,1/2+y,-z
1/2-x,1/2-y,-z
1/2+x,1/2-y,z
loop_
_atom_site_type_symbol
_atom_site_label
_atom_site_fract_x
_atom_site_fract_y
_atom_site_fract_z
Si Si1 0.386715 0.211745 0.130677
Si Si2 0.858611 0.215272 0.509985
Si Si3 0.583669 0.709265 0.593871
Si Si4 0.524298 0.717297 0.208869
Si Si5 0.554082 0.279321 0.318113
Si Si6 0.295753 0.718395 0.613655
Si Si7 0.040977 0.205070 0.047979
Si Si8 0.324159 0.278725 0.875464
O O1 0.429621 0.233573 0.183441
O O2 0.458577 0.299559 0.090601
O O3 0.281707 0.279170 0.128570
O O4 0.386748 0.000000 0.118789
O O5 0.750000 0.250000 0.500000
O O6 0.916146 0.286907 0.461573
O O7 0.861719 0.277996 0.565991
O O8 0.874329 0.000000 0.510182
O O9 0.554949 0.500000 0.589507
O O10 0.521065 0.784314 0.639413
O O11 0.691405 0.714422 0.608113
O O12 0.528280 0.500000 0.210054
O O13 0.534021 0.783448 0.263944
O O14 0.608971 0.778468 0.171207
O O15 0.550383 0.500000 0.317051
O O16 0.654571 0.229822 0.337517
O O17 0.290931 0.500000 0.611636
O O18 0.128190 0.283614 0.075305
O O19 0.068442 0.000000 0.033810
O O20 0.000000 0.290786 0.000000
O O21 0.325916 0.500000 0.875830
#
# Coordination Sequence:
#
# PCOD9180791 Si02
#       8
#     8   8   8   8   8   8   8   8
#     4  10  19  32  51  75 100 127 162 203 242 275
#     4   8  14  25  43  64  89 118 149 186 229 281
#     4   9  17  30  46  67  94 122 151 191 240 283
#     4   9  18  35  52  66  91 127 163 199 240 290
#     4   9  18  31  49  70  91 119 158 199 240 286
#     4   9  17  30  47  68  91 120 156 190 231 290
#     4   9  18  34  54  76 105 139 168 192 226 279
#     4   8  16  31  50  70  95 128 161 193 234 278
#
# _framework density 22.076152
#
# number of rings (size 3 to 8) (size 9 to 14) (size 15 to 20)
#    0.000    3.125    0.000    1.125    0.000    2.250 
#    0.000   10.625    0.000    0.000    0.000    8.750 
#    0.000    0.000    0.000    0.000    0.000    0.000 
#
# Total GULP energy -178515.470989 kJ/mol
# GULP energy per Si atom -5578.608468 kJ/mol
# Density = 2.202591 g / cm^3
# Si number density = 22.076152 Si / 1000 Ang^3
#
#
#
# Elastic Constant Matrix: (Units=GPa)
#
#
# Indices 1 2 3 4 5 6 
#
# 1 115.5812 -6.9222 43.2999 0.0000 29.7851 0.0000
# 2 -6.9222 76.3432 -2.5602 0.0000 1.2229 0.0000
# 3 43.2999 -2.5602 128.1930 0.0000 45.9529 0.0000
# 4 0.0000 0.0000 0.0000 26.1343 0.0000 -12.2575
# 5 29.7851 1.2229 45.9529 0.0000 29.7589 0.0000
# 6 0.0000 0.0000 0.0000 -12.2575 0.0000 20.1403
#
#
#
# Elastic Compliance Matrix: (Units=1/GPa)
#
#
# Indices 1 2 3 4 5 6 
#
# 1 0.011803 0.001299 0.000656 0.000000 -0.012880 0.000000
# 2 0.001299 0.013310 0.001096 0.000000 -0.003538 0.000000
# 3 0.000656 0.001096 0.017588 0.000000 -0.027861 0.000000
# 4 0.000000 0.000000 0.000000 0.053549 0.000000 0.032590
# 5 -0.012880 -0.003538 -0.027861 0.000000 0.089664 0.000000
# 6 0.000000 0.000000 0.000000 0.032590 0.000000 0.069486
#
#
# Mechanical properties :
#
#
# Convention : Reuss Voigt Hill
#
# Bulk Modulus (GPa) = 20.49078 43.08361 31.78720
# Shear Modulus (GPa) = 18.82765 34.29335 26.56050
#
# Velocity S-wave (km/s) = 2.92353 3.94561 3.47238
# Velocity P-wave (km/s) = 4.54951 6.34944 5.52329
#
# Compressibility (1/GPa) = 0.04880243
#
# Stress axis : x y z
#
# Youngs Moduli (GPa) = 84.72375 75.13202 56.85599
#
# Poissons Ratio (x) = -0.09756 -0.03732
# Poissons Ratio (y) = -0.11002 -0.06229
# Poissons Ratio (z) = -0.05561 -0.08232
#
# Static dielectric constant tensor:
#      x y z
#    x 1.798600 0.000000 0.019640 
#    y 0.000000 1.898490 0.000000 
#    z 0.019640 0.000000 1.799980 
# 
# From -- ./inp_files/359856.got.cif
#   From: 2010.05.17/outbox.cif.g08.bks.cpg/sg12_180_cif.got.tgz:359856.got - 2010.06.03 13:09:07.
