data_PCOD9180061
_publ_section_title
;
Structure prediction by ZEFSAII (Michael W. Deem and Ramdas Pophale) SiO2 
 PCOD9180061
Probable space group: C 2/M
;
_chemical_formula_sum "Si O2"
_cell_formula_units_Z 42
_cell_length_a 14.387297
_cell_length_b 7.422667
_cell_length_c 32.430850
_cell_angle_alpha 90.000000
_cell_angle_beta 33.777304
_cell_angle_gamma 90.000000
_cell_volume 1925.511272
_symmetry_space_group_name_H-M "C 2/M"
_symmetry_group_IT_number 12
_symmetry_cell_setting 'monoclinic'
loop_
_space_group_symop_operation_xyz
x,y,z
-x,y,-z
-x,-y,-z
x,-y,z
1/2+x,1/2+y,z
1/2-x,1/2+y,-z
1/2-x,1/2-y,-z
1/2+x,1/2-y,z
loop_
_atom_site_type_symbol
_atom_site_label
_atom_site_fract_x
_atom_site_fract_y
_atom_site_fract_z
Si Si1 0.671595 0.213725 0.484155
Si Si2 0.452160 0.284038 0.316020
Si Si3 0.472485 0.211413 0.802239
Si Si4 0.593635 0.205073 0.926557
Si Si5 0.668644 0.220958 0.810181
Si Si6 0.500000 0.500000 0.500000
O O1 0.750000 0.250000 0.500000
O O2 0.809879 0.278471 0.399512
O O3 0.518013 0.340574 0.529247
O O4 0.638503 0.000000 0.492138
O O5 0.452507 0.500000 0.318498
O O6 0.428987 0.234114 0.276910
O O7 0.637802 0.221273 0.260302
O O8 0.291215 0.298632 0.863226
O O9 0.572939 0.279028 0.804657
O O10 0.440886 0.000000 0.819980
O O11 0.583055 0.283058 0.884407
O O12 0.528978 0.000000 0.947193
O O13 0.500000 0.290406 0.000000
O O14 0.670002 0.000000 0.810496
#
# Coordination Sequence:
#
# PCOD9180061 Si02
#       6
#     8   8   8   8   8   2
#     4  11  24  45  70 100 136 179 225 280 340 407
#     4   9  20  39  60  83 118 155 199 251 304 374
#     4  10  19  31  53  82 113 145 190 246 302 365
#     4   9  18  34  53  71 104 153 193 236 297 361
#     4   8  16  33  53  77 108 146 187 238 302 360
#     4  12  26  44  72  96 140 180 220 280 328 420
#
# _framework density 21.812390000000001
#
# number of rings (size 3 to 8) (size 9 to 14) (size 15 to 20)
#    0.000    2.476    0.952    2.000    1.333    2.667 
#    3.429    7.619    0.000    0.000    0.000    0.000 
#    0.000    0.000    0.000    0.000    0.000    0.000 
#
# Total GULP energy -116972.982057 kJ/mol
# GULP energy per Si atom -5570.142003 kJ/mol
# Density = 2.176274 g / cm^3
# Si number density = 21.812390 Si / 1000 Ang^3
#
#
#
# Elastic Constant Matrix: (Units=GPa)
#
#
# Indices 1 2 3 4 5 6 
#
# 1 158.0643 6.0295 47.0473 0.0109 46.7369 -0.0185
# 2 6.0295 110.5322 -2.9466 0.0263 2.0158 -0.0625
# 3 47.0473 -2.9466 124.2884 0.1225 31.1514 -0.2025
# 4 0.0109 0.0263 0.1225 -8.4016 -0.0149 32.6974
# 5 46.7369 2.0158 31.1514 -0.0149 23.8674 0.0166
# 6 -0.0185 -0.0625 -0.2025 32.6974 0.0166 -28.3676
#
#
#
# Elastic Compliance Matrix: (Units=1/GPa)
#
#
# Indices 1 2 3 4 5 6 
#
# 1 0.015575 -0.000163 0.002588 0.000020 -0.033863 -0.000025
# 2 -0.000163 0.009093 0.000579 0.000017 -0.001205 -0.000006
# 3 0.002588 0.000579 0.012428 0.000052 -0.021336 -0.000044
# 4 0.000020 0.000017 0.000052 0.034146 -0.000115 0.039357
# 5 -0.033863 -0.001205 -0.021336 -0.000115 0.136157 0.000125
# 6 -0.000025 -0.000006 -0.000044 0.039357 0.000125 0.010113
#
#
# Mechanical properties :
#
#
# Convention : Reuss Voigt Hill
#
# Bulk Modulus (GPa) = 23.19993 54.79392 38.99692
# Shear Modulus (GPa) = 22.13643 20.26995 21.20319
#
# Velocity S-wave (km/s) = 3.18914 3.05173 3.12119
# Velocity P-wave (km/s) = 4.92138 6.13127 5.55934
#
# Compressibility (1/GPa) = 0.04310358
#
# Stress axis : x y z
#
# Youngs Moduli (GPa) = 64.20478 109.96942 80.46629
#
# Poissons Ratio (x) = 0.01794 -0.20822
# Poissons Ratio (y) = 0.01047 -0.04661
# Poissons Ratio (z) = -0.16614 -0.06370
#
# Static dielectric constant tensor:
#      x y z
#    x 1.804710 0.000010 -0.022560 
#    y 0.000010 1.824620 -0.000010 
#    z -0.022560 -0.000010 1.847150 
# 
# From -- ./inp_files/374775.got.cif
#   From: 2010.05.17/outbox.cif.g08.bks.cpg/sg12_188_cif.got.tgz:374775.got - 2010.06.03 13:09:07.
