data_PCOD9180351
_publ_section_title
;
Structure prediction by ZEFSAII (Michael W. Deem and Ramdas Pophale) SiO2 
 PCOD9180351
Probable space group: C 2/M
;
_chemical_formula_sum "Si O2"
_cell_formula_units_Z 60
_cell_length_a 13.372584
_cell_length_b 12.570978
_cell_length_c 23.772559
_cell_angle_alpha 90.000000
_cell_angle_beta 56.765360
_cell_angle_gamma 90.000000
_cell_volume 3342.654984
_symmetry_space_group_name_H-M "C 2/M"
_symmetry_group_IT_number 12
_symmetry_cell_setting 'monoclinic'
loop_
_space_group_symop_operation_xyz
x,y,z
-x,y,-z
-x,-y,-z
x,-y,z
1/2+x,1/2+y,z
1/2-x,1/2+y,-z
1/2-x,1/2-y,-z
1/2+x,1/2-y,z
loop_
_atom_site_type_symbol
_atom_site_label
_atom_site_fract_x
_atom_site_fract_y
_atom_site_fract_z
Si Si1 0.000000 0.235536 0.500000
Si Si2 0.730335 0.379091 0.384502
Si Si3 0.623550 0.779716 0.568056
Si Si4 0.451776 0.126391 0.075414
Si Si5 0.275933 0.244866 0.810023
Si Si6 0.001572 0.122899 0.692940
Si Si7 0.444938 0.874755 0.839449
Si Si8 0.660100 0.277338 0.734565
O O1 0.890468 0.157944 0.548230
O O2 0.962745 0.305138 0.457437
O O3 0.725308 0.500000 0.366357
O O4 0.839393 0.363668 0.395358
O O5 0.749470 0.293319 0.329780
O O6 0.750000 0.750000 0.500000
O O7 0.559961 0.683998 0.621884
O O8 0.330902 0.185608 0.130836
O O9 0.549279 0.142020 0.095029
O O10 0.427272 0.000000 0.080203
O O11 0.500000 0.161499 0.000000
O O12 0.381648 0.319084 0.752061
O O13 0.332419 0.170443 0.840330
O O14 0.220824 0.184118 0.773095
O O15 0.098298 0.136809 0.713492
O O16 0.979335 0.000000 0.687333
O O17 0.557087 0.807474 0.782291
O O18 0.460227 0.000000 0.824079
#
# Coordination Sequence:
#
# PCOD9180351 Si02
#       8
#     4   8   8   8   8   8   8   8
#     4  10  19  32  49  68  92 122 157 200 243 290
#     4  10  19  32  50  70  93 123 159 198 241 292
#     4   9  20  34  48  70 100 126 156 201 249 295
#     4   9  18  33  52  75 105 138 170 207 252 298
#     4  10  19  32  53  78 102 131 169 211 249 293
#     4  10  20  34  53  75  98 127 166 209 251 296
#     4   9  18  32  50  73 101 134 169 203 246 298
#     4   9  19  33  48  71 100 127 158 202 251 296
#
# _framework density 17.949802999999999
#
# number of rings (size 3 to 8) (size 9 to 14) (size 15 to 20)
#    0.000    2.533    0.000    1.800    0.000    6.400 
#    0.000    0.333    0.000   13.200    0.000    0.000 
#    0.000    0.000    0.000    0.000    0.000    0.000 
#
# Total GULP energy -167148.356572 kJ/mol
# GULP energy per Si atom -5571.611886 kJ/mol
# Density = 1.790895 g / cm^3
# Si number density = 17.949803 Si / 1000 Ang^3
#
#
#
# Elastic Constant Matrix: (Units=GPa)
#
#
# Indices 1 2 3 4 5 6 
#
# 1 117.9079 15.2017 31.5033 0.0000 23.0287 0.0000
# 2 15.2017 25.8609 10.0996 0.0000 5.3780 0.0000
# 3 31.5033 10.0996 87.5036 0.0000 12.8411 0.0000
# 4 0.0000 0.0000 0.0000 10.7992 0.0000 -1.7920
# 5 23.0287 5.3780 12.8411 0.0000 26.0924 0.0000
# 6 0.0000 0.0000 0.0000 -1.7920 0.0000 12.1363
#
#
#
# Elastic Compliance Matrix: (Units=1/GPa)
#
#
# Indices 1 2 3 4 5 6 
#
# 1 0.011174 -0.003994 -0.002409 0.000000 -0.007853 0.000000
# 2 -0.003994 0.042976 -0.002953 0.000000 -0.003880 0.000000
# 3 -0.002409 -0.002953 0.013187 0.000000 -0.003755 0.000000
# 4 0.000000 0.000000 0.000000 0.094926 0.000000 0.014017
# 5 -0.007853 -0.003880 -0.003755 0.000000 0.047904 0.000000
# 6 0.000000 0.000000 0.000000 0.014017 0.000000 0.084467
#
#
# Mechanical properties :
#
#
# Convention : Reuss Voigt Hill
#
# Bulk Modulus (GPa) = 20.56585 38.32017 29.44301
# Shear Modulus (GPa) = 15.17199 21.43677 18.30438
#
# Velocity S-wave (km/s) = 2.91047 3.45956 3.19682
# Velocity P-wave (km/s) = 4.77249 6.11170 5.48314
#
# Compressibility (1/GPa) = 0.04862430
#
# Stress axis : x y z
#
# Youngs Moduli (GPa) = 89.49661 23.26865 75.82995
#
# Poissons Ratio (x) = 0.09294 0.18270
# Poissons Ratio (y) = 0.35746 0.22393
# Poissons Ratio (z) = 0.21563 0.06871
#
# Static dielectric constant tensor:
#      x y z
#    x 1.666440 0.000000 0.030020 
#    y 0.000000 1.566420 0.000000 
#    z 0.030020 0.000000 1.619790 
# 
# From -- ./inp_files/335903.got.cif
#   From: 2010.05.17/outbox.cif.g08.bks.cpg/sg12_168_cif.got.tgz:335903.got - 2010.06.03 13:09:07.
