data_PCOD9180598
_publ_section_title
;
Structure prediction by ZEFSAII (Michael W. Deem and Ramdas Pophale) SiO2 
 PCOD9180598
Probable space group: C 2/M
;
_chemical_formula_sum "Si O2"
_cell_formula_units_Z 64
_cell_length_a 25.211824
_cell_length_b 8.791550
_cell_length_c 24.421214
_cell_angle_alpha 90.000000
_cell_angle_beta 133.775357
_cell_angle_gamma 90.000000
_cell_volume 3908.489613
_symmetry_space_group_name_H-M "C 2/M"
_symmetry_group_IT_number 12
_symmetry_cell_setting 'monoclinic'
loop_
_space_group_symop_operation_xyz
x,y,z
-x,y,-z
-x,-y,-z
x,-y,z
1/2+x,1/2+y,z
1/2-x,1/2+y,-z
1/2-x,1/2-y,-z
1/2+x,1/2-y,z
loop_
_atom_site_type_symbol
_atom_site_label
_atom_site_fract_x
_atom_site_fract_y
_atom_site_fract_z
Si Si1 0.777496 0.182199 0.577250
Si Si2 0.975551 0.180423 0.594677
Si Si3 0.293453 0.681920 0.162328
Si Si4 0.920273 0.817867 0.163012
Si Si5 0.865636 0.319304 0.315778
Si Si6 0.186925 0.682543 0.994230
Si Si7 0.646356 0.818476 0.566644
Si Si8 0.565667 0.818440 0.317719
O O1 0.750000 0.250000 0.500000
O O2 0.717277 0.217675 0.580559
O O3 0.856786 0.252040 0.646497
O O4 0.783232 0.000000 0.576382
O O5 0.922931 0.230104 0.507581
O O6 0.946363 0.261389 0.628657
O O7 0.058069 0.234884 0.642470
O O8 0.973691 0.000000 0.601509
O O9 0.295900 0.500000 0.172384
O O10 0.360946 0.719351 0.168843
O O11 0.307667 0.766182 0.228995
O O12 0.217694 0.719159 0.076621
O O13 0.997356 0.745086 0.234359
O O14 0.925617 0.000000 0.164484
O O15 0.887093 0.753741 0.082700
O O16 0.877693 0.500000 0.319732
O O17 0.842885 0.284908 0.361775
O O18 0.185052 0.500000 0.987600
O O19 0.250000 0.750000 0.000000
O O20 0.632084 0.000000 0.551064
O O21 0.566678 0.000000 0.317485
#
# Coordination Sequence:
#
# PCOD9180598 Si02
#       8
#     8   8   8   8   8   8   8   8
#     4  11  22  38  58  77 101 134 175 221 266 311
#     4  12  23  35  53  76 104 138 176 216 262 312
#     4   9  18  31  48  72 105 140 173 209 251 304
#     4  10  19  32  50  75 106 136 172 212 257 312
#     4  11  22  35  53  76 105 141 178 214 256 310
#     4   9  17  29  46  70 103 139 173 209 253 305
#     4  10  23  40  55  74 102 137 177 219 263 310
#     4  12  23  35  54  78 105 138 175 217 264 313
#
# _framework density 16.374611000000002
#
# number of rings (size 3 to 8) (size 9 to 14) (size 15 to 20)
#    0.000    1.500    2.500    4.875    0.000    5.500 
#    0.000    0.000    0.000    0.000    0.000    0.875 
#    0.000    7.000    0.000    0.000    0.000    0.000 
#
# Total GULP energy -178686.964392 kJ/mol
# GULP energy per Si atom -5583.967637 kJ/mol
# Density = 1.633734 g / cm^3
# Si number density = 16.374611 Si / 1000 Ang^3
#
#
#
# Elastic Constant Matrix: (Units=GPa)
#
#
# Indices 1 2 3 4 5 6 
#
# 1 33.7713 21.9257 25.1768 0.0000 -10.3253 0.0000
# 2 21.9257 69.0392 52.3153 0.0000 -6.5706 0.0000
# 3 25.1768 52.3153 142.1578 0.0000 -4.9195 0.0000
# 4 0.0000 0.0000 0.0000 33.9224 0.0000 1.9900
# 5 -10.3253 -6.5706 -4.9195 0.0000 16.4390 0.0000
# 6 0.0000 0.0000 0.0000 1.9900 0.0000 19.1149
#
#
#
# Elastic Compliance Matrix: (Units=1/GPa)
#
#
# Indices 1 2 3 4 5 6 
#
# 1 0.045881 -0.009380 -0.003846 0.000000 0.023917 0.000000
# 2 -0.009380 0.022582 -0.006609 0.000000 0.001156 0.000000
# 3 -0.003846 -0.006609 0.010077 0.000000 -0.002041 0.000000
# 4 0.000000 0.000000 0.000000 0.029660 0.000000 -0.003088
# 5 0.023917 0.001156 -0.002041 0.000000 0.075704 0.000000
# 6 0.000000 0.000000 0.000000 -0.003088 0.000000 0.052637
#
#
# Mechanical properties :
#
#
# Convention : Reuss Voigt Hill
#
# Bulk Modulus (GPa) = 25.72747 49.31154 37.51951
# Shear Modulus (GPa) = 17.29102 23.59863 20.44483
#
# Velocity S-wave (km/s) = 3.25309 3.80040 3.53734
# Velocity P-wave (km/s) = 5.46407 7.03117 6.29656
#
# Compressibility (1/GPa) = 0.03886896
#
# Stress axis : x y z
#
# Youngs Moduli (GPa) = 21.79563 44.28390 99.23538
#
# Poissons Ratio (x) = 0.41540 0.38165
# Poissons Ratio (y) = 0.20445 0.65584
# Poissons Ratio (z) = 0.08382 0.29267
#
# Static dielectric constant tensor:
#      x y z
#    x 1.510880 0.000000 -0.020980 
#    y 0.000000 1.546800 0.000000 
#    z -0.020980 0.000000 1.540480 
# 
# From -- ./inp_files/348588.got.cif
#   From: 2010.05.17/outbox.cif.g08.bks.cpg/sg12_175_cif.got.tgz:348588.got - 2010.06.03 13:09:07.
