data_PCOD9180139
_publ_section_title
;
Structure prediction by ZEFSAII (Michael W. Deem and Ramdas Pophale) SiO2 
 PCOD9180139
Probable space group: C 2/M
;
_chemical_formula_sum "Si O2"
_cell_formula_units_Z 48
_cell_length_a 27.885258
_cell_length_b 7.898174
_cell_length_c 11.057820
_cell_angle_alpha 90.000000
_cell_angle_beta 60.483798
_cell_angle_gamma 90.000000
_cell_volume 2119.327880
_symmetry_space_group_name_H-M "C 2/M"
_symmetry_group_IT_number 12
_symmetry_cell_setting 'monoclinic'
loop_
_space_group_symop_operation_xyz
x,y,z
-x,y,-z
-x,-y,-z
x,-y,z
1/2+x,1/2+y,z
1/2-x,1/2+y,-z
1/2-x,1/2-y,-z
1/2+x,1/2-y,z
loop_
_atom_site_type_symbol
_atom_site_label
_atom_site_fract_x
_atom_site_fract_y
_atom_site_fract_z
Si Si1 0.439714 0.303286 0.091701
Si Si2 0.333746 0.702912 0.341366
Si Si3 0.864756 0.803647 0.703506
Si Si4 0.038285 0.696330 0.572793
Si Si5 0.770953 0.794820 0.658932
Si Si6 0.435166 0.801144 0.842236
O O1 0.447303 0.500000 0.115625
O O2 0.394497 0.227874 0.238004
O O3 0.500000 0.223237 0.000000
O O4 0.415458 0.291748 0.986378
O O5 0.338138 0.500000 0.347021
O O6 0.291517 0.740342 0.284658
O O7 0.304423 0.768256 0.498772
O O8 0.906490 0.789497 0.536501
O O9 0.805848 0.737040 0.731449
O O10 0.894106 0.716760 0.780079
O O11 0.859717 0.000000 0.741378
O O12 0.051226 0.500000 0.581618
O O13 0.000000 0.698776 0.500000
O O14 0.996091 0.764719 0.725946
O O15 0.772341 0.000000 0.657175
O O16 0.440734 0.000000 0.860541
#
# Coordination Sequence:
#
# PCOD9180139 Si02
#       6
#     8   8   8   8   8   8
#     4  10  22  38  59  82 110 146 183 225 272 327
#     4   9  19  37  57  81 111 143 181 224 272 324
#     4  10  19  31  54  83 109 140 183 229 275 325
#     4   8  16  30  46  70 107 143 175 217 265 315
#     4   9  19  35  57  84 111 140 180 228 273 322
#     4  10  21  36  52  76 113 148 183 224 269 328
#
# _framework density 22.648689000000001
#
# number of rings (size 3 to 8) (size 9 to 14) (size 15 to 20)
#    0.000    2.667    0.000    2.000    2.333    6.000 
#    0.000    0.833    0.000    0.000    0.000    0.000 
#    0.000    0.000    0.000    0.000    0.000    0.000 
#
# Total GULP energy -133944.644573 kJ/mol
# GULP energy per Si atom -5581.026857 kJ/mol
# Density = 2.259714 g / cm^3
# Si number density = 22.648689 Si / 1000 Ang^3
#
#
#
# Elastic Constant Matrix: (Units=GPa)
#
#
# Indices 1 2 3 4 5 6 
#
# 1 115.4406 3.8198 12.3441 0.0000 -15.0560 0.0000
# 2 3.8198 38.4670 -0.2476 0.0000 -0.1550 0.0000
# 3 12.3441 -0.2476 56.8614 0.0000 -14.3861 0.0000
# 4 0.0000 0.0000 0.0000 13.8045 0.0000 3.4699
# 5 -15.0560 -0.1550 -14.3861 0.0000 30.6117 0.0000
# 6 0.0000 0.0000 0.0000 3.4699 0.0000 24.4807
#
#
#
# Elastic Compliance Matrix: (Units=1/GPa)
#
#
# Indices 1 2 3 4 5 6 
#
# 1 0.009336 -0.000917 -0.000988 0.000000 0.004123 0.000000
# 2 -0.000917 0.026088 0.000263 0.000000 -0.000195 0.000000
# 3 -0.000988 0.000263 0.020065 0.000000 0.008945 0.000000
# 4 0.000000 0.000000 0.000000 0.075116 0.000000 -0.010647
# 5 0.004123 -0.000195 0.008945 0.000000 0.038898 0.000000
# 6 0.000000 0.000000 0.000000 -0.010647 0.000000 0.042358
#
#
# Mechanical properties :
#
#
# Convention : Reuss Voigt Hill
#
# Bulk Modulus (GPa) = 19.15436 26.95572 23.05504
# Shear Modulus (GPa) = 21.50108 26.76957 24.13533
#
# Velocity S-wave (km/s) = 3.08446 3.44168 3.26795
# Velocity P-wave (km/s) = 4.60008 5.26508 4.94377
#
# Compressibility (1/GPa) = 0.05220742
#
# Stress axis : x y z
#
# Youngs Moduli (GPa) = 107.11051 38.33141 49.83711
#
# Poissons Ratio (x) = 0.03514 0.04922
# Poissons Ratio (y) = 0.09820 -0.01312
# Poissons Ratio (z) = 0.10579 -0.01009
#
# Static dielectric constant tensor:
#      x y z
#    x 1.897180 0.000000 0.013060 
#    y 0.000000 1.800440 0.000000 
#    z 0.013060 0.000000 1.877710 
# 
# From -- ./inp_files/179728.got.cif
#   From: 2010.05.17/outbox.cif.g08.bks.cpg/sg12_90_cif.got.tgz:179728.got - 2010.06.03 13:09:07.
