data_PCOD9180317
_publ_section_title
;
Structure prediction by ZEFSAII (Michael W. Deem and Ramdas Pophale) SiO2 
 PCOD9180317
Probable space group: C 2/M
;
_chemical_formula_sum "Si O2"
_cell_formula_units_Z 48
_cell_length_a 24.468419
_cell_length_b 8.865768
_cell_length_c 13.786249
_cell_angle_alpha 90.000000
_cell_angle_beta 73.770586
_cell_angle_gamma 90.000000
_cell_volume 2871.492104
_symmetry_space_group_name_H-M "C 2/M"
_symmetry_group_IT_number 12
_symmetry_cell_setting 'monoclinic'
loop_
_space_group_symop_operation_xyz
x,y,z
-x,y,-z
-x,-y,-z
x,-y,z
1/2+x,1/2+y,z
1/2-x,1/2+y,-z
1/2-x,1/2-y,-z
1/2+x,1/2-y,z
loop_
_atom_site_type_symbol
_atom_site_label
_atom_site_fract_x
_atom_site_fract_y
_atom_site_fract_z
Si Si1 0.294532 0.680627 0.771041
Si Si2 0.609455 0.317321 0.142622
Si Si3 0.192519 0.826638 0.927487
Si Si4 0.728871 0.181566 0.610982
Si Si5 0.004636 0.319054 0.883528
Si Si6 0.377779 0.674506 0.237873
O O1 0.294622 0.500000 0.769572
O O2 0.357102 0.727891 0.775920
O O3 0.247979 0.732214 0.873229
O O4 0.270889 0.731708 0.678418
O O5 0.602783 0.500000 0.143993
O O6 0.549857 0.241610 0.147700
O O7 0.653106 0.274715 0.034782
O O8 0.153210 0.823087 0.851362
O O9 0.209440 0.000000 0.937597
O O10 0.750000 0.250000 0.500000
O O11 0.666010 0.240718 0.669616
O O12 0.728870 0.000000 0.607416
O O13 0.006234 0.500000 0.880556
O O14 0.061741 0.252700 0.808015
O O15 0.000000 0.272380 0.000000
O O16 0.384561 0.500000 0.263865
#
# Coordination Sequence:
#
# PCOD9180317 Si02
#       6
#     8   8   8   8   8   8
#     4   9  19  32  49  73 102 132 168 212 258 305
#     4  10  19  32  48  70 102 141 175 207 249 300
#     4   9  17  28  46  71 101 135 171 205 246 301
#     4  10  20  36  57  81 105 131 168 216 266 313
#     4  11  22  33  48  73 106 144 181 214 247 293
#     4  10  19  33  53  77 104 137 175 215 256 301
#
# _framework density 16.716047
#
# number of rings (size 3 to 8) (size 9 to 14) (size 15 to 20)
#    0.000    2.167    1.667    2.000    0.000    3.333 
#    0.000    0.000    0.000    1.000    0.000    7.000 
#    0.000    0.000    0.000    0.000    0.000    0.000 
#
# Total GULP energy -133847.930779 kJ/mol
# GULP energy per Si atom -5576.997116 kJ/mol
# Density = 1.667800 g / cm^3
# Si number density = 16.716047 Si / 1000 Ang^3
#
#
#
# Elastic Constant Matrix: (Units=GPa)
#
#
# Indices 1 2 3 4 5 6 
#
# 1 151.4735 49.5483 61.2546 0.0000 -10.6240 0.0000
# 2 49.5483 46.3039 40.6028 0.0000 -3.0605 0.0000
# 3 61.2546 40.6028 104.7714 0.0000 -12.7963 0.0000
# 4 0.0000 0.0000 0.0000 23.6864 0.0000 -7.0649
# 5 -10.6240 -3.0605 -12.7963 0.0000 11.9135 0.0000
# 6 0.0000 0.0000 0.0000 -7.0649 0.0000 27.5403
#
#
#
# Elastic Compliance Matrix: (Units=1/GPa)
#
#
# Indices 1 2 3 4 5 6 
#
# 1 0.010909 -0.009525 -0.002069 0.000000 0.005059 0.000000
# 2 -0.009525 0.041406 -0.011759 0.000000 -0.010487 0.000000
# 3 -0.002069 -0.011759 0.016939 0.000000 0.013328 0.000000
# 4 0.000000 0.000000 0.000000 0.045716 0.000000 0.011728
# 5 0.005059 -0.010487 0.013328 0.000000 0.100072 0.000000
# 6 0.000000 0.000000 0.000000 0.011728 0.000000 0.039319
#
#
# Mechanical properties :
#
#
# Convention : Reuss Voigt Hill
#
# Bulk Modulus (GPa) = 44.34643 67.26227 55.80435
# Shear Modulus (GPa) = 16.20315 22.70426 19.45370
#
# Velocity S-wave (km/s) = 3.11676 3.68942 3.41511
# Velocity P-wave (km/s) = 6.28801 7.64687 7.00049
#
# Compressibility (1/GPa) = 0.02254973
#
# Stress axis : x y z
#
# Youngs Moduli (GPa) = 91.66827 24.15088 59.03584
#
# Poissons Ratio (x) = 0.23003 0.12213
# Poissons Ratio (y) = 0.87312 0.69418
# Poissons Ratio (z) = 0.18964 0.28398
#
# Static dielectric constant tensor:
#      x y z
#    x 1.575140 0.000000 0.029110 
#    y 0.000000 1.567320 0.000000 
#    z 0.029110 0.000000 1.545660 
# 
# From -- ./inp_files/229851.got.cif
#   From: 2010.05.17/outbox.cif.g08.bks.cpg/sg12_115_cif.got.tgz:229851.got - 2010.06.03 13:09:07.
