data_PCOD9180256
_publ_section_title
;
Structure prediction by ZEFSAII (Michael W. Deem and Ramdas Pophale) SiO2 
 PCOD9180256
Probable space group: C 2/M
;
_chemical_formula_sum "Si O2"
_cell_formula_units_Z 44
_cell_length_a 23.007537
_cell_length_b 12.069035
_cell_length_c 11.175876
_cell_angle_alpha 90.000000
_cell_angle_beta 144.377153
_cell_angle_gamma 90.000000
_cell_volume 1807.510282
_symmetry_space_group_name_H-M "C 2/M"
_symmetry_group_IT_number 12
_symmetry_cell_setting 'monoclinic'
loop_
_space_group_symop_operation_xyz
x,y,z
-x,y,-z
-x,-y,-z
x,-y,z
1/2+x,1/2+y,z
1/2-x,1/2+y,-z
1/2-x,1/2-y,-z
1/2+x,1/2-y,z
loop_
_atom_site_type_symbol
_atom_site_label
_atom_site_fract_x
_atom_site_fract_y
_atom_site_fract_z
Si Si1 0.746559 0.152090 0.663999
Si Si2 0.500000 0.800120 0.000000
Si Si3 0.846688 0.621925 0.252532
Si Si4 0.472981 0.620095 0.133862
Si Si5 0.287013 0.885699 0.670641
Si Si6 0.621017 0.627576 0.769870
O O1 0.669294 0.111793 0.631899
O O2 0.732411 0.118845 0.503560
O O3 0.738609 0.284053 0.654793
O O4 0.859658 0.123038 0.891261
O O5 0.472091 0.718546 0.843286
O O6 0.405615 0.870186 0.880427
O O7 0.889187 0.500000 0.282202
O O8 0.888921 0.746787 0.300838
O O9 0.734959 0.625911 0.009457
O O10 0.517888 0.500000 0.181147
O O11 0.455016 0.631009 0.244369
O O12 0.252663 0.000000 0.666013
O O13 0.609142 0.500000 0.697166
#
# Coordination Sequence:
#
# PCOD9180256 Si02
#       6
#     8   4   8   8   8   8
#     4   9  18  30  49  70  92 122 158 194 234 280
#     4  10  20  30  46  70  94 124 158 188 236 288
#     4   9  15  26  44  69  94 120 152 191 235 280
#     4   9  16  30  49  70  93 122 158 196 230 273
#     4  10  19  32  46  67  97 126 154 194 238 282
#     4   8  15  26  43  67  96 121 150 191 236 277
#
# _framework density 24.342876
#
# number of rings (size 3 to 8) (size 9 to 14) (size 15 to 20)
#    0.000    2.909    0.000    3.273    0.000    0.727 
#    0.000   10.909    0.000    1.091    0.000    5.091 
#    0.000    0.000    0.000    0.000    0.000    0.000 
#
# Total GULP energy -122652.683668 kJ/mol
# GULP energy per Si atom -5575.121985 kJ/mol
# Density = 2.428747 g / cm^3
# Si number density = 24.342876 Si / 1000 Ang^3
#
#
#
# Elastic Constant Matrix: (Units=GPa)
#
#
# Indices 1 2 3 4 5 6 
#
# 1 50.0711 41.9000 6.1380 0.0000 -7.2604 0.0000
# 2 41.9000 277.2137 13.4924 0.0000 -13.7803 0.0000
# 3 6.1380 13.4924 55.0307 0.0000 15.1929 0.0000
# 4 0.0000 0.0000 0.0000 -9.6304 0.0000 4.7786
# 5 -7.2604 -13.7803 15.1929 0.0000 18.4228 0.0000
# 6 0.0000 0.0000 0.0000 4.7786 0.0000 11.5343
#
#
#
# Elastic Compliance Matrix: (Units=1/GPa)
#
#
# Indices 1 2 3 4 5 6 
#
# 1 0.024795 -0.002886 -0.005386 0.000000 0.012054 0.000000
# 2 -0.002886 0.004298 -0.001690 0.000000 0.003472 0.000000
# 3 -0.005386 -0.001690 0.026054 0.000000 -0.024873 0.000000
# 4 0.000000 0.000000 0.000000 -0.086132 0.000000 0.035684
# 5 0.012054 0.003472 -0.024873 0.000000 0.082141 0.000000
# 6 0.000000 0.000000 0.000000 0.035684 0.000000 0.071914
#
#
# Mechanical properties :
#
#
# Convention : Reuss Voigt Hill
#
# Bulk Modulus (GPa) = 28.39134 56.15292 42.27213
# Shear Modulus (GPa) = 32.31304 25.45102 28.88203
#
# Velocity S-wave (km/s) = 3.64732 3.23696 3.44825
# Velocity P-wave (km/s) = 5.42454 6.09000 5.76688
#
# Compressibility (1/GPa) = 0.03522201
#
# Stress axis : x y z
#
# Youngs Moduli (GPa) = 40.33065 232.64205 38.38201
#
# Poissons Ratio (x) = 0.67148 0.20672
# Poissons Ratio (y) = 0.11641 0.06488
# Poissons Ratio (z) = 0.21722 0.39328
#
# Static dielectric constant tensor:
#      x y z
#    x 1.854190 0.000000 -0.009040 
#    y 0.000000 2.006600 0.000000 
#    z -0.009040 0.000000 1.936520 
# 
# From -- ./inp_files/182671.got.cif
#   From: 2010.05.17/outbox.cif.g08.bks.cpg/sg12_92_cif.got.tgz:182671.got - 2010.06.03 13:09:07.
