data_PCOD9180848
_publ_section_title
;
Structure prediction by ZEFSAII (Michael W. Deem and Ramdas Pophale) SiO2 
 PCOD9180848
Probable space group: C 2/M
;
_chemical_formula_sum "Si O2"
_cell_formula_units_Z 50
_cell_length_a 14.167682
_cell_length_b 15.762937
_cell_length_c 12.460349
_cell_angle_alpha 90.000000
_cell_angle_beta 40.750431
_cell_angle_gamma 90.000000
_cell_volume 1816.449412
_symmetry_space_group_name_H-M "C 2/M"
_symmetry_group_IT_number 12
_symmetry_cell_setting 'monoclinic'
loop_
_space_group_symop_operation_xyz
x,y,z
-x,y,-z
-x,-y,-z
x,-y,z
1/2+x,1/2+y,z
1/2-x,1/2+y,-z
1/2-x,1/2-y,-z
1/2+x,1/2-y,z
loop_
_atom_site_type_symbol
_atom_site_label
_atom_site_fract_x
_atom_site_fract_y
_atom_site_fract_z
Si Si1 0.000000 0.000000 0.500000
Si Si2 0.478781 0.147347 0.404702
Si Si3 0.806662 0.843918 0.083306
Si Si4 0.940366 0.166206 0.420177
Si Si5 0.397768 0.717863 0.221125
Si Si6 0.223108 0.089622 0.113184
Si Si7 0.432723 0.906589 0.210954
O O1 0.912612 0.079033 0.506338
O O2 0.500000 0.101582 0.500000
O O3 0.638168 0.171183 0.227149
O O4 0.404966 0.238585 0.493075
O O5 0.420143 0.098694 0.351934
O O6 0.845501 0.848135 0.175696
O O7 0.818783 0.911845 0.977250
O O8 0.926633 0.777037 0.942881
O O9 0.876704 0.176126 0.355185
O O10 0.116034 0.157626 0.254851
O O11 0.359624 0.817516 0.239403
O O12 0.395651 0.096110 0.969883
O O13 0.173935 0.000000 0.207982
O O14 0.386389 0.000000 0.214283
#
# Coordination Sequence:
#
# PCOD9180848 Si02
#       7
#     2   8   8   8   8   8   8
#     4  12  20  32  52  74 110 134 180 212 248 318
#     4  10  19  33  54  76 102 139 178 213 259 311
#     4   9  18  33  54  78 106 138 172 210 264 319
#     4  10  19  32  51  76 103 140 173 212 257 309
#     4   9  18  35  54  78 106 137 170 214 267 311
#     4   9  16  30  52  81 103 131 176 224 260 296
#     4   9  18  32  54  77 102 131 177 227 259 300
#
# _framework density 27.526229000000001
#
# number of rings (size 3 to 8) (size 9 to 14) (size 15 to 20)
#    0.000    2.560    1.600    0.960    0.000    4.160 
#    1.440    6.400    1.760    0.000    0.000    0.000 
#    0.000    0.000    0.000    0.000    0.000    0.000 
#
# Total GULP energy -139182.668716 kJ/mol
# GULP energy per Si atom -5567.306749 kJ/mol
# Density = 2.746358 g / cm^3
# Si number density = 27.526229 Si / 1000 Ang^3
#
#
#
# Elastic Constant Matrix: (Units=GPa)
#
#
# Indices 1 2 3 4 5 6 
#
# 1 122.0054 37.1535 22.4231 0.0000 32.1492 0.0000
# 2 37.1535 164.6060 24.2397 0.0000 -0.3971 -0.0001
# 3 22.4231 24.2397 54.5248 0.0000 -5.9055 0.0000
# 4 0.0000 0.0000 0.0000 36.7206 0.0000 3.1557
# 5 32.1492 -0.3971 -5.9055 0.0000 72.1291 0.0000
# 6 0.0000 -0.0001 0.0000 3.1557 0.0000 9.2721
#
#
#
# Elastic Compliance Matrix: (Units=1/GPa)
#
#
# Indices 1 2 3 4 5 6 
#
# 1 0.010914 -0.001853 -0.004230 0.000000 -0.005221 0.000000
# 2 -0.001853 0.006818 -0.002195 0.000000 0.000684 0.000000
# 3 -0.004230 -0.002195 0.021449 0.000000 0.003629 0.000000
# 4 0.000000 0.000000 0.000000 0.028053 0.000000 -0.009548
# 5 -0.005221 0.000684 0.003629 0.000000 0.016492 0.000000
# 6 0.000000 0.000000 0.000000 -0.009548 0.000000 0.111100
#
#
# Mechanical properties :
#
#
# Convention : Reuss Voigt Hill
#
# Bulk Modulus (GPa) = 44.19935 56.52988 50.36462
# Shear Modulus (GPa) = 22.83902 40.77902 31.80902
#
# Velocity S-wave (km/s) = 2.88361 3.85315 3.40308
# Velocity P-wave (km/s) = 5.21335 6.35429 5.81188
#
# Compressibility (1/GPa) = 0.02262476
#
# Stress axis : x y z
#
# Youngs Moduli (GPa) = 91.62671 146.66496 46.62276
#
# Poissons Ratio (x) = 0.27178 0.19721
# Poissons Ratio (y) = 0.16979 0.10234
# Poissons Ratio (z) = 0.38758 0.32193
#
# Static dielectric constant tensor:
#      x y z
#    x 2.246370 0.000000 -0.090830 
#    y 0.000000 2.062650 0.000000 
#    z -0.090830 0.000000 1.624150 
# 
# From -- ./inp_files/226275.got.cif
#   From: 2010.05.17/outbox.cif.g08.bks.cpg/sg12_114_cif.got.tgz:226275.got - 2010.06.03 13:09:07.
