data_PCOD9180681
_publ_section_title
;
Structure prediction by ZEFSAII (Michael W. Deem and Ramdas Pophale) SiO2 
 PCOD9180681
Probable space group: C 2/M
;
_chemical_formula_sum "Si O2"
_cell_formula_units_Z 48
_cell_length_a 23.243503
_cell_length_b 8.893008
_cell_length_c 20.340357
_cell_angle_alpha 90.000000
_cell_angle_beta 43.699353
_cell_angle_gamma 90.000000
_cell_volume 2904.743838
_symmetry_space_group_name_H-M "C 2/M"
_symmetry_group_IT_number 12
_symmetry_cell_setting 'monoclinic'
loop_
_space_group_symop_operation_xyz
x,y,z
-x,y,-z
-x,-y,-z
x,-y,z
1/2+x,1/2+y,z
1/2-x,1/2+y,-z
1/2-x,1/2-y,-z
1/2+x,1/2-y,z
loop_
_atom_site_type_symbol
_atom_site_label
_atom_site_fract_x
_atom_site_fract_y
_atom_site_fract_z
Si Si1 0.943230 0.674019 0.980859
Si Si2 0.411738 0.681070 0.213571
Si Si3 0.303076 0.680501 0.176299
Si Si4 0.659718 0.318983 0.587010
Si Si5 0.114890 0.318729 0.361107
Si Si6 0.947235 0.819175 0.452839
O O1 0.931748 0.500000 0.974244
O O2 0.998187 0.754861 0.880216
O O3 0.856487 0.748677 0.073406
O O4 0.000000 0.684620 0.000000
O O5 0.416458 0.500000 0.209605
O O6 0.347296 0.725146 0.208752
O O7 0.378178 0.731352 0.311936
O O8 0.309255 0.500000 0.166628
O O9 0.206198 0.721312 0.259167
O O10 0.667641 0.500000 0.582892
O O11 0.750000 0.250000 0.500000
O O12 0.598953 0.282066 0.576696
O O13 0.107541 0.500000 0.369628
O O14 0.101983 0.252517 0.444930
O O15 0.039782 0.248883 0.381086
O O16 0.950502 0.000000 0.457737
#
# Coordination Sequence:
#
# PCOD9180681 Si02
#       6
#     8   8   8   8   8   8
#     4   9  17  28  44  69  97 122 151 190 236 281
#     4   9  17  31  48  67  95 127 156 189 232 281
#     4   9  17  29  48  71  93 121 157 194 233 278
#     4  10  21  34  50  72  98 129 161 194 234 283
#     4  10  19  32  51  72  94 125 164 200 234 279
#     4  10  20  33  48  70  99 128 158 195 242 283
#
# _framework density 16.524694
#
# number of rings (size 3 to 8) (size 9 to 14) (size 15 to 20)
#    0.000    2.500    0.000    3.500    0.000    6.667 
#    0.000    3.333    0.000    1.000    0.000    0.000 
#    0.000    0.000    0.000    0.000    0.000    0.000 
#
# Total GULP energy -133828.048247 kJ/mol
# GULP energy per Si atom -5576.168677 kJ/mol
# Density = 1.648708 g / cm^3
# Si number density = 16.524694 Si / 1000 Ang^3
#
#
#
# Elastic Constant Matrix: (Units=GPa)
#
#
# Indices 1 2 3 4 5 6 
#
# 1 80.2474 33.6560 79.8500 0.0001 -2.6956 -0.0001
# 2 33.6560 37.8439 51.9320 0.0001 -6.4430 -0.0002
# 3 79.8500 51.9320 183.2364 0.0000 -17.7698 0.0000
# 4 0.0001 0.0001 0.0000 26.3097 -0.0001 -4.5243
# 5 -2.6956 -6.4430 -17.7698 -0.0001 26.7940 0.0001
# 6 -0.0001 -0.0002 0.0000 -4.5243 0.0001 18.3246
#
#
#
# Elastic Compliance Matrix: (Units=1/GPa)
#
#
# Indices 1 2 3 4 5 6 
#
# 1 0.025717 -0.012619 -0.008201 0.000000 -0.005886 0.000000
# 2 -0.012619 0.049582 -0.008037 0.000000 0.005323 0.000000
# 3 -0.008201 -0.008037 0.011801 0.000000 0.005068 0.000000
# 4 0.000000 0.000000 0.000000 0.039694 0.000000 0.009800
# 5 -0.005886 0.005323 0.005068 0.000000 0.041371 0.000000
# 6 0.000000 0.000000 0.000000 0.009800 0.000000 0.056991
#
#
# Mechanical properties :
#
#
# Convention : Reuss Voigt Hill
#
# Bulk Modulus (GPa) = 34.03065 70.24485 52.13775
# Shear Modulus (GPa) = 17.08442 23.34498 20.21470
#
# Velocity S-wave (km/s) = 3.21888 3.76271 3.50137
# Velocity P-wave (km/s) = 5.86970 7.84083 6.92575
#
# Compressibility (1/GPa) = 0.02938527
#
# Stress axis : x y z
#
# Youngs Moduli (GPa) = 38.88543 20.16861 84.74073
#
# Poissons Ratio (x) = 0.25450 0.69497
# Poissons Ratio (y) = 0.49068 0.68108
# Poissons Ratio (z) = 0.31891 0.16210
#
# Static dielectric constant tensor:
#      x y z
#    x 1.543900 0.000000 -0.000710 
#    y 0.000000 1.555970 0.000000 
#    z -0.000710 0.000000 1.544470 
# 
# From -- ./inp_files/323517.got.cif
#   From: 2010.05.17/outbox.cif.g08.bks.cpg/sg12_162_cif.got.tgz:323517.got - 2010.06.03 13:09:07.
