data_PCOD9180427
_publ_section_title
;
Structure prediction by ZEFSAII (Michael W. Deem and Ramdas Pophale) SiO2 
 PCOD9180427
Probable space group: C 2/M
;
_chemical_formula_sum "Si O2"
_cell_formula_units_Z 56
_cell_length_a 29.569845
_cell_length_b 8.450727
_cell_length_c 19.453113
_cell_angle_alpha 90.000000
_cell_angle_beta 40.127982
_cell_angle_gamma 90.000000
_cell_volume 3132.948192
_symmetry_space_group_name_H-M "C 2/M"
_symmetry_group_IT_number 12
_symmetry_cell_setting 'monoclinic'
loop_
_space_group_symop_operation_xyz
x,y,z
-x,y,-z
-x,-y,-z
x,-y,z
1/2+x,1/2+y,z
1/2-x,1/2+y,-z
1/2-x,1/2-y,-z
1/2+x,1/2-y,z
loop_
_atom_site_type_symbol
_atom_site_label
_atom_site_fract_x
_atom_site_fract_y
_atom_site_fract_z
Si Si1 0.711711 0.311315 0.338008
Si Si2 0.593397 0.811089 0.115439
Si Si3 0.196453 0.687108 0.505596
Si Si4 0.713831 0.689846 0.874538
Si Si5 0.810647 0.690206 0.879212
Si Si6 0.541378 0.688164 0.671015
Si Si7 0.551482 0.692457 0.501874
O O1 0.709399 0.500000 0.350239
O O2 0.722079 0.229785 0.399206
O O3 0.773021 0.264511 0.214490
O O4 0.633962 0.262690 0.399937
O O5 0.621142 0.755785 0.159010
O O6 0.513103 0.761395 0.211770
O O7 0.600125 0.000000 0.103347
O O8 0.644783 0.740381 0.997627
O O9 0.188212 0.500000 0.522019
O O10 0.250000 0.750000 0.500000
O O11 0.120410 0.768293 0.599197
O O12 0.714135 0.500000 0.869752
O O13 0.782662 0.745001 0.838460
O O14 0.812162 0.500000 0.875047
O O15 0.750000 0.750000 0.000000
O O16 0.532649 0.500000 0.681065
O O17 0.530738 0.744039 0.603661
O O18 0.500000 0.748149 0.500000
O O19 0.548723 0.500000 0.504058
#
# Coordination Sequence:
#
# PCOD9180427 Si02
#       7
#     8   8   8   8   8   8   8
#     4  10  20  34  54  81 111 142 182 224 272 328
#     4  10  19  32  49  73 107 147 189 231 273 318
#     4  11  22  40  64  86 109 136 173 223 276 329
#     4  10  19  32  49  73 107 147 189 231 273 318
#     4   8  16  28  42  63  96 139 188 228 262 304
#     4  10  20  34  54  81 111 142 182 224 272 328
#     4   8  16  30  47  71 104 142 180 220 266 315
#
# _framework density 17.874537
#
# number of rings (size 3 to 8) (size 9 to 14) (size 15 to 20)
#    0.000    2.429    0.000    3.857    2.000    1.143 
#    0.000    0.000    0.000    3.429    0.000    6.000 
#    0.000    0.000    0.000    0.000    0.000    0.000 
#
# Total GULP energy -155975.619962 kJ/mol
# GULP energy per Si atom -5570.557856 kJ/mol
# Density = 1.783385 g / cm^3
# Si number density = 17.874537 Si / 1000 Ang^3
#
#
#
# Elastic Constant Matrix: (Units=GPa)
#
#
# Indices 1 2 3 4 5 6 
#
# 1 87.3058 -5.0923 24.5629 -0.0005 3.9869 -0.0001
# 2 -5.0923 20.0869 -4.7579 -0.0061 4.5031 -0.0013
# 3 24.5629 -4.7579 94.2472 -0.0011 3.7720 0.0012
# 4 -0.0005 -0.0061 -0.0011 25.8927 0.0012 0.1039
# 5 3.9869 4.5031 3.7720 0.0012 13.0625 -0.0003
# 6 -0.0001 -0.0013 0.0012 0.1039 -0.0003 20.6371
#
#
#
# Elastic Compliance Matrix: (Units=1/GPa)
#
#
# Indices 1 2 3 4 5 6 
#
# 1 0.012681 0.003456 -0.002962 0.000001 -0.004207 0.000000
# 2 0.003456 0.056067 0.002778 0.000014 -0.021185 0.000003
# 3 -0.002962 0.002778 0.011659 0.000001 -0.003420 -0.000001
# 4 0.000001 0.000014 0.000001 0.038622 -0.000009 -0.000194
# 5 -0.004207 -0.021185 -0.003420 -0.000009 0.086130 0.000000
# 6 0.000000 0.000003 -0.000001 -0.000194 0.000000 0.048457
#
#
# Mechanical properties :
#
#
# Convention : Reuss Voigt Hill
#
# Bulk Modulus (GPa) = 11.50073 25.67390 18.58731
# Shear Modulus (GPa) = 18.11220 24.38027 21.24623
#
# Velocity S-wave (km/s) = 3.18668 3.69720 3.45139
# Velocity P-wave (km/s) = 4.47080 5.71142 5.12876
#
# Compressibility (1/GPa) = 0.08695104
#
# Stress axis : x y z
#
# Youngs Moduli (GPa) = 78.85773 17.83578 85.76697
#
# Poissons Ratio (x) = -0.06164 0.25405
# Poissons Ratio (y) = -0.27255 -0.23822
# Poissons Ratio (z) = 0.23359 -0.04954
#
# Static dielectric constant tensor:
#      x y z
#    x 1.636780 0.000000 -0.008720 
#    y 0.000000 1.594890 0.000020 
#    z -0.008720 0.000020 1.689590 
# 
# From -- ./inp_files/292374.got.cif
#   From: 2010.05.17/outbox.cif.g08.bks.cpg/sg12_147_cif.got.tgz:292374.got - 2010.06.03 13:09:07.
