data_PCOD9180726
_publ_section_title
;
Structure prediction by ZEFSAII (Michael W. Deem and Ramdas Pophale) SiO2 
 PCOD9180726
Probable space group: C 2/M
;
_chemical_formula_sum "Si O2"
_cell_formula_units_Z 56
_cell_length_a 21.034258
_cell_length_b 7.405320
_cell_length_c 24.915172
_cell_angle_alpha 90.000000
_cell_angle_beta 138.432793
_cell_angle_gamma 90.000000
_cell_volume 2574.984404
_symmetry_space_group_name_H-M "C 2/M"
_symmetry_group_IT_number 12
_symmetry_cell_setting 'monoclinic'
loop_
_space_group_symop_operation_xyz
x,y,z
-x,y,-z
-x,-y,-z
x,-y,z
1/2+x,1/2+y,z
1/2-x,1/2+y,-z
1/2-x,1/2-y,-z
1/2+x,1/2-y,z
loop_
_atom_site_type_symbol
_atom_site_label
_atom_site_fract_x
_atom_site_fract_y
_atom_site_fract_z
Si Si1 0.012526 0.714924 0.718418
Si Si2 0.270063 0.778914 0.161545
Si Si3 0.666067 0.284140 0.989838
Si Si4 0.968975 0.783155 0.814103
Si Si5 0.727450 0.720664 0.255460
Si Si6 0.351115 0.216011 0.535696
Si Si7 0.609265 0.220544 0.559164
O O1 0.018211 0.500000 0.713655
O O2 0.937674 0.786621 0.627350
O O3 0.121075 0.782298 0.780897
O O4 0.974894 0.744409 0.754695
O O5 0.201422 0.717526 0.070017
O O6 0.237795 0.723423 0.200338
O O7 0.270119 0.000000 0.160497
O O8 0.656020 0.500000 0.988046
O O9 0.750000 0.250000 0.000000
O O10 0.565256 0.213733 0.903756
O O11 0.871266 0.718469 0.779598
O O12 0.969005 0.000000 0.819324
O O13 0.727434 0.500000 0.255698
O O14 0.817806 0.778220 0.348412
O O15 0.250000 0.250000 0.500000
O O16 0.356332 0.281276 0.477855
O O17 0.362436 0.000000 0.539937
O O18 0.500000 0.276541 0.500000
O O19 0.609982 0.000000 0.560173
#
# Coordination Sequence:
#
# PCOD9180726 Si02
#       7
#     8   8   8   8   8   8   8
#     4  10  19  32  51  73  98 132 170 204 242 292
#     4   9  17  30  49  72  98 129 165 203 241 290
#     4  10  19  32  51  75 101 130 164 201 245 295
#     4  10  20  32  50  76 103 131 162 204 255 296
#     4   9  17  29  46  71 101 128 160 205 251 290
#     4  10  20  32  49  74 101 130 165 205 249 295
#     4   9  16  28  47  70  97 129 165 205 245 289
#
# _framework density 21.747703000000001
#
# number of rings (size 3 to 8) (size 9 to 14) (size 15 to 20)
#    0.000    2.429    1.429    1.714    0.000    5.714 
#    0.000    2.857    0.000    2.143    0.000    2.000 
#    0.000    0.000    0.000    0.000    0.000    0.000 
#
# Total GULP energy -156491.821598 kJ/mol
# GULP energy per Si atom -5588.993628 kJ/mol
# Density = 2.169820 g / cm^3
# Si number density = 21.747703 Si / 1000 Ang^3
#
#
#
# Elastic Constant Matrix: (Units=GPa)
#
#
# Indices 1 2 3 4 5 6 
#
# 1 93.0322 -14.0996 23.4720 -0.0001 -20.5301 -0.0001
# 2 -14.0996 72.4436 -2.4077 -0.0001 0.7459 -0.0001
# 3 23.4720 -2.4077 144.4866 -0.0001 -21.5844 0.0000
# 4 -0.0001 -0.0001 -0.0001 4.4238 0.0000 -3.2714
# 5 -20.5301 0.7459 -21.5844 0.0000 43.2472 0.0000
# 6 -0.0001 -0.0001 0.0000 -3.2714 0.0000 18.8996
#
#
#
# Elastic Compliance Matrix: (Units=1/GPa)
#
#
# Indices 1 2 3 4 5 6 
#
# 1 0.012587 0.002355 -0.001209 0.000000 0.005331 0.000000
# 2 0.002355 0.014253 -0.000016 0.000000 0.000864 0.000000
# 3 -0.001209 -0.000016 0.007598 0.000000 0.003218 0.000000
# 4 0.000000 0.000000 0.000000 0.259231 0.000000 0.044872
# 5 0.005331 0.000864 0.003218 0.000000 0.027245 0.000000
# 6 0.000000 0.000000 0.000000 0.044872 0.000000 0.060678
#
#
# Mechanical properties :
#
#
# Convention : Reuss Voigt Hill
#
# Bulk Modulus (GPa) = 27.24982 35.98798 31.61890
# Shear Modulus (GPa) = 12.76925 33.51398 23.14162
#
# Velocity S-wave (km/s) = 2.42575 3.92986 3.26559
# Velocity P-wave (km/s) = 4.51696 6.09718 5.36556
#
# Compressibility (1/GPa) = 0.03669749
#
# Stress axis : x y z
#
# Youngs Moduli (GPa) = 79.44437 70.16205 131.61343
#
# Poissons Ratio (x) = -0.16522 0.15914
# Poissons Ratio (y) = -0.18707 0.00210
# Poissons Ratio (z) = 0.09606 0.00112
#
# Static dielectric constant tensor:
#      x y z
#    x 1.728540 0.000000 0.006080 
#    y 0.000000 1.883560 0.000000 
#    z 0.006080 0.000000 1.761790 
# 
# From -- ./inp_files/231804.got.cif
#   From: 2010.05.17/outbox.cif.g08.bks.cpg/sg12_116_cif.got.tgz:231804.got - 2010.06.03 13:09:07.
