data_PCOD9180709
_publ_section_title
;
Structure prediction by ZEFSAII (Michael W. Deem and Ramdas Pophale) SiO2 
 PCOD9180709
Probable space group: C 2/M
;
_chemical_formula_sum "Si O2"
_cell_formula_units_Z 64
_cell_length_a 30.571598
_cell_length_b 8.985282
_cell_length_c 15.430452
_cell_angle_alpha 90.000000
_cell_angle_beta 78.912335
_cell_angle_gamma 90.000000
_cell_volume 4159.540768
_symmetry_space_group_name_H-M "C 2/M"
_symmetry_group_IT_number 12
_symmetry_cell_setting 'monoclinic'
loop_
_space_group_symop_operation_xyz
x,y,z
-x,y,-z
-x,-y,-z
x,-y,z
1/2+x,1/2+y,z
1/2-x,1/2+y,-z
1/2-x,1/2-y,-z
1/2+x,1/2-y,z
loop_
_atom_site_type_symbol
_atom_site_label
_atom_site_fract_x
_atom_site_fract_y
_atom_site_fract_z
Si Si1 0.210802 0.178121 0.210847
Si Si2 0.686553 0.678188 0.576532
Si Si3 0.349853 0.678338 0.928863
Si Si4 0.812104 0.321536 0.117559
Si Si5 0.457494 0.177813 0.132796
Si Si6 0.374147 0.678148 0.241619
Si Si7 0.785312 0.677419 0.606667
Si Si8 0.058446 0.321957 0.064510
O O1 0.176179 0.219604 0.148824
O O2 0.260900 0.213952 0.159860
O O3 0.202286 0.256018 0.305465
O O4 0.208738 0.000000 0.223731
O O5 0.686555 0.500000 0.563652
O O6 0.647054 0.717536 0.657359
O O7 0.733578 0.717475 0.605136
O O8 0.686617 0.757546 0.483994
O O9 0.348308 0.500000 0.938946
O O10 0.400551 0.735118 0.910278
O O11 0.325994 0.753200 0.020388
O O12 0.817617 0.500000 0.113184
O O13 0.843704 0.253491 0.179408
O O14 0.423988 0.264198 0.207432
O O15 0.509699 0.215955 0.120479
O O16 0.452954 0.000000 0.146753
O O17 0.443754 0.209019 0.038018
O O18 0.371868 0.500000 0.232777
O O19 0.788511 0.500000 0.607071
O O20 0.064829 0.500000 0.071166
#
# Coordination Sequence:
#
# PCOD9180709 Si02
#       8
#     8   8   8   8   8   8   8   8
#     4  10  22  36  49  68  98 135 169 204 245 286
#     4   9  19  33  48  70 101 129 157 200 248 290
#     4  11  22  34  49  71  98 130 170 209 243 284
#     4  11  21  33  48  67  97 137 172 200 237 284
#     4   9  18  32  50  71  98 128 162 200 244 296
#     4  11  20  31  49  75 102 129 162 201 244 290
#     4  10  19  32  51  73  95 126 167 205 240 286
#     4   9  18  33  50  70  96 129 164 201 245 291
#
# _framework density 15.386314
#
# number of rings (size 3 to 8) (size 9 to 14) (size 15 to 20)
#    0.000    2.000    2.500    2.625    0.000    3.500 
#    0.000    1.250    0.000    0.000    0.000    0.875 
#    0.000    7.000    0.000    0.000    0.000    0.000 
#
# Total GULP energy -178592.672316 kJ/mol
# GULP energy per Si atom -5581.021010 kJ/mol
# Density = 1.535129 g / cm^3
# Si number density = 15.386314 Si / 1000 Ang^3
#
#
#
# Elastic Constant Matrix: (Units=GPa)
#
#
# Indices 1 2 3 4 5 6 
#
# 1 91.2990 45.1162 75.3339 0.0000 -8.9436 0.0000
# 2 45.1162 42.2273 57.0000 0.0000 -5.5718 0.0000
# 3 75.3339 57.0000 138.4150 0.0000 -10.8392 0.0000
# 4 0.0000 0.0000 0.0000 25.2563 0.0000 -1.6623
# 5 -8.9436 -5.5718 -10.8392 0.0000 23.2970 0.0000
# 6 0.0000 0.0000 0.0000 -1.6623 0.0000 25.2016
#
#
#
# Elastic Compliance Matrix: (Units=1/GPa)
#
#
# Indices 1 2 3 4 5 6 
#
# 1 0.025324 -0.018882 -0.005811 0.000000 0.002502 0.000000
# 2 -0.018882 0.067556 -0.017482 0.000000 0.000774 0.000000
# 3 -0.005811 -0.017482 0.017731 0.000000 0.001837 0.000000
# 4 0.000000 0.000000 0.000000 0.039767 0.000000 0.002623
# 5 0.002502 0.000774 0.001837 0.000000 0.044924 0.000000
# 6 0.000000 0.000000 0.000000 0.002623 0.000000 0.039853
#
#
# Mechanical properties :
#
#
# Convention : Reuss Voigt Hill
#
# Bulk Modulus (GPa) = 38.08214 69.64906 53.86560
# Shear Modulus (GPa) = 15.23191 21.05040 18.14116
#
# Velocity S-wave (km/s) = 3.14978 3.70283 3.43745
# Velocity P-wave (km/s) = 6.16706 7.97787 7.13018
#
# Compressibility (1/GPa) = 0.02625903
#
# Stress axis : x y z
#
# Youngs Moduli (GPa) = 39.48865 14.80261 56.39967
#
# Poissons Ratio (x) = 0.27950 0.32774
# Poissons Ratio (y) = 0.74563 0.98600
# Poissons Ratio (z) = 0.22947 0.25878
#
# Static dielectric constant tensor:
#      x y z
#    x 1.505730 0.000000 -0.014070 
#    y 0.000000 1.511770 0.000000 
#    z -0.014070 0.000000 1.490250 
# 
# From -- ./inp_files/248284.got.cif
#   From: 2010.05.17/outbox.cif.g08.bks.cpg/sg12_125_cif.got.tgz:248284.got - 2010.06.03 13:09:07.
