data_PCOD9180400
_publ_section_title
;
Structure prediction by ZEFSAII (Michael W. Deem and Ramdas Pophale) SiO2 
 PCOD9180400
Probable space group: C 2/M
;
_chemical_formula_sum "Si O2"
_cell_formula_units_Z 48
_cell_length_a 23.201116
_cell_length_b 7.678449
_cell_length_c 35.914557
_cell_angle_alpha 90.000000
_cell_angle_beta 153.961468
_cell_angle_gamma 90.000000
_cell_volume 2808.621211
_symmetry_space_group_name_H-M "C 2/M"
_symmetry_group_IT_number 12
_symmetry_cell_setting 'monoclinic'
loop_
_space_group_symop_operation_xyz
x,y,z
-x,y,-z
-x,-y,-z
x,-y,z
1/2+x,1/2+y,z
1/2-x,1/2+y,-z
1/2-x,1/2-y,-z
1/2+x,1/2-y,z
loop_
_atom_site_type_symbol
_atom_site_label
_atom_site_fract_x
_atom_site_fract_y
_atom_site_fract_z
Si Si1 0.864691 0.804846 0.237194
Si Si2 0.020124 0.000000 0.073641
Si Si3 0.715278 0.500000 0.115333
Si Si4 0.334765 0.208236 0.585592
Si Si5 0.350175 0.712572 0.455171
Si Si6 0.350631 0.287959 0.370715
Si Si7 0.818456 0.705902 0.797370
O O1 0.806417 0.667226 0.174433
O O2 0.792812 0.775368 0.235125
O O3 0.019986 0.785234 0.332104
O O4 0.831908 0.000000 0.206275
O O5 0.113418 0.000000 0.091039
O O6 0.062495 0.829133 0.121203
O O7 0.872666 0.000000 0.972596
O O8 0.250000 0.250000 0.500000
O O9 0.253688 0.271239 0.574554
O O10 0.349077 0.000000 0.596573
O O11 0.350167 0.500000 0.455630
O O12 0.499651 0.767097 0.551057
O O13 0.320456 0.766289 0.395508
O O14 0.351516 0.500000 0.370732
O O15 0.247617 0.235050 0.279602
O O16 0.852106 0.500000 0.814944
#
# Coordination Sequence:
#
# PCOD9180400 Si02
#       7
#     8   4   4   8   8   8   8
#     4  10  19  32  49  71  99 131 163 194 238 290
#     4   9  18  30  50  73 102 122 158 197 245 299
#     4   9  18  34  48  72 100 131 154 198 243 293
#     4  11  20  30  45  69 100 133 170 199 233 280
#     4   8  15  26  44  67  94 131 169 199 236 282
#     4   8  13  26  46  68  95 126 163 202 241 283
#     4   9  17  29  49  73  98 127 159 196 248 291
#
# _framework density 17.090236999999998
#
# number of rings (size 3 to 8) (size 9 to 14) (size 15 to 20)
#    0.000    2.833    0.833    2.500    0.000    3.333 
#    0.000    3.333    3.667    1.000    0.000    1.167 
#    0.000    0.000    0.000    0.000    0.000    0.000 
#
# Total GULP energy -133809.209310 kJ/mol
# GULP energy per Si atom -5575.383721 kJ/mol
# Density = 1.705134 g / cm^3
# Si number density = 17.090237 Si / 1000 Ang^3
#
#
#
# Elastic Constant Matrix: (Units=GPa)
#
#
# Indices 1 2 3 4 5 6 
#
# 1 48.3606 24.0230 35.9519 -0.0010 -3.6897 0.0012
# 2 24.0230 65.6611 49.6620 -0.0011 -8.6898 0.0014
# 3 35.9519 49.6620 152.2597 -0.0003 -18.8187 0.0006
# 4 -0.0010 -0.0011 -0.0003 20.5489 0.0001 -3.3025
# 5 -3.6897 -8.6898 -18.8187 0.0001 20.7398 -0.0004
# 6 0.0012 0.0014 0.0006 -3.3025 -0.0004 6.9501
#
#
#
# Elastic Compliance Matrix: (Units=1/GPa)
#
#
# Indices 1 2 3 4 5 6 
#
# 1 0.027241 -0.006879 -0.004444 0.000000 -0.002068 -0.000003
# 2 -0.006879 0.022100 -0.005171 0.000000 0.003344 -0.000002
# 3 -0.004444 -0.005171 0.010067 0.000000 0.006177 0.000001
# 4 0.000000 0.000000 0.000000 0.052688 0.000000 0.025036
# 5 -0.002068 0.003344 0.006177 0.000000 0.054855 0.000002
# 6 -0.000003 -0.000002 0.000001 0.025036 0.000002 0.155778
#
#
# Mechanical properties :
#
#
# Convention : Reuss Voigt Hill
#
# Bulk Modulus (GPa) = 37.84940 53.95056 45.89998
# Shear Modulus (GPa) = 13.71654 20.09076 16.90365
#
# Velocity S-wave (km/s) = 2.83608 3.43238 3.14838
# Velocity P-wave (km/s) = 5.73754 6.88076 6.33499
#
# Compressibility (1/GPa) = 0.02642050
#
# Stress axis : x y z
#
# Youngs Moduli (GPa) = 36.70918 45.24937 99.33366
#
# Poissons Ratio (x) = 0.31127 0.44146
# Poissons Ratio (y) = 0.25252 0.51361
# Poissons Ratio (z) = 0.16314 0.23397
#
# Static dielectric constant tensor:
#      x y z
#    x 1.569580 0.000000 -0.006410 
#    y 0.000000 1.628080 0.000000 
#    z -0.006410 0.000000 1.553130 
# 
# From -- ./inp_files/380265.got.cif
#   From: 2010.05.17/outbox.cif.g08.bks.cpg/sg12_191_cif.got.tgz:380265.got - 2010.06.03 13:09:07.
