data_PCOD9180100
_publ_section_title
;
Structure prediction by ZEFSAII (Michael W. Deem and Ramdas Pophale) SiO2 
 PCOD9180100
Probable space group: C 2/M
;
_chemical_formula_sum "Si O2"
_cell_formula_units_Z 56
_cell_length_a 14.215189
_cell_length_b 18.451041
_cell_length_c 9.635509
_cell_angle_alpha 90.000000
_cell_angle_beta 90.891538
_cell_angle_gamma 90.000000
_cell_volume 2526.943871
_symmetry_space_group_name_H-M "C 2/M"
_symmetry_group_IT_number 12
_symmetry_cell_setting 'monoclinic'
loop_
_space_group_symop_operation_xyz
x,y,z
-x,y,-z
-x,-y,-z
x,-y,z
1/2+x,1/2+y,z
1/2-x,1/2+y,-z
1/2-x,1/2-y,-z
1/2+x,1/2-y,z
loop_
_atom_site_type_symbol
_atom_site_label
_atom_site_fract_x
_atom_site_fract_y
_atom_site_fract_z
Si Si1 0.197762 0.611184 0.024850
Si Si2 0.463408 0.415706 0.849013
Si Si3 0.696896 0.087673 0.449130
Si Si4 0.145755 0.138194 0.752982
Si Si5 0.271845 0.419051 0.736915
Si Si6 0.922088 0.282467 0.112608
Si Si7 0.534999 0.917364 0.237300
O O1 0.215994 0.575496 0.878218
O O2 0.165910 0.691378 0.980986
O O3 0.292153 0.610177 0.115685
O O4 0.112755 0.580409 0.114848
O O5 0.440584 0.500000 0.872255
O O6 0.550206 0.407459 0.746428
O O7 0.369571 0.380474 0.782256
O O8 0.500000 0.389241 0.000000
O O9 0.782881 0.126239 0.371154
O O10 0.709427 0.109866 0.609400
O O11 0.597236 0.103978 0.373549
O O12 0.705081 0.000000 0.430866
O O13 0.110616 0.219170 0.786379
O O14 0.297424 0.500000 0.688270
O O15 0.964952 0.353107 0.192140
O O16 0.000000 0.261469 0.000000
O O17 0.496799 0.000000 0.253586
#
# Coordination Sequence:
#
# PCOD9180100 Si02
#       7
#     8   8   8   8   8   8   8
#     4  10  20  34  58  87 111 149 191 239 287 337
#     4  10  19  31  53  85 114 144 186 238 285 336
#     4   9  20  38  61  85 115 154 194 239 288 341
#     4  11  20  36  57  81 116 154 194 233 285 345
#     4  10  20  35  57  88 117 147 190 237 289 341
#     4  10  22  36  58  88 113 152 192 241 289 340
#     4   9  19  38  62  88 115 146 192 244 293 341
#
# _framework density 22.161158
#
# number of rings (size 3 to 8) (size 9 to 14) (size 15 to 20)
#    0.000    2.143    1.429    1.714    0.000    4.857 
#    0.000    3.571    3.143    2.571    0.000    0.000 
#    0.000    0.000    0.000    0.000    0.000    0.000 
#
# Total GULP energy -156189.449864 kJ/mol
# GULP energy per Si atom -5578.194638 kJ/mol
# Density = 2.211072 g / cm^3
# Si number density = 22.161158 Si / 1000 Ang^3
#
#
#
# Elastic Constant Matrix: (Units=GPa)
#
#
# Indices 1 2 3 4 5 6 
#
# 1 68.1716 20.2817 26.7530 0.0000 5.2070 0.0000
# 2 20.2817 74.2065 13.7214 0.0000 2.2977 0.0000
# 3 26.7530 13.7214 122.2903 0.0000 18.7304 0.0000
# 4 0.0000 0.0000 0.0000 3.7343 0.0000 -1.2623
# 5 5.2070 2.2977 18.7304 0.0000 25.3340 0.0000
# 6 0.0000 0.0000 0.0000 -1.2623 0.0000 43.2679
#
#
#
# Elastic Compliance Matrix: (Units=1/GPa)
#
#
# Indices 1 2 3 4 5 6 
#
# 1 0.017194 -0.004086 -0.003178 0.000000 -0.000813 0.000000
# 2 -0.004086 0.014733 -0.000770 0.000000 0.000073 0.000000
# 3 -0.003178 -0.000770 0.009978 0.000000 -0.006654 0.000000
# 4 0.000000 0.000000 0.000000 0.270455 0.000000 0.007890
# 5 -0.000813 0.000073 -0.006654 0.000000 0.044553 0.000000
# 6 0.000000 0.000000 0.000000 0.007890 0.000000 0.023342
#
#
# Mechanical properties :
#
#
# Convention : Reuss Voigt Hill
#
# Bulk Modulus (GPa) = 38.70736 42.90894 40.80815
# Shear Modulus (GPa) = 12.34760 28.06140 20.20450
#
# Velocity S-wave (km/s) = 2.36301 3.56229 3.02273
# Velocity P-wave (km/s) = 4.99493 6.02695 5.53505
#
# Compressibility (1/GPa) = 0.02583488
#
# Stress axis : x y z
#
# Youngs Moduli (GPa) = 58.15955 67.87498 100.21871
#
# Poissons Ratio (x) = 0.27737 0.31853
# Poissons Ratio (y) = 0.23767 0.07720
# Poissons Ratio (z) = 0.18485 0.05229
#
# Static dielectric constant tensor:
#      x y z
#    x 1.832970 0.000000 0.015410 
#    y 0.000000 1.833600 0.000000 
#    z 0.015410 0.000000 1.840210 
# 
# From -- ./inp_files/64103.got.cif
#   From: 2010.05.17/outbox.cif.g08.bks.cpg/sg12_33_cif.got.tgz:64103.got - 2010.06.03 13:09:07.
