data_PCOD9180631
_publ_section_title
;
Structure prediction by ZEFSAII (Michael W. Deem and Ramdas Pophale) SiO2 
 PCOD9180631
Probable space group: C 2/M
;
_chemical_formula_sum "Si O2"
_cell_formula_units_Z 48
_cell_length_a 16.226800
_cell_length_b 30.505193
_cell_length_c 12.671234
_cell_angle_alpha 90.000000
_cell_angle_beta 25.517648
_cell_angle_gamma 90.000000
_cell_volume 2702.030608
_symmetry_space_group_name_H-M "C 2/M"
_symmetry_group_IT_number 12
_symmetry_cell_setting 'monoclinic'
loop_
_space_group_symop_operation_xyz
x,y,z
-x,y,-z
-x,-y,-z
x,-y,z
1/2+x,1/2+y,z
1/2-x,1/2+y,-z
1/2-x,1/2-y,-z
1/2+x,1/2-y,z
loop_
_atom_site_type_symbol
_atom_site_label
_atom_site_fract_x
_atom_site_fract_y
_atom_site_fract_z
Si Si1 0.602041 0.549369 0.766176
Si Si2 0.500000 0.270507 0.500000
Si Si3 0.033207 0.451334 0.336048
Si Si4 0.273108 0.799955 0.017112
Si Si5 0.000000 0.164233 0.000000
Si Si6 0.818071 0.717536 0.513453
Si Si7 0.654268 0.379333 0.015055
O O1 0.559587 0.500000 0.777056
O O2 0.826969 0.553856 0.522520
O O3 0.500000 0.552146 0.000000
O O4 0.524941 0.587596 0.780431
O O5 0.669815 0.297948 0.249241
O O6 0.401053 0.241560 0.522474
O O7 0.109245 0.500000 0.219575
O O8 0.171453 0.410885 0.156337
O O9 0.000000 0.451967 0.500000
O O10 0.250000 0.750000 0.000000
O O11 0.499823 0.808728 0.744352
O O12 0.163002 0.836137 0.075638
O O13 0.133422 0.191107 0.766106
O O14 0.149709 0.137579 0.899229
O O15 0.750000 0.750000 0.500000
#
# Coordination Sequence:
#
# PCOD9180631 Si02
#       7
#     8   4   8   8   4   8   8
#     4  10  19  32  50  77 113 152 187 233 301 363
#     4  10  20  44  56  76 113 150 193 260 306 328
#     4  10  19  32  50  76 114 153 186 235 300 360
#     4  10  23  38  56  79 111 154 197 245 291 344
#     4  12  22  30  51  82 114 148 190 250 279 346
#     4  11  22  38  58  79 109 157 206 243 298 349
#     4  12  22  33  53  82 115 153 199 232 294 361
#
# _framework density 17.764417999999999
#
# number of rings (size 3 to 8) (size 9 to 14) (size 15 to 20)
#    0.000    1.333    2.500    5.500    4.667    0.000 
#    0.000    0.000    0.000    0.000    0.000    2.333 
#    0.000    2.667    0.000    0.000    0.000    0.000 
#
# Total GULP energy -133758.956201 kJ/mol
# GULP energy per Si atom -5573.289842 kJ/mol
# Density = 1.772399 g / cm^3
# Si number density = 17.764418 Si / 1000 Ang^3
#
#
#
# Elastic Constant Matrix: (Units=GPa)
#
#
# Indices 1 2 3 4 5 6 
#
# 1 81.8949 45.7028 30.3867 0.0011 -12.9134 -0.0010
# 2 45.7028 118.8146 37.8006 0.0002 -7.1469 -0.0003
# 3 30.3867 37.8006 105.3053 0.0027 -6.9900 -0.0021
# 4 0.0011 0.0002 0.0027 24.6282 -0.0015 -5.9326
# 5 -12.9134 -7.1469 -6.9900 -0.0015 29.4323 0.0013
# 6 -0.0010 -0.0003 -0.0021 -5.9326 0.0013 38.9983
#
#
#
# Elastic Compliance Matrix: (Units=1/GPa)
#
#
# Indices 1 2 3 4 5 6 
#
# 1 0.017072 -0.005399 -0.002619 0.000000 0.005557 0.000000
# 2 -0.005399 0.011277 -0.002505 0.000000 -0.000226 0.000000
# 3 -0.002619 -0.002505 0.011211 -0.000001 0.000905 0.000000
# 4 0.000000 0.000000 -0.000001 0.042148 0.000002 0.006412
# 5 0.005557 -0.000226 0.000905 0.000002 0.036575 -0.000001
# 6 0.000000 0.000000 0.000000 0.006412 -0.000001 0.026618
#
#
# Mechanical properties :
#
#
# Convention : Reuss Voigt Hill
#
# Bulk Modulus (GPa) = 54.01562 59.31056 56.66309
# Shear Modulus (GPa) = 29.04974 31.42007 30.23491
#
# Velocity S-wave (km/s) = 4.04824 4.21016 4.13000
# Velocity P-wave (km/s) = 7.23351 7.55604 7.39653
#
# Compressibility (1/GPa) = 0.01851316
#
# Stress axis : x y z
#
# Youngs Moduli (GPa) = 58.57513 88.67837 89.19616
#
# Poissons Ratio (x) = 0.47880 0.23363
# Poissons Ratio (y) = 0.31626 0.22342
# Poissons Ratio (z) = 0.15342 0.22213
#
# Static dielectric constant tensor:
#      x y z
#    x 1.600110 0.000000 -0.028570 
#    y 0.000000 1.673830 0.000000 
#    z -0.028570 0.000000 1.643950 
# 
# From -- ./inp_files/150223.got.cif
#   From: 2010.05.17/outbox.cif.g08.bks.cpg/sg12_76_cif.got.tgz:150223.got - 2010.06.03 13:09:07.
