data_PCOD9180399
_publ_section_title
;
Structure prediction by ZEFSAII (Michael W. Deem and Ramdas Pophale) SiO2 
 PCOD9180399
Probable space group: C 2/M
;
_chemical_formula_sum "Si O2"
_cell_formula_units_Z 52
_cell_length_a 28.838622
_cell_length_b 21.430613
_cell_length_c 14.066412
_cell_angle_alpha 90.000000
_cell_angle_beta 161.635492
_cell_angle_gamma 90.000000
_cell_volume 2738.970440
_symmetry_space_group_name_H-M "C 2/M"
_symmetry_group_IT_number 12
_symmetry_cell_setting 'monoclinic'
loop_
_space_group_symop_operation_xyz
x,y,z
-x,y,-z
-x,-y,-z
x,-y,z
1/2+x,1/2+y,z
1/2-x,1/2+y,-z
1/2-x,1/2-y,-z
1/2+x,1/2-y,z
loop_
_atom_site_type_symbol
_atom_site_label
_atom_site_fract_x
_atom_site_fract_y
_atom_site_fract_z
Si Si1 0.358955 0.795982 0.995253
Si Si2 0.321716 0.931725 0.648154
Si Si3 0.500000 0.110876 0.500000
Si Si4 0.629787 0.067583 0.947375
Si Si5 0.180675 0.682128 0.706081
Si Si6 0.159651 0.701745 0.261209
Si Si7 0.195675 0.569058 0.607581
O O1 0.279923 0.742743 0.901584
O O2 0.349536 0.778852 0.866143
O O3 0.294634 0.865955 0.886061
O O4 0.528612 0.800018 0.356842
O O5 0.275811 0.868677 0.611110
O O6 0.276669 0.923765 0.450232
O O7 0.269001 0.000000 0.579601
O O8 0.500000 0.934174 0.000000
O O9 0.566744 0.072337 0.717195
O O10 0.627420 0.153475 0.701968
O O11 0.482562 0.068715 0.726237
O O12 0.702973 0.000000 0.103612
O O13 0.249539 0.625901 0.777187
O O14 0.250000 0.750000 0.500000
O O15 0.000000 0.698337 0.000000
O O16 0.246427 0.500000 0.737156
#
# Coordination Sequence:
#
# PCOD9180399 Si02
#       7
#     8   8   4   8   8   8   8
#     4  10  20  32  48  70  98 130 157 196 242 281
#     4   9  15  24  41  64  89 117 151 191 232 273
#     4   8  17  30  50  72  95 124 158 198 239 286
#     4   9  16  27  46  71  97 122 155 197 241 284
#     4  10  19  32  49  71  97 124 159 195 239 289
#     4  11  20  31  48  70  97 128 163 198 235 283
#     4   8  14  25  41  63  90 118 149 190 232 271
#
# _framework density 18.985236
#
# number of rings (size 3 to 8) (size 9 to 14) (size 15 to 20)
#    0.000    2.923    0.000    5.769    0.000    4.923 
#    0.000    0.000    0.000    1.385    0.000    1.615 
#    0.000    0.000    0.000    0.000    0.000    0.000 
#
# Total GULP energy -144808.328152 kJ/mol
# GULP energy per Si atom -5569.551083 kJ/mol
# Density = 1.894202 g / cm^3
# Si number density = 18.985236 Si / 1000 Ang^3
#
#
#
# Elastic Constant Matrix: (Units=GPa)
#
#
# Indices 1 2 3 4 5 6 
#
# 1 49.8777 -1.5519 1.9782 0.0000 -5.2017 0.0000
# 2 -1.5519 123.6712 16.7415 0.0000 6.9541 0.0000
# 3 1.9782 16.7415 16.3361 0.0000 -7.0369 0.0000
# 4 0.0000 0.0000 0.0000 12.7834 0.0000 -2.5376
# 5 -5.2017 6.9541 -7.0369 0.0000 10.4579 0.0000
# 6 0.0000 0.0000 0.0000 -2.5376 0.0000 9.2688
#
#
#
# Elastic Compliance Matrix: (Units=1/GPa)
#
#
# Indices 1 2 3 4 5 6 
#
# 1 0.021363 -0.001268 0.005143 0.000000 0.014929 0.000000
# 2 -0.001268 0.012655 -0.023532 0.000000 -0.024880 0.000000
# 3 0.005143 -0.023532 0.130325 0.000000 0.105899 0.000000
# 4 0.000000 0.000000 0.000000 0.082722 0.000000 0.022647
# 5 0.014929 -0.024880 0.105899 0.000000 0.190849 0.000000
# 6 0.000000 0.000000 0.000000 0.022647 0.000000 0.114089
#
#
# Mechanical properties :
#
#
# Convention : Reuss Voigt Hill
#
# Bulk Modulus (GPa) = 7.99819 24.91340 16.45579
# Shear Modulus (GPa) = 7.89899 18.01650 12.95774
#
# Velocity S-wave (km/s) = 2.04197 3.08388 2.61534
# Velocity P-wave (km/s) = 3.12754 5.08247 4.21977
#
# Compressibility (1/GPa) = 0.12502825
#
# Stress axis : x y z
#
# Youngs Moduli (GPa) = 46.81080 79.02216 7.67314
#
# Poissons Ratio (x) = 0.10017 -0.03946
# Poissons Ratio (y) = 0.05934 0.18057
# Poissons Ratio (z) = -0.24076 1.85958
#
# Static dielectric constant tensor:
#      x y z
#    x 1.668120 0.000000 0.001490 
#    y 0.000000 1.736660 0.000000 
#    z 0.001490 0.000000 1.637920 
# 
# From -- ./inp_files/251818.got.cif
#   From: 2010.05.17/outbox.cif.g08.bks.cpg/sg12_126_cif.got.tgz:251818.got - 2010.06.03 13:09:07.
