data_PCOD9180729
_publ_section_title
;
Structure prediction by ZEFSAII (Michael W. Deem and Ramdas Pophale) SiO2 
 PCOD9180729
Probable space group: C 2/M
;
_chemical_formula_sum "Si O2"
_cell_formula_units_Z 48
_cell_length_a 18.890749
_cell_length_b 9.010194
_cell_length_c 32.642341
_cell_angle_alpha 90.000000
_cell_angle_beta 29.622900
_cell_angle_gamma 90.000000
_cell_volume 2746.286662
_symmetry_space_group_name_H-M "C 2/M"
_symmetry_group_IT_number 12
_symmetry_cell_setting 'monoclinic'
loop_
_space_group_symop_operation_xyz
x,y,z
-x,y,-z
-x,-y,-z
x,-y,z
1/2+x,1/2+y,z
1/2-x,1/2+y,-z
1/2-x,1/2-y,-z
1/2+x,1/2-y,z
loop_
_atom_site_type_symbol
_atom_site_label
_atom_site_fract_x
_atom_site_fract_y
_atom_site_fract_z
Si Si1 0.409836 0.670804 0.253963
Si Si2 0.330425 0.676242 0.080607
Si Si3 0.588112 0.327415 0.249968
Si Si4 0.190703 0.179434 0.071030
Si Si5 0.661612 0.677337 0.421479
Si Si6 0.672203 0.177947 0.577869
O O1 0.372649 0.500000 0.265031
O O2 0.500058 0.677040 0.251174
O O3 0.524003 0.721131 0.162680
O O4 0.266849 0.761567 0.333715
O O5 0.300711 0.500000 0.092988
O O6 0.236379 0.745515 0.164803
O O7 0.278244 0.756391 0.065477
O O8 0.500000 0.697457 0.000000
O O9 0.610114 0.500000 0.249402
O O10 0.484596 0.246485 0.334341
O O11 0.198890 0.000000 0.066712
O O12 0.250000 0.250000 0.000000
O O13 0.500000 0.735092 0.500000
O O14 0.658077 0.500000 0.419753
O O15 0.732259 0.712456 0.429877
O O16 0.750000 0.250000 0.500000
O O17 0.662838 0.000000 0.578485
#
# Coordination Sequence:
#
# PCOD9180729 Si02
#       6
#     8   8   8   8   8   8
#     4   8  16  30  48  71  96 125 161 198 239 289
#     4  10  20  34  53  77 104 133 167 208 253 303
#     4   9  17  31  51  73  98 129 167 206 245 297
#     4  10  20  34  53  76 102 133 170 210 251 299
#     4   9  18  32  50  72  96 124 160 199 239 286
#     4  10  19  32  51  73  99 130 164 204 248 295
#
# _framework density 17.478147
#
# number of rings (size 3 to 8) (size 9 to 14) (size 15 to 20)
#    0.000    2.667    0.000    3.000    0.000    7.000 
#    0.000    1.667    0.000    4.000    0.000    0.000 
#    0.000    0.000    0.000    0.000    0.000    0.000 
#
# Total GULP energy -133768.396428 kJ/mol
# GULP energy per Si atom -5573.683185 kJ/mol
# Density = 1.743837 g / cm^3
# Si number density = 17.478147 Si / 1000 Ang^3
#
#
#
# Elastic Constant Matrix: (Units=GPa)
#
#
# Indices 1 2 3 4 5 6 
#
# 1 28.9285 36.4414 55.5393 0.0001 0.0388 -0.0046
# 2 36.4414 81.2827 86.1186 0.0023 -0.6905 -0.0017
# 3 55.5393 86.1186 207.7013 -0.0003 7.2606 0.0003
# 4 0.0001 0.0023 -0.0003 39.5920 0.0003 2.2602
# 5 0.0388 -0.6905 7.2606 0.0003 30.4770 0.0007
# 6 -0.0046 -0.0017 0.0003 2.2602 0.0007 18.1125
#
#
#
# Elastic Compliance Matrix: (Units=1/GPa)
#
#
# Indices 1 2 3 4 5 6 
#
# 1 0.098936 -0.028899 -0.014567 0.000000 0.002690 0.000023
# 2 -0.028899 0.030603 -0.005029 -0.000002 0.001928 -0.000004
# 3 -0.014567 -0.005029 0.010889 0.000001 -0.002689 -0.000004
# 4 0.000000 -0.000002 0.000001 0.025439 0.000000 -0.003174
# 5 0.002690 0.001928 -0.002689 0.000000 0.033493 0.000000
# 6 0.000023 -0.000004 -0.000004 -0.003174 0.000000 0.055607
#
#
# Mechanical properties :
#
#
# Convention : Reuss Voigt Hill
#
# Bulk Modulus (GPa) = 23.02128 74.90124 48.96126
# Shear Modulus (GPa) = 13.64498 26.95720 20.30109
#
# Velocity S-wave (km/s) = 2.79711 3.93152 3.41179
# Velocity P-wave (km/s) = 4.86126 7.97223 6.60258
#
# Compressibility (1/GPa) = 0.04343807
#
# Stress axis : x y z
#
# Youngs Moduli (GPa) = 10.10758 32.67617 91.83650
#
# Poissons Ratio (x) = 0.94431 1.33779
# Poissons Ratio (y) = 0.29210 0.46182
# Poissons Ratio (z) = 0.14724 0.16432
#
# Static dielectric constant tensor:
#      x y z
#    x 1.582190 0.000000 -0.004250 
#    y 0.000000 1.586940 0.000000 
#    z -0.004250 0.000000 1.603870 
# 
# From -- ./inp_files/274103.got.cif
#   From: 2010.05.17/outbox.cif.g08.bks.cpg/sg12_138_cif.got.tgz:274103.got - 2010.06.03 13:09:07.
