data_PCOD9180930
_publ_section_title
;
Structure prediction by ZEFSAII (Michael W. Deem and Ramdas Pophale) SiO2 
 PCOD9180930
Probable space group: C 2/M
;
_chemical_formula_sum "Si O2"
_cell_formula_units_Z 48
_cell_length_a 5.758265
_cell_length_b 26.460627
_cell_length_c 16.887861
_cell_angle_alpha 90.000000
_cell_angle_beta 126.300582
_cell_angle_gamma 90.000000
_cell_volume 2073.765190
_symmetry_space_group_name_H-M "C 2/M"
_symmetry_group_IT_number 12
_symmetry_cell_setting 'monoclinic'
loop_
_space_group_symop_operation_xyz
x,y,z
-x,y,-z
-x,-y,-z
x,-y,z
1/2+x,1/2+y,z
1/2-x,1/2+y,-z
1/2-x,1/2-y,-z
1/2+x,1/2-y,z
loop_
_atom_site_type_symbol
_atom_site_label
_atom_site_fract_x
_atom_site_fract_y
_atom_site_fract_z
Si Si1 0.674962 0.131735 0.738106
Si Si2 0.782905 0.197063 0.603732
Si Si3 0.896561 0.056770 0.227682
Si Si4 0.686950 0.059966 0.962392
Si Si5 0.937700 0.903680 0.401008
Si Si6 0.840933 0.265047 0.204239
O O1 0.686346 0.164211 0.659516
O O2 0.402935 0.097010 0.674620
O O3 0.623872 0.174768 0.792240
O O4 0.958380 0.098385 0.798814
O O5 0.500000 0.216776 0.500000
O O6 0.945794 0.154422 0.583863
O O7 0.993307 0.238395 0.686478
O O8 0.551886 0.063522 0.155085
O O9 0.030932 0.066298 0.341651
O O10 0.958519 0.000000 0.213638
O O11 0.733716 0.000000 0.987925
O O12 0.500000 0.079401 0.000000
O O13 0.000000 0.080789 0.000000
O O14 0.000000 0.924105 0.500000
O O15 0.506422 0.255928 0.160439
#
# Coordination Sequence:
#
# PCOD9180930 Si02
#       6
#     8   8   8   8   8   8
#     4  10  21  35  53  77 117 155 205 250 297 354
#     4  10  19  32  51  77 113 151 204 258 313 358
#     4  10  24  40  59  86 119 163 205 251 304 358
#     4   9  19  38  65  95 119 142 185 251 325 383
#     4  11  21  36  55  80 119 167 215 253 289 347
#     4  10  20  33  52  81 112 151 198 248 314 362
#
# _framework density 23.146304000000001
#
# number of rings (size 3 to 8) (size 9 to 14) (size 15 to 20)
#    0.000    2.000    3.333    0.000    2.333    4.333 
#    0.000    0.833    0.000    0.000    0.000    0.000 
#    0.000   36.000    0.000    0.000    0.000    0.000 
#
# Total GULP energy -133820.471183 kJ/mol
# GULP energy per Si atom -5575.852966 kJ/mol
# Density = 2.309362 g / cm^3
# Si number density = 23.146304 Si / 1000 Ang^3
#
#
#
# Elastic Constant Matrix: (Units=GPa)
#
#
# Indices 1 2 3 4 5 6 
#
# 1 103.3041 3.4674 33.5567 0.0000 11.7012 0.0000
# 2 3.4674 53.4038 26.0867 0.0000 2.9594 0.0000
# 3 33.5567 26.0867 47.2710 0.0000 -4.4583 0.0000
# 4 0.0000 0.0000 0.0000 7.2855 0.0000 26.0652
# 5 11.7012 2.9594 -4.4583 0.0000 34.1728 0.0000
# 6 0.0000 0.0000 0.0000 26.0652 0.0000 9.3651
#
#
#
# Elastic Compliance Matrix: (Units=1/GPa)
#
#
# Indices 1 2 3 4 5 6 
#
# 1 0.015394 0.007039 -0.015558 0.000000 -0.007910 0.000000
# 2 0.007039 0.029439 -0.021981 0.000000 -0.007827 0.000000
# 3 -0.015558 -0.021981 0.045572 0.000000 0.013176 0.000000
# 4 0.000000 0.000000 0.000000 -0.015323 0.000000 0.042648
# 5 -0.007910 -0.007827 0.013176 0.000000 0.034369 0.000000
# 6 0.000000 0.000000 0.000000 0.042648 0.000000 -0.011921
#
#
# Mechanical properties :
#
#
# Convention : Reuss Voigt Hill
#
# Bulk Modulus (GPa) = 34.00878 36.68894 35.34886
# Shear Modulus (GPa) = 29.70329 19.55587 24.62958
#
# Velocity S-wave (km/s) = 3.58618 2.90984 3.26557
# Velocity P-wave (km/s) = 5.64557 5.21295 5.43357
#
# Compressibility (1/GPa) = 0.02940417
#
# Stress axis : x y z
#
# Youngs Moduli (GPa) = 64.96173 33.96825 21.94334
#
# Poissons Ratio (x) = -0.23909 0.34139
# Poissons Ratio (y) = -0.45724 0.48234
# Poissons Ratio (z) = 1.01067 0.74666
#
# Static dielectric constant tensor:
#      x y z
#    x 1.970210 0.000000 -0.040730 
#    y 0.000000 1.860120 0.000000 
#    z -0.040730 0.000000 1.906010 
# 
# From -- ./inp_files/192522.got.cif
#   From: 2010.05.17/outbox.cif.g08.bks.cpg/sg12_97_cif.got.tgz:192522.got - 2010.06.03 13:09:07.
