data_PCOD9180501
_publ_section_title
;
Structure prediction by ZEFSAII (Michael W. Deem and Ramdas Pophale) SiO2 
 PCOD9180501
Probable space group: C 2/M
;
_chemical_formula_sum "Si O2"
_cell_formula_units_Z 32
_cell_length_a 11.002834
_cell_length_b 16.844553
_cell_length_c 7.074861
_cell_angle_alpha 90.000000
_cell_angle_beta 59.402857
_cell_angle_gamma 90.000000
_cell_volume 1128.672070
_symmetry_space_group_name_H-M "C 2/M"
_symmetry_group_IT_number 12
_symmetry_cell_setting 'monoclinic'
loop_
_space_group_symop_operation_xyz
x,y,z
-x,y,-z
-x,-y,-z
x,-y,z
1/2+x,1/2+y,z
1/2-x,1/2+y,-z
1/2-x,1/2-y,-z
1/2+x,1/2-y,z
loop_
_atom_site_type_symbol
_atom_site_label
_atom_site_fract_x
_atom_site_fract_y
_atom_site_fract_z
Si Si1 0.654306 0.413874 0.119713
Si Si2 0.041129 0.413023 0.687317
Si Si3 0.458853 0.749623 0.752756
Si Si4 0.156544 0.879487 0.682153
O O1 0.711712 0.500000 0.143159
O O2 0.661716 0.318324 0.157309
O O3 0.484272 0.419272 0.286426
O O4 0.681658 0.412297 0.871635
O O5 0.019484 0.500000 0.784877
O O6 0.949797 0.339559 0.834724
O O7 0.206934 0.390944 0.552691
O O8 0.000000 0.419425 0.500000
O O9 0.500000 0.758376 0.500000
O O10 0.596212 0.709940 0.744967
#
# Coordination Sequence:
#
# PCOD9180501 Si02
#       4
#     8   8   8   8
#     4   9  17  30  53  74  95 125 160 202 246 284
#     4  10  19  32  50  71  98 133 168 195 227 286
#     4   9  19  31  47  79 102 121 156 201 254 284
#     4   9  17  32  53  72  97 123 163 203 237 286
#
# _framework density 28.351901999999999
#
# number of rings (size 3 to 8) (size 9 to 14) (size 15 to 20)
#    1.500    1.250    0.000    3.750    0.000    0.500 
#    0.000    5.000    0.000    3.000    0.000    0.000 
#    0.000    0.000    0.000    0.000    0.000    0.000 
#
# Total GULP energy -89161.155042 kJ/mol
# GULP energy per Si atom -5572.572190 kJ/mol
# Density = 2.828737 g / cm^3
# Si number density = 28.351902 Si / 1000 Ang^3
#
#
#
# Elastic Constant Matrix: (Units=GPa)
#
#
# Indices 1 2 3 4 5 6 
#
# 1 80.5766 24.1003 46.9966 0.0000 -22.6133 0.0000
# 2 24.1003 354.1364 51.8386 0.0000 -13.5641 0.0000
# 3 46.9966 51.8386 104.0574 0.0000 -30.7191 0.0000
# 4 0.0000 0.0000 0.0000 -60.7066 0.0000 14.3379
# 5 -22.6133 -13.5641 -30.7191 0.0000 70.9338 0.0000
# 6 0.0000 0.0000 0.0000 14.3379 0.0000 17.3396
#
#
#
# Elastic Compliance Matrix: (Units=1/GPa)
#
#
# Indices 1 2 3 4 5 6 
#
# 1 0.017208 -0.000049 -0.007029 0.000000 0.002432 0.000000
# 2 -0.000049 0.003046 -0.001523 0.000000 -0.000093 0.000000
# 3 -0.007029 -0.001523 0.014672 0.000000 0.003822 0.000000
# 4 0.000000 0.000000 0.000000 -0.013781 0.000000 0.011396
# 5 0.002432 -0.000093 0.003822 0.000000 0.016510 0.000000
# 6 0.000000 0.000000 0.000000 0.011396 0.000000 0.048249
#
#
# Mechanical properties :
#
#
# Convention : Reuss Voigt Hill
#
# Bulk Modulus (GPa) = 56.42207 87.18237 71.80222
# Shear Modulus (GPa) = 45.86591 33.23571 39.55081
#
# Velocity S-wave (km/s) = 4.02647 3.42754 3.73902
# Velocity P-wave (km/s) = 6.44674 6.81769 6.63481
#
# Compressibility (1/GPa) = 0.01772356
#
# Stress axis : x y z
#
# Youngs Moduli (GPa) = 58.11382 328.24795 68.15865
#
# Poissons Ratio (x) = 0.01606 0.47910
# Poissons Ratio (y) = 0.00284 0.10380
# Poissons Ratio (z) = 0.40850 0.49989
#
# Static dielectric constant tensor:
#      x y z
#    x 2.272520 0.000000 0.050600 
#    y 0.000000 2.327760 0.000000 
#    z 0.050600 0.000000 2.148080 
# 
# From -- ./inp_files/154477.got.cif
#   From: 2010.05.17/outbox.cif.g08.bks.cpg/sg12_78_cif.got.tgz:154477.got - 2010.06.03 13:09:07.
