data_PCOD9180140
_publ_section_title
;
Structure prediction by ZEFSAII (Michael W. Deem and Ramdas Pophale) SiO2 
 PCOD9180140
Probable space group: C 2/M
;
_chemical_formula_sum "Si O2"
_cell_formula_units_Z 56
_cell_length_a 20.876262
_cell_length_b 13.559510
_cell_length_c 13.421059
_cell_angle_alpha 90.000000
_cell_angle_beta 47.323063
_cell_angle_gamma 90.000000
_cell_volume 2793.068851
_symmetry_space_group_name_H-M "C 2/M"
_symmetry_group_IT_number 12
_symmetry_cell_setting 'monoclinic'
loop_
_space_group_symop_operation_xyz
x,y,z
-x,y,-z
-x,-y,-z
x,-y,z
1/2+x,1/2+y,z
1/2-x,1/2+y,-z
1/2-x,1/2-y,-z
1/2+x,1/2-y,z
loop_
_atom_site_type_symbol
_atom_site_label
_atom_site_fract_x
_atom_site_fract_y
_atom_site_fract_z
Si Si1 0.657444 0.693380 0.221576
Si Si2 0.440747 0.391766 0.963692
Si Si3 0.105818 0.613793 0.784709
Si Si4 0.205016 0.119120 0.389602
Si Si5 0.082713 0.675446 0.032267
Si Si6 0.019124 0.886429 0.663035
Si Si7 0.291201 0.110869 0.927723
O O1 0.691639 0.653172 0.290018
O O2 0.554633 0.676775 0.315045
O O3 0.687077 0.805600 0.175039
O O4 0.702865 0.634410 0.082069
O O5 0.396391 0.500000 0.013058
O O6 0.388993 0.289017 0.014221
O O7 0.497046 0.389483 0.803214
O O8 0.500000 0.385808 0.000000
O O9 0.097675 0.500000 0.760946
O O10 0.202782 0.653415 0.661923
O O11 0.020912 0.671913 0.837456
O O12 0.098599 0.618720 0.912719
O O13 0.117189 0.147785 0.539630
O O14 0.210726 0.000000 0.383353
O O15 0.135193 0.626764 0.065437
O O16 0.011386 0.000000 0.633916
O O17 0.291749 0.000000 0.890152
#
# Coordination Sequence:
#
# PCOD9180140 Si02
#       7
#     8   8   8   8   8   8   8
#     4  11  21  34  55  82 115 146 181 229 282 328
#     4  10  20  35  55  80 111 144 183 229 278 336
#     4  10  19  31  54  83 109 140 184 234 281 327
#     4  10  20  35  56  84 114 144 186 236 279 328
#     4  11  18  34  56  79 110 146 180 226 286 326
#     4  10  20  35  56  81 109 147 189 230 279 331
#     4  11  22  35  55  84 114 142 185 236 281 330
#
# _framework density 20.049631000000002
#
# number of rings (size 3 to 8) (size 9 to 14) (size 15 to 20)
#    0.000    1.571    4.286    3.429    0.000    1.143 
#    0.000    0.714    0.000    1.714    0.000    0.000 
#    0.000    0.000    0.000    0.000    0.000    0.000 
#
# Total GULP energy -156331.811928 kJ/mol
# GULP energy per Si atom -5583.278997 kJ/mol
# Density = 2.000400 g / cm^3
# Si number density = 20.049631 Si / 1000 Ang^3
#
#
#
# Elastic Constant Matrix: (Units=GPa)
#
#
# Indices 1 2 3 4 5 6 
#
# 1 85.7162 2.6910 25.7731 0.0000 -28.3198 0.0000
# 2 2.6910 94.4663 13.3055 0.0000 -14.9176 0.0000
# 3 25.7731 13.3055 58.6369 0.0000 -31.5699 0.0000
# 4 0.0000 0.0000 0.0000 18.1989 0.0000 4.3126
# 5 -28.3198 -14.9176 -31.5699 0.0000 37.4340 0.0000
# 6 0.0000 0.0000 0.0000 4.3126 0.0000 17.3921
#
#
#
# Elastic Compliance Matrix: (Units=1/GPa)
#
#
# Indices 1 2 3 4 5 6 
#
# 1 0.015789 0.001541 -0.000967 0.000000 0.011743 0.000000
# 2 0.001541 0.011449 -0.000350 0.000000 0.005433 0.000000
# 3 -0.000967 -0.000350 0.031303 0.000000 0.025528 0.000000
# 4 0.000000 0.000000 0.000000 0.058379 0.000000 -0.014476
# 5 0.011743 0.005433 0.025528 0.000000 0.059292 0.000000
# 6 0.000000 0.000000 0.000000 -0.014476 0.000000 0.061087
#
#
# Mechanical properties :
#
#
# Convention : Reuss Voigt Hill
#
# Bulk Modulus (GPa) = 16.95258 35.81761 26.38510
# Shear Modulus (GPa) = 19.49221 27.74166 23.61694
#
# Velocity S-wave (km/s) = 3.12139 3.72378 3.43581
# Velocity P-wave (km/s) = 4.63297 6.03258 5.37849
#
# Compressibility (1/GPa) = 0.05898806
#
# Stress axis : x y z
#
# Youngs Moduli (GPa) = 63.33705 87.34276 31.94604
#
# Poissons Ratio (x) = -0.13458 0.03089
# Poissons Ratio (y) = -0.09759 0.01119
# Poissons Ratio (z) = 0.06124 0.03058
#
# Static dielectric constant tensor:
#      x y z
#    x 1.717670 0.000000 -0.045780 
#    y 0.000000 1.729110 0.000000 
#    z -0.045780 0.000000 1.725060 
# 
# From -- ./inp_files/233657.got.cif
#   From: 2010.05.17/outbox.cif.g08.bks.cpg/sg12_117_cif.got.tgz:233657.got - 2010.06.03 13:09:07.
