data_PCOD9180393
_publ_section_title
;
Structure prediction by ZEFSAII (Michael W. Deem and Ramdas Pophale) SiO2 
 PCOD9180393
Probable space group: C 2/M
;
_chemical_formula_sum "Si O2"
_cell_formula_units_Z 56
_cell_length_a 14.657324
_cell_length_b 7.735854
_cell_length_c 23.705636
_cell_angle_alpha 90.000000
_cell_angle_beta 115.486143
_cell_angle_gamma 90.000000
_cell_volume 2426.346916
_symmetry_space_group_name_H-M "C 2/M"
_symmetry_group_IT_number 12
_symmetry_cell_setting 'monoclinic'
loop_
_space_group_symop_operation_xyz
x,y,z
-x,y,-z
-x,-y,-z
x,-y,z
1/2+x,1/2+y,z
1/2-x,1/2+y,-z
1/2-x,1/2-y,-z
1/2+x,1/2-y,z
loop_
_atom_site_type_symbol
_atom_site_label
_atom_site_fract_x
_atom_site_fract_y
_atom_site_fract_z
Si Si1 0.014827 0.290180 0.569566
Si Si2 0.437151 0.287413 0.700032
Si Si3 0.149309 0.697571 0.698256
Si Si4 0.688643 0.688823 0.429256
Si Si5 0.280684 0.797206 0.168539
Si Si6 0.064960 0.302378 0.068141
Si Si7 0.016191 0.800068 0.838012
O O1 0.003916 0.500000 0.574320
O O2 0.118663 0.235525 0.628000
O O3 0.000000 0.255691 0.500000
O O4 0.924405 0.191333 0.575838
O O5 0.443105 0.500000 0.698085
O O6 0.538352 0.207941 0.699131
O O7 0.338630 0.228623 0.638680
O O8 0.443921 0.241695 0.767411
O O9 0.183760 0.500000 0.698563
O O10 0.217692 0.774383 0.766434
O O11 0.731470 0.500000 0.428061
O O12 0.750000 0.750000 0.500000
O O13 0.172516 0.779777 0.111219
O O14 0.370519 0.713684 0.156306
O O15 0.306053 0.000000 0.179673
O O16 0.087422 0.500000 0.058202
O O17 0.000804 0.297250 0.108557
O O18 0.000000 0.223149 0.000000
O O19 0.992271 0.000000 0.843183
#
# Coordination Sequence:
#
# PCOD9180393 Si02
#       7
#     8   8   8   8   8   8   8
#     4   9  17  31  50  72 102 140 178 220 272 327
#     4   8  16  31  52  76 102 138 180 226 276 327
#     4   8  15  29  51  77 103 137 180 224 271 327
#     4  10  19  32  49  71 103 140 180 225 273 325
#     4  10  20  37  62  89 118 153 194 239 289 347
#     4  11  25  43  61  86 121 156 193 238 286 344
#     4  10  20  38  64  90 116 150 194 241 292 347
#
# _framework density 23.079967
#
# number of rings (size 3 to 8) (size 9 to 14) (size 15 to 20)
#    0.000    2.571    0.000    1.714    0.000    3.714 
#    2.571    0.000    0.000    0.000    0.000    0.000 
#    0.000    0.000    0.000    0.000    0.000    0.000 
#
# Total GULP energy -156052.328765 kJ/mol
# GULP energy per Si atom -5573.297456 kJ/mol
# Density = 2.302744 g / cm^3
# Si number density = 23.079967 Si / 1000 Ang^3
#
#
#
# Elastic Constant Matrix: (Units=GPa)
#
#
# Indices 1 2 3 4 5 6 
#
# 1 68.0300 -5.6193 40.8031 0.0000 7.5553 0.0000
# 2 -5.6193 43.0013 8.0621 0.0000 1.7000 0.0000
# 3 40.8031 8.0621 240.7640 0.0000 15.3397 0.0000
# 4 0.0000 0.0000 0.0000 20.8400 0.0000 2.6768
# 5 7.5553 1.7000 15.3397 0.0000 33.2803 0.0000
# 6 0.0000 0.0000 0.0000 2.6768 0.0000 19.4133
#
#
#
# Elastic Compliance Matrix: (Units=1/GPa)
#
#
# Indices 1 2 3 4 5 6 
#
# 1 0.016906 0.002839 -0.002788 0.000000 -0.002698 0.000000
# 2 0.002839 0.023903 -0.001198 0.000000 -0.001313 0.000000
# 3 -0.002788 -0.001198 0.004762 0.000000 -0.001501 0.000000
# 4 0.000000 0.000000 0.000000 0.048850 0.000000 -0.006736
# 5 -0.002698 -0.001313 -0.001501 0.000000 0.031419 0.000000
# 6 0.000000 0.000000 0.000000 -0.006736 0.000000 0.052440
#
#
# Mechanical properties :
#
#
# Convention : Reuss Voigt Hill
#
# Bulk Modulus (GPa) = 23.10791 48.69857 35.90324
# Shear Modulus (GPa) = 25.64121 35.27669 30.45895
#
# Velocity S-wave (km/s) = 3.33674 3.91379 3.63673
# Velocity P-wave (km/s) = 4.98788 6.44743 5.76404
#
# Compressibility (1/GPa) = 0.04327522
#
# Stress axis : x y z
#
# Youngs Moduli (GPa) = 59.15123 41.83655 210.00924
#
# Poissons Ratio (x) = -0.11876 0.58556
# Poissons Ratio (y) = -0.16791 0.25155
# Poissons Ratio (z) = 0.16493 0.05011
#
# Static dielectric constant tensor:
#      x y z
#    x 1.849550 0.000000 -0.017510 
#    y 0.000000 1.842840 0.000000 
#    z -0.017510 0.000000 1.976070 
# 
# From -- ./inp_files/339107.got.cif
#   From: 2010.05.17/outbox.cif.g08.bks.cpg/sg12_170_cif.got.tgz:339107.got - 2010.06.03 13:09:07.
