data_PCOD9180546
_publ_section_title
;
Structure prediction by ZEFSAII (Michael W. Deem and Ramdas Pophale) SiO2 
 PCOD9180546
Probable space group: C 2/M
;
_chemical_formula_sum "Si O2"
_cell_formula_units_Z 48
_cell_length_a 24.215716
_cell_length_b 7.958253
_cell_length_c 14.478862
_cell_angle_alpha 90.000000
_cell_angle_beta 110.182275
_cell_angle_gamma 90.000000
_cell_volume 2618.966492
_symmetry_space_group_name_H-M "C 2/M"
_symmetry_group_IT_number 12
_symmetry_cell_setting 'monoclinic'
loop_
_space_group_symop_operation_xyz
x,y,z
-x,y,-z
-x,-y,-z
x,-y,z
1/2+x,1/2+y,z
1/2-x,1/2+y,-z
1/2-x,1/2-y,-z
1/2+x,1/2-y,z
loop_
_atom_site_type_symbol
_atom_site_label
_atom_site_fract_x
_atom_site_fract_y
_atom_site_fract_z
Si Si1 0.373038 0.703694 0.370083
Si Si2 0.512235 0.294446 0.110768
Si Si3 0.375130 0.300455 0.708921
Si Si4 0.441678 0.306333 0.242581
Si Si5 0.551777 0.807756 0.415927
Si Si6 0.252495 0.700731 0.393551
O O1 0.371623 0.500000 0.365889
O O2 0.390753 0.767061 0.278318
O O3 0.423893 0.752988 0.471626
O O4 0.311210 0.764344 0.376264
O O5 0.509928 0.500000 0.109932
O O6 0.576897 0.249366 0.186678
O O7 0.464501 0.232680 0.158861
O O8 0.500000 0.237559 0.000000
O O9 0.381178 0.500000 0.697287
O O10 0.394624 0.211271 0.625512
O O11 0.307552 0.261065 0.688686
O O12 0.426139 0.500000 0.214991
O O13 0.499655 0.299880 0.341167
O O14 0.531891 0.000000 0.407306
O O15 0.254368 0.500000 0.391366
O O16 0.250000 0.750000 0.500000
#
# Coordination Sequence:
#
# PCOD9180546 Si02
#       6
#     8   8   8   8   8   8
#     4  10  20  32  46  65  95 134 166 194 235 288
#     4   8  15  30  54  78  94 115 157 210 253 290
#     4  10  19  32  50  72  99 129 164 204 244 289
#     4   9  18  32  49  69  95 126 160 199 244 293
#     4  11  20  29  45  69  98 130 162 199 239 286
#     4  11  21  32  48  69  98 135 172 202 235 282
#
# _framework density 18.327839000000001
#
# number of rings (size 3 to 8) (size 9 to 14) (size 15 to 20)
#    0.000    2.167    1.667    4.000    0.000    3.333 
#    0.000    0.000    0.000   13.500    0.000    0.000 
#    0.000    0.000    0.000    0.000    0.000    0.833 
#
# Total GULP energy -133846.163928 kJ/mol
# GULP energy per Si atom -5576.923497 kJ/mol
# Density = 1.828612 g / cm^3
# Si number density = 18.327839 Si / 1000 Ang^3
#
#
#
# Elastic Constant Matrix: (Units=GPa)
#
#
# Indices 1 2 3 4 5 6 
#
# 1 115.7574 1.5524 60.2688 0.0000 -24.9629 0.0000
# 2 1.5524 33.7969 5.9620 0.0000 -1.2528 0.0000
# 3 60.2688 5.9620 123.6256 0.0000 -25.9588 0.0000
# 4 0.0000 0.0000 0.0000 1.4143 0.0000 5.7057
# 5 -24.9629 -1.2528 -25.9588 0.0000 23.0548 0.0000
# 6 0.0000 0.0000 0.0000 5.7057 0.0000 18.0240
#
#
#
# Elastic Compliance Matrix: (Units=1/GPa)
#
#
# Indices 1 2 3 4 5 6 
#
# 1 0.012867 0.000520 -0.004409 0.000000 0.008996 0.000000
# 2 0.000520 0.029863 -0.001617 0.000000 0.000365 0.000000
# 3 -0.004409 -0.001617 0.012174 0.000000 0.008845 0.000000
# 4 0.000000 0.000000 0.000000 -2.551997 0.000000 0.807858
# 5 0.008996 0.000365 0.008845 0.000000 0.063095 0.000000
# 6 0.000000 0.000000 0.000000 0.807858 0.000000 -0.200253
#
#
# Mechanical properties :
#
#
# Convention : Reuss Voigt Hill
#
# Bulk Modulus (GPa) = 22.78288 45.41626 34.09957
# Shear Modulus (GPa) = -1.91673 22.19172 10.13750
#
# Velocity S-wave (km/s) = -1.02375 3.48346 2.35440
# Velocity P-wave (km/s) = 3.32570 6.40414 5.10261
#
# Compressibility (1/GPa) = 0.04389261
#
# Stress axis : x y z
#
# Youngs Moduli (GPa) = 77.71602 33.48577 82.14426
#
# Poissons Ratio (x) = -0.01742 0.36218
# Poissons Ratio (y) = -0.04043 0.13284
# Poissons Ratio (z) = 0.34265 0.05415
#
# Static dielectric constant tensor:
#      x y z
#    x 1.692800 0.000000 -0.020430 
#    y 0.000000 1.662440 0.000000 
#    z -0.020430 0.000000 1.613600 
# 
# From -- ./inp_files/236597.got.cif
#   From: 2010.05.17/outbox.cif.g08.bks.cpg/sg12_119_cif.got.tgz:236597.got - 2010.06.03 13:09:07.
