data_PCOD9180706
_publ_section_title
;
Structure prediction by ZEFSAII (Michael W. Deem and Ramdas Pophale) SiO2 
 PCOD9180706
Probable space group: C 2/M
;
_chemical_formula_sum "Si O2"
_cell_formula_units_Z 64
_cell_length_a 30.255139
_cell_length_b 9.118655
_cell_length_c 33.775469
_cell_angle_alpha 90.000000
_cell_angle_beta 25.296323
_cell_angle_gamma 90.000000
_cell_volume 3981.658953
_symmetry_space_group_name_H-M "C 2/M"
_symmetry_group_IT_number 12
_symmetry_cell_setting 'monoclinic'
loop_
_space_group_symop_operation_xyz
x,y,z
-x,y,-z
-x,-y,-z
x,-y,z
1/2+x,1/2+y,z
1/2-x,1/2+y,-z
1/2-x,1/2-y,-z
1/2+x,1/2-y,z
loop_
_atom_site_type_symbol
_atom_site_label
_atom_site_fract_x
_atom_site_fract_y
_atom_site_fract_z
Si Si1 0.441227 0.820753 0.007079
Si Si2 0.213392 0.178128 0.210832
Si Si3 0.084518 0.670446 0.819378
Si Si4 0.321520 0.667681 0.327555
Si Si5 0.989173 0.176127 0.389287
Si Si6 0.308764 0.669586 0.680146
Si Si7 0.775303 0.176192 0.521123
Si Si8 0.096456 0.666807 0.466777
O O1 0.322026 0.771237 0.105018
O O2 0.443709 0.000000 0.004975
O O3 0.500000 0.776365 0.000000
O O4 0.501934 0.774476 0.918505
O O5 0.207036 0.220015 0.262209
O O6 0.102769 0.222474 0.282372
O O7 0.217625 0.000000 0.206420
O O8 0.062384 0.500000 0.827736
O O9 0.098140 0.762707 0.768442
O O10 0.195616 0.672363 0.751525
O O11 0.347206 0.500000 0.316886
O O12 0.301469 0.763883 0.382740
O O13 0.210925 0.666475 0.394302
O O14 0.891559 0.218353 0.441368
O O15 0.970605 0.239356 0.448246
O O16 0.987812 0.000000 0.393318
O O17 0.343969 0.500000 0.651990
O O18 0.384281 0.764097 0.591748
O O19 0.750000 0.250000 0.500000
O O20 0.769771 0.000000 0.523257
O O21 0.059861 0.500000 0.494520
#
# Coordination Sequence:
#
# PCOD9180706 Si02
#       8
#     8   8   8   8   8   8   8   8
#     4   9  14  23  41  67  92 117 156 201 232 253
#     4   9  16  26  41  62  88 118 153 190 224 257
#     4   9  15  24  42  66  91 119 154 194 227 254
#     4   9  17  29  45  66  92 120 149 182 223 268
#     4   9  18  31  45  63  88 116 146 180 218 266
#     4   9  15  24  40  60  83 115 154 190 220 251
#     4  10  19  32  51  73  94 115 142 177 222 276
#     4   9  17  28  41  57  83 118 153 186 220 258
#
# _framework density 16.073702000000001
#
# number of rings (size 3 to 8) (size 9 to 14) (size 15 to 20)
#    0.000    2.875    1.250    1.125    0.000    4.000 
#    0.000    3.125    0.000    1.875    0.000    0.875 
#    0.000    0.000    0.000    0.000    0.000    0.000 
#
# Total GULP energy -178290.339855 kJ/mol
# GULP energy per Si atom -5571.573120 kJ/mol
# Density = 1.603712 g / cm^3
# Si number density = 16.073702 Si / 1000 Ang^3
#
#
#
# Elastic Constant Matrix: (Units=GPa)
#
#
# Indices 1 2 3 4 5 6 
#
# 1 69.0026 27.4768 49.8186 0.0036 12.6822 -0.0047
# 2 27.4768 37.2769 34.0100 0.0079 6.2912 -0.0087
# 3 49.8186 34.0100 140.1416 0.0056 3.8780 -0.0056
# 4 0.0036 0.0079 0.0056 9.9106 -0.0019 4.9080
# 5 12.6822 6.2912 3.8780 -0.0019 20.2341 0.0010
# 6 -0.0047 -0.0087 -0.0056 4.9080 0.0010 15.2146
#
#
#
# Elastic Compliance Matrix: (Units=1/GPa)
#
#
# Indices 1 2 3 4 5 6 
#
# 1 0.025387 -0.011389 -0.005950 0.000001 -0.011231 0.000000
# 2 -0.011389 0.041340 -0.005857 -0.000042 -0.004593 0.000032
# 3 -0.005950 -0.005857 0.010575 0.000003 0.003524 -0.000002
# 4 0.000001 -0.000042 0.000003 0.120086 0.000025 -0.038738
# 5 -0.011231 -0.004593 0.003524 0.000025 0.057213 -0.000017
# 6 0.000000 0.000032 -0.000002 -0.038738 -0.000017 0.078223
#
#
# Mechanical properties :
#
#
# Convention : Reuss Voigt Hill
#
# Bulk Modulus (GPa) = 32.35203 52.11465 42.23334
# Shear Modulus (GPa) = 12.83636 18.07959 15.45797
#
# Velocity S-wave (km/s) = 2.82901 3.35743 3.10448
# Velocity P-wave (km/s) = 5.55356 6.89366 6.25957
#
# Compressibility (1/GPa) = 0.03090997
#
# Stress axis : x y z
#
# Youngs Moduli (GPa) = 39.38971 24.18986 94.56550
#
# Poissons Ratio (x) = 0.27550 0.56269
# Poissons Ratio (y) = 0.44861 0.55384
# Poissons Ratio (z) = 0.23438 0.14167
#
# Static dielectric constant tensor:
#      x y z
#    x 1.539670 0.000000 -0.026220 
#    y 0.000000 1.542080 0.000000 
#    z -0.026220 0.000000 1.549770 
# 
# From -- ./inp_files/248292.got.cif
#   From: 2010.05.17/outbox.cif.g08.bks.cpg/sg12_125_cif.got.tgz:248292.got - 2010.06.03 13:09:07.
