data_PCOD9180912
_publ_section_title
;
Structure prediction by ZEFSAII (Michael W. Deem and Ramdas Pophale) SiO2 
 PCOD9180912
Probable space group: C 2/M
;
_chemical_formula_sum "Si O2"
_cell_formula_units_Z 64
_cell_length_a 20.784338
_cell_length_b 8.024861
_cell_length_c 26.064572
_cell_angle_alpha 90.000000
_cell_angle_beta 51.337888
_cell_angle_gamma 90.000000
_cell_volume 3394.598529
_symmetry_space_group_name_H-M "C 2/M"
_symmetry_group_IT_number 12
_symmetry_cell_setting 'monoclinic'
loop_
_space_group_symop_operation_xyz
x,y,z
-x,y,-z
-x,-y,-z
x,-y,z
1/2+x,1/2+y,z
1/2-x,1/2+y,-z
1/2-x,1/2-y,-z
1/2+x,1/2-y,z
loop_
_atom_site_type_symbol
_atom_site_label
_atom_site_fract_x
_atom_site_fract_y
_atom_site_fract_z
Si Si1 0.991528 0.799391 0.151309
Si Si2 0.172951 0.798983 0.072711
Si Si3 0.434772 0.798203 0.574905
Si Si4 0.083952 0.701469 0.702366
Si Si5 0.466669 0.197093 0.673435
Si Si6 0.325796 0.696506 0.184716
Si Si7 0.250491 0.800772 0.329806
Si Si8 0.186087 0.195510 0.183189
O O1 0.966633 0.756308 0.222088
O O2 0.917473 0.737437 0.151868
O O3 0.084300 0.739404 0.095784
O O4 0.990700 0.000000 0.147476
O O5 0.182670 0.740431 0.126699
O O6 0.170034 0.000000 0.075596
O O7 0.250000 0.750000 0.000000
O O8 0.500000 0.741042 0.500000
O O9 0.457179 0.734311 0.620834
O O10 0.341440 0.746803 0.609370
O O11 0.436604 0.000000 0.575033
O O12 0.081780 0.500000 0.702124
O O13 0.178238 0.752410 0.665865
O O14 0.039270 0.765841 0.673582
O O15 0.382015 0.219522 0.746946
O O16 0.481749 0.000000 0.660254
O O17 0.330219 0.500000 0.171731
O O18 0.274693 0.722366 0.262912
O O19 0.274997 0.780222 0.164642
O O20 0.255653 0.000000 0.321051
O O21 0.165681 0.000000 0.192748
#
# Coordination Sequence:
#
# PCOD9180912 Si02
#       8
#     8   8   8   8   8   8   8   8
#     4   9  18  34  53  76 106 138 174 216 261 312
#     4  10  22  38  55  78 108 143 178 216 264 316
#     4  10  21  36  53  75 106 144 184 222 263 317
#     4   9  18  31  51  79 105 133 173 220 266 313
#     4  10  19  33  54  78 104 138 180 219 261 314
#     4  10  19  32  54  80 106 137 174 216 263 316
#     4  10  19  32  51  77 108 137 171 219 269 315
#     4  11  21  34  54  81 110 136 173 225 268 306
#
# _framework density 18.853480999999999
#
# number of rings (size 3 to 8) (size 9 to 14) (size 15 to 20)
#    0.000    2.125    2.500    1.125    0.000    2.750 
#    0.000    1.250    0.000    3.750    0.000    0.000 
#    0.000    0.000    0.000    0.000    0.000    0.000 
#
# Total GULP energy -178536.684763 kJ/mol
# GULP energy per Si atom -5579.271399 kJ/mol
# Density = 1.881057 g / cm^3
# Si number density = 18.853481 Si / 1000 Ang^3
#
#
#
# Elastic Constant Matrix: (Units=GPa)
#
#
# Indices 1 2 3 4 5 6 
#
# 1 134.5220 -5.0131 38.6370 -0.0002 -15.0894 0.0002
# 2 -5.0131 11.3507 -10.7545 -0.0033 1.8868 -0.0017
# 3 38.6370 -10.7545 65.3670 0.0001 -11.0669 -0.0006
# 4 -0.0002 -0.0033 0.0001 18.1151 0.0000 -1.0446
# 5 -15.0894 1.8868 -11.0669 0.0000 28.7796 0.0000
# 6 0.0002 -0.0017 -0.0006 -1.0446 0.0000 19.8568
#
#
#
# Elastic Compliance Matrix: (Units=1/GPa)
#
#
# Indices 1 2 3 4 5 6 
#
# 1 0.009193 -0.001309 -0.005154 0.000000 0.002924 0.000000
# 2 -0.001309 0.104558 0.017862 0.000019 -0.000673 0.000011
# 3 -0.005154 0.017862 0.022064 0.000003 0.004611 0.000002
# 4 0.000000 0.000019 0.000003 0.055370 0.000000 0.002913
# 5 0.002924 -0.000673 0.004611 0.000000 0.038097 0.000000
# 6 0.000000 0.000011 0.000002 0.002913 0.000000 0.050514
#
#
# Mechanical properties :
#
#
# Convention : Reuss Voigt Hill
#
# Bulk Modulus (GPa) = 6.30467 28.55318 17.42892
# Shear Modulus (GPa) = 16.13579 25.90834 21.02207
#
# Velocity S-wave (km/s) = 2.92867 3.71103 3.34282
# Velocity P-wave (km/s) = 3.84544 5.79137 4.91566
#
# Compressibility (1/GPa) = 0.15861257
#
# Stress axis : x y z
#
# Youngs Moduli (GPa) = 108.77440 9.56411 45.32199
#
# Poissons Ratio (x) = 0.01252 0.23361
# Poissons Ratio (y) = 0.14242 -0.80956
# Poissons Ratio (z) = 0.56066 -0.17084
#
# Static dielectric constant tensor:
#      x y z
#    x 1.697940 0.000000 -0.002620 
#    y 0.000000 1.676320 0.000000 
#    z -0.002620 0.000000 1.610920 
# 
# From -- ./inp_files/319128.got.cif
#   From: 2010.05.17/outbox.cif.g08.bks.cpg/sg12_160_cif.got.tgz:319128.got - 2010.06.03 13:09:07.
