data_PCOD9180720
_publ_section_title
;
Structure prediction by ZEFSAII (Michael W. Deem and Ramdas Pophale) SiO2 
 PCOD9180720
Probable space group: C 2/M
;
_chemical_formula_sum "Si O2"
_cell_formula_units_Z 48
_cell_length_a 16.418259
_cell_length_b 7.330935
_cell_length_c 18.577046
_cell_angle_alpha 90.000000
_cell_angle_beta 127.068472
_cell_angle_gamma 90.000000
_cell_volume 1784.103958
_symmetry_space_group_name_H-M "C 2/M"
_symmetry_group_IT_number 12
_symmetry_cell_setting 'monoclinic'
loop_
_space_group_symop_operation_xyz
x,y,z
-x,y,-z
-x,-y,-z
x,-y,z
1/2+x,1/2+y,z
1/2-x,1/2+y,-z
1/2-x,1/2-y,-z
1/2+x,1/2-y,z
loop_
_atom_site_type_symbol
_atom_site_label
_atom_site_fract_x
_atom_site_fract_y
_atom_site_fract_z
Si Si1 0.127413 0.216384 0.439628
Si Si2 0.122663 0.707961 0.277724
Si Si3 0.642632 0.722880 0.604169
Si Si4 0.087361 0.280766 0.881280
Si Si5 0.616911 0.222430 0.051719
Si Si6 0.818651 0.784496 0.223991
O O1 0.250000 0.250000 0.500000
O O2 0.088587 0.293306 0.343521
O O3 0.095504 0.282809 0.502469
O O4 0.107565 0.000000 0.425964
O O5 0.133712 0.500000 0.258709
O O6 0.237412 0.779880 0.336382
O O7 0.029301 0.789278 0.184057
O O8 0.633984 0.500000 0.595372
O O9 0.618560 0.782561 0.672971
O O10 0.082090 0.500000 0.882677
O O11 0.142477 0.219738 0.983356
O O12 0.135190 0.237266 0.830222
O O13 0.618690 0.000000 0.056231
O O14 0.500000 0.276975 0.000000
O O15 0.702883 0.286670 0.152959
O O16 0.812040 0.000000 0.233005
#
# Coordination Sequence:
#
# PCOD9180720 Si02
#       6
#     8   8   8   8   8   8
#     4   9  16  28  48  73  99 125 159 204 247 284
#     4   9  17  31  50  70  95 128 166 204 239 280
#     4   8  15  29  49  71  93 122 162 203 237 275
#     4  10  20  33  49  72 102 130 157 197 246 288
#     4   9  17  31  54  78  95 121 164 204 236 280
#     4  10  19  32  51  73  98 128 161 196 238 292
#
# _framework density 26.904260000000001
#
# number of rings (size 3 to 8) (size 9 to 14) (size 15 to 20)
#    0.000    2.833    0.000    3.000    0.000    4.667 
#    0.000    5.000    0.000    9.000    0.000    0.000 
#    0.000    0.000    0.000    0.000    0.000    0.000 
#
# Total GULP energy -134079.311160 kJ/mol
# GULP energy per Si atom -5586.637965 kJ/mol
# Density = 2.684303 g / cm^3
# Si number density = 26.904260 Si / 1000 Ang^3
#
#
#
# Elastic Constant Matrix: (Units=GPa)
#
#
# Indices 1 2 3 4 5 6 
#
# 1 89.2596 -11.7156 33.8391 0.0000 -21.5342 0.0000
# 2 -11.7156 107.7916 -1.5568 0.0000 0.3257 0.0000
# 3 33.8391 -1.5568 202.8118 0.0000 -17.2613 0.0000
# 4 0.0000 0.0000 0.0000 2.4002 0.0000 -9.5456
# 5 -21.5342 0.3257 -17.2613 0.0000 56.3159 0.0000
# 6 0.0000 0.0000 0.0000 -9.5456 0.0000 7.7864
#
#
#
# Elastic Compliance Matrix: (Units=1/GPa)
#
#
# Indices 1 2 3 4 5 6 
#
# 1 0.013147 0.001389 -0.001803 0.000000 0.004466 0.000000
# 2 0.001389 0.009425 -0.000122 0.000000 0.000439 0.000000
# 3 -0.001803 -0.000122 0.005310 0.000000 0.000939 0.000000
# 4 0.000000 0.000000 0.000000 -0.107504 0.000000 -0.131792
# 5 0.004466 0.000439 0.000939 0.000000 0.019750 0.000000
# 6 0.000000 0.000000 0.000000 -0.131792 0.000000 -0.033139
#
#
# Mechanical properties :
#
#
# Convention : Reuss Voigt Hill
#
# Bulk Modulus (GPa) = 37.29778 48.99962 43.14870
# Shear Modulus (GPa) = -60.23878 38.58692 -10.82593
#
# Velocity S-wave (km/s) = -4.73695 3.79123 -2.00814
# Velocity P-wave (km/s) = 4.00312 6.11692 3.27046
#
# Compressibility (1/GPa) = 0.02681124
#
# Stress axis : x y z
#
# Youngs Moduli (GPa) = 76.06530 106.10000 188.30801
#
# Poissons Ratio (x) = -0.14741 0.33946
# Poissons Ratio (y) = -0.10568 0.02299
# Poissons Ratio (z) = 0.13712 0.01295
#
# Static dielectric constant tensor:
#      x y z
#    x 2.185630 0.000000 -0.029010 
#    y 0.000000 2.143830 0.000000 
#    z -0.029010 0.000000 2.076730 
# 
# From -- ./inp_files/274589.got.cif
#   From: 2010.05.17/outbox.cif.g08.bks.cpg/sg12_138_cif.got.tgz:274589.got - 2010.06.03 13:09:07.
