data_PCOD9180322
_publ_section_title
;
Structure prediction by ZEFSAII (Michael W. Deem and Ramdas Pophale) SiO2 
 PCOD9180322
Probable space group: C 2/M
;
_chemical_formula_sum "Si O2"
_cell_formula_units_Z 56
_cell_length_a 19.928413
_cell_length_b 7.722260
_cell_length_c 29.291386
_cell_angle_alpha 90.000000
_cell_angle_beta 140.885064
_cell_angle_gamma 90.000000
_cell_volume 2843.822592
_symmetry_space_group_name_H-M "C 2/M"
_symmetry_group_IT_number 12
_symmetry_cell_setting 'monoclinic'
loop_
_space_group_symop_operation_xyz
x,y,z
-x,y,-z
-x,-y,-z
x,-y,z
1/2+x,1/2+y,z
1/2-x,1/2+y,-z
1/2-x,1/2-y,-z
1/2+x,1/2-y,z
loop_
_atom_site_type_symbol
_atom_site_label
_atom_site_fract_x
_atom_site_fract_y
_atom_site_fract_z
Si Si1 0.130388 0.289996 0.697749
Si Si2 0.905198 0.203249 0.045457
Si Si3 0.869884 0.788028 0.813303
Si Si4 0.179911 0.288126 0.899220
Si Si5 0.156736 0.799054 0.304160
Si Si6 0.534844 0.202915 0.739749
Si Si7 0.895593 0.202767 0.420112
O O1 0.126746 0.500000 0.692468
O O2 0.254117 0.240720 0.771036
O O3 0.060099 0.226948 0.702971
O O4 0.096647 0.223770 0.630344
O O5 0.872182 0.223360 0.081218
O O6 0.024727 0.274698 0.105200
O O7 0.088208 0.000000 0.962251
O O8 0.803011 0.271356 0.964130
O O9 0.871922 0.727927 0.761424
O O10 0.873148 0.000000 0.814271
O O11 0.178269 0.500000 0.900216
O O12 0.111819 0.227148 0.820180
O O13 0.283155 0.782292 0.375787
O O14 0.084900 0.718303 0.305451
O O15 0.128345 0.000000 0.288703
O O16 0.561209 0.000000 0.750748
O O17 0.000000 0.275029 0.500000
O O18 0.888352 0.000000 0.427344
#
# Coordination Sequence:
#
# PCOD9180322 Si02
#       7
#     8   8   8   8   8   8   8
#     4   9  19  34  52  74 104 139 170 206 251 302
#     4   9  15  26  43  65  94 129 174 219 255 295
#     4   8  14  27  46  68  93 126 171 214 247 288
#     4   9  17  26  41  67  98 132 169 214 260 294
#     4  10  19  32  54  79 102 133 172 208 246 299
#     4  10  19  32  48  73 108 139 172 213 255 295
#     4  10  21  38  59  82 105 127 158 203 250 300
#
# _framework density 19.691806
#
# number of rings (size 3 to 8) (size 9 to 14) (size 15 to 20)
#    0.000    2.714    1.429    1.714    0.000    1.714 
#    0.000    1.429    0.000    4.286    0.000    0.000 
#    0.000    8.286    0.000    0.000    0.000    0.000 
#
# Total GULP energy -156077.259889 kJ/mol
# GULP energy per Si atom -5574.187853 kJ/mol
# Density = 1.964699 g / cm^3
# Si number density = 19.691806 Si / 1000 Ang^3
#
#
#
# Elastic Constant Matrix: (Units=GPa)
#
#
# Indices 1 2 3 4 5 6 
#
# 1 101.2776 -11.1696 38.9972 0.0000 7.6241 -0.0001
# 2 -11.1696 28.4310 -9.8776 0.0000 -0.9168 -0.0003
# 3 38.9972 -9.8776 121.6180 0.0000 15.7925 0.0000
# 4 0.0000 0.0000 0.0000 7.3736 0.0000 -0.4650
# 5 7.6241 -0.9168 15.7925 0.0000 16.3260 0.0000
# 6 -0.0001 -0.0003 0.0000 -0.4650 0.0000 15.9483
#
#
#
# Elastic Compliance Matrix: (Units=1/GPa)
#
#
# Indices 1 2 3 4 5 6 
#
# 1 0.011634 0.003398 -0.003172 0.000000 -0.002174 0.000000
# 2 0.003398 0.037199 0.002134 0.000000 -0.001563 0.000001
# 3 -0.003172 0.002134 0.010527 0.000000 -0.008582 0.000000
# 4 0.000000 0.000000 0.000000 0.135869 0.000000 0.003961
# 5 -0.002174 -0.001563 -0.008582 0.000000 0.070481 0.000000
# 6 0.000000 0.000001 0.000000 0.003961 0.000000 0.062818
#
#
# Mechanical properties :
#
#
# Convention : Reuss Voigt Hill
#
# Bulk Modulus (GPa) = 15.60511 31.91407 23.75959
# Shear Modulus (GPa) = 14.48573 23.48802 18.98687
#
# Velocity S-wave (km/s) = 2.71518 3.45741 3.10853
# Velocity P-wave (km/s) = 4.21562 5.67276 4.99758
#
# Compressibility (1/GPa) = 0.06408157
#
# Stress axis : x y z
#
# Youngs Moduli (GPa) = 85.95712 26.88236 94.99007
#
# Poissons Ratio (x) = -0.09135 0.30132
# Poissons Ratio (y) = -0.29211 -0.20276
# Poissons Ratio (z) = 0.27267 -0.05738
#
# Static dielectric constant tensor:
#      x y z
#    x 1.681180 0.000000 0.020190 
#    y 0.000000 1.735360 0.000000 
#    z 0.020190 0.000000 1.706850 
# 
# From -- ./inp_files/280314.got.cif
#   From: 2010.05.17/outbox.cif.g08.bks.cpg/sg12_141_cif.got.tgz:280314.got - 2010.06.03 13:09:07.
