data_PCOD9180956
_publ_section_title
;
Structure prediction by ZEFSAII (Michael W. Deem and Ramdas Pophale) SiO2 
 PCOD9180956
Probable space group: C 2/M
;
_chemical_formula_sum "Si O2"
_cell_formula_units_Z 48
_cell_length_a 23.687447
_cell_length_b 8.534210
_cell_length_c 17.898620
_cell_angle_alpha 90.000000
_cell_angle_beta 47.409454
_cell_angle_gamma 90.000000
_cell_volume 2663.803049
_symmetry_space_group_name_H-M "C 2/M"
_symmetry_group_IT_number 12
_symmetry_cell_setting 'monoclinic'
loop_
_space_group_symop_operation_xyz
x,y,z
-x,y,-z
-x,-y,-z
x,-y,z
1/2+x,1/2+y,z
1/2-x,1/2+y,-z
1/2-x,1/2-y,-z
1/2+x,1/2-y,z
loop_
_atom_site_type_symbol
_atom_site_label
_atom_site_fract_x
_atom_site_fract_y
_atom_site_fract_z
Si Si1 0.059021 0.188524 0.010672
Si Si2 0.736776 0.686696 0.820544
Si Si3 0.685171 0.680944 0.110151
Si Si4 0.384423 0.184240 0.605192
Si Si5 0.506391 0.316299 0.612793
Si Si6 0.527926 0.181633 0.203933
O O1 0.033870 0.251263 0.114565
O O2 0.055461 0.000000 0.018312
O O3 0.146541 0.226034 0.906670
O O4 0.000000 0.242758 0.000000
O O5 0.742929 0.500000 0.835476
O O6 0.779419 0.797372 0.840779
O O7 0.793070 0.705276 0.699053
O O8 0.666639 0.500000 0.109976
O O9 0.612606 0.788485 0.160622
O O10 0.750000 0.750000 0.000000
O O11 0.435454 0.232268 0.632467
O O12 0.420707 0.279410 0.504435
O O13 0.398226 0.000000 0.580283
O O14 0.488622 0.500000 0.629039
O O15 0.519615 0.261949 0.686318
O O16 0.508466 0.000000 0.217473
#
# Coordination Sequence:
#
# PCOD9180956 Si02
#       6
#     8   8   8   8   8   8
#     4  10  22  40  60  82 109 144 186 231 280 334
#     4  10  20  34  55  80 112 148 181 221 273 332
#     4  12  22  32  50  79 113 146 180 221 273 333
#     4  10  19  32  51  78 114 150 183 219 268 328
#     4  11  21  33  51  78 113 149 185 222 270 329
#     4  12  23  36  55  80 112 148 185 229 276 330
#
# _framework density 18.019348999999998
#
# number of rings (size 3 to 8) (size 9 to 14) (size 15 to 20)
#    0.000    1.167    3.333    6.000    0.000    1.000 
#    0.000    0.000    0.000    1.000    0.000    0.000 
#    0.000    0.000    0.000    0.000    0.000    0.000 
#
# Total GULP energy -133753.099620 kJ/mol
# GULP energy per Si atom -5573.045817 kJ/mol
# Density = 1.797834 g / cm^3
# Si number density = 18.019349 Si / 1000 Ang^3
#
#
#
# Elastic Constant Matrix: (Units=GPa)
#
#
# Indices 1 2 3 4 5 6 
#
# 1 70.9225 6.4167 36.6239 -0.0002 12.8992 0.0002
# 2 6.4167 44.2012 13.5510 -0.0006 4.1492 0.0011
# 3 36.6239 13.5510 125.8174 -0.0005 12.7750 0.0002
# 4 -0.0002 -0.0006 -0.0005 14.2595 0.0001 6.7296
# 5 12.8992 4.1492 12.7750 0.0001 12.6733 -0.0002
# 6 0.0002 0.0011 0.0002 6.7296 -0.0002 15.4942
#
#
#
# Elastic Compliance Matrix: (Units=1/GPa)
#
#
# Indices 1 2 3 4 5 6 
#
# 1 0.018921 -0.000105 -0.003949 0.000000 -0.015243 0.000000
# 2 -0.000105 0.023773 -0.001950 0.000002 -0.005710 -0.000003
# 3 -0.003949 -0.001950 0.009842 0.000000 -0.005264 0.000000
# 4 0.000000 0.000002 0.000000 0.088210 -0.000002 -0.038312
# 5 -0.015243 -0.005710 -0.005264 -0.000002 0.101596 0.000003
# 6 0.000000 -0.000003 0.000000 -0.038312 0.000003 0.081180
#
#
# Mechanical properties :
#
#
# Convention : Reuss Voigt Hill
#
# Bulk Modulus (GPa) = 24.67427 39.34714 32.01071
# Shear Modulus (GPa) = 14.32505 20.77536 17.55020
#
# Velocity S-wave (km/s) = 2.82260 3.39919 3.12423
# Velocity P-wave (km/s) = 4.93414 6.10651 5.55136
#
# Compressibility (1/GPa) = 0.04052804
#
# Stress axis : x y z
#
# Youngs Moduli (GPa) = 52.85177 42.06462 101.60686
#
# Poissons Ratio (x) = 0.00443 0.40120
# Poissons Ratio (y) = 0.00557 0.19813
# Poissons Ratio (z) = 0.20869 0.08202
#
# Static dielectric constant tensor:
#      x y z
#    x 1.923090 0.000000 -0.277590 
#    y 0.000000 1.599960 0.000000 
#    z -0.277590 0.000000 1.908000 
# 
# From -- ./inp_files/287252.got.cif
#   From: 2010.05.17/outbox.cif.g08.bks.cpg/sg12_144_cif.got.tgz:287252.got - 2010.06.03 13:09:07.
