data_PCOD9180154
_publ_section_title
;
Structure prediction by ZEFSAII (Michael W. Deem and Ramdas Pophale) SiO2 
 PCOD9180154
Probable space group: C 2/M
;
_chemical_formula_sum "Si O2"
_cell_formula_units_Z 40
_cell_length_a 22.790157
_cell_length_b 7.878760
_cell_length_c 11.268754
_cell_angle_alpha 90.000000
_cell_angle_beta 121.342270
_cell_angle_gamma 90.000000
_cell_volume 1728.133384
_symmetry_space_group_name_H-M "C 2/M"
_symmetry_group_IT_number 12
_symmetry_cell_setting 'monoclinic'
loop_
_space_group_symop_operation_xyz
x,y,z
-x,y,-z
-x,-y,-z
x,-y,z
1/2+x,1/2+y,z
1/2-x,1/2+y,-z
1/2-x,1/2-y,-z
1/2+x,1/2-y,z
loop_
_atom_site_type_symbol
_atom_site_label
_atom_site_fract_x
_atom_site_fract_y
_atom_site_fract_z
Si Si1 0.100680 0.195213 0.345226
Si Si2 0.921621 0.791389 0.420530
Si Si3 0.833615 0.701845 0.830221
Si Si4 0.208171 0.203745 0.839052
Si Si5 0.035652 0.695190 0.907169
O O1 0.110164 0.264572 0.486785
O O2 0.141304 0.272256 0.277345
O O3 0.018898 0.209046 0.231377
O O4 0.120885 0.000000 0.368480
O O5 0.869546 0.734437 0.262662
O O6 0.000000 0.732233 0.500000
O O7 0.923932 0.000000 0.423075
O O8 0.835696 0.500000 0.852389
O O9 0.758078 0.762070 0.784294
O O10 0.890269 0.772644 0.983212
O O11 0.204016 0.000000 0.831178
O O12 0.250000 0.250000 0.000000
O O13 0.040642 0.500000 0.870957
O O14 0.000000 0.689882 0.000000
#
# Coordination Sequence:
#
# PCOD9180154 Si02
#       5
#     8   8   8   8   8
#     4  10  19  31  54  85 110 142 190 232 271 328
#     4   9  20  38  57  81 116 152 183 228 290 340
#     4   9  19  35  54  79 113 149 181 225 287 336
#     4  10  22  40  61  83 112 151 191 231 282 339
#     4   8  15  29  48  73 110 148 175 214 276 330
#
# _framework density 23.146363000000001
#
# number of rings (size 3 to 8) (size 9 to 14) (size 15 to 20)
#    0.000    2.800    0.000    1.800    2.800    5.200 
#    0.000    2.000    0.000    3.000    0.000    0.000 
#    0.000    0.000    0.000    0.000    0.000    0.000 
#
# Total GULP energy -111581.966354 kJ/mol
# GULP energy per Si atom -5579.098318 kJ/mol
# Density = 2.309368 g / cm^3
# Si number density = 23.146363 Si / 1000 Ang^3
#
#
#
# Elastic Constant Matrix: (Units=GPa)
#
#
# Indices 1 2 3 4 5 6 
#
# 1 116.5080 3.9081 64.0678 0.0000 27.3609 0.0000
# 2 3.9081 15.8198 -4.4177 0.0000 3.8763 0.0000
# 3 64.0678 -4.4177 143.6890 0.0000 17.8845 0.0000
# 4 0.0000 0.0000 0.0000 9.4185 0.0000 -0.5328
# 5 27.3609 3.8763 17.8845 0.0000 35.5840 0.0000
# 6 0.0000 0.0000 0.0000 -0.5328 0.0000 9.2840
#
#
#
# Elastic Compliance Matrix: (Units=1/GPa)
#
#
# Indices 1 2 3 4 5 6 
#
# 1 0.013166 -0.002883 -0.005054 0.000000 -0.007269 0.000000
# 2 -0.002883 0.066871 0.004237 0.000000 -0.007197 0.000000
# 3 -0.005054 0.004237 0.009512 0.000000 -0.001356 0.000000
# 4 0.000000 0.000000 0.000000 0.106520 0.000000 0.006113
# 5 -0.007269 -0.007197 -0.001356 0.000000 0.035158 0.000000
# 6 0.000000 0.000000 0.000000 0.006113 0.000000 0.108063
#
#
# Mechanical properties :
#
#
# Convention : Reuss Voigt Hill
#
# Bulk Modulus (GPa) = 12.17300 44.79260 28.48280
# Shear Modulus (GPa) = 13.36636 25.02120 19.19378
#
# Velocity S-wave (km/s) = 2.40567 3.29142 2.88277
# Velocity P-wave (km/s) = 3.60373 5.81709 4.83867
#
# Compressibility (1/GPa) = 0.08214901
#
# Stress axis : x y z
#
# Youngs Moduli (GPa) = 75.95096 14.95422 105.12829
#
# Poissons Ratio (x) = 0.04311 0.53137
# Poissons Ratio (y) = 0.21896 -0.44545
# Poissons Ratio (z) = 0.38389 -0.06336
#
# Static dielectric constant tensor:
#      x y z
#    x 1.919270 0.000000 0.016390 
#    y 0.000000 1.830930 0.000000 
#    z 0.016390 0.000000 1.896090 
# 
# From -- ./inp_files/172567.got.cif
#   From: 2010.05.17/outbox.cif.g08.bks.cpg/sg12_87_cif.got.tgz:172567.got - 2010.06.03 13:09:07.
