data_PCOD9180151
_publ_section_title
;
Structure prediction by ZEFSAII (Michael W. Deem and Ramdas Pophale) SiO2 
 PCOD9180151
Probable space group: C 2/M
;
_chemical_formula_sum "Si O2"
_cell_formula_units_Z 58
_cell_length_a 30.550563
_cell_length_b 7.620149
_cell_length_c 12.281933
_cell_angle_alpha 90.000000
_cell_angle_beta 81.705443
_cell_angle_gamma 90.000000
_cell_volume 2829.323061
_symmetry_space_group_name_H-M "C 2/M"
_symmetry_group_IT_number 12
_symmetry_cell_setting 'monoclinic'
loop_
_space_group_symop_operation_xyz
x,y,z
-x,y,-z
-x,-y,-z
x,-y,z
1/2+x,1/2+y,z
1/2-x,1/2+y,-z
1/2-x,1/2-y,-z
1/2+x,1/2-y,z
loop_
_atom_site_type_symbol
_atom_site_label
_atom_site_fract_x
_atom_site_fract_y
_atom_site_fract_z
Si Si1 0.507061 0.214165 0.828049
Si Si2 0.276593 0.706929 0.598116
Si Si3 0.878531 0.289864 0.589121
Si Si4 0.822963 0.794500 0.963875
Si Si5 0.000000 0.000000 0.000000
Si Si6 0.462352 0.786937 0.427455
Si Si7 0.743068 0.787575 0.837713
Si Si8 0.908428 0.703478 0.814014
O O1 0.523791 0.341861 0.916540
O O2 0.527504 0.254371 0.701626
O O3 0.455343 0.273927 0.836073
O O4 0.510576 0.000000 0.846640
O O5 0.275704 0.500000 0.612125
O O6 0.250000 0.750000 0.500000
O O7 0.327974 0.756093 0.577483
O O8 0.252463 0.780185 0.713955
O O9 0.882846 0.500000 0.591411
O O10 0.915062 0.225787 0.490254
O O11 0.890340 0.221197 0.706178
O O12 0.784366 0.725120 0.897211
O O13 0.869800 0.714536 0.916387
O O14 0.827693 0.000000 0.940954
O O15 0.802573 0.768082 0.090183
O O16 0.500000 0.727752 0.500000
O O17 0.463104 0.000000 0.431117
O O18 0.743372 0.000000 0.840515
O O19 0.918239 0.500000 0.788419
#
# Coordination Sequence:
#
# PCOD9180151 Si02
#       8
#     8   8   8   8   2   8   8   8
#     4  10  22  42  67  94 129 172 213 261 316 379
#     4  11  23  40  58  82 117 160 202 248 303 374
#     4  10  19  34  61  94 123 156 197 251 314 377
#     4  10  19  31  54  84 116 144 187 250 304 349
#     4  12  26  44  62  90 124 176 222 250 304 386
#     4   9  16  34  64  98 130 160 204 261 322 379
#     4   9  19  35  52  77 111 151 193 242 301 355
#     4  10  19  33  59  93 122 153 196 247 312 373
#
# _framework density 20.499603
#
# number of rings (size 3 to 8) (size 9 to 14) (size 15 to 20)
#    0.000    2.069    2.759    1.034    0.966    1.655 
#    1.241    1.724    0.000    3.310    0.000    0.000 
#    0.000    0.000    0.000    0.000    0.000    0.000 
#
# Total GULP energy -161523.649677 kJ/mol
# GULP energy per Si atom -5569.781023 kJ/mol
# Density = 2.045295 g / cm^3
# Si number density = 20.499603 Si / 1000 Ang^3
#
#
#
# Elastic Constant Matrix: (Units=GPa)
#
#
# Indices 1 2 3 4 5 6 
#
# 1 75.0897 -6.2529 41.1346 0.0000 -21.0567 0.0000
# 2 -6.2529 66.5835 12.1157 0.0000 1.5684 0.0000
# 3 41.1346 12.1157 140.0984 0.0000 -23.9715 0.0000
# 4 0.0000 0.0000 0.0000 6.1252 0.0000 -4.7461
# 5 -21.0567 1.5684 -23.9715 0.0000 27.5685 0.0000
# 6 0.0000 0.0000 0.0000 -4.7461 0.0000 8.0031
#
#
#
# Elastic Compliance Matrix: (Units=1/GPa)
#
#
# Indices 1 2 3 4 5 6 
#
# 1 0.018608 0.002187 -0.003809 0.000000 0.010776 0.000000
# 2 0.002187 0.015649 -0.002187 0.000000 -0.001122 0.000000
# 3 -0.003809 -0.002187 0.009362 0.000000 0.005356 0.000000
# 4 0.000000 0.000000 0.000000 0.302058 0.000000 0.179128
# 5 0.010776 -0.001122 0.005356 0.000000 0.049225 0.000000
# 6 0.000000 0.000000 0.000000 0.179128 0.000000 0.231179
#
#
# Mechanical properties :
#
#
# Convention : Reuss Voigt Hill
#
# Bulk Modulus (GPa) = 27.77825 41.75181 34.76503
# Shear Modulus (GPa) = 7.74355 23.99097 15.86726
#
# Velocity S-wave (km/s) = 1.94567 3.42470 2.78515
# Velocity P-wave (km/s) = 4.31596 6.00412 5.22862
#
# Compressibility (1/GPa) = 0.03599939
#
# Stress axis : x y z
#
# Youngs Moduli (GPa) = 53.74078 63.90378 106.81897
#
# Poissons Ratio (x) = -0.13974 0.40684
# Poissons Ratio (y) = -0.11751 0.23364
# Poissons Ratio (z) = 0.20468 0.13978
#
# Static dielectric constant tensor:
#      x y z
#    x 1.716380 0.000000 -0.001590 
#    y 0.000000 1.775240 0.000000 
#    z -0.001590 0.000000 1.766950 
# 
# From -- ./inp_files/186564.got.cif
#   From: 2010.05.17/outbox.cif.g08.bks.cpg/sg12_94_cif.got.tgz:186564.got - 2010.06.03 13:09:07.
