data_PCOD9180479
_publ_section_title
;
Structure prediction by ZEFSAII (Michael W. Deem and Ramdas Pophale) SiO2 
 PCOD9180479
Probable space group: C 2/M
;
_chemical_formula_sum "Si O2"
_cell_formula_units_Z 48
_cell_length_a 20.798262
_cell_length_b 17.753771
_cell_length_c 19.692372
_cell_angle_alpha 90.000000
_cell_angle_beta 21.410550
_cell_angle_gamma 90.000000
_cell_volume 2654.397255
_symmetry_space_group_name_H-M "C 2/M"
_symmetry_group_IT_number 12
_symmetry_cell_setting 'monoclinic'
loop_
_space_group_symop_operation_xyz
x,y,z
-x,y,-z
-x,-y,-z
x,-y,z
1/2+x,1/2+y,z
1/2-x,1/2+y,-z
1/2-x,1/2-y,-z
1/2+x,1/2-y,z
loop_
_atom_site_type_symbol
_atom_site_label
_atom_site_fract_x
_atom_site_fract_y
_atom_site_fract_z
Si Si1 0.176808 0.809582 0.517317
Si Si2 0.638581 0.625273 0.961381
Si Si3 0.875885 0.916286 0.869561
Si Si4 0.022450 0.589270 0.743586
Si Si5 0.769629 0.086361 0.277765
Si Si6 0.498420 0.820989 0.378567
O O1 0.250000 0.750000 0.500000
O O2 0.335048 0.868244 0.350193
O O3 0.099834 0.758294 0.533055
O O4 0.015813 0.855200 0.708780
O O5 0.702897 0.583113 0.830160
O O6 0.791253 0.688152 0.818500
O O7 0.641952 0.585395 0.030991
O O8 0.432110 0.635257 0.148686
O O9 0.933223 0.000000 0.792842
O O10 0.679776 0.901466 0.034530
O O11 0.057592 0.500000 0.702411
O O12 0.030180 0.630074 0.662375
O O13 0.594740 0.128110 0.473288
O O14 0.778058 0.000000 0.295195
#
# Coordination Sequence:
#
# PCOD9180479 Si02
#       6
#     8   8   8   8   8   8
#     4  10  20  31  46  68  95 130 163 194 237 285
#     4  10  20  32  47  68  94 126 165 197 229 272
#     4  10  19  32  50  70  96 129 163 200 237 277
#     4   9  18  31  48  69  92 123 161 197 236 281
#     4  11  21  32  48  69  95 129 167 202 230 266
#     4  10  21  32  46  68  97 132 161 192 237 283
#
# _framework density 18.083203000000001
#
# number of rings (size 3 to 8) (size 9 to 14) (size 15 to 20)
#    0.000    2.000    0.000    5.500    0.000   11.333 
#    0.000    0.000    0.000    0.000    0.000    0.000 
#    0.000   10.667    0.000   79.500    0.000    1.333 
#
# Total GULP energy -133636.095977 kJ/mol
# GULP energy per Si atom -5568.170666 kJ/mol
# Density = 1.804204 g / cm^3
# Si number density = 18.083203 Si / 1000 Ang^3
#
#
#
# Elastic Constant Matrix: (Units=GPa)
#
#
# Indices 1 2 3 4 5 6 
#
# 1 37.3651 23.0868 23.9006 -0.0031 -17.8182 0.0044
# 2 23.0868 92.3292 57.3415 -0.0176 -15.5113 0.0063
# 3 23.9006 57.3415 99.7400 -0.0214 -21.7494 0.0134
# 4 -0.0031 -0.0176 -0.0214 26.3538 0.0031 -5.0842
# 5 -17.8182 -15.5113 -21.7494 0.0031 28.7054 -0.0001
# 6 0.0044 0.0063 0.0134 -5.0842 -0.0001 2.8625
#
#
#
# Elastic Compliance Matrix: (Units=1/GPa)
#
#
# Indices 1 2 3 4 5 6 
#
# 1 0.041695 -0.005488 -0.002203 -0.000016 0.021246 -0.000069
# 2 -0.005488 0.017676 -0.008993 0.000009 -0.000669 0.000028
# 3 -0.002203 -0.008993 0.017209 -0.000006 0.006812 -0.000068
# 4 -0.000016 0.000009 -0.000006 0.057725 -0.000016 0.102526
# 5 0.021246 -0.000669 0.006812 -0.000016 0.052825 -0.000088
# 6 -0.000069 0.000028 -0.000068 0.102526 -0.000088 0.531438
#
#
# Mechanical properties :
#
#
# Convention : Reuss Voigt Hill
#
# Bulk Modulus (GPa) = 23.14173 48.67692 35.90932
# Shear Modulus (GPa) = 6.52453 19.92471 13.22462
#
# Velocity S-wave (km/s) = 1.90155 3.32299 2.70723
# Velocity P-wave (km/s) = 4.20075 6.45754 5.44730
#
# Compressibility (1/GPa) = 0.04321198
#
# Stress axis : x y z
#
# Youngs Moduli (GPa) = 23.98391 56.57504 58.10755
#
# Poissons Ratio (x) = 0.31049 0.12802
# Poissons Ratio (y) = 0.13163 0.52254
# Poissons Ratio (z) = 0.05284 0.50876
#
# Static dielectric constant tensor:
#      x y z
#    x 1.634020 0.000000 -0.042460 
#    y 0.000000 1.615950 0.000010 
#    z -0.042460 0.000010 1.661990 
# 
# From -- ./inp_files/322541.got.cif
#   From: 2010.05.17/outbox.cif.g08.bks.cpg/sg12_162_cif.got.tgz:322541.got - 2010.06.03 13:09:07.
