data_PCOD9180244
_publ_section_title
;
Structure prediction by ZEFSAII (Michael W. Deem and Ramdas Pophale) SiO2 
 PCOD9180244
Probable space group: C 2/M
;
_chemical_formula_sum "Si O2"
_cell_formula_units_Z 56
_cell_length_a 7.931344
_cell_length_b 28.287358
_cell_length_c 17.456739
_cell_angle_alpha 90.000000
_cell_angle_beta 66.152981
_cell_angle_gamma 90.000000
_cell_volume 3582.175652
_symmetry_space_group_name_H-M "C 2/M"
_symmetry_group_IT_number 12
_symmetry_cell_setting 'monoclinic'
loop_
_space_group_symop_operation_xyz
x,y,z
-x,y,-z
-x,-y,-z
x,-y,z
1/2+x,1/2+y,z
1/2-x,1/2+y,-z
1/2-x,1/2-y,-z
1/2+x,1/2-y,z
loop_
_atom_site_type_symbol
_atom_site_label
_atom_site_fract_x
_atom_site_fract_y
_atom_site_fract_z
Si Si1 0.215198 0.377591 0.093946
Si Si2 0.906345 0.445854 0.102036
Si Si3 0.545801 0.289875 0.797976
Si Si4 0.915420 0.717691 0.938055
Si Si5 0.912681 0.117248 0.891584
Si Si6 0.188122 0.782825 0.440219
Si Si7 0.566070 0.779996 0.318412
O O1 0.144739 0.323612 0.108202
O O2 0.374110 0.391199 0.124708
O O3 0.043666 0.413061 0.125591
O O4 0.311743 0.378326 0.992206
O O5 0.896633 0.500000 0.130007
O O6 0.705746 0.421929 0.130781
O O7 0.000000 0.446362 0.000000
O O8 0.548454 0.253740 0.869250
O O9 0.416286 0.333375 0.845070
O O10 0.475455 0.258977 0.739466
O O11 0.751214 0.307469 0.740330
O O12 0.750000 0.750000 0.000000
O O13 0.000000 0.695831 0.000000
O O14 0.250000 0.750000 0.500000
O O15 0.375791 0.806712 0.374276
O O16 0.126021 0.748574 0.382994
O O17 0.000000 0.809428 0.500000
#
# Coordination Sequence:
#
# PCOD9180244 Si02
#       7
#     8   8   8   8   8   8   8
#     4  10  20  31  45  63  82 110 164 201 243 290
#     4   9  19  34  50  64  78 102 152 217 262 287
#     4  11  20  28  38  61  93 122 154 193 229 275
#     4  12  21  29  41  58  84 128 167 195 227 271
#     4  10  19  32  44  61  85 115 148 197 246 288
#     4   8  14  28  46  59  76 110 156 189 209 258
#     4   9  18  27  39  62  88 114 148 191 224 261
#
# _framework density 15.632956999999999
#
# number of rings (size 3 to 8) (size 9 to 14) (size 15 to 20)
#    0.000    2.143    1.429    3.857    2.000    0.571 
#    0.000    2.857    0.000    0.000    0.000    0.000 
#    0.000    0.000    0.000    0.000    0.000   90.000 
#
# Total GULP energy -155882.640050 kJ/mol
# GULP energy per Si atom -5567.237145 kJ/mol
# Density = 1.559738 g / cm^3
# Si number density = 15.632957 Si / 1000 Ang^3
#
#
#
# Elastic Constant Matrix: (Units=GPa)
#
#
# Indices 1 2 3 4 5 6 
#
# 1 96.5843 42.5618 25.8736 0.0000 -8.1235 0.0000
# 2 42.5618 83.9137 10.9502 0.0000 -8.5917 0.0000
# 3 25.8736 10.9502 55.1239 0.0000 -5.2580 0.0000
# 4 0.0000 0.0000 0.0000 3.6034 0.0000 -2.8988
# 5 -8.1235 -8.5917 -5.2580 0.0000 38.0025 0.0000
# 6 0.0000 0.0000 0.0000 -2.8988 0.0000 18.2998
#
#
#
# Elastic Compliance Matrix: (Units=1/GPa)
#
#
# Indices 1 2 3 4 5 6 
#
# 1 0.014886 -0.006733 -0.005565 0.000000 0.000890 0.000000
# 2 -0.006733 0.015511 0.000280 0.000000 0.002106 0.000000
# 3 -0.005565 0.000280 0.020865 0.000000 0.001761 0.000000
# 4 0.000000 0.000000 0.000000 0.318045 0.000000 0.050381
# 5 0.000890 0.002106 0.001761 0.000000 0.027224 0.000000
# 6 0.000000 0.000000 0.000000 0.050381 0.000000 0.062626
#
#
# Mechanical properties :
#
#
# Convention : Reuss Voigt Hill
#
# Bulk Modulus (GPa) = 36.72844 43.82144 40.27494
# Shear Modulus (GPa) = 10.15704 22.39689 16.27697
#
# Velocity S-wave (km/s) = 2.55173 3.78917 3.23026
# Velocity P-wave (km/s) = 5.67688 6.87285 6.30329
#
# Compressibility (1/GPa) = 0.02722686
#
# Stress axis : x y z
#
# Youngs Moduli (GPa) = 67.17556 64.46927 47.92663
#
# Poissons Ratio (x) = 0.43409 0.26670
# Poissons Ratio (y) = 0.45231 -0.01342
# Poissons Ratio (z) = 0.37382 -0.01805
#
# Static dielectric constant tensor:
#      x y z
#    x 1.603000 0.000000 -0.025630 
#    y 0.000000 1.491750 0.000000 
#    z -0.025630 0.000000 1.548900 
# 
# From -- ./inp_files/259425.got.cif
#   From: 2010.05.17/outbox.cif.g08.bks.cpg/sg12_130_cif.got.tgz:259425.got - 2010.06.03 13:09:07.
