data_PCOD9180659
_publ_section_title
;
Structure prediction by ZEFSAII (Michael W. Deem and Ramdas Pophale) SiO2 
 PCOD9180659
Probable space group: C 2/M
;
_chemical_formula_sum "Si O2"
_cell_formula_units_Z 64
_cell_length_a 25.913422
_cell_length_b 8.407430
_cell_length_c 18.268178
_cell_angle_alpha 90.000000
_cell_angle_beta 77.405975
_cell_angle_gamma 90.000000
_cell_volume 3884.240932
_symmetry_space_group_name_H-M "C 2/M"
_symmetry_group_IT_number 12
_symmetry_cell_setting 'monoclinic'
loop_
_space_group_symop_operation_xyz
x,y,z
-x,y,-z
-x,-y,-z
x,-y,z
1/2+x,1/2+y,z
1/2-x,1/2+y,-z
1/2-x,1/2-y,-z
1/2+x,1/2-y,z
loop_
_atom_site_type_symbol
_atom_site_label
_atom_site_fract_x
_atom_site_fract_y
_atom_site_fract_z
Si Si1 0.430160 0.193793 0.408893
Si Si2 0.622193 0.192439 0.423096
Si Si3 0.411097 0.191895 0.155974
Si Si4 0.454273 0.807581 0.681244
Si Si5 0.845286 0.305844 0.312117
Si Si6 0.238741 0.809244 0.421297
Si Si7 0.061308 0.315471 0.007495
Si Si8 0.526184 0.686819 0.166259
O O1 0.410600 0.244966 0.494850
O O2 0.488897 0.245290 0.368751
O O3 0.387630 0.243319 0.360919
O O4 0.430665 0.000000 0.409057
O O5 0.591943 0.244698 0.359291
O O6 0.681964 0.250302 0.412183
O O7 0.622537 0.000000 0.423859
O O8 0.366856 0.247627 0.226674
O O9 0.468701 0.233586 0.170927
O O10 0.408959 0.000000 0.152446
O O11 0.408062 0.250515 0.073003
O O12 0.450089 0.748037 0.765216
O O13 0.454705 0.000000 0.682298
O O14 0.845546 0.500000 0.311308
O O15 0.787168 0.254466 0.354769
O O16 0.250000 0.750000 0.500000
O O17 0.239054 0.000000 0.422376
O O18 0.075560 0.500000 0.015183
O O19 0.061728 0.227418 0.084482
O O20 0.000000 0.312506 0.000000
O O21 0.517821 0.500000 0.172635
#
# Coordination Sequence:
#
# PCOD9180659 Si02
#       8
#     8   8   8   8   8   8   8   8
#     4   9  15  28  50  72  93 120 160 202 235 274
#     4  10  20  34  51  72  93 122 164 204 241 278
#     4   9  16  30  49  68  91 122 162 199 229 273
#     4  10  19  32  51  69  92 127 166 200 230 276
#     4   9  16  28  50  72  92 122 161 199 234 275
#     4  11  21  34  51  70  95 127 161 199 240 282
#     4   8  15  27  45  66  90 122 158 191 227 277
#     4  11  20  28  42  67 101 130 153 185 235 289
#
# _framework density 16.476835999999999
#
# number of rings (size 3 to 8) (size 9 to 14) (size 15 to 20)
#    0.000    2.375    2.500    2.625    0.000    4.250 
#    0.000    3.125    0.000    1.500    0.000    0.875 
#    0.000    0.000    0.000    0.000    0.000    0.000 
#
# Total GULP energy -178393.159285 kJ/mol
# GULP energy per Si atom -5574.786228 kJ/mol
# Density = 1.643933 g / cm^3
# Si number density = 16.476836 Si / 1000 Ang^3
#
#
#
# Elastic Constant Matrix: (Units=GPa)
#
#
# Indices 1 2 3 4 5 6 
#
# 1 95.1824 12.6273 79.9811 0.0000 5.5426 0.0000
# 2 12.6273 10.1269 18.9192 0.0000 -0.9710 0.0000
# 3 79.9811 18.9192 169.9592 0.0000 -11.9235 0.0000
# 4 0.0000 0.0000 0.0000 2.8232 0.0000 -0.1225
# 5 5.5426 -0.9710 -11.9235 0.0000 19.4016 0.0000
# 6 0.0000 0.0000 0.0000 -0.1225 0.0000 17.9969
#
#
#
# Elastic Compliance Matrix: (Units=1/GPa)
#
#
# Indices 1 2 3 4 5 6 
#
# 1 0.020282 -0.008883 -0.009398 0.000000 -0.012015 0.000000
# 2 -0.008883 0.128672 -0.009942 0.000000 0.002868 0.000000
# 3 -0.009398 -0.009942 0.012088 0.000000 0.009616 0.000000
# 4 0.000000 0.000000 0.000000 0.354315 0.000000 0.002412
# 5 -0.012015 0.002868 0.009616 0.000000 0.061028 0.000000
# 6 0.000000 0.000000 0.000000 0.002412 0.000000 0.055582
#
#
# Mechanical properties :
#
#
# Convention : Reuss Voigt Hill
#
# Bulk Modulus (GPa) = 9.56073 55.36930 32.46501
# Shear Modulus (GPa) = 6.91299 18.96039 12.93669
#
# Velocity S-wave (km/s) = 2.05053 3.39592 2.80508
# Velocity P-wave (km/s) = 3.37955 7.00383 5.49886
#
# Compressibility (1/GPa) = 0.10459458
#
# Stress axis : x y z
#
# Youngs Moduli (GPa) = 49.30570 7.77173 82.72778
#
# Poissons Ratio (x) = 0.06904 0.77751
# Poissons Ratio (y) = 0.43799 0.82246
# Poissons Ratio (z) = 0.46339 0.07726
#
# Static dielectric constant tensor:
#      x y z
#    x 1.528250 0.000000 -0.020620 
#    y 0.000000 1.571540 0.000000 
#    z -0.020620 0.000000 1.579560 
# 
# From -- ./inp_files/287672.got.cif
#   From: 2010.05.17/outbox.cif.g08.bks.cpg/sg12_144_cif.got.tgz:287672.got - 2010.06.03 13:09:07.
