data_PCOD9180373
_publ_section_title
;
Structure prediction by ZEFSAII (Michael W. Deem and Ramdas Pophale) SiO2 
 PCOD9180373
Probable space group: C 2/M
;
_chemical_formula_sum "Si O2"
_cell_formula_units_Z 40
_cell_length_a 14.651704
_cell_length_b 9.740364
_cell_length_c 32.560952
_cell_angle_alpha 90.000000
_cell_angle_beta 157.850358
_cell_angle_gamma 90.000000
_cell_volume 1751.994478
_symmetry_space_group_name_H-M "C 2/M"
_symmetry_group_IT_number 12
_symmetry_cell_setting 'monoclinic'
loop_
_space_group_symop_operation_xyz
x,y,z
-x,y,-z
-x,-y,-z
x,-y,z
1/2+x,1/2+y,z
1/2-x,1/2+y,-z
1/2-x,1/2-y,-z
1/2+x,1/2-y,z
loop_
_atom_site_type_symbol
_atom_site_label
_atom_site_fract_x
_atom_site_fract_y
_atom_site_fract_z
Si Si1 0.465149 0.159243 0.352960
Si Si2 0.713222 0.148717 0.807550
Si Si3 0.582446 0.163982 0.489301
Si Si4 0.734524 0.152183 0.954458
Si Si5 0.204310 0.846144 0.871063
O O1 0.274016 0.166746 0.236183
O O2 0.408922 0.188915 0.377233
O O3 0.675492 0.258559 0.424114
O O4 0.550060 0.000000 0.388340
O O5 0.625564 0.284232 0.794348
O O6 0.981872 0.134298 0.937246
O O7 0.588639 0.000000 0.763340
O O8 0.500000 0.212628 0.500000
O O9 0.621045 0.000000 0.508622
O O10 0.631220 0.000000 0.919296
O O11 0.750000 0.250000 0.000000
O O12 0.623026 0.234404 0.870386
O O13 0.110023 0.000000 0.838601
O O14 0.500000 0.857267 0.000000
#
# Coordination Sequence:
#
# PCOD9180373 Si02
#       5
#     8   8   8   8   8
#     4   9  18  34  55  77 106 139 174 216 263 316
#     4   9  18  33  51  71  99 135 171 210 260 310
#     4   9  18  34  55  79 107 139 174 212 262 319
#     4  10  19  32  49  70 101 138 174 213 258 305
#     4   9  17  30  49  70  93 126 167 208 251 301
#
# _framework density 22.831121
#
# number of rings (size 3 to 8) (size 9 to 14) (size 15 to 20)
#    0.000    2.800    0.000    1.200    0.000    4.400 
#    3.600    0.000    0.000    0.000    0.000    0.000 
#    0.000    0.000    0.000    0.000    0.000    0.000 
#
# Total GULP energy -111396.273224 kJ/mol
# GULP energy per Si atom -5569.813661 kJ/mol
# Density = 2.277916 g / cm^3
# Si number density = 22.831121 Si / 1000 Ang^3
#
#
#
# Elastic Constant Matrix: (Units=GPa)
#
#
# Indices 1 2 3 4 5 6 
#
# 1 111.8359 56.0401 29.0264 0.0006 -44.3874 0.0003
# 2 56.0401 135.4111 29.2875 0.0002 -30.0073 0.0002
# 3 29.0264 29.2875 78.9421 0.0046 -29.6193 0.0020
# 4 0.0006 0.0002 0.0046 17.6668 0.0014 -10.3272
# 5 -44.3874 -30.0073 -29.6193 0.0014 44.2077 0.0006
# 6 0.0003 0.0002 0.0020 -10.3272 0.0006 32.4074
#
#
#
# Elastic Compliance Matrix: (Units=1/GPa)
#
#
# Indices 1 2 3 4 5 6 
#
# 1 0.016313 -0.003736 0.000777 -0.000003 0.014364 -0.000001
# 2 -0.003736 0.009657 -0.001546 0.000000 0.001768 0.000000
# 3 0.000777 -0.001546 0.017171 -0.000008 0.011236 -0.000004
# 4 -0.000003 0.000000 -0.000008 0.069561 -0.000010 0.022167
# 5 0.014364 0.001768 0.011236 -0.000010 0.045772 -0.000005
# 6 -0.000001 0.000000 -0.000004 0.022167 -0.000005 0.037921
#
#
# Mechanical properties :
#
#
# Convention : Reuss Voigt Hill
#
# Bulk Modulus (GPa) = 29.29759 61.65523 45.47641
# Shear Modulus (GPa) = 23.06467 32.97872 28.02170
#
# Velocity S-wave (km/s) = 3.18186 3.80473 3.50715
# Velocity P-wave (km/s) = 5.13411 6.80917 6.03009
#
# Compressibility (1/GPa) = 0.03413250
#
# Stress axis : x y z
#
# Youngs Moduli (GPa) = 61.29972 103.54854 58.23822
#
# Poissons Ratio (x) = 0.38688 -0.04528
# Poissons Ratio (y) = 0.22903 0.09002
# Poissons Ratio (z) = -0.04766 0.16005
#
# Static dielectric constant tensor:
#      x y z
#    x 1.933700 0.000010 0.033420 
#    y 0.000010 1.895680 0.000000 
#    z 0.033420 0.000000 1.913510 
# 
# From -- ./inp_files/211374.got.cif
#   From: 2010.05.17/outbox.cif.g08.bks.cpg/sg12_106_cif.got.tgz:211374.got - 2010.06.03 13:09:07.
