data_PCOD9180113
_publ_section_title
;
Structure prediction by ZEFSAII (Michael W. Deem and Ramdas Pophale) SiO2 
 PCOD9180113
Probable space group: C 2/M
;
_chemical_formula_sum "Si O2"
_cell_formula_units_Z 40
_cell_length_a 13.494757
_cell_length_b 20.268932
_cell_length_c 9.925397
_cell_angle_alpha 90.000000
_cell_angle_beta 131.146594
_cell_angle_gamma 90.000000
_cell_volume 2044.350069
_symmetry_space_group_name_H-M "C 2/M"
_symmetry_group_IT_number 12
_symmetry_cell_setting 'monoclinic'
loop_
_space_group_symop_operation_xyz
x,y,z
-x,y,-z
-x,-y,-z
x,-y,z
1/2+x,1/2+y,z
1/2-x,1/2+y,-z
1/2-x,1/2-y,-z
1/2+x,1/2-y,z
loop_
_atom_site_type_symbol
_atom_site_label
_atom_site_fract_x
_atom_site_fract_y
_atom_site_fract_z
Si Si1 0.894582 0.324820 0.021195
Si Si2 0.063505 0.788642 0.279240
Si Si3 0.122977 0.623933 0.704070
Si Si4 0.308516 0.268968 0.336711
Si Si5 0.122980 0.070760 0.208226
O O1 0.902585 0.371937 0.158766
O O2 0.936504 0.250020 0.107558
O O3 0.749437 0.319397 0.825338
O O4 0.000000 0.344190 0.000000
O O5 0.179277 0.745763 0.313397
O O6 0.080687 0.786093 0.454779
O O7 0.091899 0.863733 0.265026
O O8 0.156592 0.699479 0.697289
O O9 0.247719 0.582678 0.766358
O O10 0.000000 0.604623 0.500000
O O11 0.136050 0.000000 0.292762
O O12 0.000000 0.066799 0.000000
#
# Coordination Sequence:
#
# PCOD9180113 Si02
#       5
#     8   8   8   8   8
#     4  10  19  31  53  86 122 151 180 233 301 352
#     4   9  16  31  51  80 110 145 182 229 279 337
#     4  11  20  34  57  89 120 145 189 242 293 344
#     4   9  17  28  49  79 117 146 174 223 293 346
#     4  10  22  39  58  79 113 161 203 233 271 341
#
# _framework density 19.566120000000002
#
# number of rings (size 3 to 8) (size 9 to 14) (size 15 to 20)
#    0.000    2.200    2.000    3.600    2.800    0.400 
#    0.000    0.000    0.000    1.800    0.000    5.600 
#    0.000    0.000    0.000    0.000    0.000    0.000 
#
# Total GULP energy -111457.936317 kJ/mol
# GULP energy per Si atom -5572.896816 kJ/mol
# Density = 1.952159 g / cm^3
# Si number density = 19.566120 Si / 1000 Ang^3
#
#
#
# Elastic Constant Matrix: (Units=GPa)
#
#
# Indices 1 2 3 4 5 6 
#
# 1 65.1956 2.6307 30.1424 0.0000 -3.3940 0.0000
# 2 2.6307 52.3070 5.9335 0.0000 -5.5026 0.0000
# 3 30.1424 5.9335 115.0858 0.0000 -0.7750 0.0000
# 4 0.0000 0.0000 0.0000 17.0647 0.0000 9.0947
# 5 -3.3940 -5.5026 -0.7750 0.0000 36.4072 0.0000
# 6 0.0000 0.0000 0.0000 9.0947 0.0000 19.4997
#
#
#
# Elastic Compliance Matrix: (Units=1/GPa)
#
#
# Indices 1 2 3 4 5 6 
#
# 1 0.017539 -0.000205 -0.004573 0.000000 0.001507 0.000000
# 2 -0.000205 0.019541 -0.000934 0.000000 0.002914 0.000000
# 3 -0.004573 -0.000934 0.009933 0.000000 -0.000356 0.000000
# 4 0.000000 0.000000 0.000000 0.077986 0.000000 -0.036373
# 5 0.001507 0.002914 -0.000356 0.000000 0.028040 0.000000
# 6 0.000000 0.000000 0.000000 -0.036373 0.000000 0.068247
#
#
# Mechanical properties :
#
#
# Convention : Reuss Voigt Hill
#
# Bulk Modulus (GPa) = 28.09885 34.44461 31.27173
# Shear Modulus (GPa) = 20.44378 27.51975 23.98176
#
# Velocity S-wave (km/s) = 3.23593 3.75440 3.50477
# Velocity P-wave (km/s) = 5.32483 6.03626 5.69167
#
# Compressibility (1/GPa) = 0.03558864
#
# Stress axis : x y z
#
# Youngs Moduli (GPa) = 57.01422 51.17507 100.67768
#
# Poissons Ratio (x) = 0.01048 0.46041
# Poissons Ratio (y) = 0.01168 0.09405
# Poissons Ratio (z) = 0.26073 0.04781
#
# Static dielectric constant tensor:
#      x y z
#    x 1.888710 0.000000 0.008100 
#    y 0.000000 1.695710 0.000000 
#    z 0.008100 0.000000 1.743540 
# 
# From -- ./inp_files/63142.got.cif
#   From: 2010.05.17/outbox.cif.g08.bks.cpg/sg12_32_cif.got.tgz:63142.got - 2010.06.03 13:09:07.
