data_PCOD9180849
_publ_section_title
;
Structure prediction by ZEFSAII (Michael W. Deem and Ramdas Pophale) SiO2 
 PCOD9180849
Probable space group: C 2/M
;
_chemical_formula_sum "Si O2"
_cell_formula_units_Z 64
_cell_length_a 5.583566
_cell_length_b 26.192822
_cell_length_c 23.298351
_cell_angle_alpha 90.000000
_cell_angle_beta 80.433328
_cell_angle_gamma 90.000000
_cell_volume 3359.982002
_symmetry_space_group_name_H-M "C 2/M"
_symmetry_group_IT_number 12
_symmetry_cell_setting 'monoclinic'
loop_
_space_group_symop_operation_xyz
x,y,z
-x,y,-z
-x,-y,-z
x,-y,z
1/2+x,1/2+y,z
1/2-x,1/2+y,-z
1/2-x,1/2-y,-z
1/2+x,1/2-y,z
loop_
_atom_site_type_symbol
_atom_site_label
_atom_site_fract_x
_atom_site_fract_y
_atom_site_fract_z
Si Si1 0.158729 0.437773 0.165927
Si Si2 0.236496 0.942588 0.668097
Si Si3 0.770756 0.437996 0.970264
Si Si4 0.344330 0.194676 0.561009
Si Si5 0.636296 0.129740 0.642676
Si Si6 0.267281 0.233954 0.328838
Si Si7 0.623108 0.561072 0.221853
Si Si8 0.559120 0.408716 0.559704
O O1 0.158696 0.500000 0.170794
O O2 0.893914 0.419424 0.198595
O O3 0.184282 0.424942 0.097893
O O4 0.400670 0.420355 0.190356
O O5 0.425973 0.900792 0.682155
O O6 0.980399 0.932242 0.709617
O O7 0.228777 0.936539 0.599343
O O8 0.309195 0.000000 0.680927
O O9 0.768305 0.500000 0.974260
O O10 0.500000 0.420940 0.000000
O O11 0.000000 0.420811 0.000000
O O12 0.500000 0.213326 0.500000
O O13 0.514765 0.162902 0.596802
O O14 0.239449 0.238378 0.607238
O O15 0.154480 0.150247 0.549539
O O16 0.782204 0.173598 0.669586
O O17 0.808105 0.091516 0.603226
O O18 0.549845 0.240961 0.301730
O O19 0.638175 0.500000 0.211749
O O20 0.500000 0.430292 0.500000
#
# Coordination Sequence:
#
# PCOD9180849 Si02
#       8
#     8   8   8   8   8   8   8   8
#     4   9  16  27  44  65  88 114 152 198 238 282
#     4  10  24  39  53  69  88 123 168 217 264 298
#     4   9  15  22  35  59  92 124 145 171 227 294
#     4  10  19  32  51  76 104 120 139 171 228 308
#     4  10  21  35  52  71  98 119 148 189 241 304
#     4  10  20  33  52  80 104 126 142 170 225 296
#     4   9  18  32  48  65  82 110 159 212 250 275
#     4  11  21  36  54  73  95 119 151 195 252 321
#
# _framework density 19.047722
#
# number of rings (size 3 to 8) (size 9 to 14) (size 15 to 20)
#    0.000    2.250    2.500    0.750    1.750    6.250 
#    0.000    0.625    0.000    0.000    0.000    0.000 
#    0.000    0.000    0.000    0.000    0.000    0.000 
#
# Total GULP energy -178247.664847 kJ/mol
# GULP energy per Si atom -5570.239526 kJ/mol
# Density = 1.900437 g / cm^3
# Si number density = 19.047722 Si / 1000 Ang^3
#
#
#
# Elastic Constant Matrix: (Units=GPa)
#
#
# Indices 1 2 3 4 5 6 
#
# 1 115.4771 6.5268 50.5827 0.0000 -4.4334 0.0000
# 2 6.5268 34.8748 10.4045 0.0000 -3.5525 0.0000
# 3 50.5827 10.4045 81.2552 0.0000 8.3915 0.0000
# 4 0.0000 0.0000 0.0000 2.1661 0.0000 -7.7044
# 5 -4.4334 -3.5525 8.3915 0.0000 32.6145 0.0000
# 6 0.0000 0.0000 0.0000 -7.7044 0.0000 16.5858
#
#
#
# Elastic Compliance Matrix: (Units=1/GPa)
#
#
# Indices 1 2 3 4 5 6 
#
# 1 0.012346 0.000510 -0.008147 0.000000 0.003830 0.000000
# 2 0.000510 0.030446 -0.004690 0.000000 0.004592 0.000000
# 3 -0.008147 -0.004690 0.018641 0.000000 -0.006415 0.000000
# 4 0.000000 0.000000 0.000000 -0.707830 0.000000 -0.328800
# 5 0.003830 0.004592 -0.006415 0.000000 0.033332 0.000000
# 6 0.000000 0.000000 0.000000 -0.328800 0.000000 -0.092442
#
#
# Mechanical properties :
#
#
# Convention : Reuss Voigt Hill
#
# Bulk Modulus (GPa) = 27.18898 40.73722 33.96310
# Shear Modulus (GPa) = -7.47841 21.21282 6.86721
#
# Velocity S-wave (km/s) = -1.98360 3.34079 1.90081
# Velocity P-wave (km/s) = 3.00980 6.02615 4.76306
#
# Compressibility (1/GPa) = 0.03677960
#
# Stress axis : x y z
#
# Youngs Moduli (GPa) = 80.99491 32.84544 53.64412
#
# Poissons Ratio (x) = -0.01675 0.43702
# Poissons Ratio (y) = -0.04131 0.25160
# Poissons Ratio (z) = 0.65984 0.15405
#
# Static dielectric constant tensor:
#      x y z
#    x 1.776840 0.000000 0.018410 
#    y 0.000000 1.673580 0.000000 
#    z 0.018410 0.000000 1.679670 
# 
# From -- ./inp_files/331638.got.cif
#   From: 2010.05.17/outbox.cif.g08.bks.cpg/sg12_166_cif.got.tgz:331638.got - 2010.06.03 13:09:07.
