data_PCOD9180621
_publ_section_title
;
Structure prediction by ZEFSAII (Michael W. Deem and Ramdas Pophale) SiO2 
 PCOD9180621
Probable space group: C 2/M
;
_chemical_formula_sum "Si O2"
_cell_formula_units_Z 64
_cell_length_a 27.615558
_cell_length_b 13.623952
_cell_length_c 9.063665
_cell_angle_alpha 90.000000
_cell_angle_beta 88.014311
_cell_angle_gamma 90.000000
_cell_volume 3408.002515
_symmetry_space_group_name_H-M "C 2/M"
_symmetry_group_IT_number 12
_symmetry_cell_setting 'monoclinic'
loop_
_space_group_symop_operation_xyz
x,y,z
-x,y,-z
-x,-y,-z
x,-y,z
1/2+x,1/2+y,z
1/2-x,1/2+y,-z
1/2-x,1/2-y,-z
1/2+x,1/2-y,z
loop_
_atom_site_type_symbol
_atom_site_label
_atom_site_fract_x
_atom_site_fract_y
_atom_site_fract_z
Si Si1 0.664598 0.882970 0.173393
Si Si2 0.631877 0.772164 0.628148
Si Si3 0.276710 0.387242 0.862635
Si Si4 0.719024 0.116792 0.466190
Si Si5 0.308301 0.254537 0.102886
Si Si6 0.673378 0.385584 0.439530
Si Si7 0.559112 0.117867 0.138523
Si Si8 0.548082 0.881208 0.794387
O O1 0.701779 0.862760 0.301106
O O2 0.608671 0.858298 0.217656
O O3 0.666832 0.000000 0.140350
O O4 0.675672 0.818339 0.030081
O O5 0.674459 0.844376 0.568016
O O6 0.651594 0.728636 0.779985
O O7 0.632731 0.684729 0.509760
O O8 0.583251 0.829544 0.674168
O O9 0.259451 0.500000 0.859571
O O10 0.236029 0.307947 0.825723
O O11 0.318944 0.378407 0.737053
O O12 0.292537 0.354146 0.023672
O O13 0.774078 0.147992 0.498222
O O14 0.720462 0.000000 0.486348
O O15 0.666138 0.500000 0.477428
O O16 0.508071 0.151401 0.210658
O O17 0.555318 0.000000 0.138901
O O18 0.562534 0.143378 0.963518
O O19 0.551731 0.000000 0.778735
#
# Coordination Sequence:
#
# PCOD9180621 Si02
#       8
#     8   8   8   8   8   8   8   8
#     4  10  19  32  50  76 108 139 171 209 250 300
#     4  12  21  32  52  76 104 133 174 215 249 302
#     4  10  22  38  51  69 102 139 175 213 252 296
#     4  10  21  33  49  72 106 144 172 202 249 304
#     4  11  22  31  53  79  98 129 176 219 254 296
#     4  10  22  38  51  67 101 146 177 206 250 298
#     4   8  15  30  50  74 105 137 165 202 254 307
#     4   9  17  30  51  78 105 134 168 205 254 308
#
# _framework density 18.779328
#
# number of rings (size 3 to 8) (size 9 to 14) (size 15 to 20)
#    0.000    2.000    2.500    2.625    3.500    1.500 
#    0.000    0.625    0.000    3.000    0.000    2.625 
#    0.000    3.000    0.000    0.000    0.000    0.000 
#
# Total GULP energy -178505.662721 kJ/mol
# GULP energy per Si atom -5578.301960 kJ/mol
# Density = 1.873659 g / cm^3
# Si number density = 18.779328 Si / 1000 Ang^3
#
#
#
# Elastic Constant Matrix: (Units=GPa)
#
#
# Indices 1 2 3 4 5 6 
#
# 1 51.0419 21.9117 21.3007 0.0000 -22.7154 0.0000
# 2 21.9117 70.7020 32.2547 0.0000 -18.6404 0.0000
# 3 21.3007 32.2547 69.1066 0.0000 -21.3650 0.0000
# 4 0.0000 0.0000 0.0000 28.0338 0.0000 -8.7273
# 5 -22.7154 -18.6404 -21.3650 0.0000 33.6608 0.0000
# 6 0.0000 0.0000 0.0000 -8.7273 0.0000 17.7650
#
#
#
# Elastic Compliance Matrix: (Units=1/GPa)
#
#
# Indices 1 2 3 4 5 6 
#
# 1 0.029425 -0.003786 -0.002254 0.000000 0.016330 0.000000
# 2 -0.003786 0.019401 -0.006664 0.000000 0.003959 0.000000
# 3 -0.002254 -0.006664 0.020733 0.000000 0.007948 0.000000
# 4 0.000000 0.000000 0.000000 0.042112 0.000000 0.020688
# 5 0.016330 0.003959 0.007948 0.000000 0.047965 0.000000
# 6 0.000000 0.000000 0.000000 0.020688 0.000000 0.066454
#
#
# Mechanical properties :
#
#
# Convention : Reuss Voigt Hill
#
# Bulk Modulus (GPa) = 22.64981 37.97608 30.31294
# Shear Modulus (GPa) = 18.78181 23.58413 21.18297
#
# Velocity S-wave (km/s) = 3.16592 3.54765 3.36221
# Velocity P-wave (km/s) = 5.04492 6.08665 5.59010
#
# Compressibility (1/GPa) = 0.04415048
#
# Stress axis : x y z
#
# Youngs Moduli (GPa) = 33.98481 51.54303 48.23251
#
# Poissons Ratio (x) = 0.19512 0.10873
# Poissons Ratio (y) = 0.12865 0.32144
# Poissons Ratio (z) = 0.07661 0.34351
#
# Static dielectric constant tensor:
#      x y z
#    x 1.677810 0.000000 0.006420 
#    y 0.000000 1.664030 0.000000 
#    z 0.006420 0.000000 1.699760 
# 
# From -- ./inp_files/104549.got.cif
#   From: 2010.05.17/outbox.cif.g08.bks.cpg/sg12_53_cif.got.tgz:104549.got - 2010.06.03 13:09:07.
