data_PCOD9180702
_publ_section_title
;
Structure prediction by ZEFSAII (Michael W. Deem and Ramdas Pophale) SiO2 
 PCOD9180702
Probable space group: C 2/M
;
_chemical_formula_sum "Si O2"
_cell_formula_units_Z 64
_cell_length_a 30.884557
_cell_length_b 13.081679
_cell_length_c 15.122708
_cell_angle_alpha 90.000000
_cell_angle_beta 143.631119
_cell_angle_gamma 90.000000
_cell_volume 3623.061252
_symmetry_space_group_name_H-M "C 2/M"
_symmetry_group_IT_number 12
_symmetry_cell_setting 'monoclinic'
loop_
_space_group_symop_operation_xyz
x,y,z
-x,y,-z
-x,-y,-z
x,-y,z
1/2+x,1/2+y,z
1/2-x,1/2+y,-z
1/2-x,1/2-y,-z
1/2+x,1/2-y,z
loop_
_atom_site_type_symbol
_atom_site_label
_atom_site_fract_x
_atom_site_fract_y
_atom_site_fract_z
Si Si1 0.413643 0.615899 0.347708
Si Si2 0.088224 0.377924 0.970974
Si Si3 0.351492 0.231152 0.101280
Si Si4 0.722363 0.118214 0.860974
Si Si5 0.780455 0.701085 0.695476
Si Si6 0.925191 0.620108 0.671590
Si Si7 0.855960 0.743714 0.407179
Si Si8 0.265914 0.887156 0.489450
O O1 0.500000 0.610499 0.500000
O O2 0.385067 0.500000 0.287260
O O3 0.395517 0.692078 0.237480
O O4 0.382157 0.667935 0.384322
O O5 0.100865 0.500000 0.987858
O O6 0.105496 0.326283 0.904655
O O7 0.001998 0.361297 0.846616
O O8 0.145061 0.330674 0.134348
O O9 0.312684 0.149508 0.102481
O O10 0.289519 0.304364 0.958571
O O11 0.666623 0.148431 0.692012
O O12 0.742256 0.000000 0.891087
O O13 0.715030 0.716297 0.657270
O O14 0.782573 0.806383 0.643237
O O15 0.757965 0.622678 0.581343
O O16 0.926704 0.500000 0.645305
O O17 0.913815 0.698768 0.572114
O O18 0.851632 0.632461 0.608454
O O19 0.248521 0.000000 0.429327
#
# Coordination Sequence:
#
# PCOD9180702 Si02
#       8
#     8   8   8   8   8   8   8   8
#     4  10  21  35  51  71 102 145 186 221 259 309
#     4  11  21  34  53  81 112 139 172 214 267 320
#     4  10  20  34  47  75 105 138 175 216 264 303
#     4  10  19  32  51  73 103 138 175 218 262 305
#     4  10  20  35  54  83 108 133 174 214 270 316
#     4   9  19  34  55  80 108 139 171 216 267 322
#     4  10  19  35  54  78 104 138 182 223 261 310
#     4   9  19  37  58  80 107 136 172 215 264 321
#
# _framework density 17.664618999999998
#
# number of rings (size 3 to 8) (size 9 to 14) (size 15 to 20)
#    0.000    2.125    1.250    2.250    0.000    2.000 
#    0.000    1.875    0.000    6.750    0.000    7.875 
#    0.000    0.000    0.000    0.000    0.000    0.000 
#
# Total GULP energy -178391.745374 kJ/mol
# GULP energy per Si atom -5574.742043 kJ/mol
# Density = 1.762441 g / cm^3
# Si number density = 17.664619 Si / 1000 Ang^3
#
#
#
# Elastic Constant Matrix: (Units=GPa)
#
#
# Indices 1 2 3 4 5 6 
#
# 1 42.0531 30.2170 21.4332 0.0000 -13.9444 0.0000
# 2 30.2170 93.5955 48.3047 0.0000 -3.3764 0.0000
# 3 21.4332 48.3047 102.2709 0.0000 -2.2006 0.0000
# 4 0.0000 0.0000 0.0000 12.3364 0.0000 13.2911
# 5 -13.9444 -3.3764 -2.2006 0.0000 17.4676 0.0000
# 6 0.0000 0.0000 0.0000 13.2911 0.0000 12.7692
#
#
#
# Elastic Compliance Matrix: (Units=1/GPa)
#
#
# Indices 1 2 3 4 5 6 
#
# 1 0.044681 -0.011594 -0.003177 0.000000 0.033028 0.000000
# 2 -0.011594 0.017200 -0.005837 0.000000 -0.006666 0.000000
# 3 -0.003177 -0.005837 0.013158 0.000000 -0.002007 0.000000
# 4 0.000000 0.000000 0.000000 -0.667592 0.000000 0.694878
# 5 0.033028 -0.006666 -0.002007 0.000000 0.082074 0.000000
# 6 0.000000 0.000000 0.000000 0.694878 0.000000 -0.644965
#
#
# Mechanical properties :
#
#
# Convention : Reuss Voigt Hill
#
# Bulk Modulus (GPa) = 29.56707 48.64771 39.10739
# Shear Modulus (GPa) = -4.53328 17.71228 6.58950
#
# Velocity S-wave (km/s) = -1.60371 3.16998 1.93350
# Velocity P-wave (km/s) = 3.65311 6.40295 5.21263
#
# Compressibility (1/GPa) = 0.03382141
#
# Stress axis : x y z
#
# Youngs Moduli (GPa) = 22.38077 58.14115 76.00096
#
# Poissons Ratio (x) = 0.67409 0.24147
# Poissons Ratio (y) = 0.25948 0.44365
# Poissons Ratio (z) = 0.07111 0.33939
#
# Static dielectric constant tensor:
#      x y z
#    x 1.595270 0.000000 -0.004910 
#    y 0.000000 1.597250 0.000000 
#    z -0.004910 0.000000 1.618480 
# 
# From -- ./inp_files/250847.got.cif
#   From: 2010.05.17/outbox.cif.g08.bks.cpg/sg12_126_cif.got.tgz:250847.got - 2010.06.03 13:09:07.
