data_PCOD9180758
_publ_section_title
;
Structure prediction by ZEFSAII (Michael W. Deem and Ramdas Pophale) SiO2 
 PCOD9180758
Probable space group: C 2/M
;
_chemical_formula_sum "Si O2"
_cell_formula_units_Z 48
_cell_length_a 22.985568
_cell_length_b 9.107097
_cell_length_c 14.092447
_cell_angle_alpha 90.000000
_cell_angle_beta 101.427929
_cell_angle_gamma 90.000000
_cell_volume 2891.512707
_symmetry_space_group_name_H-M "C 2/M"
_symmetry_group_IT_number 12
_symmetry_cell_setting 'monoclinic'
loop_
_space_group_symop_operation_xyz
x,y,z
-x,y,-z
-x,-y,-z
x,-y,z
1/2+x,1/2+y,z
1/2-x,1/2+y,-z
1/2-x,1/2-y,-z
1/2+x,1/2-y,z
loop_
_atom_site_type_symbol
_atom_site_label
_atom_site_fract_x
_atom_site_fract_y
_atom_site_fract_z
Si Si1 0.330567 0.674583 0.444180
Si Si2 0.050986 0.325020 0.594234
Si Si3 0.889442 0.175244 0.829255
Si Si4 0.066363 0.668735 0.976314
Si Si5 0.209596 0.824745 0.354866
Si Si6 0.481253 0.325005 0.218242
O O1 0.335478 0.500000 0.431820
O O2 0.387950 0.755460 0.422818
O O3 0.270903 0.736848 0.376821
O O4 0.322639 0.702414 0.554503
O O5 0.057137 0.500000 0.607380
O O6 0.032603 0.252412 0.687467
O O7 0.000000 0.296387 0.500000
O O8 0.834225 0.215219 0.744852
O O9 0.950809 0.204993 0.792391
O O10 0.887986 0.000000 0.846134
O O11 0.892806 0.259236 0.929918
O O12 0.082340 0.500000 0.962495
O O13 0.060590 0.761110 0.878295
O O14 0.000000 0.670457 0.000000
O O15 0.221492 0.000000 0.354083
O O16 0.474264 0.500000 0.223728
#
# Coordination Sequence:
#
# PCOD9180758 Si02
#       6
#     8   8   8   8   8   8
#     4  10  20  34  52  74 100 132 169 205 245 293
#     4  11  23  36  51  73 102 134 166 202 246 295
#     4   9  17  30  50  75 101 131 167 205 247 293
#     4   9  17  29  46  71 102 132 164 204 248 292
#     4   9  18  33  52  74 101 131 165 207 249 290
#     4  10  19  32  51  74 102 134 167 204 246 294
#
# _framework density 16.600307999999998
#
# number of rings (size 3 to 8) (size 9 to 14) (size 15 to 20)
#    0.000    2.333    0.000    3.000    0.000    6.667 
#    0.000    0.000    0.000    1.000    0.000    0.000 
#    0.000    0.000    0.000    0.000    0.000    0.000 
#
# Total GULP energy -133917.170171 kJ/mol
# GULP energy per Si atom -5579.882090 kJ/mol
# Density = 1.656252 g / cm^3
# Si number density = 16.600308 Si / 1000 Ang^3
#
#
#
# Elastic Constant Matrix: (Units=GPa)
#
#
# Indices 1 2 3 4 5 6 
#
# 1 82.6334 65.0179 70.2070 0.0000 9.2867 0.0000
# 2 65.0179 91.7975 87.8078 0.0000 5.2160 0.0000
# 3 70.2070 87.8078 152.4073 0.0000 20.1948 0.0000
# 4 0.0000 0.0000 0.0000 31.3609 0.0000 -1.3409
# 5 9.2867 5.2160 20.1948 0.0000 27.7652 0.0000
# 6 0.0000 0.0000 0.0000 -1.3409 0.0000 23.2210
#
#
#
# Elastic Compliance Matrix: (Units=1/GPa)
#
#
# Indices 1 2 3 4 5 6 
#
# 1 0.028538 -0.017718 -0.002340 0.000000 -0.004515 0.000000
# 2 -0.017718 0.036275 -0.013966 0.000000 0.009270 0.000000
# 3 -0.002340 -0.013966 0.016859 0.000000 -0.008856 0.000000
# 4 0.000000 0.000000 0.000000 0.031966 0.000000 0.001846
# 5 -0.004515 0.009270 -0.008856 0.000000 0.042226 0.000000
# 6 0.000000 0.000000 0.000000 0.001846 0.000000 0.043171
#
#
# Mechanical properties :
#
#
# Convention : Reuss Voigt Hill
#
# Bulk Modulus (GPa) = 73.39731 85.87817 79.63774
# Shear Modulus (GPa) = 18.40780 23.38979 20.89879
#
# Velocity S-wave (km/s) = 3.33360 3.75773 3.55200
# Velocity P-wave (km/s) = 7.68945 8.40670 8.05606
#
# Compressibility (1/GPa) = 0.01362448
#
# Stress axis : x y z
#
# Youngs Moduli (GPa) = 35.04089 27.56722 59.31603
#
# Poissons Ratio (x) = 0.48844 0.13879
# Poissons Ratio (y) = 0.62086 0.82839
# Poissons Ratio (z) = 0.08199 0.38500
#
# Static dielectric constant tensor:
#      x y z
#    x 1.531550 0.000000 0.006050 
#    y 0.000000 1.552120 0.000000 
#    z 0.006050 0.000000 1.542800 
# 
# From -- ./inp_files/172296.got.cif
#   From: 2010.05.17/outbox.cif.g08.bks.cpg/sg12_87_cif.got.tgz:172296.got - 2010.06.03 13:09:07.
