data_PCOD9180343
_publ_section_title
;
Structure prediction by ZEFSAII (Michael W. Deem and Ramdas Pophale) SiO2 
 PCOD9180343
Probable space group: C 2/M
;
_chemical_formula_sum "Si O2"
_cell_formula_units_Z 48
_cell_length_a 20.957249
_cell_length_b 12.943699
_cell_length_c 9.548435
_cell_angle_alpha 90.000000
_cell_angle_beta 107.949409
_cell_angle_gamma 90.000000
_cell_volume 2464.084580
_symmetry_space_group_name_H-M "C 2/M"
_symmetry_group_IT_number 12
_symmetry_cell_setting 'monoclinic'
loop_
_space_group_symop_operation_xyz
x,y,z
-x,y,-z
-x,-y,-z
x,-y,z
1/2+x,1/2+y,z
1/2-x,1/2+y,-z
1/2-x,1/2-y,-z
1/2+x,1/2-y,z
loop_
_atom_site_type_symbol
_atom_site_label
_atom_site_fract_x
_atom_site_fract_y
_atom_site_fract_z
Si Si1 0.501585 0.876889 0.292340
Si Si2 0.809250 0.877993 0.475388
Si Si3 0.209864 0.385629 0.830826
Si Si4 0.394424 0.196936 0.440218
Si Si5 0.806701 0.745650 0.750560
Si Si6 0.400475 0.118985 0.993402
O O1 0.574494 0.842624 0.393479
O O2 0.451349 0.817541 0.362680
O O3 0.494877 0.000000 0.312882
O O4 0.470448 0.857898 0.119151
O O5 0.866714 0.812332 0.434822
O O6 0.813345 0.832966 0.635739
O O7 0.740026 0.841189 0.354891
O O8 0.816640 0.000000 0.475151
O O9 0.239744 0.500000 0.858588
O O10 0.166173 0.372508 0.658915
O O11 0.265406 0.298070 0.850287
O O12 0.156953 0.377202 0.922483
O O13 0.873557 0.696424 0.858887
O O14 0.403045 0.000000 0.943681
#
# Coordination Sequence:
#
# PCOD9180343 Si02
#       6
#     8   8   8   8   8   8
#     4   9  16  30  53  77  99 120 149 192 236 279
#     4  10  21  34  48  67  93 127 163 198 233 275
#     4   9  16  27  48  75  98 122 151 187 234 281
#     4   9  16  29  50  73  96 123 153 190 232 276
#     4  10  19  32  49  67  94 128 160 193 231 280
#     4   9  17  29  47  72  98 120 148 193 240 278
#
# _framework density 19.479849999999999
#
# number of rings (size 3 to 8) (size 9 to 14) (size 15 to 20)
#    0.000    2.667    0.000    4.500    0.000    0.000 
#    0.000    6.667    0.000    9.000    0.000    0.000 
#    0.000    0.000    0.000    0.000    0.000    0.000 
#
# Total GULP energy -133844.620013 kJ/mol
# GULP energy per Si atom -5576.859167 kJ/mol
# Density = 1.943551 g / cm^3
# Si number density = 19.479850 Si / 1000 Ang^3
#
#
#
# Elastic Constant Matrix: (Units=GPa)
#
#
# Indices 1 2 3 4 5 6 
#
# 1 32.7626 19.6521 24.2602 0.0000 4.1177 0.0000
# 2 19.6521 120.7848 44.2144 0.0000 4.8658 0.0000
# 3 24.2602 44.2144 87.9423 0.0000 7.9811 0.0000
# 4 0.0000 0.0000 0.0000 23.3544 0.0000 1.1294
# 5 4.1177 4.8658 7.9811 0.0000 38.8713 0.0000
# 6 0.0000 0.0000 0.0000 1.1294 0.0000 18.5813
#
#
#
# Elastic Compliance Matrix: (Units=1/GPa)
#
#
# Indices 1 2 3 4 5 6 
#
# 1 0.039345 -0.002960 -0.009193 0.000000 -0.001910 0.000000
# 2 -0.002960 0.010371 -0.004390 0.000000 -0.000083 0.000000
# 3 -0.009193 -0.004390 0.016279 0.000000 -0.001819 0.000000
# 4 0.000000 0.000000 0.000000 0.042945 0.000000 -0.002610
# 5 -0.001910 -0.000083 -0.001819 0.000000 0.026312 0.000000
# 6 0.000000 0.000000 0.000000 -0.002610 0.000000 0.053976
#
#
# Mechanical properties :
#
#
# Convention : Reuss Voigt Hill
#
# Bulk Modulus (GPa) = 30.38536 46.41591 38.40064
# Shear Modulus (GPa) = 21.43314 26.38560 23.90937
#
# Velocity S-wave (km/s) = 3.32063 3.68436 3.50721
# Velocity P-wave (km/s) = 5.50766 6.47910 6.01303
#
# Compressibility (1/GPa) = 0.03291059
#
# Stress axis : x y z
#
# Youngs Moduli (GPa) = 25.41626 96.42108 61.42741
#
# Poissons Ratio (x) = 0.28537 0.56468
# Poissons Ratio (y) = 0.07522 0.26968
# Poissons Ratio (z) = 0.23364 0.42331
#
# Static dielectric constant tensor:
#      x y z
#    x 1.742800 0.000000 -0.040380 
#    y 0.000000 1.637150 0.000000 
#    z -0.040380 0.000000 1.748380 
# 
# From -- ./inp_files/94994.got.cif
#   From: 2010.05.17/outbox.cif.g08.bks.cpg/sg12_48_cif.got.tgz:94994.got - 2010.06.03 13:09:07.
