data_PCOD9180506
_publ_section_title
;
Structure prediction by ZEFSAII (Michael W. Deem and Ramdas Pophale) SiO2 
 PCOD9180506
Probable space group: C 2/M
;
_chemical_formula_sum "Si O2"
_cell_formula_units_Z 64
_cell_length_a 25.731670
_cell_length_b 14.254178
_cell_length_c 12.699584
_cell_angle_alpha 90.000000
_cell_angle_beta 119.573665
_cell_angle_gamma 90.000000
_cell_volume 4051.165976
_symmetry_space_group_name_H-M "C 2/M"
_symmetry_group_IT_number 12
_symmetry_cell_setting 'monoclinic'
loop_
_space_group_symop_operation_xyz
x,y,z
-x,y,-z
-x,-y,-z
x,-y,z
1/2+x,1/2+y,z
1/2-x,1/2+y,-z
1/2-x,1/2-y,-z
1/2+x,1/2-y,z
loop_
_atom_site_type_symbol
_atom_site_label
_atom_site_fract_x
_atom_site_fract_y
_atom_site_fract_z
Si Si1 0.232051 0.390963 0.107700
Si Si2 0.385253 0.769129 0.759422
Si Si3 0.267949 0.890963 0.643601
Si Si4 0.431476 0.613847 0.431477
Si Si5 0.362005 0.611777 0.574199
Si Si6 0.500000 0.892445 0.127816
Si Si7 0.362005 0.611777 0.149812
Si Si8 0.614747 0.769129 0.988914
O O1 0.214785 0.500000 0.074721
O O2 0.247209 0.381175 0.247208
O O3 0.291655 0.372198 0.101277
O O4 0.176281 0.324731 0.028897
O O5 0.323718 0.824731 0.676337
O O6 0.384226 0.673407 0.693326
O O7 0.440882 0.834810 0.783228
O O8 0.388993 0.753123 0.888994
O O9 0.208344 0.872199 0.517969
O O10 0.285215 0.000000 0.645155
O O11 0.500000 0.645990 0.500000
O O12 0.431536 0.500000 0.431537
O O13 0.397092 0.641109 0.503285
O O14 0.397090 0.641108 0.290899
O O15 0.370668 0.500000 0.598264
O O16 0.500001 0.000000 0.165902
O O17 0.500000 0.896741 0.000000
O O18 0.440883 0.834810 0.098539
O O19 0.370667 0.500000 0.143073
O O20 0.384227 0.673407 0.075128
#
# Coordination Sequence:
#
# PCOD9180506 Si02
#       8
#     8   8   8   8   8   8   8   8
#     4   9  16  30  51  73  96 124 163 210 245 272
#     4  10  20  31  48  74 101 128 159 194 243 298
#     4   9  16  30  51  73  96 124 163 210 245 272
#     4   9  18  32  50  70  92 123 165 203 234 270
#     4  10  19  32  50  72 100 128 160 200 240 287
#     4   9  18  34  51  70  95 124 161 200 235 277
#     4  10  19  32  50  72 100 128 160 200 240 287
#     4  10  20  31  48  74 101 128 159 194 243 298
#
# _framework density 15.797921000000001
#
# number of rings (size 3 to 8) (size 9 to 14) (size 15 to 20)
#    0.000    2.500    1.250    1.500    1.750    3.500 
#    0.000    0.000    0.000    2.250    0.000    3.500 
#    0.000    0.000    0.000    0.000    0.000    0.000 
#
# Total GULP energy -178354.112006 kJ/mol
# GULP energy per Si atom -5573.566000 kJ/mol
# Density = 1.576196 g / cm^3
# Si number density = 15.797921 Si / 1000 Ang^3
#
#
#
# Elastic Constant Matrix: (Units=GPa)
#
#
# Indices 1 2 3 4 5 6 
#
# 1 88.5158 60.0039 51.1879 0.0000 12.2137 0.0000
# 2 60.0039 91.2666 55.5335 0.0000 2.6540 0.0000
# 3 51.1879 55.5335 62.5932 0.0000 3.1829 0.0000
# 4 0.0000 0.0000 0.0000 26.2983 0.0000 -3.4044
# 5 12.2137 2.6540 3.1829 0.0000 13.7486 0.0000
# 6 0.0000 0.0000 0.0000 -3.4044 0.0000 20.5693
#
#
#
# Elastic Compliance Matrix: (Units=1/GPa)
#
#
# Indices 1 2 3 4 5 6 
#
# 1 0.028815 -0.010093 -0.013567 0.000000 -0.020509 0.000000
# 2 -0.010093 0.027348 -0.016390 0.000000 0.007481 0.000000
# 3 -0.013567 -0.016390 0.041325 0.000000 0.005649 0.000000
# 4 0.000000 0.000000 0.000000 0.038858 0.000000 0.006431
# 5 -0.020509 0.007481 0.005649 0.000000 0.088202 0.000000
# 6 0.000000 0.000000 0.000000 0.006431 0.000000 0.049681
#
#
# Mechanical properties :
#
#
# Convention : Reuss Voigt Hill
#
# Bulk Modulus (GPa) = 57.51014 63.98069 60.74541
# Shear Modulus (GPa) = 13.88409 17.16657 15.52533
#
# Velocity S-wave (km/s) = 2.96777 3.29999 3.13828
# Velocity P-wave (km/s) = 6.94451 7.42343 7.18796
#
# Compressibility (1/GPa) = 0.01738824
#
# Stress axis : x y z
#
# Youngs Moduli (GPa) = 34.70430 36.56569 24.19832
#
# Poissons Ratio (x) = 0.36906 0.32829
# Poissons Ratio (y) = 0.35027 0.39661
# Poissons Ratio (z) = 0.47083 0.59931
#
# Static dielectric constant tensor:
#      x y z
#    x 1.529420 0.000000 0.008990 
#    y 0.000000 1.512650 0.000000 
#    z 0.008990 0.000000 1.514290 
# 
# From -- ./inp_files/167233.got.cif
#   From: 2010.05.17/outbox.cif.g08.bks.cpg/sg12_84_cif.got.tgz:167233.got - 2010.06.03 13:09:07.
