data_PCOD9180048
_publ_section_title
;
Structure prediction by ZEFSAII (Michael W. Deem and Ramdas Pophale) SiO2 
 PCOD9180048
Probable space group: C 2/M
;
_chemical_formula_sum "Si O2"
_cell_formula_units_Z 56
_cell_length_a 34.191548
_cell_length_b 9.073369
_cell_length_c 12.808542
_cell_angle_alpha 90.000000
_cell_angle_beta 120.309882
_cell_angle_gamma 90.000000
_cell_volume 3430.465537
_symmetry_space_group_name_H-M "C 2/M"
_symmetry_group_IT_number 12
_symmetry_cell_setting 'monoclinic'
loop_
_space_group_symop_operation_xyz
x,y,z
-x,y,-z
-x,-y,-z
x,-y,z
1/2+x,1/2+y,z
1/2-x,1/2+y,-z
1/2-x,1/2-y,-z
1/2+x,1/2-y,z
loop_
_atom_site_type_symbol
_atom_site_label
_atom_site_fract_x
_atom_site_fract_y
_atom_site_fract_z
Si Si1 0.044534 0.823835 0.844608
Si Si2 0.113122 0.676137 0.524335
Si Si3 0.801125 0.824800 0.448735
Si Si4 0.697932 0.824134 0.324385
Si Si5 0.551406 0.823540 0.239479
Si Si6 0.449669 0.323297 0.390795
Si Si7 0.895345 0.323607 0.902289
O O1 0.052974 0.785331 0.734827
O O2 0.996268 0.757210 0.813611
O O3 0.042735 0.000000 0.850228
O O4 0.082768 0.759288 0.971483
O O5 0.116174 0.500000 0.534433
O O6 0.162425 0.745998 0.574834
O O7 0.083530 0.713610 0.380918
O O8 0.086873 0.741218 0.587791
O O9 0.748457 0.795471 0.350616
O O10 0.807523 0.762148 0.574454
O O11 0.808309 0.000000 0.457627
O O12 0.656938 0.787080 0.192138
O O13 0.694498 0.000000 0.342849
O O14 0.576551 0.787574 0.165213
O O15 0.543925 0.000000 0.230993
O O16 0.500000 0.285944 0.500000
O O17 0.444040 0.500000 0.394638
O O18 0.898884 0.500000 0.922855
#
# Coordination Sequence:
#
# PCOD9180048 Si02
#       7
#     8   8   8   8   8   8   8
#     4  11  23  36  52  76 106 138 178 222 260 311
#     4  11  21  34  55  80 108 138 177 219 258 312
#     4  10  19  31  53  81 109 139 172 215 267 312
#     4   9  18  34  53  77 108 142 176 212 258 316
#     4  10  20  34  52  75 106 144 175 209 256 311
#     4  10  21  38  55  74 104 139 175 221 271 310
#     4  10  20  36  54  74 108 145 176 211 256 312
#
# _framework density 16.324314999999999
#
# number of rings (size 3 to 8) (size 9 to 14) (size 15 to 20)
#    0.000    1.857    2.857    1.714    0.000    5.429 
#    0.000    0.000    0.000    0.857    0.000    0.000 
#    0.000    0.000    0.000    0.000    0.000    0.000 
#
# Total GULP energy -156325.622293 kJ/mol
# GULP energy per Si atom -5583.057939 kJ/mol
# Density = 1.628716 g / cm^3
# Si number density = 16.324315 Si / 1000 Ang^3
#
#
#
# Elastic Constant Matrix: (Units=GPa)
#
#
# Indices 1 2 3 4 5 6 
#
# 1 137.2089 58.7229 78.4981 0.0000 16.7471 0.0000
# 2 58.7229 39.6153 53.1430 0.0000 7.8639 0.0000
# 3 78.4981 53.1430 134.2676 0.0000 6.1440 0.0000
# 4 0.0000 0.0000 0.0000 26.9389 0.0000 -1.5266
# 5 16.7471 7.8639 6.1440 0.0000 19.5835 0.0000
# 6 0.0000 0.0000 0.0000 -1.5266 0.0000 28.8422
#
#
#
# Elastic Compliance Matrix: (Units=1/GPa)
#
#
# Indices 1 2 3 4 5 6 
#
# 1 0.020530 -0.028835 -0.000321 0.000000 -0.005877 0.000000
# 2 -0.028835 0.099143 -0.022005 0.000000 -0.008249 0.000000
# 3 -0.000321 -0.022005 0.016160 0.000000 0.004041 0.000000
# 4 0.000000 0.000000 0.000000 0.037233 0.000000 0.001971
# 5 -0.005877 -0.008249 0.004041 0.000000 0.058134 0.000000
# 6 0.000000 0.000000 0.000000 0.001971 0.000000 0.034776
#
#
# Mechanical properties :
#
#
# Convention : Reuss Voigt Hill
#
# Bulk Modulus (GPa) = 29.84117 76.86886 53.35501
# Shear Modulus (GPa) = 13.17640 23.12145 18.14892
#
# Velocity S-wave (km/s) = 2.84415 3.76757 3.33794
# Velocity P-wave (km/s) = 5.39494 8.13123 6.90008
#
# Compressibility (1/GPa) = 0.03351076
#
# Stress axis : x y z
#
# Youngs Moduli (GPa) = 48.70935 10.08648 61.88169
#
# Poissons Ratio (x) = 0.29085 0.01984
# Poissons Ratio (y) = 1.40455 1.36169
# Poissons Ratio (z) = 0.01562 0.22195
#
# Static dielectric constant tensor:
#      x y z
#    x 1.533770 0.000000 0.013690 
#    y 0.000000 1.543140 0.000000 
#    z 0.013690 0.000000 1.530900 
# 
# From -- ./inp_files/186383.got.cif
#   From: 2010.05.17/outbox.cif.g08.bks.cpg/sg12_94_cif.got.tgz:186383.got - 2010.06.03 13:09:07.
