data_PCOD9180530
_publ_section_title
;
Structure prediction by ZEFSAII (Michael W. Deem and Ramdas Pophale) SiO2 
 PCOD9180530
Probable space group: C 2/M
;
_chemical_formula_sum "Si O2"
_cell_formula_units_Z 60
_cell_length_a 5.799844
_cell_length_b 21.963018
_cell_length_c 22.343034
_cell_angle_alpha 90.000000
_cell_angle_beta 61.757208
_cell_angle_gamma 90.000000
_cell_volume 2507.274435
_symmetry_space_group_name_H-M "C 2/M"
_symmetry_group_IT_number 12
_symmetry_cell_setting 'monoclinic'
loop_
_space_group_symop_operation_xyz
x,y,z
-x,y,-z
-x,-y,-z
x,-y,z
1/2+x,1/2+y,z
1/2-x,1/2+y,-z
1/2-x,1/2-y,-z
1/2+x,1/2-y,z
loop_
_atom_site_type_symbol
_atom_site_label
_atom_site_fract_x
_atom_site_fract_y
_atom_site_fract_z
Si Si1 0.000000 0.348561 0.000000
Si Si2 0.533104 0.193177 0.252469
Si Si3 0.812527 0.569196 0.912041
Si Si4 0.994243 0.832670 0.877530
Si Si5 0.795075 0.102365 0.783022
Si Si6 0.289507 0.105261 0.662333
Si Si7 0.209812 0.430257 0.523183
Si Si8 0.279439 0.728456 0.385371
O O1 0.762064 0.308859 0.056698
O O2 0.092015 0.394460 0.041162
O O3 0.772704 0.209120 0.178052
O O4 0.319122 0.158748 0.239869
O O5 0.619659 0.143575 0.291214
O O6 0.403035 0.244782 0.308541
O O7 0.727337 0.500000 0.934259
O O8 0.610241 0.615626 0.906822
O O9 0.046850 0.564970 0.834967
O O10 0.904640 0.869573 0.830453
O O11 0.027009 0.072274 0.716394
O O12 0.537211 0.071095 0.604803
O O13 0.207545 0.156251 0.623576
O O14 0.500000 0.402495 0.500000
O O15 0.261639 0.500000 0.497191
O O16 0.000000 0.405751 0.500000
O O17 0.471380 0.751839 0.415191
#
# Coordination Sequence:
#
# PCOD9180530 Si02
#       8
#     4   8   8   8   8   8   8   8
#     4  10  19  32  50  72 104 158 206 244 299 364
#     4   9  18  34  54  85 119 147 190 243 308 366
#     4  10  20  32  48  74 111 150 198 253 308 362
#     4   9  19  32  49  73 110 151 199 245 297 359
#     4   9  18  34  52  79 110 150 188 243 304 363
#     4  10  20  35  64  90 117 154 199 249 300 352
#     4  10  24  44  65  90 124 170 214 247 289 351
#     4  10  19  32  58  93 121 150 190 241 304 367
#
# _framework density 23.930368000000001
#
# number of rings (size 3 to 8) (size 9 to 14) (size 15 to 20)
#    0.000    2.400    1.333    0.600    1.867    3.733 
#    0.000    5.333    0.000    9.600    0.000   14.933 
#    0.000    0.667    0.000    0.000    0.000    0.000 
#
# Total GULP energy -167286.460566 kJ/mol
# GULP energy per Si atom -5576.215352 kJ/mol
# Density = 2.387590 g / cm^3
# Si number density = 23.930368 Si / 1000 Ang^3
#
#
#
# Elastic Constant Matrix: (Units=GPa)
#
#
# Indices 1 2 3 4 5 6 
#
# 1 135.9384 3.7242 46.9893 0.0000 -15.7180 0.0000
# 2 3.7242 37.4159 14.0578 0.0000 -4.8516 0.0000
# 3 46.9893 14.0578 156.5436 0.0000 -39.7582 0.0000
# 4 0.0000 0.0000 0.0000 7.7534 0.0000 19.8334
# 5 -15.7180 -4.8516 -39.7582 0.0000 37.3472 0.0000
# 6 0.0000 0.0000 0.0000 19.8334 0.0000 -70.2221
#
#
#
# Elastic Compliance Matrix: (Units=1/GPa)
#
#
# Indices 1 2 3 4 5 6 
#
# 1 0.008244 0.000154 -0.002196 0.000000 0.001152 0.000000
# 2 0.000154 0.027709 -0.002198 0.000000 0.001324 0.000000
# 3 -0.002196 -0.002198 0.009508 0.000000 0.008912 0.000000
# 4 0.000000 0.000000 0.000000 0.074878 0.000000 0.021148
# 5 0.001152 0.001324 0.008912 0.000000 0.036920 0.000000
# 6 0.000000 0.000000 0.000000 0.021148 0.000000 -0.008267
#
#
# Mechanical properties :
#
#
# Convention : Reuss Voigt Hill
#
# Bulk Modulus (GPa) = 27.04112 51.04897 39.04504
# Shear Modulus (GPa) = 29.44658 12.65079 21.04868
#
# Velocity S-wave (km/s) = 3.51167 2.30173 2.96899
# Velocity P-wave (km/s) = 5.26943 5.33316 5.30139
#
# Compressibility (1/GPa) = 0.03698072
#
# Stress axis : x y z
#
# Youngs Moduli (GPa) = 121.29573 36.08947 105.17480
#
# Poissons Ratio (x) = -0.00555 0.23095
# Poissons Ratio (y) = -0.01866 0.23119
# Poissons Ratio (z) = 0.26635 0.07933
#
# Static dielectric constant tensor:
#      x y z
#    x 1.990310 0.000000 -0.072790 
#    y 0.000000 1.895510 0.000000 
#    z -0.072790 0.000000 1.976560 
# 
# From -- ./inp_files/331664.got.cif
#   From: 2010.05.17/outbox.cif.g08.bks.cpg/sg12_166_cif.got.tgz:331664.got - 2010.06.03 13:09:07.
