data_PCOD9180472
_publ_section_title
;
Structure prediction by ZEFSAII (Michael W. Deem and Ramdas Pophale) SiO2 
 PCOD9180472
Probable space group: C 2/M
;
_chemical_formula_sum "Si O2"
_cell_formula_units_Z 56
_cell_length_a 22.321743
_cell_length_b 7.328271
_cell_length_c 14.713047
_cell_angle_alpha 90.000000
_cell_angle_beta 87.437563
_cell_angle_gamma 90.000000
_cell_volume 2404.350491
_symmetry_space_group_name_H-M "C 2/M"
_symmetry_group_IT_number 12
_symmetry_cell_setting 'monoclinic'
loop_
_space_group_symop_operation_xyz
x,y,z
-x,y,-z
-x,-y,-z
x,-y,z
1/2+x,1/2+y,z
1/2-x,1/2+y,-z
1/2-x,1/2-y,-z
1/2+x,1/2-y,z
loop_
_atom_site_type_symbol
_atom_site_label
_atom_site_fract_x
_atom_site_fract_y
_atom_site_fract_z
Si Si1 0.411979 0.207730 0.978393
Si Si2 0.865248 0.207534 0.681989
Si Si3 0.166705 0.276930 0.858154
Si Si4 0.932317 0.211440 0.507145
Si Si5 0.098886 0.719702 0.693914
Si Si6 0.022660 0.277961 0.196880
Si Si7 0.299725 0.277660 0.858004
O O1 0.462363 0.283876 0.906905
O O2 0.351575 0.206680 0.920336
O O3 0.429787 0.000000 0.998507
O O4 0.386866 0.289183 0.073103
O O5 0.887964 0.291898 0.586144
O O6 0.924364 0.210281 0.741598
O O7 0.815543 0.283460 0.754059
O O8 0.845785 0.000000 0.664051
O O9 0.165693 0.500000 0.862210
O O10 0.153317 0.225037 0.755328
O O11 0.232431 0.220658 0.886104
O O12 0.904863 0.216334 0.408831
O O13 0.000000 0.290376 0.500000
O O14 0.940280 0.000000 0.534848
O O15 0.098383 0.500000 0.689631
O O16 0.039066 0.775964 0.752409
O O17 0.025131 0.500000 0.195275
O O18 0.303277 0.500000 0.860534
#
# Coordination Sequence:
#
# PCOD9180472 Si02
#       7
#     8   8   8   8   8   8   8
#     4   9  17  30  49  71  95 122 155 193 229 267
#     4   9  17  30  49  70  91 118 152 192 234 275
#     4   9  18  32  48  68  96 128 156 186 227 274
#     4  10  19  32  50  70  92 120 154 192 235 278
#     4  10  20  32  47  69  97 126 155 187 228 277
#     4   9  17  28  45  71  96 119 151 191 229 268
#     4   9  17  31  51  71  92 121 158 193 226 270
#
# _framework density 23.291114
#
# number of rings (size 3 to 8) (size 9 to 14) (size 15 to 20)
#    0.000    2.714    1.429    0.429    0.000    1.429 
#    0.000    5.000    0.000    0.000    0.000    5.000 
#    0.000    0.000    0.000    0.000    0.000    0.000 
#
# Total GULP energy -156299.745302 kJ/mol
# GULP energy per Si atom -5582.133761 kJ/mol
# Density = 2.323810 g / cm^3
# Si number density = 23.291114 Si / 1000 Ang^3
#
#
#
# Elastic Constant Matrix: (Units=GPa)
#
#
# Indices 1 2 3 4 5 6 
#
# 1 50.3238 -2.0748 12.0873 0.0000 -6.7307 0.0000
# 2 -2.0748 95.9834 -5.0181 0.0000 -5.2686 0.0000
# 3 12.0873 -5.0181 150.3913 0.0000 -14.7407 0.0000
# 4 0.0000 0.0000 0.0000 15.3846 0.0000 6.5656
# 5 -6.7307 -5.2686 -14.7407 0.0000 32.2048 0.0000
# 6 0.0000 0.0000 0.0000 6.5656 0.0000 1.3210
#
#
#
# Elastic Compliance Matrix: (Units=1/GPa)
#
#
# Indices 1 2 3 4 5 6 
#
# 1 0.020715 0.000593 -0.001268 0.000000 0.003846 0.000000
# 2 0.000593 0.010572 0.000510 0.000000 0.002087 0.000000
# 3 -0.001268 0.000510 0.007068 0.000000 0.003053 0.000000
# 4 0.000000 0.000000 0.000000 -0.057982 0.000000 0.288175
# 5 0.003846 0.002087 0.003053 0.000000 0.033594 0.000000
# 6 0.000000 0.000000 0.000000 0.288175 0.000000 -0.675258
#
#
# Mechanical properties :
#
#
# Convention : Reuss Voigt Hill
#
# Bulk Modulus (GPa) = 26.29996 34.07637 30.18816
# Shear Modulus (GPa) = -7.71265 29.22901 10.75818
#
# Velocity S-wave (km/s) = -1.82170 3.54636 2.15152
# Velocity P-wave (km/s) = 2.62518 5.60636 4.37738
#
# Compressibility (1/GPa) = 0.03802287
#
# Stress axis : x y z
#
# Youngs Moduli (GPa) = 48.27484 94.58524 141.49227
#
# Poissons Ratio (x) = -0.05605 0.17944
# Poissons Ratio (y) = -0.02861 -0.07212
# Poissons Ratio (z) = 0.06122 -0.04821
#
# Static dielectric constant tensor:
#      x y z
#    x 1.848660 0.000000 -0.036390 
#    y 0.000000 1.838880 0.000000 
#    z -0.036390 0.000000 1.878660 
# 
# From -- ./inp_files/173916.got.cif
#   From: 2010.05.17/outbox.cif.g08.bks.cpg/sg12_87_cif.got.tgz:173916.got - 2010.06.03 13:09:07.
