data_PCOD9180597
_publ_section_title
;
Structure prediction by ZEFSAII (Michael W. Deem and Ramdas Pophale) SiO2 
 PCOD9180597
Probable space group: C 2/M
;
_chemical_formula_sum "Si O2"
_cell_formula_units_Z 56
_cell_length_a 24.520514
_cell_length_b 8.704991
_cell_length_c 17.144978
_cell_angle_alpha 90.000000
_cell_angle_beta 89.374396
_cell_angle_gamma 90.000000
_cell_volume 3659.392041
_symmetry_space_group_name_H-M "C 2/M"
_symmetry_group_IT_number 12
_symmetry_cell_setting 'monoclinic'
loop_
_space_group_symop_operation_xyz
x,y,z
-x,y,-z
-x,-y,-z
x,-y,z
1/2+x,1/2+y,z
1/2-x,1/2+y,-z
1/2-x,1/2-y,-z
1/2+x,1/2-y,z
loop_
_atom_site_type_symbol
_atom_site_label
_atom_site_fract_x
_atom_site_fract_y
_atom_site_fract_z
Si Si1 0.742944 0.818545 0.915062
Si Si2 0.117784 0.684827 0.645491
Si Si3 0.803763 0.181494 0.764848
Si Si4 0.311103 0.316062 0.498124
Si Si5 0.500456 0.813278 0.409914
Si Si6 0.690215 0.317386 0.773223
Si Si7 0.120027 0.315767 0.358497
O O1 0.796069 0.796540 0.858160
O O2 0.696590 0.737838 0.862726
O O3 0.732444 0.000000 0.919204
O O4 0.750000 0.750000 0.000000
O O5 0.120741 0.500000 0.641701
O O6 0.155866 0.753909 0.577131
O O7 0.055484 0.734033 0.630510
O O8 0.140905 0.743462 0.727101
O O9 0.746780 0.253335 0.734647
O O10 0.853730 0.263430 0.723142
O O11 0.804685 0.000000 0.748700
O O12 0.309147 0.500000 0.496499
O O13 0.250000 0.250000 0.500000
O O14 0.343833 0.258833 0.573707
O O15 0.500000 0.762004 0.500000
O O16 0.557233 0.766393 0.369836
O O17 0.500220 0.000000 0.410858
O O18 0.689047 0.500000 0.768525
O O19 0.122826 0.500000 0.366243
#
# Coordination Sequence:
#
# PCOD9180597 Si02
#       7
#     8   8   8   8   8   8   8
#     4   9  18  32  53  79 108 136 164 195 246 305
#     4  11  20  35  53  70  97 131 172 216 254 298
#     4   9  19  33  49  74 106 134 162 200 249 298
#     4  12  24  35  48  68  95 130 169 209 258 305
#     4   9  18  34  53  71  92 129 176 218 258 298
#     4  10  19  32  50  75 106 134 166 203 247 300
#     4  11  20  34  53  72  95 130 173 213 252 299
#
# _framework density 15.303088000000001
#
# number of rings (size 3 to 8) (size 9 to 14) (size 15 to 20)
#    0.857    1.000    1.429    4.714    0.000    0.000 
#    0.000    3.571    0.000    0.000    0.000    1.000 
#    0.000    8.000    0.000    0.000    0.000    0.000 
#
# Total GULP energy -156030.843058 kJ/mol
# GULP energy per Si atom -5572.530109 kJ/mol
# Density = 1.526826 g / cm^3
# Si number density = 15.303088 Si / 1000 Ang^3
#
#
#
# Elastic Constant Matrix: (Units=GPa)
#
#
# Indices 1 2 3 4 5 6 
#
# 1 135.5361 46.5237 61.7982 0.0000 6.8241 0.0000
# 2 46.5237 93.0753 43.2345 0.0000 2.2019 0.0000
# 3 61.7982 43.2345 98.9133 0.0000 8.2350 0.0000
# 4 0.0000 0.0000 0.0000 28.5388 0.0000 0.4069
# 5 6.8241 2.2019 8.2350 0.0000 10.3686 0.0000
# 6 0.0000 0.0000 0.0000 0.4069 0.0000 18.7186
#
#
#
# Elastic Compliance Matrix: (Units=1/GPa)
#
#
# Indices 1 2 3 4 5 6 
#
# 1 0.010946 -0.002923 -0.005368 0.000000 -0.002320 0.000000
# 2 -0.002923 0.014298 -0.004638 0.000000 0.002571 0.000000
# 3 -0.005368 -0.004638 0.016185 0.000000 -0.008337 0.000000
# 4 0.000000 0.000000 0.000000 0.035051 0.000000 -0.000762
# 5 -0.002320 0.002571 -0.008337 0.000000 0.104047 0.000000
# 6 0.000000 0.000000 0.000000 -0.000762 0.000000 0.053439
#
#
# Mechanical properties :
#
#
# Convention : Reuss Voigt Hill
#
# Bulk Modulus (GPa) = 64.21757 70.07083 67.14420
# Shear Modulus (GPa) = 18.86692 23.25640 21.06166
#
# Velocity S-wave (km/s) = 3.51505 3.90259 3.71388
# Velocity P-wave (km/s) = 7.65043 8.13603 7.89696
#
# Compressibility (1/GPa) = 0.01557206
#
# Stress axis : x y z
#
# Youngs Moduli (GPa) = 91.36007 69.93773 61.78690
#
# Poissons Ratio (x) = 0.20442 0.33166
# Poissons Ratio (y) = 0.26704 0.28655
# Poissons Ratio (z) = 0.49040 0.32435
#
# Static dielectric constant tensor:
#      x y z
#    x 1.500940 0.000000 -0.003690 
#    y 0.000000 1.513310 0.000000 
#    z -0.003690 0.000000 1.509170 
# 
# From -- ./inp_files/287050.got.cif
#   From: 2010.05.17/outbox.cif.g08.bks.cpg/sg12_144_cif.got.tgz:287050.got - 2010.06.03 13:09:07.
