data_PCOD9180836
_publ_section_title
;
Structure prediction by ZEFSAII (Michael W. Deem and Ramdas Pophale) SiO2 
 PCOD9180836
Probable space group: C 2/M
;
_chemical_formula_sum "Si O2"
_cell_formula_units_Z 52
_cell_length_a 13.377472
_cell_length_b 13.639007
_cell_length_c 13.880686
_cell_angle_alpha 90.000000
_cell_angle_beta 68.238401
_cell_angle_gamma 90.000000
_cell_volume 2352.119162
_symmetry_space_group_name_H-M "C 2/M"
_symmetry_group_IT_number 12
_symmetry_cell_setting 'monoclinic'
loop_
_space_group_symop_operation_xyz
x,y,z
-x,y,-z
-x,-y,-z
x,-y,z
1/2+x,1/2+y,z
1/2-x,1/2+y,-z
1/2-x,1/2-y,-z
1/2+x,1/2-y,z
loop_
_atom_site_type_symbol
_atom_site_label
_atom_site_fract_x
_atom_site_fract_y
_atom_site_fract_z
Si Si1 0.029657 0.607653 0.618523
Si Si2 0.945201 0.390244 0.852891
Si Si3 0.796742 0.887152 0.736779
Si Si4 0.500000 0.263954 0.000000
Si Si5 0.774976 0.887438 0.517357
Si Si6 0.509904 0.678098 0.603817
Si Si7 0.231655 0.787329 0.897877
O O1 0.983995 0.500000 0.610343
O O2 0.150166 0.614790 0.534286
O O3 0.973006 0.708718 0.611852
O O4 0.029441 0.610306 0.734951
O O5 0.941383 0.500000 0.895610
O O6 0.828925 0.363177 0.848105
O O7 0.975257 0.308718 0.919626
O O8 0.778866 0.863169 0.630102
O O9 0.743393 0.806495 0.823724
O O10 0.926720 0.876013 0.702362
O O11 0.763900 0.000000 0.766366
O O12 0.391387 0.322980 0.062097
O O13 0.862104 0.827480 0.424222
O O14 0.810357 0.000000 0.495840
O O15 0.500000 0.634583 0.500000
O O16 0.250000 0.750000 0.000000
#
# Coordination Sequence:
#
# PCOD9180836 Si02
#       7
#     8   8   8   4   8   8   8
#     4  10  19  32  51  75 107 144 183 220 264 324
#     4  10  20  36  58  84 113 148 187 234 284 337
#     4  10  19  34  55  79 107 137 177 226 282 336
#     4  10  21  36  59  86 110 140 189 242 289 340
#     4   9  18  31  52  82 107 136 177 227 276 321
#     4  10  19  32  51  77 109 146 176 218 272 324
#     4  10  21  36  55  84 113 144 182 233 288 342
#
# _framework density 22.107723
#
# number of rings (size 3 to 8) (size 9 to 14) (size 15 to 20)
#    0.000    2.154    1.538    2.077    0.000    6.462 
#    0.000    0.385    0.000    0.923    0.000    0.000 
#    0.000    0.000    0.000    0.000    0.000    0.000 
#
# Total GULP energy -144974.621403 kJ/mol
# GULP energy per Si atom -5575.946977 kJ/mol
# Density = 2.205740 g / cm^3
# Si number density = 22.107723 Si / 1000 Ang^3
#
#
#
# Elastic Constant Matrix: (Units=GPa)
#
#
# Indices 1 2 3 4 5 6 
#
# 1 74.0311 4.3407 10.5327 0.0000 -30.1139 0.0000
# 2 4.3407 66.6705 -4.1055 0.0000 -0.5987 0.0000
# 3 10.5327 -4.1055 55.6537 0.0000 -13.3307 0.0000
# 4 0.0000 0.0000 0.0000 13.6904 0.0000 7.8159
# 5 -30.1139 -0.5987 -13.3307 0.0000 40.0074 0.0000
# 6 0.0000 0.0000 0.0000 7.8159 0.0000 17.7012
#
#
#
# Elastic Compliance Matrix: (Units=1/GPa)
#
#
# Indices 1 2 3 4 5 6 
#
# 1 0.019559 -0.001160 -0.000288 0.000000 0.014609 0.000000
# 2 -0.001160 0.015152 0.001285 0.000000 -0.000218 0.000000
# 3 -0.000288 0.001285 0.019638 0.000000 0.006346 0.000000
# 4 0.000000 0.000000 0.000000 0.097663 0.000000 -0.043123
# 5 0.014609 -0.000218 0.006346 0.000000 0.038103 0.000000
# 6 0.000000 0.000000 0.000000 -0.043123 0.000000 0.075534
#
#
# Mechanical properties :
#
#
# Convention : Reuss Voigt Hill
#
# Bulk Modulus (GPa) = 18.51066 24.21016 21.36041
# Shear Modulus (GPa) = 17.60675 26.65229 22.12952
#
# Velocity S-wave (km/s) = 2.82513 3.47589 3.16727
# Velocity P-wave (km/s) = 4.36267 5.20422 4.80192
#
# Compressibility (1/GPa) = 0.05402294
#
# Stress axis : x y z
#
# Youngs Moduli (GPa) = 51.12607 65.99868 50.92282
#
# Poissons Ratio (x) = 0.07656 0.01466
# Poissons Ratio (y) = 0.05931 -0.06543
# Poissons Ratio (z) = 0.01472 -0.08481
#
# Static dielectric constant tensor:
#      x y z
#    x 1.943630 0.000000 -0.038200 
#    y 0.000000 1.814320 0.000000 
#    z -0.038200 0.000000 1.818670 
# 
# From -- ./inp_files/214710.got.cif
#   From: 2010.05.17/outbox.cif.g08.bks.cpg/sg12_108_cif.got.tgz:214710.got - 2010.06.03 13:09:07.
