data_PCOD9180173
_publ_section_title
;
Structure prediction by ZEFSAII (Michael W. Deem and Ramdas Pophale) SiO2 
 PCOD9180173
Probable space group: C 2/M
;
_chemical_formula_sum "Si O2"
_cell_formula_units_Z 64
_cell_length_a 25.403447
_cell_length_b 19.976529
_cell_length_c 9.395022
_cell_angle_alpha 90.000000
_cell_angle_beta 42.734302
_cell_angle_gamma 90.000000
_cell_volume 3235.370606
_symmetry_space_group_name_H-M "C 2/M"
_symmetry_group_IT_number 12
_symmetry_cell_setting 'monoclinic'
loop_
_space_group_symop_operation_xyz
x,y,z
-x,y,-z
-x,-y,-z
x,-y,z
1/2+x,1/2+y,z
1/2-x,1/2+y,-z
1/2-x,1/2-y,-z
1/2+x,1/2-y,z
loop_
_atom_site_type_symbol
_atom_site_label
_atom_site_fract_x
_atom_site_fract_y
_atom_site_fract_z
Si Si1 0.964376 0.079801 0.918335
Si Si2 0.821137 0.279298 0.154227
Si Si3 0.753184 0.422471 0.325477
Si Si4 0.681080 0.182516 0.351510
Si Si5 0.409199 0.747701 0.705011
Si Si6 0.290460 0.578076 0.253838
Si Si7 0.600713 0.362163 0.498944
Si Si8 0.583804 0.242082 0.760303
O O1 0.021207 0.097800 0.677276
O O2 0.958440 0.000000 0.941227
O O3 0.877760 0.105904 0.070779
O O4 0.000000 0.102132 0.000000
O O5 0.808624 0.359661 0.178440
O O6 0.740666 0.242913 0.273397
O O7 0.851079 0.255888 0.247694
O O8 0.885062 0.255286 0.914685
O O9 0.777689 0.500000 0.251658
O O10 0.734616 0.415785 0.531035
O O11 0.673430 0.407274 0.398727
O O12 0.644165 0.199514 0.274109
O O13 0.732631 0.117516 0.267570
O O14 0.610663 0.181641 0.604492
O O15 0.500000 0.759790 0.500000
O O16 0.391115 0.676248 0.666331
O O17 0.290948 0.500000 0.216922
O O18 0.589900 0.304194 0.640211
O O19 0.500000 0.236028 0.000000
#
# Coordination Sequence:
#
# PCOD9180173 Si02
#       8
#     8   8   8   8   8   8   8   8
#     4  10  19  31  54  91 135 170 198 236 298 379
#     4  12  22  40  62  89 123 159 209 255 305 360
#     4  11  21  36  62  93 126 161 201 253 309 366
#     4  11  22  39  62  90 120 160 203 259 304 353
#     4  11  26  42  60  86 122 163 201 258 313 363
#     4  10  21  36  60  96 130 163 200 252 310 362
#     4  11  21  36  58  92 126 162 200 244 305 373
#     4  11  22  34  60  93 122 155 200 257 307 360
#
# _framework density 19.781351000000001
#
# number of rings (size 3 to 8) (size 9 to 14) (size 15 to 20)
#    0.000    1.125    5.000    3.750    3.500    0.000 
#    0.000    0.625    0.000    6.000    0.000    0.000 
#    0.000    0.000    0.000    0.000    0.000    0.000 
#
# Total GULP energy -178795.083494 kJ/mol
# GULP energy per Si atom -5587.346359 kJ/mol
# Density = 1.973633 g / cm^3
# Si number density = 19.781351 Si / 1000 Ang^3
#
#
#
# Elastic Constant Matrix: (Units=GPa)
#
#
# Indices 1 2 3 4 5 6 
#
# 1 57.9814 14.0669 -17.5628 0.0000 -3.1653 0.0000
# 2 14.0669 79.6992 2.3163 0.0000 -7.5873 0.0000
# 3 -17.5628 2.3163 51.2069 0.0000 -3.9332 0.0000
# 4 0.0000 0.0000 0.0000 19.8875 0.0000 -3.7438
# 5 -3.1653 -7.5873 -3.9332 0.0000 29.9584 0.0000
# 6 0.0000 0.0000 0.0000 -3.7438 0.0000 26.3249
#
#
#
# Elastic Compliance Matrix: (Units=1/GPa)
#
#
# Indices 1 2 3 4 5 6 
#
# 1 0.020473 -0.003617 0.007355 0.000000 0.002213 0.000000
# 2 -0.003617 0.013502 -0.001634 0.000000 0.002823 0.000000
# 3 0.007355 -0.001634 0.022379 0.000000 0.003301 0.000000
# 4 0.000000 0.000000 0.000000 0.051666 0.000000 0.007348
# 5 0.002213 0.002823 0.003301 0.000000 0.034762 0.000000
# 6 0.000000 0.000000 0.000000 0.007348 0.000000 0.039032
#
#
# Mechanical properties :
#
#
# Convention : Reuss Voigt Hill
#
# Bulk Modulus (GPa) = 16.51185 20.72537 18.61861
# Shear Modulus (GPa) = 25.27908 27.90530 26.59219
#
# Velocity S-wave (km/s) = 3.57869 3.75999 3.67046
# Velocity P-wave (km/s) = 5.04394 5.41756 5.23408
#
# Compressibility (1/GPa) = 0.06056256
#
# Stress axis : x y z
#
# Youngs Moduli (GPa) = 48.84455 74.06456 44.68508
#
# Poissons Ratio (x) = 0.26786 -0.32868
# Poissons Ratio (y) = 0.17665 0.07303
# Poissons Ratio (z) = -0.35927 0.12105
#
# Static dielectric constant tensor:
#      x y z
#    x 1.696480 0.000000 -0.010340 
#    y 0.000000 1.724620 0.000000 
#    z -0.010340 0.000000 1.718950 
# 
# From -- ./inp_files/99078.got.cif
#   From: 2010.05.17/outbox.cif.g08.bks.cpg/sg12_50_cif.got.tgz:99078.got - 2010.06.03 13:09:07.
