data_PCOD9180553
_publ_section_title
;
Structure prediction by ZEFSAII (Michael W. Deem and Ramdas Pophale) SiO2 
 PCOD9180553
Probable space group: C 2/M
;
_chemical_formula_sum "Si O2"
_cell_formula_units_Z 64
_cell_length_a 23.511129
_cell_length_b 22.111511
_cell_length_c 9.787233
_cell_angle_alpha 90.000000
_cell_angle_beta 51.870702
_cell_angle_gamma 90.000000
_cell_volume 4002.363102
_symmetry_space_group_name_H-M "C 2/M"
_symmetry_group_IT_number 12
_symmetry_cell_setting 'monoclinic'
loop_
_space_group_symop_operation_xyz
x,y,z
-x,y,-z
-x,-y,-z
x,-y,z
1/2+x,1/2+y,z
1/2-x,1/2+y,-z
1/2-x,1/2-y,-z
1/2+x,1/2-y,z
loop_
_atom_site_type_symbol
_atom_site_label
_atom_site_fract_x
_atom_site_fract_y
_atom_site_fract_z
Si Si1 0.159031 0.814417 0.069070
Si Si2 0.293019 0.742125 0.730461
Si Si3 0.450639 0.754053 0.947222
Si Si4 0.338383 0.136518 0.523715
Si Si5 0.757504 0.930141 0.117762
Si Si6 0.003346 0.649609 0.652683
Si Si7 0.365005 0.069952 0.933383
Si Si8 0.179525 0.341134 0.764692
O O1 0.158968 0.790380 0.224861
O O2 0.089259 0.795960 0.085509
O O3 0.226896 0.777441 0.903282
O O4 0.179693 0.884343 0.021679
O O5 0.333226 0.794752 0.589049
O O6 0.253521 0.693289 0.693520
O O7 0.493920 0.796977 0.777352
O O8 0.500000 0.732998 0.000000
O O9 0.386582 0.794903 0.107756
O O10 0.280486 0.096106 0.690095
O O11 0.420346 0.117103 0.433546
O O12 0.322827 0.138147 0.387022
O O13 0.695349 0.925787 0.094576
O O14 0.778906 0.000000 0.100547
O O15 0.936138 0.605054 0.778173
O O16 0.000000 0.670414 0.500000
O O17 0.380713 0.000000 0.937332
O O18 0.333975 0.104073 0.111299
#
# Coordination Sequence:
#
# PCOD9180553 Si02
#       8
#     8   8   8   8   8   8   8   8
#     4   9  17  31  53  73  94 127 163 207 245 285
#     4   9  17  30  50  75  96 126 164 201 251 296
#     4  10  19  32  50  73 102 129 156 198 252 304
#     4  11  20  30  48  75 102 131 158 204 250 287
#     4  10  20  35  52  72  95 129 175 208 237 281
#     4  11  20  32  47  70 102 134 166 198 240 294
#     4  10  21  34  50  67  94 138 178 205 230 278
#     4  10  19  33  49  70 102 130 165 204 249 290
#
# _framework density 15.990551999999999
#
# number of rings (size 3 to 8) (size 9 to 14) (size 15 to 20)
#    0.000    2.000    3.750    1.125    3.500    1.250 
#    0.000    0.625    0.000    0.375    0.000    0.000 
#    0.000    1.750    0.000    0.000    0.000    0.000 
#
# Total GULP energy -178450.938704 kJ/mol
# GULP energy per Si atom -5576.591835 kJ/mol
# Density = 1.595416 g / cm^3
# Si number density = 15.990552 Si / 1000 Ang^3
#
#
#
# Elastic Constant Matrix: (Units=GPa)
#
#
# Indices 1 2 3 4 5 6 
#
# 1 75.5874 30.4687 16.6139 0.0000 21.7316 0.0000
# 2 30.4687 78.1633 33.0509 0.0000 8.1949 0.0000
# 3 16.6139 33.0509 58.7623 0.0000 25.7267 0.0000
# 4 0.0000 0.0000 0.0000 6.5334 0.0000 1.0415
# 5 21.7316 8.1949 25.7267 0.0000 28.8853 0.0000
# 6 0.0000 0.0000 0.0000 1.0415 0.0000 17.0765
#
#
#
# Elastic Compliance Matrix: (Units=1/GPa)
#
#
# Indices 1 2 3 4 5 6 
#
# 1 0.021281 -0.009751 0.008632 0.000000 -0.020932 0.000000
# 2 -0.009751 0.021908 -0.016483 0.000000 0.015802 0.000000
# 3 0.008632 -0.016483 0.040396 0.000000 -0.037797 0.000000
# 4 0.000000 0.000000 0.000000 0.154562 0.000000 -0.009427
# 5 -0.020932 0.015802 -0.037797 0.000000 0.079549 0.000000
# 6 0.000000 0.000000 0.000000 -0.009427 0.000000 0.059135
#
#
# Mechanical properties :
#
#
# Convention : Reuss Voigt Hill
#
# Bulk Modulus (GPa) = 20.66949 41.42003 31.04476
# Shear Modulus (GPa) = 11.67782 19.32434 15.50108
#
# Velocity S-wave (km/s) = 2.70533 3.48010 3.11688
# Velocity P-wave (km/s) = 4.76577 6.48900 5.69296
#
# Compressibility (1/GPa) = 0.04838048
#
# Stress axis : x y z
#
# Youngs Moduli (GPa) = 46.99012 45.64558 24.75492
#
# Poissons Ratio (x) = 0.44509 -0.21368
# Poissons Ratio (y) = 0.45820 0.40804
# Poissons Ratio (z) = -0.40562 0.75239
#
# Static dielectric constant tensor:
#      x y z
#    x 1.535250 0.000000 0.001000 
#    y 0.000000 1.525640 0.000000 
#    z 0.001000 0.000000 1.531760 
# 
# From -- ./inp_files/77518.got.cif
#   From: 2010.05.17/outbox.cif.g08.bks.cpg/sg12_39_cif.got.tgz:77518.got - 2010.06.03 13:09:07.
