data_PCOD9180428
_publ_section_title
;
Structure prediction by ZEFSAII (Michael W. Deem and Ramdas Pophale) SiO2 
 PCOD9180428
Probable space group: C 2/M
;
_chemical_formula_sum "Si O2"
_cell_formula_units_Z 52
_cell_length_a 9.177784
_cell_length_b 24.618899
_cell_length_c 21.124874
_cell_angle_alpha 90.000000
_cell_angle_beta 33.497097
_cell_angle_gamma 90.000000
_cell_volume 2634.249077
_symmetry_space_group_name_H-M "C 2/M"
_symmetry_group_IT_number 12
_symmetry_cell_setting 'monoclinic'
loop_
_space_group_symop_operation_xyz
x,y,z
-x,y,-z
-x,-y,-z
x,-y,z
1/2+x,1/2+y,z
1/2-x,1/2+y,-z
1/2-x,1/2-y,-z
1/2+x,1/2-y,z
loop_
_atom_site_type_symbol
_atom_site_label
_atom_site_fract_x
_atom_site_fract_y
_atom_site_fract_z
Si Si1 0.188537 0.383454 0.379943
Si Si2 0.000000 0.902941 0.500000
Si Si3 0.235679 0.765278 0.078406
Si Si4 0.607686 0.061855 0.276349
Si Si5 0.881470 0.285733 0.675167
Si Si6 0.391150 0.838140 0.800317
Si Si7 0.065102 0.841258 0.346450
O O1 0.204240 0.418275 0.310630
O O2 0.062445 0.325820 0.402944
O O3 0.443290 0.367060 0.327900
O O4 0.000000 0.410765 0.500000
O O5 0.284414 0.933262 0.391264
O O6 0.971963 0.869075 0.445210
O O7 0.258752 0.711682 0.114138
O O8 0.940690 0.787626 0.199277
O O9 0.500000 0.799001 0.000000
O O10 0.250000 0.750000 0.000000
O O11 0.722129 0.105418 0.184342
O O12 0.681165 0.000000 0.237786
O O13 0.003184 0.311396 0.694647
O O14 0.967858 0.223813 0.638139
O O15 0.621539 0.850558 0.765884
#
# Coordination Sequence:
#
# PCOD9180428 Si02
#       7
#     8   4   8   8   8   8   8
#     4  11  22  35  50  79 107 149 190 228 265 324
#     4  10  19  34  52  78  98 142 189 228 268 330
#     4  11  20  34  58  86 113 148 174 215 271 329
#     4  10  21  39  56  72 104 143 185 242 280 305
#     4  10  21  35  51  78 121 147 177 215 268 334
#     4   9  20  36  51  81 108 143 182 219 268 340
#     4  10  19  32  49  73 112 143 178 222 268 321
#
# _framework density 19.739971000000001
#
# number of rings (size 3 to 8) (size 9 to 14) (size 15 to 20)
#    0.000    1.846    3.077    2.077    3.231    0.923 
#    0.000    0.769    0.000    0.462    0.000    0.000 
#    0.000   13.231    0.000    0.000    0.000    0.000 
#
# Total GULP energy -144896.100994 kJ/mol
# GULP energy per Si atom -5572.926961 kJ/mol
# Density = 1.969504 g / cm^3
# Si number density = 19.739971 Si / 1000 Ang^3
#
#
#
# Elastic Constant Matrix: (Units=GPa)
#
#
# Indices 1 2 3 4 5 6 
#
# 1 142.0084 22.4860 4.5692 0.0004 0.3734 -0.0004
# 2 22.4860 101.4926 -10.9910 0.0003 15.5858 0.0001
# 3 4.5692 -10.9910 27.2350 0.0078 -1.5598 -0.0011
# 4 0.0004 0.0003 0.0078 5.1482 0.0002 2.6852
# 5 0.3734 15.5858 -1.5598 0.0002 35.1487 0.0000
# 6 -0.0004 0.0001 -0.0011 2.6852 0.0000 11.1288
#
#
#
# Elastic Compliance Matrix: (Units=1/GPa)
#
#
# Indices 1 2 3 4 5 6 
#
# 1 0.007416 -0.001968 -0.001998 0.000003 0.000705 -0.000001
# 2 -0.001968 0.011550 0.004711 -0.000009 -0.004892 0.000002
# 3 -0.001998 0.004711 0.038934 -0.000070 -0.000340 0.000020
# 4 0.000003 -0.000009 -0.000070 0.222206 0.000000 -0.053615
# 5 0.000705 -0.004892 -0.000340 0.000000 0.030597 0.000000
# 6 -0.000001 0.000002 0.000020 -0.053615 0.000000 0.102793
#
#
# Mechanical properties :
#
#
# Convention : Reuss Voigt Hill
#
# Bulk Modulus (GPa) = 16.83726 33.65159 25.24443
# Shear Modulus (GPa) = 11.57934 27.26326 19.42130
#
# Velocity S-wave (km/s) = 2.42460 3.72037 3.14005
# Velocity P-wave (km/s) = 4.04800 5.96149 5.09537
#
# Compressibility (1/GPa) = 0.05939207
#
# Stress axis : x y z
#
# Youngs Moduli (GPa) = 134.84681 86.57808 25.68419
#
# Poissons Ratio (x) = 0.17035 0.05131
# Poissons Ratio (y) = 0.26533 -0.12100
# Poissons Ratio (z) = 0.26940 -0.40789
#
# Static dielectric constant tensor:
#      x y z
#    x 1.731900 0.000000 -0.058640 
#    y 0.000000 1.694670 0.000000 
#    z -0.058640 0.000000 1.778280 
# 
# From -- ./inp_files/302264.got.cif
#   From: 2010.05.17/outbox.cif.g08.bks.cpg/sg12_152_cif.got.tgz:302264.got - 2010.06.03 13:09:07.
