data_PCOD9180502
_publ_section_title
;
Structure prediction by ZEFSAII (Michael W. Deem and Ramdas Pophale) SiO2 
 PCOD9180502
Probable space group: C 2/M
;
_chemical_formula_sum "Si O2"
_cell_formula_units_Z 64
_cell_length_a 21.407652
_cell_length_b 23.946704
_cell_length_c 8.682642
_cell_angle_alpha 90.000000
_cell_angle_beta 66.072153
_cell_angle_gamma 90.000000
_cell_volume 4068.552526
_symmetry_space_group_name_H-M "C 2/M"
_symmetry_group_IT_number 12
_symmetry_cell_setting 'monoclinic'
loop_
_space_group_symop_operation_xyz
x,y,z
-x,y,-z
-x,-y,-z
x,-y,z
1/2+x,1/2+y,z
1/2-x,1/2+y,-z
1/2-x,1/2-y,-z
1/2+x,1/2-y,z
loop_
_atom_site_type_symbol
_atom_site_label
_atom_site_fract_x
_atom_site_fract_y
_atom_site_fract_z
Si Si1 0.643448 0.064371 0.042919
Si Si2 0.355465 0.726944 0.460240
Si Si3 0.500000 0.248133 0.815317
Si Si4 0.355465 0.726944 0.828830
Si Si5 0.769422 0.663042 0.546290
Si Si6 0.769422 0.336958 0.914867
Si Si7 0.143448 0.564371 0.670185
Si Si8 1.000000 0.381616 0.812787
O O1 0.645395 0.067062 0.854605
O O2 0.348029 0.000000 0.919811
O O3 0.700253 0.105663 0.052469
O O4 0.569035 0.087313 0.167640
O O5 0.430934 0.724384 0.316081
O O6 0.357976 0.724538 0.642024
O O7 0.303601 0.680437 0.449187
O O8 0.321511 0.786695 0.448835
O O9 0.430934 0.275616 0.822051
O O10 0.500000 0.182969 0.763586
O O11 0.500000 0.249024 0.000000
O O12 0.321511 0.786695 0.908144
O O13 0.303601 0.680437 0.943611
O O14 0.765543 0.662022 0.734457
O O15 0.799747 0.605663 0.452975
O O16 0.151971 0.500000 0.615868
O O17 0.069035 0.587313 0.694289
O O18 0.000000 0.382037 0.000000
#
# Coordination Sequence:
#
# PCOD9180502 Si02
#       8
#     8   8   8   8   8   8   8   8
#     4  10  19  32  50  71  98 135 175 209 245 291
#     4  10  20  33  50  71  98 129 165 206 252 301
#     4  11  19  30  51  75 101 133 166 202 249 298
#     4  10  20  33  50  71  98 129 165 206 252 301
#     4  10  20  33  49  70  97 129 167 210 253 294
#     4  10  20  33  49  70  97 129 167 210 253 294
#     4  10  19  32  50  71  98 135 175 209 245 291
#     4   9  17  29  46  69  99 134 172 206 235 284
#
# _framework density 15.730409999999999
#
# number of rings (size 3 to 8) (size 9 to 14) (size 15 to 20)
#    0.000    2.000    2.500    2.250    0.000    4.000 
#    0.000    0.625    0.000    1.500    0.000    0.875 
#    0.000    7.000    0.000    0.000    0.000    0.000 
#
# Total GULP energy -178610.876974 kJ/mol
# GULP energy per Si atom -5581.589905 kJ/mol
# Density = 1.569461 g / cm^3
# Si number density = 15.730410 Si / 1000 Ang^3
#
#
#
# Elastic Constant Matrix: (Units=GPa)
#
#
# Indices 1 2 3 4 5 6 
#
# 1 131.6483 67.6718 44.6276 0.0000 -27.4747 0.0000
# 2 67.6718 103.2796 38.9572 0.0000 -20.9167 0.0000
# 3 44.6276 38.9572 58.8601 0.0000 -25.5467 0.0000
# 4 0.0000 0.0000 0.0000 21.8361 0.0000 0.1243
# 5 -27.4747 -20.9167 -25.5467 0.0000 26.0560 0.0000
# 6 0.0000 0.0000 0.0000 0.1243 0.0000 21.6654
#
#
#
# Elastic Compliance Matrix: (Units=1/GPa)
#
#
# Indices 1 2 3 4 5 6 
#
# 1 0.013072 -0.006152 -0.003482 0.000000 0.005431 0.000000
# 2 -0.006152 0.015980 -0.005501 0.000000 0.000948 0.000000
# 3 -0.003482 -0.005501 0.034398 0.000000 0.025638 0.000000
# 4 0.000000 0.000000 0.000000 0.045797 0.000000 -0.000263
# 5 0.005431 0.000948 0.025638 0.000000 0.070003 0.000000
# 6 0.000000 0.000000 0.000000 -0.000263 0.000000 0.046158
#
#
# Mechanical properties :
#
#
# Convention : Reuss Voigt Hill
#
# Bulk Modulus (GPa) = 30.13844 66.25570 48.19707
# Shear Modulus (GPa) = 18.74490 23.41361 21.07925
#
# Velocity S-wave (km/s) = 3.45575 3.86220 3.66462
# Velocity P-wave (km/s) = 5.92654 7.88034 6.97222
#
# Compressibility (1/GPa) = 0.03318022
#
# Stress axis : x y z
#
# Youngs Moduli (GPa) = 76.49813 62.57722 29.07150
#
# Poissons Ratio (x) = 0.38496 0.10124
# Poissons Ratio (y) = 0.47060 0.15992
# Poissons Ratio (z) = 0.26640 0.34423
#
# Static dielectric constant tensor:
#      x y z
#    x 1.512890 0.000000 0.007330 
#    y 0.000000 1.505350 0.000000 
#    z 0.007330 0.000000 1.522960 
# 
# From -- ./inp_files/89570.got.cif
#   From: 2010.05.17/outbox.cif.g08.bks.cpg/sg12_45_cif.got.tgz:89570.got - 2010.06.03 13:09:07.
