data_PCOD9180133
_publ_section_title
;
Structure prediction by ZEFSAII (Michael W. Deem and Ramdas Pophale) SiO2 
 PCOD9180133
Probable space group: C 2/M
;
_chemical_formula_sum "Si O2"
_cell_formula_units_Z 48
_cell_length_a 15.253550
_cell_length_b 7.624549
_cell_length_c 28.644431
_cell_angle_alpha 90.000000
_cell_angle_beta 37.763928
_cell_angle_gamma 90.000000
_cell_volume 2040.173901
_symmetry_space_group_name_H-M "C 2/M"
_symmetry_group_IT_number 12
_symmetry_cell_setting 'monoclinic'
loop_
_space_group_symop_operation_xyz
x,y,z
-x,y,-z
-x,-y,-z
x,-y,z
1/2+x,1/2+y,z
1/2-x,1/2+y,-z
1/2-x,1/2-y,-z
1/2+x,1/2-y,z
loop_
_atom_site_type_symbol
_atom_site_label
_atom_site_fract_x
_atom_site_fract_y
_atom_site_fract_z
Si Si1 0.912782 0.207601 0.919389
Si Si2 0.551010 0.288222 0.200455
Si Si3 0.071737 0.797826 0.519920
Si Si4 0.123492 0.709858 0.641187
Si Si5 0.871838 0.802080 0.681431
Si Si6 0.801302 0.708631 0.164231
O O1 0.945912 0.280442 0.853535
O O2 0.029174 0.265913 0.908813
O O3 0.925698 0.000000 0.911533
O O4 0.750000 0.250000 0.000000
O O5 0.556165 0.500000 0.196792
O O6 0.410481 0.238962 0.289886
O O7 0.693230 0.226340 0.169512
O O8 0.229068 0.724782 0.443823
O O9 0.000000 0.804830 0.500000
O O10 0.956369 0.714249 0.603244
O O11 0.091882 0.000000 0.528139
O O12 0.116291 0.500000 0.636643
O O13 0.995911 0.805143 0.668366
O O14 0.746231 0.717053 0.764737
O O15 0.829216 0.000000 0.684782
O O16 0.776908 0.500000 0.176931
#
# Coordination Sequence:
#
# PCOD9180133 Si02
#       6
#     8   8   8   8   8   8
#     4  11  24  41  62  88 117 147 182 229 283 340
#     4   9  21  41  61  82 115 156 188 223 282 347
#     4   9  18  30  47  76 109 145 189 231 272 321
#     4  10  19  31  54  81 106 141 189 239 274 316
#     4   9  18  34  55  75 107 151 187 225 278 335
#     4   9  19  37  61  85 111 151 194 229 275 336
#
# _framework density 23.527405000000002
#
# number of rings (size 3 to 8) (size 9 to 14) (size 15 to 20)
#    0.000    2.500    0.000    2.500    2.333    4.667 
#    0.000    4.167    0.000    2.500    0.000    0.000 
#    0.000    0.000    0.000    0.000    0.000    0.000 
#
# Total GULP energy -133857.434592 kJ/mol
# GULP energy per Si atom -5577.393108 kJ/mol
# Density = 2.347386 g / cm^3
# Si number density = 23.527405 Si / 1000 Ang^3
#
#
#
# Elastic Constant Matrix: (Units=GPa)
#
#
# Indices 1 2 3 4 5 6 
#
# 1 59.6346 3.6536 20.6173 0.0061 -12.5639 -0.0134
# 2 3.6536 68.5527 -4.0113 -0.0074 1.9749 0.0111
# 3 20.6173 -4.0113 35.6004 -0.0017 -14.5543 0.0028
# 4 0.0061 -0.0074 -0.0017 75.8129 0.0003 -106.3486
# 5 -12.5639 1.9749 -14.5543 0.0003 46.3952 -0.0007
# 6 -0.0134 0.0111 0.0028 -106.3486 -0.0007 203.0395
#
#
#
# Elastic Compliance Matrix: (Units=1/GPa)
#
#
# Indices 1 2 3 4 5 6 
#
# 1 0.021394 -0.001888 -0.011702 0.000001 0.002203 0.000002
# 2 -0.001888 0.014851 0.002638 0.000001 -0.000316 0.000000
# 3 -0.011702 0.002638 0.038798 0.000000 0.008890 -0.000001
# 4 0.000001 0.000001 0.000000 0.049728 0.000000 0.026047
# 5 0.002203 -0.000316 0.008890 0.000000 0.024953 0.000000
# 6 0.000002 0.000000 -0.000001 0.026047 0.000000 0.018568
#
#
# Mechanical properties :
#
#
# Convention : Reuss Voigt Hill
#
# Bulk Modulus (GPa) = 18.81882 22.70076 20.75979
# Shear Modulus (GPa) = 24.04866 74.61805 49.33335
#
# Velocity S-wave (km/s) = 3.20058 5.63775 4.58410
# Velocity P-wave (km/s) = 4.65557 7.21447 6.07136
#
# Compressibility (1/GPa) = 0.05313831
#
# Stress axis : x y z
#
# Youngs Moduli (GPa) = 46.74118 67.33364 25.77429
#
# Poissons Ratio (x) = 0.12716 0.30162
# Poissons Ratio (y) = 0.08827 -0.06799
# Poissons Ratio (z) = 0.54698 -0.17761
#
# Static dielectric constant tensor:
#      x y z
#    x 1.909450 0.000000 -0.015950 
#    y 0.000000 1.926700 0.000000 
#    z -0.015950 0.000000 2.043820 
# 
# From -- ./inp_files/295904.got.cif
#   From: 2010.05.17/outbox.cif.g08.bks.cpg/sg12_148_cif.got.tgz:295904.got - 2010.06.03 13:09:07.
