data_PCOD9180330
_publ_section_title
;
Structure prediction by ZEFSAII (Michael W. Deem and Ramdas Pophale) SiO2 
 PCOD9180330
Probable space group: C 2/M
;
_chemical_formula_sum "Si O2"
_cell_formula_units_Z 60
_cell_length_a 11.433143
_cell_length_b 25.937751
_cell_length_c 10.589821
_cell_angle_alpha 90.000000
_cell_angle_beta 101.181944
_cell_angle_gamma 90.000000
_cell_volume 3080.795012
_symmetry_space_group_name_H-M "C 2/M"
_symmetry_group_IT_number 12
_symmetry_cell_setting 'monoclinic'
loop_
_space_group_symop_operation_xyz
x,y,z
-x,y,-z
-x,-y,-z
x,-y,z
1/2+x,1/2+y,z
1/2-x,1/2+y,-z
1/2-x,1/2-y,-z
1/2+x,1/2-y,z
loop_
_atom_site_type_symbol
_atom_site_label
_atom_site_fract_x
_atom_site_fract_y
_atom_site_fract_z
Si Si1 0.643375 0.109134 0.533918
Si Si2 0.605227 0.851108 0.117239
Si Si3 0.459428 0.762215 0.728547
Si Si4 0.199951 0.716483 0.659006
Si Si5 0.354259 0.058400 0.728449
Si Si6 0.752379 0.339434 0.066951
Si Si7 0.000000 0.799468 0.000000
Si Si8 0.644570 0.941483 0.798385
O O1 0.500000 0.111756 0.500000
O O2 0.687695 0.167330 0.564158
O O3 0.681219 0.080189 0.415174
O O4 0.677445 0.075132 0.662722
O O5 0.555199 0.821662 0.228624
O O6 0.682300 0.899397 0.177348
O O7 0.500000 0.865703 0.000000
O O8 0.685905 0.815727 0.044657
O O9 0.325701 0.745243 0.657123
O O10 0.569418 0.756666 0.652745
O O11 0.490028 0.733375 0.867721
O O12 0.217271 0.692976 0.802945
O O13 0.499617 0.059536 0.770963
O O14 0.315376 0.000000 0.739685
O O15 0.799545 0.397039 0.103477
O O16 0.614098 0.335385 0.017168
O O17 0.680721 0.000000 0.835719
#
# Coordination Sequence:
#
# PCOD9180330 Si02
#       8
#     8   8   8   8   8   8   4   8
#     4   9  17  33  51  73 103 136 176 221 265 313
#     4  12  19  31  51  76 112 138 170 211 265 314
#     4  11  19  33  52  81 107 145 182 215 263 317
#     4  10  20  33  54  79 109 141 181 222 265 310
#     4  10  20  32  51  78 106 140 174 213 271 326
#     4  10  19  32  48  75 106 140 175 218 262 312
#     4  10  20  32  51  72 105 142 190 214 246 318
#     4   9  16  28  48  72  98 130 169 217 267 313
#
# _framework density 19.475491999999999
#
# number of rings (size 3 to 8) (size 9 to 14) (size 15 to 20)
#    0.000    1.867    3.333    2.800    0.000    4.533 
#    0.000    3.000    0.000    0.000    0.000    7.467 
#    0.000   18.133    0.000    0.000    0.000    0.000 
#
# Total GULP energy -167300.244375 kJ/mol
# GULP energy per Si atom -5576.674813 kJ/mol
# Density = 1.943116 g / cm^3
# Si number density = 19.475492 Si / 1000 Ang^3
#
#
#
# Elastic Constant Matrix: (Units=GPa)
#
#
# Indices 1 2 3 4 5 6 
#
# 1 83.5856 17.2903 15.4329 0.0000 16.4130 0.0000
# 2 17.2903 79.9827 13.1980 0.0000 10.3001 0.0000
# 3 15.4329 13.1980 37.7595 0.0000 8.9251 0.0000
# 4 0.0000 0.0000 0.0000 19.9146 0.0000 1.0411
# 5 16.4130 10.3001 8.9251 0.0000 12.4060 0.0000
# 6 0.0000 0.0000 0.0000 1.0411 0.0000 13.4667
#
#
#
# Elastic Compliance Matrix: (Units=1/GPa)
#
#
# Indices 1 2 3 4 5 6 
#
# 1 0.016307 -0.000694 -0.001758 0.000000 -0.019732 0.000000
# 2 -0.000694 0.014242 -0.002550 0.000000 -0.009072 0.000000
# 3 -0.001758 -0.002550 0.032584 0.000000 -0.018998 0.000000
# 4 0.000000 0.000000 0.000000 0.050418 0.000000 -0.003898
# 5 -0.019732 -0.009072 -0.018998 0.000000 0.127911 0.000000
# 6 0.000000 0.000000 0.000000 -0.003898 0.000000 0.074559
#
#
# Mechanical properties :
#
#
# Convention : Reuss Voigt Hill
#
# Bulk Modulus (GPa) = 18.82243 32.57447 25.69845
# Shear Modulus (GPa) = 14.54614 19.51789 17.03202
#
# Velocity S-wave (km/s) = 2.73590 3.16915 2.96046
# Velocity P-wave (km/s) = 4.43462 5.49123 4.99096
#
# Compressibility (1/GPa) = 0.05312810
#
# Stress axis : x y z
#
# Youngs Moduli (GPa) = 61.32474 70.21630 30.69002
#
# Poissons Ratio (x) = 0.04872 0.05396
# Poissons Ratio (y) = 0.04255 0.07826
# Poissons Ratio (z) = 0.10782 0.17906
#
# Static dielectric constant tensor:
#      x y z
#    x 1.733860 0.000000 -0.024690 
#    y 0.000000 1.718880 0.000000 
#    z -0.024690 0.000000 1.712370 
# 
# From -- ./inp_files/136997.got.cif
#   From: 2010.05.17/outbox.cif.g08.bks.cpg/sg12_69_cif.got.tgz:136997.got - 2010.06.03 13:09:07.
