data_PCOD9180985
_publ_section_title
;
Structure prediction by ZEFSAII (Michael W. Deem and Ramdas Pophale) SiO2 
 PCOD9180985
Probable space group: C 2/M
;
_chemical_formula_sum "Si O2"
_cell_formula_units_Z 48
_cell_length_a 15.128394
_cell_length_b 24.380657
_cell_length_c 5.640464
_cell_angle_alpha 90.000000
_cell_angle_beta 89.426084
_cell_angle_gamma 90.000000
_cell_volume 2080.325417
_symmetry_space_group_name_H-M "C 2/M"
_symmetry_group_IT_number 12
_symmetry_cell_setting 'monoclinic'
loop_
_space_group_symop_operation_xyz
x,y,z
-x,y,-z
-x,-y,-z
x,-y,z
1/2+x,1/2+y,z
1/2-x,1/2+y,-z
1/2-x,1/2-y,-z
1/2+x,1/2-y,z
loop_
_atom_site_type_symbol
_atom_site_label
_atom_site_fract_x
_atom_site_fract_y
_atom_site_fract_z
Si Si1 0.211674 0.439577 0.538404
Si Si2 0.313228 0.198336 0.992029
Si Si3 0.603661 0.829856 0.529820
Si Si4 0.026080 0.169854 0.737104
Si Si5 0.190961 0.107075 0.859421
Si Si6 0.408276 0.439746 0.758473
O O1 0.177849 0.500000 0.597299
O O2 0.145306 0.389984 0.581568
O O3 0.236814 0.430701 0.264139
O O4 0.311727 0.435285 0.639849
O O5 0.355393 0.191334 0.725101
O O6 0.247730 0.146348 0.025762
O O7 0.250000 0.250000 0.000000
O O8 0.374199 0.202130 0.225164
O O9 0.500000 0.834171 0.500000
O O10 0.128367 0.151206 0.725659
O O11 0.000000 0.202692 0.500000
O O12 0.966007 0.114299 0.718642
O O13 0.000000 0.192255 0.000000
O O14 0.118769 0.066406 0.967784
O O15 0.444663 0.500000 0.708504
#
# Coordination Sequence:
#
# PCOD9180985 Si02
#       6
#     8   8   8   8   8   8
#     4  10  20  35  61  91 128 177 224 268 323 393
#     4  11  24  45  73  98 128 171 223 276 341 403
#     4  11  24  46  71 100 137 172 218 278 338 397
#     4  10  20  32  49  78 117 158 203 252 311 370
#     4  10  20  36  57  83 127 166 215 267 329 385
#     4  10  19  32  51  80 121 164 211 256 315 384
#
# _framework density 23.073315999999998
#
# number of rings (size 3 to 8) (size 9 to 14) (size 15 to 20)
#    0.000    1.667    3.333    1.500    0.000    4.333 
#    0.000    5.833    0.000    3.000    0.000    0.000 
#    0.000    0.000    0.000    0.000    0.000    0.000 
#
# Total GULP energy -133712.126476 kJ/mol
# GULP energy per Si atom -5571.338603 kJ/mol
# Density = 2.302080 g / cm^3
# Si number density = 23.073316 Si / 1000 Ang^3
#
#
#
# Elastic Constant Matrix: (Units=GPa)
#
#
# Indices 1 2 3 4 5 6 
#
# 1 115.6178 39.9840 48.0087 0.0000 25.2752 0.0000
# 2 39.9840 70.8018 42.4192 0.0000 1.1399 0.0000
# 3 48.0087 42.4192 135.8041 0.0000 19.3846 0.0000
# 4 0.0000 0.0000 0.0000 11.3101 0.0000 9.3432
# 5 25.2752 1.1399 19.3846 0.0000 42.9790 0.0000
# 6 0.0000 0.0000 0.0000 9.3432 0.0000 11.3783
#
#
#
# Elastic Compliance Matrix: (Units=1/GPa)
#
#
# Indices 1 2 3 4 5 6 
#
# 1 0.012957 -0.006197 -0.001689 0.000000 -0.006694 0.000000
# 2 -0.006197 0.020523 -0.004983 0.000000 0.005348 0.000000
# 3 -0.001689 -0.004983 0.010000 0.000000 -0.003385 0.000000
# 4 0.000000 0.000000 0.000000 0.274876 0.000000 -0.225712
# 5 -0.006694 0.005348 -0.003385 0.000000 0.028588 0.000000
# 6 0.000000 0.000000 0.000000 -0.225712 0.000000 0.273229
#
#
# Mechanical properties :
#
#
# Convention : Reuss Voigt Hill
#
# Bulk Modulus (GPa) = 56.36584 64.78307 60.57446
# Shear Modulus (GPa) = 7.67075 25.92091 16.79583
#
# Velocity S-wave (km/s) = 1.82530 3.35537 2.70095
# Velocity P-wave (km/s) = 5.37814 6.56882 6.00307
#
# Compressibility (1/GPa) = 0.01774124
#
# Stress axis : x y z
#
# Youngs Moduli (GPa) = 77.17716 48.72539 99.99656
#
# Poissons Ratio (x) = 0.30197 0.16892
# Poissons Ratio (y) = 0.47830 0.49828
# Poissons Ratio (z) = 0.13038 0.24280
#
# Static dielectric constant tensor:
#      x y z
#    x 1.845580 0.000000 0.023170 
#    y 0.000000 1.935530 0.000000 
#    z 0.023170 0.000000 2.162380 
# 
# From -- ./inp_files/12349.got.cif
#   From: 2010.05.17/outbox.cif.g08.bks.cpg/sg12_7_cif.got.tgz:12349.got - 2010.06.03 13:09:07.
