data_PCOD9180071
_publ_section_title
;
Structure prediction by ZEFSAII (Michael W. Deem and Ramdas Pophale) SiO2 
 PCOD9180071
Probable space group: C 2/M
;
_chemical_formula_sum "Si O2"
_cell_formula_units_Z 64
_cell_length_a 22.233284
_cell_length_b 8.379838
_cell_length_c 24.823535
_cell_angle_alpha 90.000000
_cell_angle_beta 132.321899
_cell_angle_gamma 90.000000
_cell_volume 3419.534016
_symmetry_space_group_name_H-M "C 2/M"
_symmetry_group_IT_number 12
_symmetry_cell_setting 'monoclinic'
loop_
_space_group_symop_operation_xyz
x,y,z
-x,y,-z
-x,-y,-z
x,-y,z
1/2+x,1/2+y,z
1/2-x,1/2+y,-z
1/2-x,1/2-y,-z
1/2+x,1/2-y,z
loop_
_atom_site_type_symbol
_atom_site_label
_atom_site_fract_x
_atom_site_fract_y
_atom_site_fract_z
Si Si1 0.894859 0.190037 0.284711
Si Si2 0.802634 0.184011 0.080524
Si Si3 0.342169 0.808255 0.546794
Si Si4 0.469011 0.191065 0.712565
Si Si5 0.264108 0.682286 0.854921
Si Si6 0.033079 0.688793 0.860289
Si Si7 0.068088 0.816682 0.996132
Si Si8 0.021808 0.193300 0.452087
O O1 0.948766 0.244622 0.265889
O O2 0.801077 0.245377 0.225895
O O3 0.947828 0.244957 0.368001
O O4 0.893801 0.000000 0.283512
O O5 0.785135 0.299342 0.119398
O O6 0.893776 0.202898 0.116412
O O7 0.783380 0.000000 0.082365
O O8 0.750000 0.250000 0.000000
O O9 0.250000 0.750000 0.500000
O O10 0.395277 0.751620 0.630607
O O11 0.394273 0.751466 0.525754
O O12 0.341259 0.000000 0.545062
O O13 0.464269 0.224362 0.773777
O O14 0.472053 0.000000 0.709073
O O15 0.279478 0.500000 0.848542
O O16 0.351138 0.753880 0.926170
O O17 0.051939 0.500000 0.866698
O O18 0.030745 0.728030 0.921975
O O19 0.089029 0.000000 0.992127
O O20 0.000000 0.823045 0.000000
O O21 0.000000 0.244298 0.500000
O O22 0.024944 0.000000 0.453845
#
# Coordination Sequence:
#
# PCOD9180071 Si02
#       8
#     8   8   8   8   8   8   8   8
#     4  10  19  31  53  83 111 140 179 224 277 335
#     4  12  22  32  50  80 110 136 169 215 269 323
#     4  10  20  36  58  85 117 153 191 234 285 346
#     4   9  19  34  53  79 112 142 174 221 280 331
#     4  11  21  34  53  76 107 140 175 223 275 325
#     4  11  21  34  55  80 106 137 174 221 275 326
#     4  10  23  41  56  70  98 145 191 229 273 323
#     4   9  19  37  59  84 116 153 191 236 290 346
#
# _framework density 18.716000999999999
#
# number of rings (size 3 to 8) (size 9 to 14) (size 15 to 20)
#    0.000    1.750    2.500    2.625    0.000    2.500 
#    0.000    1.250    0.000    4.500    0.000    0.000 
#    0.000    0.000    0.000    0.000    0.000    0.000 
#
# Total GULP energy -178177.505576 kJ/mol
# GULP energy per Si atom -5568.047049 kJ/mol
# Density = 1.867340 g / cm^3
# Si number density = 18.716001 Si / 1000 Ang^3
#
#
#
# Elastic Constant Matrix: (Units=GPa)
#
#
# Indices 1 2 3 4 5 6 
#
# 1 85.9894 13.3996 66.5135 0.0001 -2.0816 0.0000
# 2 13.3996 31.4401 24.1971 0.0002 1.7611 0.0000
# 3 66.5135 24.1971 145.3272 0.0000 -2.6579 0.0000
# 4 0.0001 0.0002 0.0000 -208.7815 0.0000 13.6183
# 5 -2.0816 1.7611 -2.6579 0.0000 17.8819 0.0000
# 6 0.0000 0.0000 0.0000 13.6183 0.0000 19.7958
#
#
#
# Elastic Compliance Matrix: (Units=1/GPa)
#
#
# Indices 1 2 3 4 5 6 
#
# 1 0.018087 -0.001621 -0.007989 0.000000 0.001078 0.000000
# 2 -0.001621 0.036993 -0.005503 0.000000 -0.004650 0.000000
# 3 -0.007989 -0.005503 0.011478 0.000000 0.001318 0.000000
# 4 0.000000 0.000000 0.000000 -0.004584 0.000000 0.003153
# 5 0.001078 -0.004650 0.001318 0.000000 0.056702 0.000000
# 6 0.000000 0.000000 0.000000 0.003153 0.000000 0.048346
#
#
# Mechanical properties :
#
#
# Convention : Reuss Voigt Hill
#
# Bulk Modulus (GPa) = 27.52277 52.33078 39.92678
# Shear Modulus (GPa) = 23.88270 -23.64431 0.11920
#
# Velocity S-wave (km/s) = 3.57607 -3.55818 0.25264
# Velocity P-wave (km/s) = 5.63812 3.33771 4.63297
#
# Compressibility (1/GPa) = 0.03633355
#
# Stress axis : x y z
#
# Youngs Moduli (GPa) = 55.28750 27.03237 87.12666
#
# Poissons Ratio (x) = 0.04382 0.69602
# Poissons Ratio (y) = 0.08961 0.47942
# Poissons Ratio (z) = 0.44167 0.14875
#
# Static dielectric constant tensor:
#      x y z
#    x 1.631860 0.000000 0.007020 
#    y 0.000000 1.657870 0.000000 
#    z 0.007020 0.000000 1.721620 
# 
# From -- ./inp_files/346291.got.cif
#   From: 2010.05.17/outbox.cif.g08.bks.cpg/sg12_174_cif.got.tgz:346291.got - 2010.06.03 13:09:07.
