data_PCOD9180784
_publ_section_title
;
Structure prediction by ZEFSAII (Michael W. Deem and Ramdas Pophale) SiO2 
 PCOD9180784
Probable space group: C 2/M
;
_chemical_formula_sum "Si O2"
_cell_formula_units_Z 48
_cell_length_a 6.930597
_cell_length_b 15.324841
_cell_length_c 18.335737
_cell_angle_alpha 90.000000
_cell_angle_beta 80.584860
_cell_angle_gamma 90.000000
_cell_volume 1921.209995
_symmetry_space_group_name_H-M "C 2/M"
_symmetry_group_IT_number 12
_symmetry_cell_setting 'monoclinic'
loop_
_space_group_symop_operation_xyz
x,y,z
-x,y,-z
-x,-y,-z
x,-y,z
1/2+x,1/2+y,z
1/2-x,1/2+y,-z
1/2-x,1/2-y,-z
1/2+x,1/2-y,z
loop_
_atom_site_type_symbol
_atom_site_label
_atom_site_fract_x
_atom_site_fract_y
_atom_site_fract_z
Si Si1 0.807933 0.000000 0.935999
Si Si2 0.026900 0.655119 0.201067
Si Si3 0.566544 0.396842 0.672354
Si Si4 0.137554 0.500000 0.101464
Si Si5 0.907740 0.152141 0.828887
Si Si6 0.879803 0.604506 0.358418
Si Si7 0.220345 0.105559 0.516359
O O1 0.582448 0.000000 0.919633
O O2 0.910301 0.085554 0.895475
O O3 0.782032 0.000000 0.024180
O O4 0.151845 0.581738 0.154054
O O5 0.082475 0.745290 0.159180
O O6 0.803561 0.634010 0.193402
O O7 0.013673 0.652237 0.290053
O O8 0.602768 0.500000 0.677107
O O9 0.562332 0.360016 0.753742
O O10 0.345614 0.387801 0.654778
O O11 0.709253 0.361563 0.600268
O O12 0.926093 0.500000 0.353609
O O13 0.866818 0.635313 0.443461
O O14 0.000000 0.119355 0.500000
O O15 0.247093 0.000000 0.518336
#
# Coordination Sequence:
#
# PCOD9180784 Si02
#       7
#     4   8   8   4   8   8   8
#     4   9  18  34  55  74  94 126 163 195 233 287
#     4  10  19  32  51  74  99 126 159 197 237 283
#     4   8  12  22  41  64  90 122 159 196 231 271
#     4   9  18  34  55  74  94 126 163 195 233 287
#     4  10  19  32  51  74  99 126 159 197 237 283
#     4   8  12  22  41  64  90 122 159 196 231 271
#     4   7  10  16  33  62  89 114 153 200 233 259
#
# _framework density 24.984254
#
# number of rings (size 3 to 8) (size 9 to 14) (size 15 to 20)
#    0.000    3.333    1.667    2.000    0.000    0.667 
#    0.000    1.667    0.000    1.000    0.000    0.000 
#    0.000    4.000    0.000    0.000    0.000    0.000 
#
# Total GULP energy -134117.666015 kJ/mol
# GULP energy per Si atom -5588.236084 kJ/mol
# Density = 2.492739 g / cm^3
# Si number density = 24.984254 Si / 1000 Ang^3
#
#
#
# Elastic Constant Matrix: (Units=GPa)
#
#
# Indices 1 2 3 4 5 6 
#
# 1 95.0119 -0.8359 46.6644 0.0000 -15.9187 0.0000
# 2 -0.8359 123.9582 108.1765 0.0000 -7.0726 0.0000
# 3 46.6644 108.1765 242.1776 0.0000 -19.1317 0.0000
# 4 0.0000 0.0000 0.0000 -0.2006 0.0000 -4.8410
# 5 -15.9187 -7.0726 -19.1317 0.0000 50.0774 0.0000
# 6 0.0000 0.0000 0.0000 -4.8410 0.0000 6.5470
#
#
#
# Elastic Compliance Matrix: (Units=1/GPa)
#
#
# Indices 1 2 3 4 5 6 
#
# 1 0.012998 0.003664 -0.003891 0.000000 0.003163 0.000000
# 2 0.003664 0.014262 -0.007038 0.000000 0.000490 0.000000
# 3 -0.003891 -0.007038 0.008091 0.000000 0.000860 0.000000
# 4 0.000000 0.000000 0.000000 -0.264547 0.000000 -0.195611
# 5 0.003163 0.000490 0.000860 0.000000 0.021372 0.000000
# 6 0.000000 0.000000 0.000000 -0.195611 0.000000 0.008104
#
#
# Mechanical properties :
#
#
# Convention : Reuss Voigt Hill
#
# Bulk Modulus (GPa) = 48.02951 85.46195 66.74573
# Shear Modulus (GPa) = -28.05049 31.76095 1.85523
#
# Velocity S-wave (km/s) = -3.35435 3.56931 0.86265
# Velocity P-wave (km/s) = 2.06481 7.16011 5.26928
#
# Compressibility (1/GPa) = 0.02082053
#
# Stress axis : x y z
#
# Youngs Moduli (GPa) = 76.93251 70.11818 123.60022
#
# Poissons Ratio (x) = -0.25692 0.48099
# Poissons Ratio (y) = -0.28189 0.86986
# Poissons Ratio (z) = 0.29938 0.49347
#
# Static dielectric constant tensor:
#      x y z
#    x 2.067340 0.000000 0.003590 
#    y 0.000000 1.913120 0.000000 
#    z 0.003590 0.000000 1.945840 
# 
# From -- ./inp_files/300405.got.cif
#   From: 2010.05.17/outbox.cif.g08.bks.cpg/sg12_151_cif.got.tgz:300405.got - 2010.06.03 13:09:07.
