data_PCOD9180116
_publ_section_title
;
Structure prediction by ZEFSAII (Michael W. Deem and Ramdas Pophale) SiO2 
 PCOD9180116
Probable space group: C 2/M
;
_chemical_formula_sum "Si O2"
_cell_formula_units_Z 56
_cell_length_a 14.003558
_cell_length_b 17.782204
_cell_length_c 20.128911
_cell_angle_alpha 90.000000
_cell_angle_beta 32.436510
_cell_angle_gamma 90.000000
_cell_volume 2688.465434
_symmetry_space_group_name_H-M "C 2/M"
_symmetry_group_IT_number 12
_symmetry_cell_setting 'monoclinic'
loop_
_space_group_symop_operation_xyz
x,y,z
-x,y,-z
-x,-y,-z
x,-y,z
1/2+x,1/2+y,z
1/2-x,1/2+y,-z
1/2-x,1/2-y,-z
1/2+x,1/2-y,z
loop_
_atom_site_type_symbol
_atom_site_label
_atom_site_fract_x
_atom_site_fract_y
_atom_site_fract_z
Si Si1 0.422246 0.084895 0.653430
Si Si2 0.544947 0.083624 0.728884
Si Si3 0.175106 0.254065 0.282266
Si Si4 0.537762 0.824718 0.104550
Si Si5 0.591338 0.363544 0.510998
Si Si6 0.382178 0.296518 0.830051
Si Si7 0.842209 0.084842 0.381686
O O1 0.429120 0.083424 0.730155
O O2 0.310700 0.159563 0.702031
O O3 0.628114 0.097433 0.509417
O O4 0.369421 0.000000 0.662388
O O5 0.458433 0.103023 0.849667
O O6 0.701739 0.144083 0.627488
O O7 0.626781 0.000000 0.683130
O O8 0.344554 0.199578 0.191560
O O9 0.131704 0.250825 0.229534
O O10 0.010942 0.213948 0.415581
O O11 0.580010 0.756946 0.130416
O O12 0.688384 0.831023 0.960263
O O13 0.500000 0.399372 0.500000
O O14 0.591344 0.407371 0.580632
O O15 0.539217 0.356304 0.727775
O O16 0.871691 0.000000 0.341482
#
# Coordination Sequence:
#
# PCOD9180116 Si02
#       7
#     8   8   8   8   8   8   8
#     4   9  19  36  60  88 117 147 188 244 300 350
#     4  10  20  35  56  84 117 148 190 241 294 344
#     4  11  21  36  62  85 119 150 196 241 297 350
#     4  11  22  39  57  85 111 159 200 242 292 338
#     4  10  19  31  53  87 115 149 185 237 287 353
#     4  10  23  39  58  79 117 154 203 245 279 351
#     4   9  20  36  57  83 116 156 189 238 302 353
#
# _framework density 20.829726999999998
#
# number of rings (size 3 to 8) (size 9 to 14) (size 15 to 20)
#    0.000    2.000    2.857    1.714    2.000    3.429 
#    0.000    0.714    0.000    7.286    0.000    0.000 
#    0.000    0.000    0.000    0.000    0.000    0.000 
#
# Total GULP energy -156138.288030 kJ/mol
# GULP energy per Si atom -5576.367430 kJ/mol
# Density = 2.078232 g / cm^3
# Si number density = 20.829727 Si / 1000 Ang^3
#
#
#
# Elastic Constant Matrix: (Units=GPa)
#
#
# Indices 1 2 3 4 5 6 
#
# 1 38.0080 5.1075 14.5673 0.0034 8.3018 -0.0009
# 2 5.1075 75.6321 38.5884 -0.0021 4.7161 -0.0021
# 3 14.5673 38.5884 77.1593 0.0011 18.4853 -0.0044
# 4 0.0034 -0.0021 0.0011 22.2802 -0.0019 -0.9518
# 5 8.3018 4.7161 18.4853 -0.0019 17.4460 0.0021
# 6 -0.0009 -0.0021 -0.0044 -0.9518 0.0021 9.0629
#
#
#
# Elastic Compliance Matrix: (Units=1/GPa)
#
#
# Indices 1 2 3 4 5 6 
#
# 1 0.029873 0.000275 -0.003155 -0.000005 -0.010947 0.000004
# 2 0.000275 0.018265 -0.010684 0.000003 0.006252 -0.000002
# 3 -0.003155 -0.010684 0.023919 -0.000003 -0.020955 0.000013
# 4 -0.000005 0.000003 -0.000003 0.045085 0.000009 0.004735
# 5 -0.010947 0.006252 -0.020955 0.000009 0.083042 -0.000028
# 6 0.000004 -0.000002 0.000013 0.004735 -0.000028 0.110837
#
#
# Mechanical properties :
#
#
# Convention : Reuss Voigt Hill
#
# Bulk Modulus (GPa) = 22.25728 34.14731 28.20230
# Shear Modulus (GPa) = 14.15926 18.59359 16.37642
#
# Velocity S-wave (km/s) = 2.61005 2.99096 2.80698
# Velocity P-wave (km/s) = 4.44879 5.32512 4.90656
#
# Compressibility (1/GPa) = 0.04492912
#
# Stress axis : x y z
#
# Youngs Moduli (GPa) = 33.47450 54.75054 41.80724
#
# Poissons Ratio (x) = -0.01505 0.13189
# Poissons Ratio (y) = -0.00920 0.44668
# Poissons Ratio (z) = 0.10560 0.58497
#
# Static dielectric constant tensor:
#      x y z
#    x 1.792230 0.000000 -0.000450 
#    y 0.000000 1.767980 0.000000 
#    z -0.000450 0.000000 1.755170 
# 
# From -- ./inp_files/177177.got.cif
#   From: 2010.05.17/outbox.cif.g08.bks.cpg/sg12_89_cif.got.tgz:177177.got - 2010.06.03 13:09:07.
