data_PCOD9180717
_publ_section_title
;
Structure prediction by ZEFSAII (Michael W. Deem and Ramdas Pophale) SiO2 
 PCOD9180717
Probable space group: C 2/M
;
_chemical_formula_sum "Si O2"
_cell_formula_units_Z 56
_cell_length_a 19.626862
_cell_length_b 7.688121
_cell_length_c 26.473422
_cell_angle_alpha 90.000000
_cell_angle_beta 40.213668
_cell_angle_gamma 90.000000
_cell_volume 2579.119740
_symmetry_space_group_name_H-M "C 2/M"
_symmetry_group_IT_number 12
_symmetry_cell_setting 'monoclinic'
loop_
_space_group_symop_operation_xyz
x,y,z
-x,y,-z
-x,-y,-z
x,-y,z
1/2+x,1/2+y,z
1/2-x,1/2+y,-z
1/2-x,1/2-y,-z
1/2+x,1/2-y,z
loop_
_atom_site_type_symbol
_atom_site_label
_atom_site_fract_x
_atom_site_fract_y
_atom_site_fract_z
Si Si1 0.817524 0.792248 0.235620
Si Si2 0.166981 0.796076 0.172508
Si Si3 0.791114 0.803744 0.422127
Si Si4 0.422809 0.703678 0.500112
Si Si5 0.387222 0.789781 0.083081
Si Si6 0.455189 0.284510 0.251739
Si Si7 0.404723 0.790102 0.674625
O O1 0.866995 0.753783 0.152971
O O2 0.890726 0.726294 0.239139
O O3 0.696075 0.730323 0.301939
O O4 0.811527 0.000000 0.244832
O O5 0.285109 0.722108 0.109935
O O6 0.118448 0.777883 0.256314
O O7 0.076203 0.725562 0.187281
O O8 0.178372 0.000000 0.154415
O O9 0.750000 0.750000 0.500000
O O10 0.690187 0.791559 0.442177
O O11 0.889186 0.718850 0.337835
O O12 0.824312 0.000000 0.410414
O O13 0.500000 0.774383 0.500000
O O14 0.404427 0.500000 0.519970
O O15 0.488434 0.725654 0.411236
O O16 0.386936 0.000000 0.079225
O O17 0.500000 0.725516 0.000000
O O18 0.455810 0.500000 0.251309
O O19 0.406852 0.000000 0.675008
#
# Coordination Sequence:
#
# PCOD9180717 Si02
#       7
#     8   8   8   8   8   8   8
#     4   9  18  33  53  76 100 129 168 210 254 303
#     4   9  17  32  54  74  97 132 168 202 245 302
#     4  11  22  36  54  76 105 139 177 223 274 321
#     4  11  23  36  50  71 100 135 177 221 264 313
#     4   9  18  33  53  78 106 134 164 199 245 303
#     4   9  18  33  52  73  98 131 170 211 255 304
#     4  10  19  32  51  73  97 127 167 215 262 307
#
# _framework density 21.712834000000001
#
# number of rings (size 3 to 8) (size 9 to 14) (size 15 to 20)
#    0.000    2.286    0.000    3.000    0.000    4.286 
#    0.000    3.571    0.000    0.000    0.000    0.000 
#    0.000    0.000    0.000    0.000    0.000    0.000 
#
# Total GULP energy -156332.706130 kJ/mol
# GULP energy per Si atom -5583.310933 kJ/mol
# Density = 2.166341 g / cm^3
# Si number density = 21.712834 Si / 1000 Ang^3
#
#
#
# Elastic Constant Matrix: (Units=GPa)
#
#
# Indices 1 2 3 4 5 6 
#
# 1 113.8921 -2.4502 26.1894 0.0001 -29.9485 -0.0003
# 2 -2.4502 36.2520 -12.3294 0.0007 0.5356 -0.0002
# 3 26.1894 -12.3294 89.3595 -0.0001 -33.1251 -0.0003
# 4 0.0001 0.0007 -0.0001 9.4655 0.0000 6.1690
# 5 -29.9485 0.5356 -33.1251 0.0000 30.5376 0.0001
# 6 -0.0003 -0.0002 -0.0003 6.1690 0.0001 14.9369
#
#
#
# Elastic Compliance Matrix: (Units=1/GPa)
#
#
# Indices 1 2 3 4 5 6 
#
# 1 0.011983 0.001178 0.001671 0.000000 0.013544 0.000000
# 2 0.001178 0.029825 0.006697 -0.000003 0.007897 0.000002
# 3 0.001671 0.006697 0.020387 -0.000001 0.023635 0.000001
# 4 0.000000 -0.000003 -0.000001 0.144556 -0.000001 -0.059702
# 5 0.013544 0.007897 0.023635 -0.000001 0.071528 0.000001
# 6 0.000000 0.000002 0.000001 -0.059702 0.000001 0.091605
#
#
# Mechanical properties :
#
#
# Convention : Reuss Voigt Hill
#
# Bulk Modulus (GPa) = 12.30192 29.14700 20.72446
# Shear Modulus (GPa) = 13.23147 26.19428 19.71287
#
# Velocity S-wave (km/s) = 2.47125 3.47709 3.01639
# Velocity P-wave (km/s) = 3.71763 5.43812 4.65800
#
# Compressibility (1/GPa) = 0.08128811
#
# Stress axis : x y z
#
# Youngs Moduli (GPa) = 83.45398 33.52845 49.05197
#
# Poissons Ratio (x) = -0.03950 -0.08198
# Poissons Ratio (y) = -0.09833 -0.32851
# Poissons Ratio (z) = -0.13947 -0.22455
#
# Static dielectric constant tensor:
#      x y z
#    x 1.837920 0.000000 -0.016360 
#    y 0.000000 1.792160 0.000000 
#    z -0.016360 0.000000 1.787290 
# 
# From -- ./inp_files/342311.got.cif
#   From: 2010.05.17/outbox.cif.g08.bks.cpg/sg12_172_cif.got.tgz:342311.got - 2010.06.03 13:09:07.
