data_PCOD9180002
_publ_section_title
;
Structure prediction by ZEFSAII (Michael W. Deem and Ramdas Pophale) SiO2 
 PCOD9180002
Probable space group: C 2/M
;
_chemical_formula_sum "Si O2"
_cell_formula_units_Z 56
_cell_length_a 21.170048
_cell_length_b 8.404688
_cell_length_c 18.209335
_cell_angle_alpha 90.000000
_cell_angle_beta 109.206330
_cell_angle_gamma 90.000000
_cell_volume 3059.608966
_symmetry_space_group_name_H-M "C 2/M"
_symmetry_group_IT_number 12
_symmetry_cell_setting 'monoclinic'
loop_
_space_group_symop_operation_xyz
x,y,z
-x,y,-z
-x,-y,-z
x,-y,z
1/2+x,1/2+y,z
1/2-x,1/2+y,-z
1/2-x,1/2-y,-z
1/2+x,1/2-y,z
loop_
_atom_site_type_symbol
_atom_site_label
_atom_site_fract_x
_atom_site_fract_y
_atom_site_fract_z
Si Si1 0.676526 0.690750 0.994854
Si Si2 0.067491 0.809864 0.241300
Si Si3 0.176549 0.694014 0.733135
Si Si4 0.174415 0.805954 0.161129
Si Si5 0.304467 0.192571 0.421787
Si Si6 0.343308 0.809459 0.596058
Si Si7 0.082788 0.309542 0.829456
O O1 0.677374 0.500000 0.994866
O O2 0.661846 0.744351 0.072616
O O3 0.750000 0.750000 0.000000
O O4 0.622401 0.749696 0.915876
O O5 0.118680 0.751597 0.197558
O O6 0.098967 0.760245 0.331136
O O7 0.993503 0.744716 0.201583
O O8 0.065405 0.000000 0.236465
O O9 0.175799 0.500000 0.733664
O O10 0.251140 0.743522 0.786051
O O11 0.165661 0.744202 0.644775
O O12 0.122802 0.748541 0.772305
O O13 0.174197 0.000000 0.162378
O O14 0.343144 0.241876 0.510469
O O15 0.228574 0.254253 0.400106
O O16 0.301247 0.000000 0.420687
O O17 0.346720 0.000000 0.599889
O O18 0.085332 0.500000 0.830364
#
# Coordination Sequence:
#
# PCOD9180002 Si02
#       7
#     8   8   8   8   8   8   8
#     4  11  21  37  59  85 112 143 185 229 275 323
#     4  11  22  39  59  79 110 151 188 222 271 334
#     4   9  16  33  58  82 106 144 188 223 263 325
#     4   9  18  34  59  82 105 144 190 224 260 326
#     4   9  17  32  56  82 109 145 188 224 264 325
#     4  10  19  31  52  85 116 141 177 231 281 317
#     4  11  23  39  58  82 114 145 181 231 280 327
#
# _framework density 18.302992
#
# number of rings (size 3 to 8) (size 9 to 14) (size 15 to 20)
#    0.000    2.000    2.857    1.714    0.000    1.143 
#    0.000    9.286    0.000    4.286    0.000    0.000 
#    0.000    0.000    0.000    0.000    0.000    0.000 
#
# Total GULP energy -156283.823752 kJ/mol
# GULP energy per Si atom -5581.565134 kJ/mol
# Density = 1.826133 g / cm^3
# Si number density = 18.302992 Si / 1000 Ang^3
#
#
#
# Elastic Constant Matrix: (Units=GPa)
#
#
# Indices 1 2 3 4 5 6 
#
# 1 131.4349 19.3474 84.5104 0.0000 2.7335 0.0000
# 2 19.3474 27.4261 27.5353 0.0000 1.2706 0.0000
# 3 84.5104 27.5353 168.5494 0.0000 -3.1655 0.0000
# 4 0.0000 0.0000 0.0000 29.1937 0.0000 4.6495
# 5 2.7335 1.2706 -3.1655 0.0000 32.0860 0.0000
# 6 0.0000 0.0000 0.0000 4.6495 0.0000 27.3024
#
#
#
# Elastic Compliance Matrix: (Units=1/GPa)
#
#
# Indices 1 2 3 4 5 6 
#
# 1 0.011462 -0.002661 -0.005338 0.000000 -0.001398 0.000000
# 2 -0.002661 0.044424 -0.005963 0.000000 -0.002121 0.000000
# 3 -0.005338 -0.005963 0.009615 0.000000 0.001639 0.000000
# 4 0.000000 0.000000 0.000000 0.035209 0.000000 -0.005996
# 5 -0.001398 -0.002121 0.001639 0.000000 0.031531 0.000000
# 6 0.000000 0.000000 0.000000 -0.005996 0.000000 0.037648
#
#
# Mechanical properties :
#
#
# Convention : Reuss Voigt Hill
#
# Bulk Modulus (GPa) = 26.61327 65.57741 46.09534
# Shear Modulus (GPa) = 23.77130 30.78422 27.27776
#
# Velocity S-wave (km/s) = 3.60775 4.10557 3.86469
# Velocity P-wave (km/s) = 5.65035 7.64074 6.71965
#
# Compressibility (1/GPa) = 0.03757523
#
# Stress axis : x y z
#
# Youngs Moduli (GPa) = 87.24806 22.51046 104.00896
#
# Poissons Ratio (x) = 0.05990 0.55524
# Poissons Ratio (y) = 0.23217 0.62020
# Poissons Ratio (z) = 0.46576 0.13423
#
# Static dielectric constant tensor:
#      x y z
#    x 1.592140 0.000000 -0.032690 
#    y 0.000000 1.635830 0.000000 
#    z -0.032690 0.000000 1.635510 
# 
# From -- ./inp_files/275594.got.cif
#   From: 2010.05.17/outbox.cif.g08.bks.cpg/sg12_138_cif.got.tgz:275594.got - 2010.06.03 13:09:07.
