data_PCOD9180170
_publ_section_title
;
Structure prediction by ZEFSAII (Michael W. Deem and Ramdas Pophale) SiO2 
 PCOD9180170
Probable space group: C 2/M
;
_chemical_formula_sum "Si O2"
_cell_formula_units_Z 56
_cell_length_a 21.821412
_cell_length_b 23.706715
_cell_length_c 10.896241
_cell_angle_alpha 90.000000
_cell_angle_beta 149.704572
_cell_angle_gamma 90.000000
_cell_volume 2843.521832
_symmetry_space_group_name_H-M "C 2/M"
_symmetry_group_IT_number 12
_symmetry_cell_setting 'monoclinic'
loop_
_space_group_symop_operation_xyz
x,y,z
-x,y,-z
-x,-y,-z
x,-y,z
1/2+x,1/2+y,z
1/2-x,1/2+y,-z
1/2-x,1/2-y,-z
1/2+x,1/2-y,z
loop_
_atom_site_type_symbol
_atom_site_label
_atom_site_fract_x
_atom_site_fract_y
_atom_site_fract_z
Si Si1 0.856910 0.752107 0.290574
Si Si2 0.185035 0.136065 0.643806
Si Si3 0.668034 0.436650 0.851657
Si Si4 0.993553 0.935356 0.188876
Si Si5 0.755042 0.564820 0.365745
Si Si6 0.133575 0.435286 0.178025
Si Si7 0.379680 0.878343 0.370762
O O1 0.820121 0.798585 0.328598
O O2 0.859074 0.688362 0.342237
O O3 0.000000 0.764409 0.500000
O O4 0.750000 0.750000 0.000000
O O5 0.147427 0.104755 0.704075
O O6 0.314844 0.110021 0.828393
O O7 0.092860 0.113117 0.380476
O O8 0.690384 0.500000 0.844419
O O9 0.565352 0.439905 0.777417
O O10 0.779158 0.410549 0.117980
O O11 0.035424 0.000000 0.229270
O O12 0.882445 0.918106 0.907642
O O13 0.762250 0.500000 0.335720
O O14 0.782519 0.566624 0.555949
O O15 0.858940 0.597424 0.470498
O O16 0.136551 0.500000 0.134170
O O17 0.000000 0.424448 0.000000
O O18 0.500000 0.887740 0.500000
#
# Coordination Sequence:
#
# PCOD9180170 Si02
#       7
#     8   8   8   8   8   8   8
#     4  11  24  41  63  93 127 165 207 261 317 370
#     4  12  22  36  60  87 120 164 207 249 307 370
#     4  10  19  31  54  90 123 149 192 251 312 374
#     4   9  18  33  56  88 121 151 192 253 310 366
#     4   9  20  38  59  87 125 159 199 255 311 369
#     4  10  23  40  60  89 127 169 207 251 307 372
#     4  10  21  36  57  86 119 159 205 245 310 373
#
# _framework density 19.693885999999999
#
# number of rings (size 3 to 8) (size 9 to 14) (size 15 to 20)
#    0.000    1.857    1.429    3.857    4.000    2.857 
#    0.000    2.857    0.000    0.000    0.000    0.000 
#    0.000    0.000    0.000    0.000    0.000    0.000 
#
# Total GULP energy -156105.746491 kJ/mol
# GULP energy per Si atom -5575.205232 kJ/mol
# Density = 1.964906 g / cm^3
# Si number density = 19.693886 Si / 1000 Ang^3
#
#
#
# Elastic Constant Matrix: (Units=GPa)
#
#
# Indices 1 2 3 4 5 6 
#
# 1 46.1405 11.0264 18.4827 0.0000 19.2284 0.0000
# 2 11.0264 1.3666 -28.7587 0.0000 18.9136 0.0000
# 3 18.4827 -28.7587 27.3204 0.0000 8.0227 0.0000
# 4 0.0000 0.0000 0.0000 16.4470 0.0000 3.0654
# 5 19.2284 18.9136 8.0227 0.0000 25.8168 0.0000
# 6 0.0000 0.0000 0.0000 3.0654 0.0000 43.5223
#
#
#
# Elastic Compliance Matrix: (Units=1/GPa)
#
#
# Indices 1 2 3 4 5 6 
#
# 1 0.034575 0.008181 -0.006005 0.000000 -0.029879 0.000000
# 2 0.008181 -0.014509 -0.024363 0.000000 0.012107 0.000000
# 3 -0.006005 -0.024363 0.009316 0.000000 0.019426 0.000000
# 4 0.000000 0.000000 0.000000 0.061610 0.000000 -0.004339
# 5 -0.029879 0.012107 0.019426 0.000000 0.046082 0.000000
# 6 0.000000 0.000000 0.000000 -0.004339 0.000000 0.023282
#
#
# Mechanical properties :
#
#
# Convention : Reuss Voigt Hill
#
# Bulk Modulus (GPa) = -66.70296 8.48093 -29.11102
# Shear Modulus (GPa) = 25.03355 22.09570 23.56462
#
# Velocity S-wave (km/s) = 3.56916 3.35320 3.46286
# Velocity P-wave (km/s) = 4.11803 4.39404 1.08385
#
# Compressibility (1/GPa) = -0.01499184
#
# Stress axis : x y z
#
# Youngs Moduli (GPa) = 28.92270 -68.92271 107.34681
#
# Poissons Ratio (x) = 0.56385 0.64462
# Poissons Ratio (y) = -0.23661 2.61524
# Poissons Ratio (z) = 0.17368 -1.67913
#
# Static dielectric constant tensor:
#      x y z
#    x 1.748150 0.000000 0.053670 
#    y 0.000000 1.661480 0.000000 
#    z 0.053670 0.000000 1.810580 
# 
# From -- ./inp_files/177951.got.cif
#   From: 2010.05.17/outbox.cif.g08.bks.cpg/sg12_89_cif.got.tgz:177951.got - 2010.06.03 13:09:07.
