data_PCOD9180843
_publ_section_title
;
Structure prediction by ZEFSAII (Michael W. Deem and Ramdas Pophale) SiO2 
 PCOD9180843
Probable space group: C 2/M
;
_chemical_formula_sum "Si O2"
_cell_formula_units_Z 64
_cell_length_a 20.954587
_cell_length_b 7.547403
_cell_length_c 20.488847
_cell_angle_alpha 90.000000
_cell_angle_beta 104.662952
_cell_angle_gamma 90.000000
_cell_volume 3134.833281
_symmetry_space_group_name_H-M "C 2/M"
_symmetry_group_IT_number 12
_symmetry_cell_setting 'monoclinic'
loop_
_space_group_symop_operation_xyz
x,y,z
-x,y,-z
-x,-y,-z
x,-y,z
1/2+x,1/2+y,z
1/2-x,1/2+y,-z
1/2-x,1/2-y,-z
1/2+x,1/2-y,z
loop_
_atom_site_type_symbol
_atom_site_label
_atom_site_fract_x
_atom_site_fract_y
_atom_site_fract_z
Si Si1 0.922874 0.205258 0.160166
Si Si2 0.437426 0.291416 0.444746
Si Si3 0.888241 0.216270 0.292718
Si Si4 0.169321 0.217152 0.155339
Si Si5 0.777775 0.710887 0.078813
Si Si6 0.242081 0.793208 0.297119
Si Si7 0.291898 0.210935 0.446623
Si Si8 0.523157 0.717250 0.077534
O O1 0.918475 0.279657 0.232303
O O2 0.849822 0.212021 0.110713
O O3 0.974043 0.281171 0.121455
O O4 0.941959 0.000000 0.173562
O O5 0.500000 0.216129 0.500000
O O6 0.450428 0.500000 0.439500
O O7 0.424763 0.221869 0.368114
O O8 0.367701 0.274580 0.464512
O O9 0.812763 0.278307 0.279567
O O10 0.886710 0.000000 0.292236
O O11 0.225310 0.274737 0.118915
O O12 0.188657 0.279822 0.232842
O O13 0.097514 0.271136 0.112851
O O14 0.170385 0.000000 0.156253
O O15 0.784076 0.500000 0.087604
O O16 0.750000 0.750000 0.000000
O O17 0.255011 0.716162 0.372319
O O18 0.225709 0.000000 0.302131
O O19 0.250000 0.250000 0.500000
O O20 0.296304 0.000000 0.440518
O O21 0.521413 0.500000 0.076488
O O22 0.500000 0.774770 0.000000
#
# Coordination Sequence:
#
# PCOD9180843 Si02
#       8
#     8   8   8   8   8   8   8   8
#     4  10  19  32  51  76 101 129 169 210 257 308
#     4   9  18  34  54  78 109 142 176 217 267 319
#     4   9  17  30  50  77 105 133 164 209 262 308
#     4   9  17  31  51  75  99 129 170 211 251 297
#     4  11  21  33  53  77 102 130 167 214 257 303
#     4   9  17  32  53  77 100 132 174 214 255 303
#     4  10  20  34  54  79 108 141 178 219 265 317
#     4   9  17  30  48  70  99 132 165 204 248 297
#
# _framework density 20.415759999999999
#
# number of rings (size 3 to 8) (size 9 to 14) (size 15 to 20)
#    0.000    2.500    1.250    1.500    0.000    2.750 
#    2.250    0.000    0.000    4.875    0.000    0.000 
#    0.000    0.000    0.000    0.000    0.000    0.000 
#
# Total GULP energy -178569.538518 kJ/mol
# GULP energy per Si atom -5580.298079 kJ/mol
# Density = 2.036929 g / cm^3
# Si number density = 20.415760 Si / 1000 Ang^3
#
#
#
# Elastic Constant Matrix: (Units=GPa)
#
#
# Indices 1 2 3 4 5 6 
#
# 1 89.0080 -14.4100 62.5443 0.0000 14.5814 0.0000
# 2 -14.4100 47.7993 -9.2507 0.0000 2.3432 0.0000
# 3 62.5443 -9.2507 150.1283 0.0000 10.1424 0.0000
# 4 0.0000 0.0000 0.0000 3.4816 0.0000 0.0846
# 5 14.5814 2.3432 10.1424 0.0000 43.2277 0.0000
# 6 0.0000 0.0000 0.0000 0.0846 0.0000 16.0678
#
#
#
# Elastic Compliance Matrix: (Units=1/GPa)
#
#
# Indices 1 2 3 4 5 6 
#
# 1 0.017323 0.004155 -0.006657 0.000000 -0.004507 0.000000
# 2 0.004155 0.022263 -0.000186 0.000000 -0.002565 0.000000
# 3 -0.006657 -0.000186 0.009420 0.000000 0.000045 0.000000
# 4 0.000000 0.000000 0.000000 0.287264 0.000000 -0.001513
# 5 -0.004507 -0.002565 0.000045 0.000000 0.024782 0.000000
# 6 0.000000 0.000000 0.000000 -0.001513 0.000000 0.062244
#
#
# Mechanical properties :
#
#
# Convention : Reuss Voigt Hill
#
# Bulk Modulus (GPa) = 22.91920 40.52252 31.72086
# Shear Modulus (GPa) = 11.28120 29.09220 20.18670
#
# Velocity S-wave (km/s) = 2.35324 3.77900 3.14790
# Velocity P-wave (km/s) = 4.31674 6.23962 5.36503
#
# Compressibility (1/GPa) = 0.04363153
#
# Stress axis : x y z
#
# Youngs Moduli (GPa) = 57.72549 44.91719 106.16174
#
# Poissons Ratio (x) = -0.18664 0.70667
# Poissons Ratio (y) = -0.23986 0.01974
# Poissons Ratio (z) = 0.38425 0.00835
#
# Static dielectric constant tensor:
#      x y z
#    x 1.683110 0.000000 0.003950 
#    y 0.000000 1.787780 0.000000 
#    z 0.003950 0.000000 1.748200 
# 
# From -- ./inp_files/314107.got.cif
#   From: 2010.05.17/outbox.cif.g08.bks.cpg/sg12_158_cif.got.tgz:314107.got - 2010.06.03 13:09:07.
