data_PCOD9180907
_publ_section_title
;
Structure prediction by ZEFSAII (Michael W. Deem and Ramdas Pophale) SiO2 
 PCOD9180907
Probable space group: C 2/M
;
_chemical_formula_sum "Si O2"
_cell_formula_units_Z 48
_cell_length_a 5.177484
_cell_length_b 24.516350
_cell_length_c 22.490869
_cell_angle_alpha 90.000000
_cell_angle_beta 69.193972
_cell_angle_gamma 90.000000
_cell_volume 2668.665169
_symmetry_space_group_name_H-M "C 2/M"
_symmetry_group_IT_number 12
_symmetry_cell_setting 'monoclinic'
loop_
_space_group_symop_operation_xyz
x,y,z
-x,y,-z
-x,-y,-z
x,-y,z
1/2+x,1/2+y,z
1/2-x,1/2+y,-z
1/2-x,1/2-y,-z
1/2+x,1/2-y,z
loop_
_atom_site_type_symbol
_atom_site_label
_atom_site_fract_x
_atom_site_fract_y
_atom_site_fract_z
Si Si1 0.395976 0.785122 0.075884
Si Si2 0.108229 0.130130 0.186108
Si Si3 0.210262 0.563050 0.028793
Si Si4 0.779948 0.213152 0.295191
Si Si5 0.336648 0.786688 0.566671
Si Si6 0.396351 0.937705 0.823232
O O1 0.655962 0.760572 0.090305
O O2 0.266739 0.835853 0.121868
O O3 0.500000 0.794974 0.000000
O O4 0.337620 0.100370 0.208290
O O5 0.927036 0.172102 0.238874
O O6 0.891118 0.087156 0.176294
O O7 0.249483 0.500000 0.004610
O O8 0.119088 0.561102 0.103647
O O9 0.500000 0.592828 0.000000
O O10 0.000000 0.587301 0.000000
O O11 0.500617 0.238680 0.291191
O O12 0.714495 0.186648 0.365117
O O13 0.500000 0.816442 0.500000
O O14 0.546798 0.736715 0.566003
O O15 0.430774 0.000000 0.799720
#
# Coordination Sequence:
#
# PCOD9180907 Si02
#       6
#     8   8   8   8   8   8
#     4  10  21  37  54  73  98 126 160 202 244 292
#     4  12  22  35  55  74  97 132 171 205 252 302
#     4   9  17  31  49  65  83 109 142 188 248 302
#     4  10  19  32  51  77 107 134 166 204 239 290
#     4   8  14  25  43  69 103 138 161 185 232 289
#     4  11  24  38  51  71  99 128 164 213 258 303
#
# _framework density 17.986522000000001
#
# number of rings (size 3 to 8) (size 9 to 14) (size 15 to 20)
#    0.000    2.000    0.000    4.500    0.000    4.667 
#    0.000    0.000    0.000    0.500    0.000    0.000 
#    0.000    4.000    0.000    0.000    0.000    0.000 
#
# Total GULP energy -133896.092718 kJ/mol
# GULP energy per Si atom -5579.003863 kJ/mol
# Density = 1.794558 g / cm^3
# Si number density = 17.986522 Si / 1000 Ang^3
#
#
#
# Elastic Constant Matrix: (Units=GPa)
#
#
# Indices 1 2 3 4 5 6 
#
# 1 90.4184 8.3011 -0.2844 0.0000 -10.5863 0.0000
# 2 8.3011 56.9787 22.3662 0.0000 -5.9605 0.0000
# 3 -0.2844 22.3662 80.5139 0.0000 -9.7348 0.0000
# 4 0.0000 0.0000 0.0000 -3.5690 0.0000 -58.0816
# 5 -10.5863 -5.9605 -9.7348 0.0000 21.4336 0.0000
# 6 0.0000 0.0000 0.0000 -58.0816 0.0000 -365.2680
#
#
#
# Elastic Compliance Matrix: (Units=1/GPa)
#
#
# Indices 1 2 3 4 5 6 
#
# 1 0.011910 -0.001582 0.001206 0.000000 0.005990 0.000000
# 2 -0.001582 0.020114 -0.005302 0.000000 0.002404 0.000000
# 3 0.001206 -0.005302 0.014592 0.000000 0.005749 0.000000
# 4 0.000000 0.000000 0.000000 0.176473 0.000000 -0.028061
# 5 0.005990 0.002404 0.005749 0.000000 0.052894 0.000000
# 6 0.000000 0.000000 0.000000 -0.028061 0.000000 0.001724
#
#
# Mechanical properties :
#
#
# Convention : Reuss Voigt Hill
#
# Bulk Modulus (GPa) = 28.36124 32.07520 30.21822
# Shear Modulus (GPa) = 16.62135 -56.31215 -19.84540
#
# Velocity S-wave (km/s) = 3.04320 -5.60142 -3.32527
# Velocity P-wave (km/s) = 5.30569 4.89520 1.44696
#
# Compressibility (1/GPa) = 0.03525939
#
# Stress axis : x y z
#
# Youngs Moduli (GPa) = 83.96262 49.71726 68.52841
#
# Poissons Ratio (x) = 0.07864 -0.08263
# Poissons Ratio (y) = 0.13281 0.36336
# Poissons Ratio (z) = -0.10124 0.26362
#
# Static dielectric constant tensor:
#      x y z
#    x 1.651940 0.000000 -0.008420 
#    y 0.000000 1.619200 0.000000 
#    z -0.008420 0.000000 1.645700 
# 
# From -- ./inp_files/331154.got.cif
#   From: 2010.05.17/outbox.cif.g08.bks.cpg/sg12_166_cif.got.tgz:331154.got - 2010.06.03 13:09:07.
