data_PCOD9180273
_publ_section_title
;
Structure prediction by ZEFSAII (Michael W. Deem and Ramdas Pophale) SiO2 
 PCOD9180273
Probable space group: C 2/M
;
_chemical_formula_sum "Si O2"
_cell_formula_units_Z 56
_cell_length_a 15.208170
_cell_length_b 21.255620
_cell_length_c 15.582488
_cell_angle_alpha 90.000000
_cell_angle_beta 36.294251
_cell_angle_gamma 90.000000
_cell_volume 2981.670050
_symmetry_space_group_name_H-M "C 2/M"
_symmetry_group_IT_number 12
_symmetry_cell_setting 'monoclinic'
loop_
_space_group_symop_operation_xyz
x,y,z
-x,y,-z
-x,-y,-z
x,-y,z
1/2+x,1/2+y,z
1/2-x,1/2+y,-z
1/2-x,1/2-y,-z
1/2+x,1/2-y,z
loop_
_atom_site_type_symbol
_atom_site_label
_atom_site_fract_x
_atom_site_fract_y
_atom_site_fract_z
Si Si1 0.867511 0.638898 0.039409
Si Si2 0.929046 0.212858 0.961798
Si Si3 0.088977 0.276100 0.606190
Si Si4 0.886966 0.187656 0.662909
Si Si5 0.136752 0.369546 0.146781
Si Si6 0.756465 0.808602 0.315542
Si Si7 0.641146 0.930519 0.323948
O O1 0.718574 0.636275 0.212809
O O2 0.885300 0.713645 0.000999
O O3 0.859562 0.605492 0.953458
O O4 0.000000 0.622017 0.000000
O O5 0.073652 0.201006 0.788430
O O6 0.787499 0.171076 0.046951
O O7 0.000000 0.198135 0.000000
O O8 0.250000 0.250000 0.500000
O O9 0.129025 0.313765 0.487524
O O10 0.981328 0.220288 0.663193
O O11 0.003917 0.322373 0.735633
O O12 0.788785 0.245005 0.699982
O O13 0.000000 0.166465 0.500000
O O14 0.113462 0.417161 0.244541
O O15 0.741957 0.872177 0.273606
O O16 0.500000 0.930333 0.500000
O O17 0.709363 0.000000 0.278804
#
# Coordination Sequence:
#
# PCOD9180273 Si02
#       7
#     8   8   8   8   8   8   8
#     4  11  21  34  50  76 110 149 182 220 274 328
#     4  11  18  30  52  77 113 149 174 215 279 337
#     4  11  21  29  49  74 107 148 186 216 257 330
#     4  10  19  32  47  68 111 145 177 214 264 329
#     4  12  22  35  52  79 111 144 190 232 269 331
#     4  11  18  35  50  76 112 145 183 224 269 330
#     4  11  21  38  60  80 107 148 188 235 282 326
#
# _framework density 18.781420000000001
#
# number of rings (size 3 to 8) (size 9 to 14) (size 15 to 20)
#    0.000    1.000    8.571    1.714    4.000    0.000 
#    0.000    1.429    0.000    0.429    0.000    0.000 
#    0.000    0.571    0.000    0.429    0.000    0.000 
#
# Total GULP energy -156091.748382 kJ/mol
# GULP energy per Si atom -5574.705299 kJ/mol
# Density = 1.873867 g / cm^3
# Si number density = 18.781420 Si / 1000 Ang^3
#
#
#
# Elastic Constant Matrix: (Units=GPa)
#
#
# Indices 1 2 3 4 5 6 
#
# 1 73.3366 13.6799 28.5590 -0.0009 5.8404 0.0004
# 2 13.6799 17.5080 9.0704 -0.0030 3.8062 0.0007
# 3 28.5590 9.0704 116.4530 -0.0045 1.4298 0.0018
# 4 -0.0009 -0.0030 -0.0045 9.3964 0.0016 -0.1321
# 5 5.8404 3.8062 1.4298 0.0016 40.0046 -0.0008
# 6 0.0004 0.0007 0.0018 -0.1321 -0.0008 6.1472
#
#
#
# Elastic Compliance Matrix: (Units=1/GPa)
#
#
# Indices 1 2 3 4 5 6 
#
# 1 0.017154 -0.011409 -0.003302 -0.000003 -0.001301 0.000001
# 2 -0.011409 0.068342 -0.002467 0.000020 -0.004748 -0.000006
# 3 -0.003302 -0.002467 0.009584 0.000003 0.000374 -0.000002
# 4 -0.000003 0.000020 0.000003 0.106456 -0.000006 0.002287
# 5 -0.001301 -0.004748 0.000374 -0.000006 0.025625 0.000004
# 6 0.000001 -0.000006 -0.000002 0.002287 0.000004 0.162724
#
#
# Mechanical properties :
#
#
# Convention : Reuss Voigt Hill
#
# Bulk Modulus (GPa) = 16.46816 34.43514 25.45165
# Shear Modulus (GPa) = 11.24901 21.50885 16.37893
#
# Velocity S-wave (km/s) = 2.44999 3.38778 2.95631
# Velocity P-wave (km/s) = 4.09764 5.80321 5.02334
#
# Compressibility (1/GPa) = 0.06072322
#
# Stress axis : x y z
#
# Youngs Moduli (GPa) = 58.29705 14.63236 104.33519
#
# Poissons Ratio (x) = 0.16695 0.34452
# Poissons Ratio (y) = 0.66514 0.25736
# Poissons Ratio (z) = 0.19250 0.03609
#
# Static dielectric constant tensor:
#      x y z
#    x 1.750680 0.000000 0.080610 
#    y 0.000000 1.626770 0.000000 
#    z 0.080610 0.000000 1.766490 
# 
# From -- ./inp_files/218260.got.cif
#   From: 2010.05.17/outbox.cif.g08.bks.cpg/sg12_110_cif.got.tgz:218260.got - 2010.06.03 13:09:07.
