data_PCOD9180008
_publ_section_title
;
Structure prediction by ZEFSAII (Michael W. Deem and Ramdas Pophale) SiO2 
 PCOD9180008
Probable space group: C 2/M
;
_chemical_formula_sum "Si O2"
_cell_formula_units_Z 56
_cell_length_a 28.294559
_cell_length_b 17.548760
_cell_length_c 19.388996
_cell_angle_alpha 90.000000
_cell_angle_beta 161.917759
_cell_angle_gamma 90.000000
_cell_volume 2988.139935
_symmetry_space_group_name_H-M "C 2/M"
_symmetry_group_IT_number 12
_symmetry_cell_setting 'monoclinic'
loop_
_space_group_symop_operation_xyz
x,y,z
-x,y,-z
-x,-y,-z
x,-y,z
1/2+x,1/2+y,z
1/2-x,1/2+y,-z
1/2-x,1/2-y,-z
1/2+x,1/2-y,z
loop_
_atom_site_type_symbol
_atom_site_label
_atom_site_fract_x
_atom_site_fract_y
_atom_site_fract_z
Si Si1 0.672496 0.415120 0.214138
Si Si2 0.344458 0.727534 0.904077
Si Si3 0.096815 0.197793 0.474764
Si Si4 0.581871 0.589215 0.688839
Si Si5 0.634577 0.797329 0.926649
Si Si6 0.388257 0.911137 0.642229
Si Si7 0.670552 0.200334 0.330222
O O1 0.721005 0.500000 0.259760
O O2 0.680323 0.354275 0.164558
O O3 0.767376 0.393820 0.413958
O O4 0.500000 0.417961 0.000000
O O5 0.196966 0.775252 0.678133
O O6 0.350726 0.731301 0.995238
O O7 0.500266 0.764252 0.088074
O O8 0.219535 0.199518 0.582808
O O9 0.029760 0.116477 0.404347
O O10 0.962720 0.257997 0.269267
O O11 0.500000 0.595257 0.500000
O O12 0.628983 0.500000 0.761660
O O13 0.715020 0.653236 0.878943
O O14 0.530336 0.859977 0.819553
O O15 0.338041 0.883103 0.647665
O O16 0.420492 0.000000 0.685821
O O17 0.750000 0.250000 0.500000
#
# Coordination Sequence:
#
# PCOD9180008 Si02
#       7
#     8   8   8   8   8   8   8
#     4  10  19  31  52  85 124 164 195 233 293 359
#     4  11  20  36  61  89 127 160 200 250 292 369
#     4  12  22  39  65  92 117 163 207 245 308 363
#     4  11  25  45  65  88 119 157 208 265 313 356
#     4  11  22  40  65  87 114 160 207 252 303 360
#     4  10  20  34  56  87 122 158 197 246 301 363
#     4  11  20  35  58  91 128 162 197 242 301 365
#
# _framework density 18.740756000000001
#
# number of rings (size 3 to 8) (size 9 to 14) (size 15 to 20)
#    0.000    1.143    5.714    3.000    0.000    0.571 
#    0.000    0.714    0.000    2.571    0.000    2.000 
#    0.000    0.000    0.000    0.000    0.000    0.000 
#
# Total GULP energy -156087.307602 kJ/mol
# GULP energy per Si atom -5574.546700 kJ/mol
# Density = 1.869810 g / cm^3
# Si number density = 18.740756 Si / 1000 Ang^3
#
#
#
# Elastic Constant Matrix: (Units=GPa)
#
#
# Indices 1 2 3 4 5 6 
#
# 1 36.8238 16.9627 4.1789 0.0000 8.3373 0.0000
# 2 16.9627 89.8985 12.7998 0.0000 2.7496 0.0000
# 3 4.1789 12.7998 66.0912 0.0000 -3.8361 0.0000
# 4 0.0000 0.0000 0.0000 23.6582 0.0000 -2.4239
# 5 8.3373 2.7496 -3.8361 0.0000 18.1714 0.0000
# 6 0.0000 0.0000 0.0000 -2.4239 0.0000 33.1364
#
#
#
# Elastic Compliance Matrix: (Units=1/GPa)
#
#
# Indices 1 2 3 4 5 6 
#
# 1 0.033289 -0.005559 -0.001889 0.000000 -0.014831 0.000000
# 2 -0.005559 0.012457 -0.002047 0.000000 0.000233 0.000000
# 3 -0.001889 -0.002047 0.015910 0.000000 0.004535 0.000000
# 4 0.000000 0.000000 0.000000 0.042588 0.000000 0.003115
# 5 -0.014831 0.000233 0.004535 0.000000 0.062759 0.000000
# 6 0.000000 0.000000 0.000000 0.003115 0.000000 0.030406
#
#
# Mechanical properties :
#
#
# Convention : Reuss Voigt Hill
#
# Bulk Modulus (GPa) = 23.43823 28.96624 26.20224
# Shear Modulus (GPa) = 21.68058 25.58465 23.63262
#
# Velocity S-wave (km/s) = 3.40497 3.69885 3.55495
# Velocity P-wave (km/s) = 5.29076 5.80791 5.55536
#
# Compressibility (1/GPa) = 0.04266533
#
# Stress axis : x y z
#
# Youngs Moduli (GPa) = 30.03973 80.27679 62.85419
#
# Poissons Ratio (x) = 0.44623 0.11874
# Poissons Ratio (y) = 0.16698 0.12869
# Poissons Ratio (z) = 0.05675 0.16437
#
# Static dielectric constant tensor:
#      x y z
#    x 1.664970 0.000000 0.010190 
#    y 0.000000 1.664950 0.000000 
#    z 0.010190 0.000000 1.702220 
# 
# From -- ./inp_files/271410.got.cif
#   From: 2010.05.17/outbox.cif.g08.bks.cpg/sg12_136_cif.got.tgz:271410.got - 2010.06.03 13:09:07.
