data_PCOD9180367
_publ_section_title
;
Structure prediction by ZEFSAII (Michael W. Deem and Ramdas Pophale) SiO2 
 PCOD9180367
Probable space group: C 2/M
;
_chemical_formula_sum "Si O2"
_cell_formula_units_Z 64
_cell_length_a 28.873664
_cell_length_b 7.800865
_cell_length_c 14.749260
_cell_angle_alpha 90.000000
_cell_angle_beta 76.348025
_cell_angle_gamma 90.000000
_cell_volume 3228.257973
_symmetry_space_group_name_H-M "C 2/M"
_symmetry_group_IT_number 12
_symmetry_cell_setting 'monoclinic'
loop_
_space_group_symop_operation_xyz
x,y,z
-x,y,-z
-x,-y,-z
x,-y,z
1/2+x,1/2+y,z
1/2-x,1/2+y,-z
1/2-x,1/2-y,-z
1/2+x,1/2-y,z
loop_
_atom_site_type_symbol
_atom_site_label
_atom_site_fract_x
_atom_site_fract_y
_atom_site_fract_z
Si Si1 0.579081 0.201375 0.608972
Si Si2 0.314055 0.795154 0.778986
Si Si3 0.360552 0.707067 0.943464
Si Si4 0.122593 0.206810 0.775785
Si Si5 0.980345 0.799135 0.607040
Si Si6 0.945664 0.790553 0.029914
Si Si7 0.617330 0.800657 0.400432
Si Si8 0.707644 0.709392 0.863127
O O1 0.611704 0.230532 0.680605
O O2 0.525876 0.274185 0.649783
O O3 0.602272 0.274737 0.505271
O O4 0.572100 0.000000 0.597900
O O5 0.347899 0.765601 0.849338
O O6 0.339248 0.724357 0.676871
O O7 0.261303 0.727760 0.825540
O O8 0.309462 0.000000 0.769181
O O9 0.360823 0.500000 0.943608
O O10 0.410936 0.762763 0.963478
O O11 0.318750 0.763963 0.032237
O O12 0.081329 0.261400 0.865378
O O13 0.172648 0.260114 0.797193
O O14 0.122175 0.000000 0.774161
O O15 0.929822 0.709464 0.641187
O O16 0.000000 0.738271 0.500000
O O17 0.969928 0.000000 0.606347
O O18 0.946424 0.000000 0.028794
O O19 0.000000 0.730815 0.000000
O O20 0.628412 0.000000 0.412076
O O21 0.708427 0.500000 0.865047
#
# Coordination Sequence:
#
# PCOD9180367 Si02
#       8
#     8   8   8   8   8   8   8   8
#     4  10  19  32  49  69  97 130 160 194 239 287
#     4  10  19  32  50  70  94 127 163 198 242 291
#     4   9  17  30  49  73  97 122 156 197 242 290
#     4   9  17  31  51  71  91 123 167 202 230 277
#     4   9  17  30  49  70  91 119 157 196 231 274
#     4   8  15  29  48  70  97 125 151 185 233 285
#     4   9  19  33  47  67  98 131 160 194 240 290
#     4   8  16  32  51  69  93 126 162 200 242 291
#
# _framework density 19.824933999999999
#
# number of rings (size 3 to 8) (size 9 to 14) (size 15 to 20)
#    0.000    3.000    0.000    2.625    0.000    3.500 
#    0.000    5.000    0.000    0.750    0.000    0.000 
#    0.000    0.000    0.000    0.000    0.000    0.000 
#
# Total GULP energy -178353.312387 kJ/mol
# GULP energy per Si atom -5573.541012 kJ/mol
# Density = 1.977981 g / cm^3
# Si number density = 19.824934 Si / 1000 Ang^3
#
#
#
# Elastic Constant Matrix: (Units=GPa)
#
#
# Indices 1 2 3 4 5 6 
#
# 1 112.1710 0.9720 60.6075 0.0000 -13.1102 0.0000
# 2 0.9720 26.5394 1.1285 0.0000 -3.2020 0.0000
# 3 60.6075 1.1285 87.2159 0.0000 6.8539 0.0000
# 4 0.0000 0.0000 0.0000 -23.1314 0.0000 8.7267
# 5 -13.1102 -3.2020 6.8539 0.0000 26.3288 0.0000
# 6 0.0000 0.0000 0.0000 8.7267 0.0000 13.3242
#
#
#
# Elastic Compliance Matrix: (Units=1/GPa)
#
#
# Indices 1 2 3 4 5 6 
#
# 1 0.017391 0.001394 -0.013065 0.000000 0.012230 0.000000
# 2 0.001394 0.038419 -0.001927 0.000000 0.005868 0.000000
# 3 -0.013065 -0.001927 0.021540 0.000000 -0.012347 0.000000
# 4 0.000000 0.000000 0.000000 -0.034666 0.000000 0.022704
# 5 0.012230 0.005868 -0.012347 0.000000 0.047999 0.000000
# 6 0.000000 0.000000 0.000000 0.022704 0.000000 0.060181
#
#
# Mechanical properties :
#
#
# Convention : Reuss Voigt Hill
#
# Bulk Modulus (GPa) = 19.93830 39.03805 29.48818
# Shear Modulus (GPa) = 25.67026 14.18554 19.92790
#
# Velocity S-wave (km/s) = 3.60230 2.67786 3.17392
# Velocity P-wave (km/s) = 5.23270 5.41252 5.32337
#
# Compressibility (1/GPa) = 0.05015473
#
# Stress axis : x y z
#
# Youngs Moduli (GPa) = 57.49988 26.02897 46.42564
#
# Poissons Ratio (x) = -0.03629 0.60653
# Poissons Ratio (y) = -0.08016 0.08947
# Poissons Ratio (z) = 0.75122 0.05016
#
# Static dielectric constant tensor:
#      x y z
#    x 1.710380 0.000000 -0.017940 
#    y 0.000000 1.729750 0.000000 
#    z -0.017940 0.000000 1.697860 
# 
# From -- ./inp_files/248280.got.cif
#   From: 2010.05.17/outbox.cif.g08.bks.cpg/sg12_125_cif.got.tgz:248280.got - 2010.06.03 13:09:07.
