data_PCOD9180968
_publ_section_title
;
Structure prediction by ZEFSAII (Michael W. Deem and Ramdas Pophale) SiO2 
 PCOD9180968
Probable space group: C 2/M
;
_chemical_formula_sum "Si O2"
_cell_formula_units_Z 56
_cell_length_a 30.651924
_cell_length_b 9.203747
_cell_length_c 12.261907
_cell_angle_alpha 90.000000
_cell_angle_beta 119.536420
_cell_angle_gamma 90.000000
_cell_volume 3009.684027
_symmetry_space_group_name_H-M "C 2/M"
_symmetry_group_IT_number 12
_symmetry_cell_setting 'monoclinic'
loop_
_space_group_symop_operation_xyz
x,y,z
-x,y,-z
-x,-y,-z
x,-y,z
1/2+x,1/2+y,z
1/2-x,1/2+y,-z
1/2-x,1/2-y,-z
1/2+x,1/2-y,z
loop_
_atom_site_type_symbol
_atom_site_label
_atom_site_fract_x
_atom_site_fract_y
_atom_site_fract_z
Si Si1 0.250563 0.328327 0.885070
Si Si2 0.914409 0.827972 0.135899
Si Si3 0.996418 0.673672 0.624890
Si Si4 0.656977 0.662492 0.750574
Si Si5 0.304689 0.324621 0.576858
Si Si6 0.603407 0.666501 0.465095
Si Si7 0.845944 0.176415 0.861949
O O1 0.253966 0.500000 0.902600
O O2 0.197828 0.280869 0.770128
O O3 0.296704 0.278901 0.868656
O O4 0.250000 0.250000 0.000000
O O5 0.867364 0.815362 0.161327
O O6 0.959256 0.742517 0.248281
O O7 0.926897 0.000000 0.145908
O O8 0.894312 0.777167 0.992571
O O9 0.999280 0.500000 0.632715
O O10 0.943964 0.731028 0.608983
O O11 0.000000 0.715688 0.500000
O O12 0.679736 0.500000 0.775695
O O13 0.614202 0.665706 0.607385
O O14 0.296860 0.500000 0.569784
O O15 0.250000 0.250000 0.500000
O O16 0.344475 0.292850 0.529754
O O17 0.334367 0.280355 0.723982
O O18 0.591701 0.500000 0.416596
O O19 0.848040 0.000000 0.865268
#
# Coordination Sequence:
#
# PCOD9180968 Si02
#       7
#     8   8   8   8   8   8   8
#     4  11  20  31  49  76 110 145 182 224 277 334
#     4  10  19  35  57  78 110 149 184 226 280 337
#     4  11  23  37  56  86 118 146 186 237 289 340
#     4  10  19  32  51  79 111 141 181 226 276 333
#     4  10  21  39  62  86 114 149 193 232 273 333
#     4  10  21  37  59  84 111 149 191 231 277 337
#     4   9  19  36  55  78 110 149 187 229 276 330
#
# _framework density 18.606604000000001
#
# number of rings (size 3 to 8) (size 9 to 14) (size 15 to 20)
#    0.000    1.857    2.857    1.714    0.000    2.286 
#    0.000    2.143    0.000    4.286    0.000    0.000 
#    0.000    0.000    0.000    0.000    0.000    0.000 
#
# Total GULP energy -156096.151757 kJ/mol
# GULP energy per Si atom -5574.862563 kJ/mol
# Density = 1.856425 g / cm^3
# Si number density = 18.606604 Si / 1000 Ang^3
#
#
#
# Elastic Constant Matrix: (Units=GPa)
#
#
# Indices 1 2 3 4 5 6 
#
# 1 73.7854 35.4615 30.6435 0.0000 12.5769 0.0000
# 2 35.4615 43.7225 30.9871 0.0000 13.6697 0.0000
# 3 30.6435 30.9871 119.9858 0.0000 11.1400 0.0000
# 4 0.0000 0.0000 0.0000 25.0996 0.0000 8.5580
# 5 12.5769 13.6697 11.1400 0.0000 31.6649 0.0000
# 6 0.0000 0.0000 0.0000 8.5580 0.0000 28.3977
#
#
#
# Elastic Compliance Matrix: (Units=1/GPa)
#
#
# Indices 1 2 3 4 5 6 
#
# 1 0.022401 -0.016927 -0.001242 0.000000 -0.001153 0.000000
# 2 -0.016927 0.044123 -0.006128 0.000000 -0.010169 0.000000
# 3 -0.001242 -0.006128 0.010278 0.000000 -0.000477 0.000000
# 4 0.000000 0.000000 0.000000 0.044404 0.000000 -0.013382
# 5 -0.001153 -0.010169 -0.000477 0.000000 0.036596 0.000000
# 6 0.000000 0.000000 0.000000 -0.013382 0.000000 0.039247
#
#
# Mechanical properties :
#
#
# Convention : Reuss Voigt Hill
#
# Bulk Modulus (GPa) = 35.45242 47.96423 41.70832
# Shear Modulus (GPa) = 19.60433 26.39255 22.99844
#
# Velocity S-wave (km/s) = 3.24948 3.77032 3.51954
# Velocity P-wave (km/s) = 5.75967 6.69237 6.24346
#
# Compressibility (1/GPa) = 0.02820682
#
# Stress axis : x y z
#
# Youngs Moduli (GPa) = 44.64168 22.66408 97.29095
#
# Poissons Ratio (x) = 0.38364 0.12087
# Poissons Ratio (y) = 0.75567 0.59617
# Poissons Ratio (z) = 0.05546 0.13888
#
# Static dielectric constant tensor:
#      x y z
#    x 1.635500 0.000000 0.015260 
#    y 0.000000 1.640790 0.000000 
#    z 0.015260 0.000000 1.696900 
# 
# From -- ./inp_files/181011.got.cif
#   From: 2010.05.17/outbox.cif.g08.bks.cpg/sg12_91_cif.got.tgz:181011.got - 2010.06.03 13:09:07.
