data_PCOD9180531
_publ_section_title
;
Structure prediction by ZEFSAII (Michael W. Deem and Ramdas Pophale) SiO2 
 PCOD9180531
Probable space group: C 2/M
;
_chemical_formula_sum "Si O2"
_cell_formula_units_Z 64
_cell_length_a 30.300351
_cell_length_b 7.540727
_cell_length_c 12.747771
_cell_angle_alpha 90.000000
_cell_angle_beta 90.204522
_cell_angle_gamma 90.000000
_cell_volume 2912.677251
_symmetry_space_group_name_H-M "C 2/M"
_symmetry_group_IT_number 12
_symmetry_cell_setting 'monoclinic'
loop_
_space_group_symop_operation_xyz
x,y,z
-x,y,-z
-x,-y,-z
x,-y,z
1/2+x,1/2+y,z
1/2-x,1/2+y,-z
1/2-x,1/2-y,-z
1/2+x,1/2-y,z
loop_
_atom_site_type_symbol
_atom_site_label
_atom_site_fract_x
_atom_site_fract_y
_atom_site_fract_z
Si Si1 0.006284 0.203216 0.159849
Si Si2 0.394948 0.286988 0.877244
Si Si3 0.822553 0.711185 0.701624
Si Si4 0.109919 0.713776 0.462498
Si Si5 0.588515 0.282755 0.892745
Si Si6 0.137520 0.791426 0.685698
Si Si7 0.517258 0.786060 0.386486
Si Si8 0.233457 0.787086 0.618381
O O1 0.055544 0.281984 0.150311
O O2 0.995500 0.207024 0.283714
O O3 0.962637 0.279520 0.105234
O O4 0.010106 0.000000 0.123670
O O5 0.397034 0.500000 0.871432
O O6 0.355182 0.237803 0.799572
O O7 0.388027 0.235217 0.998293
O O8 0.819660 0.500000 0.688583
O O9 0.847211 0.781178 0.597682
O O10 0.772380 0.776531 0.697014
O O11 0.110031 0.500000 0.464744
O O12 0.107572 0.772592 0.581983
O O13 0.068444 0.766900 0.391981
O O14 0.586381 0.500000 0.887960
O O15 0.614186 0.218742 0.789613
O O16 0.185302 0.716240 0.650837
O O17 0.143552 0.000000 0.706071
O O18 0.500000 0.732585 0.500000
O O19 0.513259 0.000000 0.379106
O O20 0.250000 0.750000 0.500000
O O21 0.230077 0.000000 0.624943
#
# Coordination Sequence:
#
# PCOD9180531 Si02
#       8
#     8   8   8   8   8   8   8   8
#     4  10  19  32  53  77 101 133 173 214 255 300
#     4  10  20  35  56  78 102 137 179 215 250 302
#     4  10  20  35  53  75 106 137 167 211 262 302
#     4  10  19  32  50  72 105 141 165 203 261 307
#     4   9  19  36  54  76 106 136 170 217 264 298
#     4  10  20  34  55  79 103 134 173 214 256 309
#     4  10  20  32  46  69 104 141 171 203 251 308
#     4  10  20  34  54  79 105 135 169 209 258 310
#
# _framework density 21.972912000000001
#
# number of rings (size 3 to 8) (size 9 to 14) (size 15 to 20)
#    0.000    2.125    2.500    1.125    0.000    3.250 
#    0.000    1.875    0.000    1.500    0.000    0.000 
#    0.000    0.000    0.000    0.000    0.000    0.000 
#
# Total GULP energy -178605.879360 kJ/mol
# GULP energy per Si atom -5581.433730 kJ/mol
# Density = 2.192290 g / cm^3
# Si number density = 21.972912 Si / 1000 Ang^3
#
#
#
# Elastic Constant Matrix: (Units=GPa)
#
#
# Indices 1 2 3 4 5 6 
#
# 1 95.0164 1.0891 37.4838 0.0000 16.0050 0.0000
# 2 1.0891 52.4733 -8.9115 0.0000 -2.8269 0.0000
# 3 37.4838 -8.9115 130.0720 0.0000 15.8768 0.0000
# 4 0.0000 0.0000 0.0000 47.1225 0.0000 5.3512
# 5 16.0050 -2.8269 15.8768 0.0000 28.7964 0.0000
# 6 0.0000 0.0000 0.0000 5.3512 0.0000 8.7218
#
#
#
# Elastic Compliance Matrix: (Units=1/GPa)
#
#
# Indices 1 2 3 4 5 6 
#
# 1 0.012662 -0.001076 -0.003056 0.000000 -0.005458 0.000000
# 2 -0.001076 0.019415 0.001431 0.000000 0.001715 0.000000
# 3 -0.003056 0.001431 0.009052 0.000000 -0.003151 0.000000
# 4 0.000000 0.000000 0.000000 0.022811 0.000000 -0.013995
# 5 -0.005458 0.001715 -0.003151 0.000000 0.039666 0.000000
# 6 0.000000 0.000000 0.000000 -0.013995 0.000000 0.123242
#
#
# Mechanical properties :
#
#
# Convention : Reuss Voigt Hill
#
# Bulk Modulus (GPa) = 27.99108 37.43161 32.71134
# Shear Modulus (GPa) = 20.47854 33.45483 26.96669
#
# Velocity S-wave (km/s) = 3.05616 3.90622 3.50704
# Velocity P-wave (km/s) = 5.02196 6.11695 5.59630
#
# Compressibility (1/GPa) = 0.03572567
#
# Stress axis : x y z
#
# Youngs Moduli (GPa) = 78.97679 51.50644 110.47869
#
# Poissons Ratio (x) = 0.05542 0.33767
# Poissons Ratio (y) = 0.08497 -0.15808
# Poissons Ratio (z) = 0.24138 -0.07370
#
# Static dielectric constant tensor:
#      x y z
#    x 1.852320 0.000000 -0.023460 
#    y 0.000000 1.830420 0.000000 
#    z -0.023460 0.000000 1.783950 
# 
# From -- ./inp_files/187533.got.cif
#   From: 2010.05.17/outbox.cif.g08.bks.cpg/sg12_94_cif.got.tgz:187533.got - 2010.06.03 13:09:07.
