data_PCOD9180988
_publ_section_title
;
Structure prediction by ZEFSAII (Michael W. Deem and Ramdas Pophale) SiO2 
 PCOD9180988
Probable space group: C 2/M
;
_chemical_formula_sum "Si O2"
_cell_formula_units_Z 64
_cell_length_a 23.792873
_cell_length_b 8.174615
_cell_length_c 24.657863
_cell_angle_alpha 90.000000
_cell_angle_beta 44.044324
_cell_angle_gamma 90.000000
_cell_volume 3334.176152
_symmetry_space_group_name_H-M "C 2/M"
_symmetry_group_IT_number 12
_symmetry_cell_setting 'monoclinic'
loop_
_space_group_symop_operation_xyz
x,y,z
-x,y,-z
-x,-y,-z
x,-y,z
1/2+x,1/2+y,z
1/2-x,1/2+y,-z
1/2-x,1/2-y,-z
1/2+x,1/2-y,z
loop_
_atom_site_type_symbol
_atom_site_label
_atom_site_fract_x
_atom_site_fract_y
_atom_site_fract_z
Si Si1 0.010841 0.309899 0.429927
Si Si2 0.763758 0.191724 0.347146
Si Si3 0.261636 0.804802 0.856529
Si Si4 0.358219 0.309405 0.478555
Si Si5 0.101235 0.200075 0.666869
Si Si6 0.328852 0.696805 0.978986
Si Si7 0.186059 0.813177 0.292269
Si Si8 0.080388 0.198709 0.186156
O O1 0.986558 0.500000 0.443344
O O2 0.950876 0.208386 0.433873
O O3 0.000000 0.256867 0.500000
O O4 0.104254 0.292492 0.349753
O O5 0.696407 0.215063 0.440517
O O6 0.846678 0.250325 0.317304
O O7 0.735329 0.281285 0.312890
O O8 0.770650 0.000000 0.329413
O O9 0.263258 0.726284 0.796442
O O10 0.347114 0.764296 0.826699
O O11 0.255693 0.000000 0.854961
O O12 0.190500 0.745645 0.946670
O O13 0.334771 0.500000 0.496179
O O14 0.356152 0.246349 0.418418
O O15 0.008260 0.252917 0.734130
O O16 0.101574 0.000000 0.665424
O O17 0.331416 0.500000 0.979728
O O18 0.401551 0.748382 0.889012
O O19 0.250000 0.750000 0.000000
O O20 0.158878 0.000000 0.309608
O O21 0.083481 0.000000 0.186912
#
# Coordination Sequence:
#
# PCOD9180988 Si02
#       8
#     8   8   8   8   8   8   8   8
#     4  11  22  36  55  78 105 136 168 208 261 310
#     4  11  22  38  54  71  99 138 178 220 264 304
#     4  10  19  32  51  81 113 140 169 208 258 314
#     4  11  21  35  55  80 106 136 174 214 257 309
#     4   9  20  35  54  77 102 133 174 219 260 303
#     4   8  15  27  49  78 109 138 167 204 253 310
#     4  12  24  37  54  76 102 137 178 219 259 309
#     4   9  16  32  55  81 109 139 172 211 258 309
#
# _framework density 19.195148
#
# number of rings (size 3 to 8) (size 9 to 14) (size 15 to 20)
#    0.000    1.875    1.250    3.750    0.000    2.000 
#    0.000    3.750    0.000    0.750    0.000    5.250 
#    0.000    0.000    0.000    0.000    0.000    0.000 
#
# Total GULP energy -178618.473287 kJ/mol
# GULP energy per Si atom -5581.827290 kJ/mol
# Density = 1.915146 g / cm^3
# Si number density = 19.195148 Si / 1000 Ang^3
#
#
#
# Elastic Constant Matrix: (Units=GPa)
#
#
# Indices 1 2 3 4 5 6 
#
# 1 50.8280 -2.1253 18.7475 -0.0029 6.5246 -0.0325
# 2 -2.1253 20.3328 -1.0173 0.0110 -1.4591 0.1146
# 3 18.7475 -1.0173 103.2279 -0.0009 22.8236 -0.0030
# 4 -0.0029 0.0110 -0.0009 20.6673 -0.0001 16.8969
# 5 6.5246 -1.4591 22.8236 -0.0001 16.9643 0.0018
# 6 -0.0325 0.1146 -0.0030 16.8969 0.0018 163.9779
#
#
#
# Elastic Compliance Matrix: (Units=1/GPa)
#
#
# Indices 1 2 3 4 5 6 
#
# 1 0.021365 0.001792 -0.002960 -0.000001 -0.004080 0.000003
# 2 0.001792 0.049668 -0.000894 0.000002 0.004785 -0.000035
# 3 -0.002960 -0.000894 0.014208 0.000000 -0.018053 0.000000
# 4 -0.000001 0.000002 0.000000 0.052837 0.000001 -0.005444
# 5 -0.004080 0.004785 -0.018053 0.000001 0.085217 -0.000006
# 6 0.000003 -0.000035 0.000000 -0.005444 -0.000006 0.006659
#
#
# Mechanical properties :
#
#
# Convention : Reuss Voigt Hill
#
# Bulk Modulus (GPa) = 12.32801 22.84428 17.58615
# Shear Modulus (GPa) = 19.14855 50.90748 35.02802
#
# Velocity S-wave (km/s) = 3.16186 5.15544 4.27645
# Velocity P-wave (km/s) = 4.44592 6.88223 5.79359
#
# Compressibility (1/GPa) = 0.08111607
#
# Stress axis : x y z
#
# Youngs Moduli (GPa) = 46.80602 20.13371 70.38440
#
# Poissons Ratio (x) = -0.03609 0.20836
# Poissons Ratio (y) = -0.08389 0.06293
# Poissons Ratio (z) = 0.13856 0.01800
#
# Static dielectric constant tensor:
#      x y z
#    x 1.647540 0.000000 0.012300 
#    y 0.000000 1.660060 0.000000 
#    z 0.012300 0.000000 1.700380 
# 
# From -- ./inp_files/348554.got.cif
#   From: 2010.05.17/outbox.cif.g08.bks.cpg/sg12_175_cif.got.tgz:348554.got - 2010.06.03 13:09:07.
