data_PCOD9180075
_publ_section_title
;
Structure prediction by ZEFSAII (Michael W. Deem and Ramdas Pophale) SiO2 
 PCOD9180075
Probable space group: C 2/M
;
_chemical_formula_sum "Si O2"
_cell_formula_units_Z 56
_cell_length_a 33.344114
_cell_length_b 8.518736
_cell_length_c 11.158158
_cell_angle_alpha 90.000000
_cell_angle_beta 59.323882
_cell_angle_gamma 90.000000
_cell_volume 2725.951493
_symmetry_space_group_name_H-M "C 2/M"
_symmetry_group_IT_number 12
_symmetry_cell_setting 'monoclinic'
loop_
_space_group_symop_operation_xyz
x,y,z
-x,y,-z
-x,-y,-z
x,-y,z
1/2+x,1/2+y,z
1/2-x,1/2+y,-z
1/2-x,1/2-y,-z
1/2+x,1/2-y,z
loop_
_atom_site_type_symbol
_atom_site_label
_atom_site_fract_x
_atom_site_fract_y
_atom_site_fract_z
Si Si1 0.388220 0.312774 0.651834
Si Si2 0.469476 0.181380 0.669187
Si Si3 0.809804 0.687493 0.157378
Si Si4 0.945569 0.812401 0.333217
Si Si5 0.302111 0.686318 0.917541
Si Si6 0.634102 0.188985 0.688541
Si Si7 0.275603 0.189067 0.580762
O O1 0.384627 0.500000 0.643369
O O2 0.422997 0.276085 0.708979
O O3 0.413998 0.252017 0.493808
O O4 0.337158 0.249210 0.762457
O O5 0.500000 0.193282 0.500000
O O6 0.503101 0.244258 0.722231
O O7 0.457907 0.000000 0.707011
O O8 0.811861 0.500000 0.142214
O O9 0.823604 0.769246 0.013527
O O10 0.842165 0.734037 0.221100
O O11 0.756209 0.735550 0.268438
O O12 0.916111 0.760239 0.263085
O O13 0.948432 0.000000 0.334417
O O14 0.299562 0.500000 0.908510
O O15 0.250000 0.750000 0.000000
O O16 0.671110 0.236333 0.527390
O O17 0.631253 0.000000 0.691271
O O18 0.250000 0.250000 0.500000
O O19 0.273239 0.000000 0.592289
#
# Coordination Sequence:
#
# PCOD9180075 Si02
#       7
#     8   8   8   8   8   8   8
#     4   9  20  37  54  77 109 143 178 220 268 319
#     4   9  17  31  53  80 108 139 174 216 266 321
#     4  10  21  37  54  73 104 143 184 228 272 321
#     4  10  19  31  53  83 112 141 173 216 270 326
#     4  11  24  40  57  79 108 145 187 228 268 317
#     4   9  19  33  50  76 107 138 174 221 272 320
#     4   9  17  30  48  72 100 136 176 219 268 317
#
# _framework density 20.543286999999999
#
# number of rings (size 3 to 8) (size 9 to 14) (size 15 to 20)
#    0.000    2.429    0.000    3.000    2.000    6.857 
#    0.000    0.000    0.000    0.857    0.000    6.000 
#    0.000    0.000    0.000    0.000    0.000    0.000 
#
# Total GULP energy -156184.368981 kJ/mol
# GULP energy per Si atom -5578.013178 kJ/mol
# Density = 2.049653 g / cm^3
# Si number density = 20.543287 Si / 1000 Ang^3
#
#
#
# Elastic Constant Matrix: (Units=GPa)
#
#
# Indices 1 2 3 4 5 6 
#
# 1 88.7073 -8.4877 -6.2302 0.0000 8.9155 0.0000
# 2 -8.4877 12.5044 -3.0748 0.0000 -0.6630 0.0000
# 3 -6.2302 -3.0748 34.8953 0.0000 1.6110 0.0000
# 4 0.0000 0.0000 0.0000 16.4896 0.0000 1.7770
# 5 8.9155 -0.6630 1.6110 0.0000 18.8401 0.0000
# 6 0.0000 0.0000 0.0000 1.7770 0.0000 33.3982
#
#
#
# Elastic Compliance Matrix: (Units=1/GPa)
#
#
# Indices 1 2 3 4 5 6 
#
# 1 0.013026 0.009361 0.003433 0.000000 -0.006128 0.000000
# 2 0.009361 0.088567 0.009574 0.000000 -0.002131 0.000000
# 3 0.003433 0.009574 0.030293 0.000000 -0.003878 0.000000
# 4 0.000000 0.000000 0.000000 0.060994 0.000000 -0.003245
# 5 -0.006128 -0.002131 -0.003878 0.000000 0.056235 0.000000
# 6 0.000000 0.000000 0.000000 -0.003245 0.000000 0.030114
#
#
# Mechanical properties :
#
#
# Convention : Reuss Voigt Hill
#
# Bulk Modulus (GPa) = 5.66181 11.16907 8.41544
# Shear Modulus (GPa) = 17.04353 24.00557 20.52455
#
# Velocity S-wave (km/s) = 2.88347 3.42209 3.16426
# Velocity P-wave (km/s) = 3.72128 4.58944 4.17797
#
# Compressibility (1/GPa) = 0.17662181
#
# Stress axis : x y z
#
# Youngs Moduli (GPa) = 76.77104 11.29089 33.01120
#
# Poissons Ratio (x) = -0.10569 -0.11334
# Poissons Ratio (y) = -0.71865 -0.31605
# Poissons Ratio (z) = -0.26358 -0.10810
#
# Static dielectric constant tensor:
#      x y z
#    x 1.760170 0.000000 -0.012300 
#    y 0.000000 1.688200 0.000000 
#    z -0.012300 0.000000 1.766420 
# 
# From -- ./inp_files/186482.got.cif
#   From: 2010.05.17/outbox.cif.g08.bks.cpg/sg12_94_cif.got.tgz:186482.got - 2010.06.03 13:09:07.
