data_PCOD9180058
_publ_section_title
;
Structure prediction by ZEFSAII (Michael W. Deem and Ramdas Pophale) SiO2 
 PCOD9180058
Probable space group: C 2/M
;
_chemical_formula_sum "Si O2"
_cell_formula_units_Z 64
_cell_length_a 20.315027
_cell_length_b 8.406147
_cell_length_c 23.326629
_cell_angle_alpha 90.000000
_cell_angle_beta 128.075360
_cell_angle_gamma 90.000000
_cell_volume 3135.823569
_symmetry_space_group_name_H-M "C 2/M"
_symmetry_group_IT_number 12
_symmetry_cell_setting 'monoclinic'
loop_
_space_group_symop_operation_xyz
x,y,z
-x,y,-z
-x,-y,-z
x,-y,z
1/2+x,1/2+y,z
1/2-x,1/2+y,-z
1/2-x,1/2-y,-z
1/2+x,1/2-y,z
loop_
_atom_site_type_symbol
_atom_site_label
_atom_site_fract_x
_atom_site_fract_y
_atom_site_fract_z
Si Si1 0.161284 0.181173 0.826048
Si Si2 0.157806 0.817149 0.955480
Si Si3 0.320131 0.688555 0.863123
Si Si4 0.239159 0.191804 0.701802
Si Si5 0.092626 0.308526 0.263317
Si Si6 0.049354 0.190719 0.581863
Si Si7 0.008516 0.314181 0.681037
Si Si8 0.486092 0.307689 0.898315
O O1 0.129052 0.188243 0.873558
O O2 0.258257 0.231125 0.875209
O O3 0.102406 0.289262 0.755663
O O4 0.153923 0.000000 0.801215
O O5 0.081391 0.745995 0.951053
O O6 0.166873 0.000000 0.978103
O O7 0.250000 0.750000 0.000000
O O8 0.321707 0.500000 0.873799
O O9 0.274187 0.727161 0.778122
O O10 0.415587 0.745854 0.905731
O O11 0.308506 0.222637 0.690287
O O12 0.145801 0.246308 0.637193
O O13 0.238219 0.000000 0.711116
O O14 0.079680 0.500000 0.253432
O O15 0.050403 0.235558 0.183918
O O16 0.051570 0.251355 0.300488
O O17 0.004605 0.232391 0.617460
O O18 0.000000 0.252978 0.500000
O O19 0.053270 0.000000 0.579222
O O20 0.991737 0.500000 0.664512
O O21 0.490026 0.500000 0.904894
#
# Coordination Sequence:
#
# PCOD9180058 Si02
#       8
#     8   8   8   8   8   8   8   8
#     4  11  21  35  55  79 108 140 176 218 265 318
#     4  10  22  38  56  78 107 144 180 217 264 316
#     4  10  19  31  53  82 108 134 173 222 267 310
#     4   9  17  32  52  74 105 141 176 215 261 314
#     4   9  18  31  51  79 105 134 174 221 267 309
#     4  10  21  36  54  76 106 146 184 218 264 322
#     4  11  21  33  53  81 108 135 176 227 270 310
#     4   9  18  34  53  77 108 140 174 216 264 313
#
# _framework density 20.409312
#
# number of rings (size 3 to 8) (size 9 to 14) (size 15 to 20)
#    0.000    2.125    2.500    1.125    0.000    2.750 
#    0.000    1.250    0.000    3.750    0.000    0.000 
#    0.000    0.000    0.000    0.000    0.000    0.000 
#
# Total GULP energy -178559.141583 kJ/mol
# GULP energy per Si atom -5579.973174 kJ/mol
# Density = 2.036286 g / cm^3
# Si number density = 20.409312 Si / 1000 Ang^3
#
#
#
# Elastic Constant Matrix: (Units=GPa)
#
#
# Indices 1 2 3 4 5 6 
#
# 1 171.6263 7.9024 33.7078 0.0000 4.2394 0.0000
# 2 7.9024 2.8305 -0.1263 0.0000 3.4434 0.0000
# 3 33.7078 -0.1263 64.0237 0.0000 -3.1109 0.0000
# 4 0.0000 0.0000 0.0000 16.2489 0.0000 -0.2912
# 5 4.2394 3.4434 -3.1109 0.0000 23.8206 0.0000
# 6 0.0000 0.0000 0.0000 -0.2912 0.0000 22.6487
#
#
#
# Elastic Compliance Matrix: (Units=1/GPa)
#
#
# Indices 1 2 3 4 5 6 
#
# 1 0.007651 -0.023353 -0.004002 0.000000 0.001492 0.000000
# 2 -0.023353 0.500263 0.010034 0.000000 -0.066849 0.000000
# 3 -0.004002 0.010034 0.017823 0.000000 0.001589 0.000000
# 4 0.000000 0.000000 0.000000 0.061557 0.000000 0.000791
# 5 0.001492 -0.066849 0.001589 0.000000 0.051586 0.000000
# 6 0.000000 0.000000 0.000000 0.000791 0.000000 0.044163
#
#
# Mechanical properties :
#
#
# Convention : Reuss Voigt Hill
#
# Bulk Modulus (GPa) = 2.03627 35.71650 18.87639
# Shear Modulus (GPa) = 5.67290 25.67675 15.67482
#
# Velocity S-wave (km/s) = 1.66901 3.55080 2.77433
# Velocity P-wave (km/s) = 2.17118 5.86081 4.41945
#
# Compressibility (1/GPa) = 0.49109392
#
# Stress axis : x y z
#
# Youngs Moduli (GPa) = 130.70167 1.99895 56.10694
#
# Poissons Ratio (x) = 0.04668 0.22453
# Poissons Ratio (y) = 3.05234 -0.56296
# Poissons Ratio (z) = 0.52304 -0.02006
#
# Static dielectric constant tensor:
#      x y z
#    x 1.784950 0.000000 0.008380 
#    y 0.000000 1.716090 0.000000 
#    z 0.008380 0.000000 1.728500 
# 
# From -- ./inp_files/346269.got.cif
#   From: 2010.05.17/outbox.cif.g08.bks.cpg/sg12_174_cif.got.tgz:346269.got - 2010.06.03 13:09:07.
