data_PCOD9180036
_publ_section_title
;
Structure prediction by ZEFSAII (Michael W. Deem and Ramdas Pophale) SiO2 
 PCOD9180036
Probable space group: C 2/M
;
_chemical_formula_sum "Si O2"
_cell_formula_units_Z 48
_cell_length_a 16.350619
_cell_length_b 7.458092
_cell_length_c 14.895749
_cell_angle_alpha 90.000000
_cell_angle_beta 102.751524
_cell_angle_gamma 90.000000
_cell_volume 1771.653292
_symmetry_space_group_name_H-M "C 2/M"
_symmetry_group_IT_number 12
_symmetry_cell_setting 'monoclinic'
loop_
_space_group_symop_operation_xyz
x,y,z
-x,y,-z
-x,-y,-z
x,-y,z
1/2+x,1/2+y,z
1/2-x,1/2+y,-z
1/2-x,1/2-y,-z
1/2+x,1/2-y,z
loop_
_atom_site_type_symbol
_atom_site_label
_atom_site_fract_x
_atom_site_fract_y
_atom_site_fract_z
Si Si1 0.294475 0.207186 0.885367
Si Si2 0.571020 0.220105 0.948091
Si Si3 0.056847 0.792399 0.436010
Si Si4 0.683553 0.782887 0.607570
Si Si5 0.633109 0.283148 0.279855
Si Si6 0.613590 0.203967 0.772028
O O1 0.362968 0.217420 0.820985
O O2 0.210433 0.301344 0.831630
O O3 0.272825 0.000000 0.891779
O O4 0.341089 0.275215 0.985046
O O5 0.564512 0.286217 0.844334
O O6 0.570639 0.000000 0.945622
O O7 0.500000 0.277878 0.000000
O O8 0.148119 0.786287 0.505656
O O9 0.065896 0.720020 0.337504
O O10 0.000000 0.705346 0.500000
O O11 0.033136 0.000000 0.421771
O O12 0.776506 0.727277 0.657625
O O13 0.623298 0.717755 0.674971
O O14 0.681972 0.000000 0.605965
O O15 0.630547 0.500000 0.276924
O O16 0.586430 0.000000 0.754793
#
# Coordination Sequence:
#
# PCOD9180036 Si02
#       6
#     8   8   8   8   8   8
#     4  10  19  31  53  80  99 125 169 212 245 285
#     4   9  18  32  50  74 104 136 168 202 243 293
#     4  10  21  35  51  73 102 134 163 198 250 302
#     4   9  18  32  52  75  96 128 170 206 243 287
#     4   9  19  36  54  72  99 133 165 201 250 299
#     4   9  18  34  54  74 101 134 164 202 252 297
#
# _framework density 27.093335
#
# number of rings (size 3 to 8) (size 9 to 14) (size 15 to 20)
#    0.000    2.667    0.000    2.500    0.000    5.000 
#    0.000    2.500    0.000    4.500    0.000    0.000 
#    0.000    0.000    0.000    0.000    0.000    0.000 
#
# Total GULP energy -134315.711541 kJ/mol
# GULP energy per Si atom -5596.487981 kJ/mol
# Density = 2.703167 g / cm^3
# Si number density = 27.093335 Si / 1000 Ang^3
#
#
#
# Elastic Constant Matrix: (Units=GPa)
#
#
# Indices 1 2 3 4 5 6 
#
# 1 76.7862 19.0173 24.1828 0.0000 -17.8528 0.0000
# 2 19.0173 110.8407 9.1040 0.0000 2.4199 0.0000
# 3 24.1828 9.1040 188.7767 0.0000 -24.5583 0.0000
# 4 0.0000 0.0000 0.0000 12.5262 0.0000 3.2269
# 5 -17.8528 2.4199 -24.5583 0.0000 67.0659 0.0000
# 6 0.0000 0.0000 0.0000 3.2269 0.0000 14.4061
#
#
#
# Elastic Compliance Matrix: (Units=1/GPa)
#
#
# Indices 1 2 3 4 5 6 
#
# 1 0.014895 -0.002525 -0.001322 0.000000 0.003572 0.000000
# 2 -0.002525 0.009503 -0.000280 0.000000 -0.001118 0.000000
# 3 -0.001322 -0.000280 0.005708 0.000000 0.001748 0.000000
# 4 0.000000 0.000000 0.000000 0.084722 0.000000 -0.018977
# 5 0.003572 -0.001118 0.001748 0.000000 0.016542 0.000000
# 6 0.000000 0.000000 0.000000 -0.018977 0.000000 0.073666
#
#
# Mechanical properties :
#
#
# Convention : Reuss Voigt Hill
#
# Bulk Modulus (GPa) = 45.76320 53.44576 49.60448
# Shear Modulus (GPa) = 22.66823 40.40627 31.53725
#
# Velocity S-wave (km/s) = 2.89567 3.86602 3.41548
# Velocity P-wave (km/s) = 5.30165 6.30060 5.82258
#
# Compressibility (1/GPa) = 0.02185162
#
# Stress axis : x y z
#
# Youngs Moduli (GPa) = 67.13518 105.23428 175.20754
#
# Poissons Ratio (x) = 0.26572 0.23156
# Poissons Ratio (y) = 0.16952 0.04909
# Poissons Ratio (z) = 0.08873 0.02949
#
# Static dielectric constant tensor:
#      x y z
#    x 2.224610 0.000000 -0.051870 
#    y 0.000000 1.963670 0.000000 
#    z -0.051870 0.000000 2.077180 
# 
# From -- ./inp_files/221557.got.cif
#   From: 2010.05.17/outbox.cif.g08.bks.cpg/sg12_111_cif.got.tgz:221557.got - 2010.06.03 13:09:07.
