data_PCOD9180615
_publ_section_title
;
Structure prediction by ZEFSAII (Michael W. Deem and Ramdas Pophale) SiO2 
 PCOD9180615
Probable space group: C 2/M
;
_chemical_formula_sum "Si O2"
_cell_formula_units_Z 48
_cell_length_a 24.014865
_cell_length_b 13.528951
_cell_length_c 12.993335
_cell_angle_alpha 90.000000
_cell_angle_beta 31.273536
_cell_angle_gamma 90.000000
_cell_volume 2191.474127
_symmetry_space_group_name_H-M "C 2/M"
_symmetry_group_IT_number 12
_symmetry_cell_setting 'monoclinic'
loop_
_space_group_symop_operation_xyz
x,y,z
-x,y,-z
-x,-y,-z
x,-y,z
1/2+x,1/2+y,z
1/2-x,1/2+y,-z
1/2-x,1/2-y,-z
1/2+x,1/2-y,z
loop_
_atom_site_type_symbol
_atom_site_label
_atom_site_fract_x
_atom_site_fract_y
_atom_site_fract_z
Si Si1 0.748683 0.386364 0.896631
Si Si2 0.631124 0.391271 0.872090
Si Si3 0.211205 0.613276 0.558756
Si Si4 0.512419 0.887117 0.722427
Si Si5 0.406061 0.177284 0.076226
Si Si6 0.923030 0.233273 0.706674
O O1 0.774095 0.500000 0.885301
O O2 0.643220 0.345927 0.122369
O O3 0.722263 0.385948 0.816718
O O4 0.839741 0.308619 0.783376
O O5 0.580289 0.500000 0.964829
O O6 0.682177 0.384391 0.677891
O O7 0.565958 0.291362 0.991509
O O8 0.194866 0.500000 0.616122
O O9 0.198007 0.672459 0.686039
O O10 0.115483 0.637393 0.630061
O O11 0.493024 0.805337 0.668079
O O12 0.523315 0.000000 0.667464
O O13 0.410833 0.878984 0.961445
O O14 0.500000 0.134847 0.000000
O O15 0.000000 0.186565 0.500000
#
# Coordination Sequence:
#
# PCOD9180615 Si02
#       6
#     8   8   8   8   8   8
#     4  10  22  39  58  84 115 147 184 229 280 334
#     4  10  19  34  53  73 103 141 177 215 262 319
#     4   9  18  31  52  79 104 135 172 215 269 321
#     4  10  19  33  53  78 107 135 171 221 274 323
#     4  10  19  32  50  76 105 138 172 216 264 316
#     4  11  22  37  60  86 111 146 188 231 278 331
#
# _framework density 21.903065000000002
#
# number of rings (size 3 to 8) (size 9 to 14) (size 15 to 20)
#    0.000    2.000    1.667    2.500    0.000    5.333 
#    0.000    0.000    0.000    0.000    0.000    0.000 
#    0.000    0.000    0.000    0.000    0.000    0.000 
#
# Total GULP energy -133895.979442 kJ/mol
# GULP energy per Si atom -5578.999143 kJ/mol
# Density = 2.185321 g / cm^3
# Si number density = 21.903065 Si / 1000 Ang^3
#
#
#
# Elastic Constant Matrix: (Units=GPa)
#
#
# Indices 1 2 3 4 5 6 
#
# 1 23.8945 -4.5609 -10.9603 0.0000 7.0374 0.0000
# 2 -4.5609 81.4597 11.9583 0.0000 -0.2321 0.0000
# 3 -10.9603 11.9583 86.0317 0.0000 21.0298 0.0000
# 4 0.0000 0.0000 0.0000 13.6522 0.0000 -2.7660
# 5 7.0374 -0.2321 21.0298 0.0000 23.9452 0.0000
# 6 0.0000 0.0000 0.0000 -2.7660 0.0000 21.9734
#
#
#
# Elastic Compliance Matrix: (Units=1/GPa)
#
#
# Indices 1 2 3 4 5 6 
#
# 1 0.057298 0.001017 0.014354 0.000000 -0.029436 0.000000
# 2 0.001017 0.012633 -0.002016 0.000000 0.001594 0.000000
# 3 0.014354 -0.002016 0.018806 0.000000 -0.020754 0.000000
# 4 0.000000 0.000000 0.000000 0.075165 0.000000 0.009462
# 5 -0.029436 0.001594 -0.020754 0.000000 0.068656 0.000000
# 6 0.000000 0.000000 0.000000 0.009462 0.000000 0.046700
#
#
# Mechanical properties :
#
#
# Convention : Reuss Voigt Hill
#
# Bulk Modulus (GPa) = 8.66198 20.47334 14.56766
# Shear Modulus (GPa) = 17.18024 24.91074 21.04549
#
# Velocity S-wave (km/s) = 2.80371 3.37607 3.10312
# Velocity P-wave (km/s) = 3.80057 4.95628 4.41639
#
# Compressibility (1/GPa) = 0.11544700
#
# Stress axis : x y z
#
# Youngs Moduli (GPa) = 17.45248 79.15479 53.17535
#
# Poissons Ratio (x) = -0.08051 -0.76327
# Poissons Ratio (y) = -0.01775 0.10721
# Poissons Ratio (z) = -0.25051 0.15959
#
# Static dielectric constant tensor:
#      x y z
#    x 1.796830 0.000000 -0.014420 
#    y 0.000000 1.798870 0.000000 
#    z -0.014420 0.000000 1.888490 
# 
# From -- ./inp_files/142840.got.cif
#   From: 2010.05.17/outbox.cif.g08.bks.cpg/sg12_72_cif.got.tgz:142840.got - 2010.06.03 13:09:07.
