data_PCOD9180635
_publ_section_title
;
Structure prediction by ZEFSAII (Michael W. Deem and Ramdas Pophale) SiO2 
 PCOD9180635
Probable space group: C 2/M
;
_chemical_formula_sum "Si O2"
_cell_formula_units_Z 56
_cell_length_a 30.208398
_cell_length_b 13.902644
_cell_length_c 13.520054
_cell_angle_alpha 90.000000
_cell_angle_beta 23.730644
_cell_angle_gamma 90.000000
_cell_volume 2285.082647
_symmetry_space_group_name_H-M "C 2/M"
_symmetry_group_IT_number 12
_symmetry_cell_setting 'monoclinic'
loop_
_space_group_symop_operation_xyz
x,y,z
-x,y,-z
-x,-y,-z
x,-y,z
1/2+x,1/2+y,z
1/2-x,1/2+y,-z
1/2-x,1/2-y,-z
1/2+x,1/2-y,z
loop_
_atom_site_type_symbol
_atom_site_label
_atom_site_fract_x
_atom_site_fract_y
_atom_site_fract_z
Si Si1 0.281239 0.110545 0.919006
Si Si2 0.557786 0.180789 0.783175
Si Si3 0.107883 0.606300 0.004415
Si Si4 0.121256 0.757345 0.144709
Si Si5 0.763876 0.607370 0.465425
Si Si6 0.944656 0.893000 0.237124
Si Si7 0.081133 0.105932 0.483353
O O1 0.219413 0.165301 0.956722
O O2 0.186832 0.110969 0.197655
O O3 0.313497 0.000000 0.834458
O O4 0.371679 0.182764 0.777973
O O5 0.685152 0.178503 0.556720
O O6 0.505892 0.286344 0.870958
O O7 0.500000 0.140043 0.000000
O O8 0.519400 0.119079 0.768975
O O9 0.213992 0.500000 0.540369
O O10 0.175287 0.615279 0.764857
O O11 0.137025 0.690271 0.018247
O O12 0.009122 0.815967 0.360767
O O13 0.872990 0.500000 0.992369
O O14 0.638350 0.609778 0.686230
O O15 0.890863 0.888694 0.457230
O O16 0.997955 0.000000 0.127111
O O17 0.030398 0.000000 0.570702
#
# Coordination Sequence:
#
# PCOD9180635 Si02
#       7
#     8   8   8   8   8   8   8
#     4  10  22  38  59  87 113 144 190 237 278 331
#     4  10  19  32  50  77 107 141 175 217 272 323
#     4  10  19  33  53  79 106 136 178 226 275 327
#     4  11  20  34  59  86 112 144 181 231 289 331
#     4   9  18  32  53  78 103 135 180 229 265 312
#     4  10  19  32  51  77 106 140 181 222 266 319
#     4  10  20  37  60  86 113 146 192 237 274 327
#
# _framework density 24.506772000000002
#
# number of rings (size 3 to 8) (size 9 to 14) (size 15 to 20)
#    0.000    2.000    1.429    3.000    0.000    5.429 
#    0.000    0.000    0.000   18.000    0.000    0.000 
#    0.000    0.000    0.000    0.000    0.000    0.000 
#
# Total GULP energy -156329.541514 kJ/mol
# GULP energy per Si atom -5583.197911 kJ/mol
# Density = 2.445099 g / cm^3
# Si number density = 24.506772 Si / 1000 Ang^3
#
#
#
# Elastic Constant Matrix: (Units=GPa)
#
#
# Indices 1 2 3 4 5 6 
#
# 1 92.6342 45.9047 10.0292 0.0000 -9.7160 0.0000
# 2 45.9047 184.5838 26.9457 0.0000 -7.8921 0.0000
# 3 10.0292 26.9457 31.6413 0.0000 -6.5184 0.0000
# 4 0.0000 0.0000 0.0000 28.1664 0.0000 -2.1191
# 5 -9.7160 -7.8921 -6.5184 0.0000 26.7715 0.0000
# 6 0.0000 0.0000 0.0000 -2.1191 0.0000 43.1343
#
#
#
# Elastic Compliance Matrix: (Units=1/GPa)
#
#
# Indices 1 2 3 4 5 6 
#
# 1 0.012686 -0.002881 -0.000836 0.000000 0.003551 0.000000
# 2 -0.002881 0.006849 -0.004968 0.000000 -0.000236 0.000000
# 3 -0.000836 -0.004968 0.037623 0.000000 0.007393 0.000000
# 4 0.000000 0.000000 0.000000 0.035635 0.000000 0.001751
# 5 0.003551 -0.000236 0.007393 0.000000 0.040372 0.000000
# 6 0.000000 0.000000 0.000000 0.001751 0.000000 0.023269
#
#
# Mechanical properties :
#
#
# Convention : Reuss Voigt Hill
#
# Bulk Modulus (GPa) = 25.13336 52.73538 38.93437
# Shear Modulus (GPa) = 26.72828 34.67977 30.70403
#
# Velocity S-wave (km/s) = 3.30608 3.76588 3.54344
# Velocity P-wave (km/s) = 4.98513 6.36196 5.71516
#
# Compressibility (1/GPa) = 0.03978776
#
# Stress axis : x y z
#
# Youngs Moduli (GPa) = 78.82828 146.00115 26.57939
#
# Poissons Ratio (x) = 0.42063 0.02222
# Poissons Ratio (y) = 0.22711 0.13205
# Poissons Ratio (z) = 0.06589 0.72538
#
# Static dielectric constant tensor:
#      x y z
#    x 1.958050 0.000000 -0.057360 
#    y 0.000000 1.979170 0.000000 
#    z -0.057360 0.000000 2.074940 
# 
# From -- ./inp_files/250996.got.cif
#   From: 2010.05.17/outbox.cif.g08.bks.cpg/sg12_126_cif.got.tgz:250996.got - 2010.06.03 13:09:07.
