data_PCOD9180122
_publ_section_title
;
Structure prediction by ZEFSAII (Michael W. Deem and Ramdas Pophale) SiO2 
 PCOD9180122
Probable space group: C 2/M
;
_chemical_formula_sum "Si O2"
_cell_formula_units_Z 64
_cell_length_a 25.180944
_cell_length_b 20.514949
_cell_length_c 19.032970
_cell_angle_alpha 90.000000
_cell_angle_beta 161.594582
_cell_angle_gamma 90.000000
_cell_volume 3104.394570
_symmetry_space_group_name_H-M "C 2/M"
_symmetry_group_IT_number 12
_symmetry_cell_setting 'monoclinic'
loop_
_space_group_symop_operation_xyz
x,y,z
-x,y,-z
-x,-y,-z
x,-y,z
1/2+x,1/2+y,z
1/2-x,1/2+y,-z
1/2-x,1/2-y,-z
1/2+x,1/2-y,z
loop_
_atom_site_type_symbol
_atom_site_label
_atom_site_fract_x
_atom_site_fract_y
_atom_site_fract_z
Si Si1 0.900161 0.224267 0.584777
Si Si2 0.379506 0.802493 0.032731
Si Si3 0.420626 0.073522 0.149720
Si Si4 0.554405 0.713525 0.147733
Si Si5 0.696563 0.076829 0.730988
Si Si6 0.941662 0.258340 0.350220
Si Si7 0.218025 0.922363 0.320547
Si Si8 0.809645 0.869642 0.017467
O O1 0.710120 0.239669 0.366490
O O2 0.014293 0.277238 0.767658
O O3 0.909326 0.240191 0.514101
O O4 0.004356 0.158470 0.732235
O O5 0.428935 0.877741 0.093735
O O6 0.410080 0.744714 0.015151
O O7 0.181207 0.802945 0.796983
O O8 0.597751 0.077427 0.413743
O O9 0.394646 0.000000 0.094109
O O10 0.276578 0.091832 0.026514
O O11 0.612293 0.637145 0.223765
O O12 0.500000 0.724912 0.000000
O O13 0.500000 0.091185 0.500000
O O14 0.757720 0.100224 0.730842
O O15 0.705188 0.000000 0.733631
O O16 0.802062 0.094950 0.932514
O O17 0.000000 0.277505 0.500000
O O18 0.820923 0.310506 0.161242
O O19 0.158862 0.000000 0.249883
#
# Coordination Sequence:
#
# PCOD9180122 Si02
#       8
#     8   8   8   8   8   8   8   8
#     4  11  22  38  57  89 121 158 200 261 311 356
#     4  11  22  40  60  90 121 162 211 261 305 365
#     4  11  20  36  63  91 123 164 208 254 315 377
#     4  12  26  41  63  88 122 168 212 260 310 367
#     4  10  19  31  53  89 131 170 202 235 294 383
#     4  11  21  34  60  90 121 157 196 254 314 364
#     4  10  22  38  57  88 133 175 207 241 297 381
#     4  11  19  32  57  89 127 159 197 252 308 366
#
# _framework density 20.615935
#
# number of rings (size 3 to 8) (size 9 to 14) (size 15 to 20)
#    0.000    1.125    5.000    2.625    5.250    0.250 
#    0.000    0.000    0.000    2.250    0.000    0.000 
#    0.000    0.000    0.000    0.000    0.000    0.000 
#
# Total GULP energy -178389.921549 kJ/mol
# GULP energy per Si atom -5574.685048 kJ/mol
# Density = 2.056901 g / cm^3
# Si number density = 20.615935 Si / 1000 Ang^3
#
#
#
# Elastic Constant Matrix: (Units=GPa)
#
#
# Indices 1 2 3 4 5 6 
#
# 1 77.1139 33.4971 -6.3861 0.0001 -5.8318 0.0001
# 2 33.4971 110.8803 20.6674 0.0000 -4.1720 0.0000
# 3 -6.3861 20.6674 54.4458 0.0002 6.9954 0.0002
# 4 0.0001 0.0000 0.0002 23.9178 0.0002 -5.5245
# 5 -5.8318 -4.1720 6.9954 0.0002 22.8304 0.0001
# 6 0.0001 0.0000 0.0002 -5.5245 0.0001 17.0617
#
#
#
# Elastic Compliance Matrix: (Units=1/GPa)
#
#
# Indices 1 2 3 4 5 6 
#
# 1 0.015743 -0.005361 0.003634 0.000000 0.001928 0.000000
# 2 -0.005361 0.011735 -0.005395 0.000000 0.002428 0.000000
# 3 0.003634 -0.005395 0.021703 0.000000 -0.006708 0.000000
# 4 0.000000 0.000000 0.000000 0.045190 0.000000 0.014632
# 5 0.001928 0.002428 -0.006708 0.000000 0.046793 0.000000
# 6 0.000000 0.000000 0.000000 0.014632 0.000000 0.063349
#
#
# Mechanical properties :
#
#
# Convention : Reuss Voigt Hill
#
# Bulk Modulus (GPa) = 28.62334 37.55518 33.08926
# Shear Modulus (GPa) = 21.70108 25.73941 23.72025
#
# Velocity S-wave (km/s) = 3.24796 3.53727 3.39570
# Velocity P-wave (km/s) = 5.28960 5.91094 5.60888
#
# Compressibility (1/GPa) = 0.03493653
#
# Stress axis : x y z
#
# Youngs Moduli (GPa) = 63.51934 85.21309 46.07657
#
# Poissons Ratio (x) = 0.45681 -0.16743
# Poissons Ratio (y) = 0.34051 0.24860
# Poissons Ratio (z) = -0.23081 0.45976
#
# Static dielectric constant tensor:
#      x y z
#    x 1.790960 0.000000 0.023700 
#    y 0.000000 1.786340 0.000000 
#    z 0.023700 0.000000 1.746230 
# 
# From -- ./inp_files/290951.got.cif
#   From: 2010.05.17/outbox.cif.g08.bks.cpg/sg12_146_cif.got.tgz:290951.got - 2010.06.03 13:09:07.
