data_PCOD9180945
_publ_section_title
;
Structure prediction by ZEFSAII (Michael W. Deem and Ramdas Pophale) SiO2 
 PCOD9180945
Probable space group: C 2/M
;
_chemical_formula_sum "Si O2"
_cell_formula_units_Z 64
_cell_length_a 15.454592
_cell_length_b 14.964504
_cell_length_c 22.699998
_cell_angle_alpha 90.000000
_cell_angle_beta 138.365070
_cell_angle_gamma 90.000000
_cell_volume 3487.896058
_symmetry_space_group_name_H-M "C 2/M"
_symmetry_group_IT_number 12
_symmetry_cell_setting 'monoclinic'
loop_
_space_group_symop_operation_xyz
x,y,z
-x,y,-z
-x,-y,-z
x,-y,z
1/2+x,1/2+y,z
1/2-x,1/2+y,-z
1/2-x,1/2-y,-z
1/2+x,1/2-y,z
loop_
_atom_site_type_symbol
_atom_site_label
_atom_site_fract_x
_atom_site_fract_y
_atom_site_fract_z
Si Si1 0.834123 0.175463 0.575678
Si Si2 0.784102 0.396060 0.100540
Si Si3 0.748812 0.250498 0.283304
Si Si4 0.392033 0.603087 0.094040
Si Si5 0.037718 0.895361 0.586971
Si Si6 0.497975 0.248161 0.230460
Si Si7 0.342209 0.601098 0.845629
Si Si8 0.344333 0.902827 0.419133
O O1 0.750000 0.250000 0.500000
O O2 0.917800 0.123503 0.569673
O O3 0.930658 0.221258 0.673104
O O4 0.731134 0.114264 0.558414
O O5 0.824018 0.500000 0.117082
O O6 0.667577 0.392021 0.089119
O O7 0.898982 0.333925 0.182611
O O8 0.728601 0.368748 0.008584
O O9 0.610054 0.223412 0.240032
O O10 0.732547 0.312277 0.217690
O O11 0.804026 0.321974 0.357742
O O12 0.845561 0.167498 0.331202
O O13 0.373754 0.500000 0.103174
O O14 0.422105 0.667436 0.163634
O O15 0.518946 0.604543 0.116050
O O16 0.000000 0.871661 0.500000
O O17 0.071940 0.000000 0.605236
O O18 0.289031 0.500000 0.805484
O O19 0.500000 0.902779 0.500000
O O20 0.301085 0.000000 0.374511
#
# Coordination Sequence:
#
# PCOD9180945 Si02
#       8
#     8   8   8   8   8   8   8   8
#     4  11  22  38  58  80 109 144 183 227 274 323
#     4  10  19  32  51  78 110 139 171 214 264 320
#     4  10  19  34  52  73 104 140 177 221 265 312
#     4   9  18  33  54  78 105 137 173 217 267 318
#     4  11  23  38  55  74 102 144 189 228 268 318
#     4  10  21  34  54  78 105 140 178 220 267 320
#     4   9  17  30  51  78 105 134 168 209 265 324
#     4  10  20  34  55  81 107 136 174 225 280 328
#
# _framework density 18.349170999999998
#
# number of rings (size 3 to 8) (size 9 to 14) (size 15 to 20)
#    0.000    2.000    0.000    4.875    0.000    5.500 
#    0.000    2.500    0.000    0.000    0.000    0.000 
#    0.000   14.000    0.000    0.000    0.000    0.000 
#
# Total GULP energy -178405.800110 kJ/mol
# GULP energy per Si atom -5575.181253 kJ/mol
# Density = 1.830741 g / cm^3
# Si number density = 18.349171 Si / 1000 Ang^3
#
#
#
# Elastic Constant Matrix: (Units=GPa)
#
#
# Indices 1 2 3 4 5 6 
#
# 1 65.3968 21.7338 29.9162 0.0000 -2.8039 0.0000
# 2 21.7338 91.6766 44.7740 0.0000 -0.7880 0.0000
# 3 29.9162 44.7740 84.8016 0.0000 -13.9957 0.0000
# 4 0.0000 0.0000 0.0000 -5.0938 0.0000 -2.0182
# 5 -2.8039 -0.7880 -13.9957 0.0000 27.2177 0.0000
# 6 0.0000 0.0000 0.0000 -2.0182 0.0000 23.9251
#
#
#
# Elastic Compliance Matrix: (Units=1/GPa)
#
#
# Indices 1 2 3 4 5 6 
#
# 1 0.018442 -0.001495 -0.005912 0.000000 -0.001183 0.000000
# 2 -0.001495 0.015207 -0.008146 0.000000 -0.003902 0.000000
# 3 -0.005912 -0.008146 0.019712 0.000000 0.009291 0.000000
# 4 0.000000 0.000000 0.000000 -0.189969 0.000000 -0.016025
# 5 -0.001183 -0.003902 0.009291 0.000000 0.041284 0.000000
# 6 0.000000 0.000000 0.000000 -0.016025 0.000000 0.040445
#
#
# Mechanical properties :
#
#
# Convention : Reuss Voigt Hill
#
# Bulk Modulus (GPa) = 44.93204 48.30257 46.61730
# Shear Modulus (GPa) = -305.71035 18.90654 -143.40191
#
# Velocity S-wave (km/s) = -12.92164 3.21343 -8.84994
# Velocity P-wave (km/s) = 14.07426 6.33636 8.88638
#
# Compressibility (1/GPa) = 0.02225583
#
# Stress axis : x y z
#
# Youngs Moduli (GPa) = 54.22467 65.75869 50.72999
#
# Poissons Ratio (x) = 0.09830 0.29991
# Poissons Ratio (y) = 0.08106 0.41324
# Poissons Ratio (z) = 0.32057 0.53566
#
# Static dielectric constant tensor:
#      x y z
#    x 1.660090 0.000000 0.005830 
#    y 0.000000 1.624780 0.000000 
#    z 0.005830 0.000000 1.653750 
# 
# From -- ./inp_files/340185.got.cif
#   From: 2010.05.17/outbox.cif.g08.bks.cpg/sg12_171_cif.got.tgz:340185.got - 2010.06.03 13:09:07.
