data_PCOD9180156
_publ_section_title
;
Structure prediction by ZEFSAII (Michael W. Deem and Ramdas Pophale) SiO2 
 PCOD9180156
Probable space group: C 2/M
;
_chemical_formula_sum "Si O2"
_cell_formula_units_Z 64
_cell_length_a 18.574547
_cell_length_b 14.272505
_cell_length_c 14.374641
_cell_angle_alpha 90.000000
_cell_angle_beta 124.742367
_cell_angle_gamma 90.000000
_cell_volume 3131.416346
_symmetry_space_group_name_H-M "C 2/M"
_symmetry_group_IT_number 12
_symmetry_cell_setting 'monoclinic'
loop_
_space_group_symop_operation_xyz
x,y,z
-x,y,-z
-x,-y,-z
x,-y,z
1/2+x,1/2+y,z
1/2-x,1/2+y,-z
1/2-x,1/2-y,-z
1/2+x,1/2-y,z
loop_
_atom_site_type_symbol
_atom_site_label
_atom_site_fract_x
_atom_site_fract_y
_atom_site_fract_z
Si Si1 0.192908 0.613762 0.017112
Si Si2 0.278159 0.887294 0.165501
Si Si3 0.992099 0.391759 0.834574
Si Si4 0.933207 0.268846 0.371840
Si Si5 0.933129 0.778017 0.675085
Si Si6 0.823319 0.889127 0.730206
Si Si7 0.702592 0.266986 0.583277
Si Si8 0.186848 0.391034 0.213668
O O1 0.198724 0.500000 0.026566
O O2 0.221882 0.647130 0.140572
O O3 0.237444 0.642554 0.952981
O O4 0.090180 0.637112 0.931792
O O5 0.367432 0.839741 0.270066
O O6 0.197031 0.868789 0.175884
O O7 0.291285 0.000000 0.175605
O O8 0.995229 0.500000 0.807216
O O9 0.957656 0.324537 0.729041
O O10 0.918934 0.385930 0.861330
O O11 0.869422 0.210806 0.391183
O O12 0.000000 0.311925 0.500000
O O13 0.987321 0.205766 0.338584
O O14 0.908950 0.843238 0.745321
O O15 0.845446 0.779799 0.548625
O O16 0.738662 0.838225 0.622364
O O17 0.823975 0.000000 0.716343
O O18 0.779979 0.334245 0.673064
O O19 0.210688 0.500000 0.241102
#
# Coordination Sequence:
#
# PCOD9180156 Si02
#       8
#     8   8   8   8   8   8   8   8
#     4   9  17  32  55  83 113 142 175 223 288 345
#     4   9  17  32  53  79 110 140 178 226 276 334
#     4  10  19  31  54  85 117 143 174 223 287 346
#     4   9  19  33  52  74 110 145 182 231 275 320
#     4  11  20  35  56  80 112 150 181 229 279 331
#     4  10  21  35  52  76 110 148 185 224 268 327
#     4  10  21  37  53  82 111 143 189 232 274 330
#     4  10  20  34  55  82 114 145 178 229 284 334
#
# _framework density 20.438036
#
# number of rings (size 3 to 8) (size 9 to 14) (size 15 to 20)
#    0.000    2.250    2.500    0.750    0.000    2.750 
#    0.000    5.625    0.000    2.250    0.000    1.750 
#    0.000    0.000    0.000    0.000    0.000    0.000 
#
# Total GULP energy -178167.239926 kJ/mol
# GULP energy per Si atom -5567.726248 kJ/mol
# Density = 2.039152 g / cm^3
# Si number density = 20.438036 Si / 1000 Ang^3
#
#
#
# Elastic Constant Matrix: (Units=GPa)
#
#
# Indices 1 2 3 4 5 6 
#
# 1 107.9007 26.0391 17.0708 0.0000 -24.4792 0.0000
# 2 26.0391 61.7648 28.0155 0.0000 -10.2114 0.0000
# 3 17.0708 28.0155 83.6177 0.0000 -21.0485 0.0000
# 4 0.0000 0.0000 0.0000 6.3067 0.0000 -2.5464
# 5 -24.4792 -10.2114 -21.0485 0.0000 28.3730 0.0000
# 6 0.0000 0.0000 0.0000 -2.5464 0.0000 19.3330
#
#
#
# Elastic Compliance Matrix: (Units=1/GPa)
#
#
# Indices 1 2 3 4 5 6 
#
# 1 0.012372 -0.004181 0.001455 0.000000 0.010248 0.000000
# 2 -0.004181 0.020664 -0.006278 0.000000 -0.000828 0.000000
# 3 0.001455 -0.006278 0.016616 0.000000 0.011322 0.000000
# 4 0.000000 0.000000 0.000000 0.167469 0.000000 0.022058
# 5 0.010248 -0.000828 0.011322 0.000000 0.052188 0.000000
# 6 0.000000 0.000000 0.000000 0.022058 0.000000 0.054630
#
#
# Mechanical properties :
#
#
# Convention : Reuss Voigt Hill
#
# Bulk Modulus (GPa) = 31.60320 43.94821 37.77571
# Shear Modulus (GPa) = 14.18460 22.94637 18.56548
#
# Velocity S-wave (km/s) = 2.63730 3.35435 3.01720
# Velocity P-wave (km/s) = 4.97698 6.04583 5.53725
#
# Compressibility (1/GPa) = 0.03164236
#
# Stress axis : x y z
#
# Youngs Moduli (GPa) = 80.82990 48.39335 60.18425
#
# Poissons Ratio (x) = 0.20235 -0.08756
# Poissons Ratio (y) = 0.33797 0.37784
# Poissons Ratio (z) = -0.11760 0.30382
#
# Static dielectric constant tensor:
#      x y z
#    x 1.851710 0.000000 -0.040610 
#    y 0.000000 1.716560 0.000000 
#    z -0.040610 0.000000 1.750250 
# 
# From -- ./inp_files/225297.got.cif
#   From: 2010.05.17/outbox.cif.g08.bks.cpg/sg12_113_cif.got.tgz:225297.got - 2010.06.03 13:09:07.
