data_PCOD9180454
_publ_section_title
;
Structure prediction by ZEFSAII (Michael W. Deem and Ramdas Pophale) SiO2 
 PCOD9180454
Probable space group: C 2/M
;
_chemical_formula_sum "Si O2"
_cell_formula_units_Z 64
_cell_length_a 9.184130
_cell_length_b 20.181866
_cell_length_c 24.987211
_cell_angle_alpha 90.000000
_cell_angle_beta 130.460798
_cell_angle_gamma 90.000000
_cell_volume 3523.840569
_symmetry_space_group_name_H-M "C 2/M"
_symmetry_group_IT_number 12
_symmetry_cell_setting 'monoclinic'
loop_
_space_group_symop_operation_xyz
x,y,z
-x,y,-z
-x,-y,-z
x,-y,z
1/2+x,1/2+y,z
1/2-x,1/2+y,-z
1/2-x,1/2-y,-z
1/2+x,1/2-y,z
loop_
_atom_site_type_symbol
_atom_site_label
_atom_site_fract_x
_atom_site_fract_y
_atom_site_fract_z
Si Si1 0.629742 0.662150 0.581503
Si Si2 0.091359 0.798428 0.252596
Si Si3 0.333414 0.574408 0.794222
Si Si4 0.484758 0.259880 0.647265
Si Si5 0.116038 0.884268 0.078327
Si Si6 0.615978 0.922965 0.285188
Si Si7 0.475745 0.832291 0.827992
Si Si8 0.024658 0.266222 0.948196
O O1 0.500000 0.645624 0.500000
O O2 0.503707 0.695180 0.599008
O O3 0.742215 0.601060 0.634761
O O4 0.796432 0.713839 0.603418
O O5 0.072791 0.868328 0.218833
O O6 0.318203 0.781670 0.305600
O O7 0.023208 0.797187 0.297482
O O8 0.994755 0.736878 0.197660
O O9 0.355447 0.500000 0.778273
O O10 0.417914 0.579464 0.874204
O O11 0.104656 0.587705 0.748074
O O12 0.340963 0.879805 0.121219
O O13 0.066149 0.806685 0.073670
O O14 0.000000 0.909985 0.000000
O O15 0.652594 0.875610 0.242746
O O16 0.636899 0.000000 0.277291
O O17 0.436132 0.807560 0.878417
O O18 0.250000 0.250000 0.000000
O O19 0.000000 0.299352 0.000000
#
# Coordination Sequence:
#
# PCOD9180454 Si02
#       8
#     8   8   8   8   8   8   8   8
#     4  11  21  37  60  90 120 148 180 228 286 335
#     4  11  19  34  58  84 109 145 191 227 281 326
#     4  10  20  34  54  78 110 149 186 235 280 333
#     4  10  20  35  57  87 116 143 178 234 271 327
#     4  10  19  32  49  79 108 138 185 234 287 332
#     4  10  21  37  57  83 111 149 198 230 275 342
#     4  11  19  33  58  77 107 147 187 237 279 327
#     4  11  20  31  49  79 109 139 180 237 286 333
#
# _framework density 18.162002000000001
#
# number of rings (size 3 to 8) (size 9 to 14) (size 15 to 20)
#    0.000    1.500    7.500    1.125    0.000    0.500 
#    0.000    0.625    0.000    0.375    0.000    1.750 
#    0.000    0.500    0.000    0.000    0.000    0.000 
#
# Total GULP energy -178400.145875 kJ/mol
# GULP energy per Si atom -5575.004559 kJ/mol
# Density = 1.812066 g / cm^3
# Si number density = 18.162002 Si / 1000 Ang^3
#
#
#
# Elastic Constant Matrix: (Units=GPa)
#
#
# Indices 1 2 3 4 5 6 
#
# 1 74.9541 21.0144 35.8337 0.0000 -17.1850 0.0000
# 2 21.0144 87.7101 36.0264 0.0000 -18.1144 0.0000
# 3 35.8337 36.0264 134.1912 0.0000 -19.1827 0.0000
# 4 0.0000 0.0000 0.0000 5.0793 0.0000 -5.4980
# 5 -17.1850 -18.1144 -19.1827 0.0000 29.6270 0.0000
# 6 0.0000 0.0000 0.0000 -5.4980 0.0000 18.2113
#
#
#
# Elastic Compliance Matrix: (Units=1/GPa)
#
#
# Indices 1 2 3 4 5 6 
#
# 1 0.016795 -0.001305 -0.003147 0.000000 0.006906 0.000000
# 2 -0.001305 0.014032 -0.002535 0.000000 0.006181 0.000000
# 3 -0.003147 -0.002535 0.009357 0.000000 0.002683 0.000000
# 4 0.000000 0.000000 0.000000 0.292448 0.000000 0.088290
# 5 0.006906 0.006181 0.002683 0.000000 0.043275 0.000000
# 6 0.000000 0.000000 0.000000 0.088290 0.000000 0.081566
#
#
# Mechanical properties :
#
#
# Convention : Reuss Voigt Hill
#
# Bulk Modulus (GPa) = 38.15481 53.62270 45.88876
# Shear Modulus (GPa) = 10.41269 24.18226 17.29747
#
# Velocity S-wave (km/s) = 2.39701 3.65290 3.08944
# Velocity P-wave (km/s) = 5.35860 6.88334 6.16826
#
# Compressibility (1/GPa) = 0.02620901
#
# Stress axis : x y z
#
# Youngs Moduli (GPa) = 59.53981 71.26774 106.87678
#
# Poissons Ratio (x) = 0.09300 0.33638
# Poissons Ratio (y) = 0.07769 0.27094
# Poissons Ratio (z) = 0.18739 0.18067
#
# Static dielectric constant tensor:
#      x y z
#    x 1.684080 0.000000 0.029450 
#    y 0.000000 1.603580 0.000000 
#    z 0.029450 0.000000 1.662880 
# 
# From -- ./inp_files/333778.got.cif
#   From: 2010.05.17/outbox.cif.g08.bks.cpg/sg12_167_cif.got.tgz:333778.got - 2010.06.03 13:09:07.
