data_PCOD9180286
_publ_section_title
;
Structure prediction by ZEFSAII (Michael W. Deem and Ramdas Pophale) SiO2 
 PCOD9180286
Probable space group: C 2/M
;
_chemical_formula_sum "Si O2"
_cell_formula_units_Z 56
_cell_length_a 9.496310
_cell_length_b 28.327184
_cell_length_c 18.111949
_cell_angle_alpha 90.000000
_cell_angle_beta 36.999511
_cell_angle_gamma 90.000000
_cell_volume 2932.118915
_symmetry_space_group_name_H-M "C 2/M"
_symmetry_group_IT_number 12
_symmetry_cell_setting 'monoclinic'
loop_
_space_group_symop_operation_xyz
x,y,z
-x,y,-z
-x,-y,-z
x,-y,z
1/2+x,1/2+y,z
1/2-x,1/2+y,-z
1/2-x,1/2-y,-z
1/2+x,1/2-y,z
loop_
_atom_site_type_symbol
_atom_site_label
_atom_site_fract_x
_atom_site_fract_y
_atom_site_fract_z
Si Si1 0.665442 0.799843 0.001363
Si Si2 0.542184 0.123826 0.798572
Si Si3 0.832297 0.447248 0.140294
Si Si4 0.976807 0.840172 0.401959
Si Si5 0.555188 0.148304 0.321839
Si Si6 0.013576 0.260727 0.412752
Si Si7 0.481308 0.634189 0.235669
O O1 0.871114 0.833575 0.882988
O O2 0.500000 0.790576 0.000000
O O3 0.750000 0.750000 0.000000
O O4 0.529045 0.832448 0.118240
O O5 0.515801 0.076923 0.858162
O O6 0.416908 0.130847 0.773021
O O7 0.821446 0.122710 0.665593
O O8 0.751290 0.500000 0.193547
O O9 0.627473 0.411497 0.200321
O O10 0.000000 0.449922 0.000000
O O11 0.720590 0.852146 0.540499
O O12 0.103321 0.792377 0.378828
O O13 0.952522 0.836686 0.323772
O O14 0.619827 0.203619 0.309646
O O15 0.732276 0.122445 0.303141
O O16 0.000000 0.281835 0.500000
O O17 0.750000 0.250000 0.500000
#
# Coordination Sequence:
#
# PCOD9180286 Si02
#       7
#     8   8   8   8   8   8   8
#     4  12  26  42  56  86 125 172 206 241 301 364
#     4  11  22  39  62  86 125 156 206 248 298 376
#     4  10  20  44  72  88 109 155 213 264 305 361
#     4  10  20  37  57  81 122 172 213 244 284 351
#     4  11  23  33  56  92 122 161 194 255 305 348
#     4  10  19  32  47  75 115 163 214 233 266 335
#     4  11  22  39  62  87 126 156 208 251 303 377
#
# _framework density 19.098815999999999
#
# number of rings (size 3 to 8) (size 9 to 14) (size 15 to 20)
#    0.000    1.286    4.286    4.286    6.000    0.000 
#    0.000    0.714    0.000   15.429    0.000    0.000 
#    0.000    0.000    0.000    0.000    0.000    0.000 
#
# Total GULP energy -156003.726859 kJ/mol
# GULP energy per Si atom -5571.561674 kJ/mol
# Density = 1.905535 g / cm^3
# Si number density = 19.098816 Si / 1000 Ang^3
#
#
#
# Elastic Constant Matrix: (Units=GPa)
#
#
# Indices 1 2 3 4 5 6 
#
# 1 123.6901 33.0275 28.9446 0.0000 19.0997 0.0000
# 2 33.0275 110.4311 27.4799 0.0000 8.9133 0.0000
# 3 28.9446 27.4799 69.8756 0.0000 9.3267 0.0000
# 4 0.0000 0.0000 0.0000 18.9777 0.0000 -1.8535
# 5 19.0997 8.9133 9.3267 0.0000 30.5972 0.0000
# 6 0.0000 0.0000 0.0000 -1.8535 0.0000 17.3260
#
#
#
# Elastic Compliance Matrix: (Units=1/GPa)
#
#
# Indices 1 2 3 4 5 6 
#
# 1 0.009984 -0.001914 -0.002737 0.000000 -0.004840 0.000000
# 2 -0.001914 0.010500 -0.003219 0.000000 -0.000883 0.000000
# 3 -0.002737 -0.003219 0.017051 0.000000 -0.002552 0.000000
# 4 0.000000 0.000000 0.000000 0.053250 0.000000 0.005696
# 5 -0.004840 -0.000883 -0.002552 0.000000 0.036739 0.000000
# 6 0.000000 0.000000 0.000000 0.005696 0.000000 0.058326
#
#
# Mechanical properties :
#
#
# Convention : Reuss Voigt Hill
#
# Bulk Modulus (GPa) = 45.88023 53.65566 49.76795
# Shear Modulus (GPa) = 23.94019 27.68320 25.81169
#
# Velocity S-wave (km/s) = 3.54431 3.81132 3.68024
# Velocity P-wave (km/s) = 6.38938 6.89369 6.64632
#
# Compressibility (1/GPa) = 0.02179588
#
# Stress axis : x y z
#
# Youngs Moduli (GPa) = 100.16358 95.23723 58.64719
#
# Poissons Ratio (x) = 0.18230 0.16050
# Poissons Ratio (y) = 0.19173 0.18876
# Poissons Ratio (z) = 0.27412 0.30653
#
# Static dielectric constant tensor:
#      x y z
#    x 1.703950 0.000000 -0.003880 
#    y 0.000000 1.774940 0.000000 
#    z -0.003880 0.000000 1.737880 
# 
# From -- ./inp_files/260106.got.cif
#   From: 2010.05.17/outbox.cif.g08.bks.cpg/sg12_131_cif.got.tgz:260106.got - 2010.06.03 13:09:07.
