data_PCOD9180357
_publ_section_title
;
Structure prediction by ZEFSAII (Michael W. Deem and Ramdas Pophale) SiO2 
 PCOD9180357
Probable space group: C 2/M
;
_chemical_formula_sum "Si O2"
_cell_formula_units_Z 64
_cell_length_a 9.760972
_cell_length_b 26.243381
_cell_length_c 20.625020
_cell_angle_alpha 90.000000
_cell_angle_beta 134.935071
_cell_angle_gamma 90.000000
_cell_volume 3740.105295
_symmetry_space_group_name_H-M "C 2/M"
_symmetry_group_IT_number 12
_symmetry_cell_setting 'monoclinic'
loop_
_space_group_symop_operation_xyz
x,y,z
-x,y,-z
-x,-y,-z
x,-y,z
1/2+x,1/2+y,z
1/2-x,1/2+y,-z
1/2-x,1/2-y,-z
1/2+x,1/2-y,z
loop_
_atom_site_type_symbol
_atom_site_label
_atom_site_fract_x
_atom_site_fract_y
_atom_site_fract_z
Si Si1 0.696943 0.713991 0.801269
Si Si2 0.075217 0.349677 0.225103
Si Si3 0.319430 0.440516 0.090236
Si Si4 0.837310 0.281876 0.633531
Si Si5 0.844959 0.808765 0.897172
Si Si6 0.032640 0.559678 0.117998
Si Si7 0.914915 0.852540 0.784894
Si Si8 0.939935 0.690632 0.412147
O O1 0.536511 0.751639 0.716926
O O2 0.798539 0.748921 0.888777
O O3 0.579693 0.667643 0.792052
O O4 0.844080 0.692212 0.798271
O O5 0.848936 0.340691 0.159478
O O6 0.096680 0.404249 0.198361
O O7 0.172333 0.332680 0.325439
O O8 0.365102 0.500000 0.095866
O O9 0.510691 0.406824 0.164378
O O10 0.187218 0.436670 0.110914
O O11 0.174468 0.424305 0.983231
O O12 0.672169 0.242440 0.601723
O O13 0.875326 0.296633 0.571529
O O14 0.913876 0.816095 0.846876
O O15 0.000000 0.826123 0.000000
O O16 0.018827 0.500000 0.131214
O O17 0.711443 0.843265 0.680197
O O18 0.000000 0.665248 0.500000
#
# Coordination Sequence:
#
# PCOD9180357 Si02
#       8
#     8   8   8   8   8   8   8   8
#     4  10  19  32  49  69 101 140 177 206 242 300
#     4  11  18  33  52  68 104 140 172 211 255 302
#     4   9  18  33  53  75 101 133 180 227 259 301
#     4  10  19  35  51  76 106 138 171 209 254 316
#     4  11  22  31  44  71 107 142 171 206 249 307
#     4   9  18  32  51  78 102 133 181 224 257 300
#     4  11  20  35  52  73 104 136 177 213 261 311
#     4  11  21  35  56  78 107 140 175 219 261 309
#
# _framework density 17.111818
#
# number of rings (size 3 to 8) (size 9 to 14) (size 15 to 20)
#    0.000    1.750    5.000    3.375    0.000    3.000 
#    0.000    0.625    0.000    2.625    0.000    0.000 
#    0.000    2.500    0.000    0.000    0.000    0.000 
#
# Total GULP energy -178249.935037 kJ/mol
# GULP energy per Si atom -5570.310470 kJ/mol
# Density = 1.707287 g / cm^3
# Si number density = 17.111818 Si / 1000 Ang^3
#
#
#
# Elastic Constant Matrix: (Units=GPa)
#
#
# Indices 1 2 3 4 5 6 
#
# 1 49.5251 3.5668 1.0978 0.0000 -11.7550 0.0000
# 2 3.5668 66.6836 17.8800 0.0000 -4.5093 0.0000
# 3 1.0978 17.8800 63.3592 0.0000 -8.7926 0.0000
# 4 0.0000 0.0000 0.0000 14.5731 0.0000 0.7777
# 5 -11.7550 -4.5093 -8.7926 0.0000 18.2223 0.0000
# 6 0.0000 0.0000 0.0000 0.7777 0.0000 19.9630
#
#
#
# Elastic Compliance Matrix: (Units=1/GPa)
#
#
# Indices 1 2 3 4 5 6 
#
# 1 0.024078 -0.000735 0.002058 0.000000 0.016344 0.000000
# 2 -0.000735 0.016310 -0.004390 0.000000 0.001444 0.000000
# 3 0.002058 -0.004390 0.018241 0.000000 0.009043 0.000000
# 4 0.000000 0.000000 0.000000 0.068763 0.000000 -0.002679
# 5 0.016344 0.001444 0.009043 0.000000 0.070142 0.000000
# 6 0.000000 0.000000 0.000000 -0.002679 0.000000 0.050197
#
#
# Mechanical properties :
#
#
# Convention : Reuss Voigt Hill
#
# Bulk Modulus (GPa) = 19.04842 24.96191 22.00517
# Shear Modulus (GPa) = 18.42553 21.01989 19.72271
#
# Velocity S-wave (km/s) = 3.28498 3.50863 3.39865
# Velocity P-wave (km/s) = 5.05411 5.57075 5.31870
#
# Compressibility (1/GPa) = 0.05249779
#
# Stress axis : x y z
#
# Youngs Moduli (GPa) = 41.53095 61.31154 54.82137
#
# Poissons Ratio (x) = 0.04504 -0.11284
# Poissons Ratio (y) = 0.03051 0.24064
# Poissons Ratio (z) = -0.08548 0.26913
#
# Static dielectric constant tensor:
#      x y z
#    x 1.595080 0.000000 -0.004430 
#    y 0.000000 1.586150 0.000000 
#    z -0.004430 0.000000 1.618500 
# 
# From -- ./inp_files/302667.got.cif
#   From: 2010.05.17/outbox.cif.g08.bks.cpg/sg12_152_cif.got.tgz:302667.got - 2010.06.03 13:09:07.
