data_PCOD9180389
_publ_section_title
;
Structure prediction by ZEFSAII (Michael W. Deem and Ramdas Pophale) SiO2 
 PCOD9180389
Probable space group: C 2/M
;
_chemical_formula_sum "Si O2"
_cell_formula_units_Z 64
_cell_length_a 24.006149
_cell_length_b 8.974070
_cell_length_c 21.748037
_cell_angle_alpha 90.000000
_cell_angle_beta 130.061018
_cell_angle_gamma 90.000000
_cell_volume 3585.894180
_symmetry_space_group_name_H-M "C 2/M"
_symmetry_group_IT_number 12
_symmetry_cell_setting 'monoclinic'
loop_
_space_group_symop_operation_xyz
x,y,z
-x,y,-z
-x,-y,-z
x,-y,z
1/2+x,1/2+y,z
1/2-x,1/2+y,-z
1/2-x,1/2-y,-z
1/2+x,1/2-y,z
loop_
_atom_site_type_symbol
_atom_site_label
_atom_site_fract_x
_atom_site_fract_y
_atom_site_fract_z
Si Si1 0.729087 0.327667 0.672140
Si Si2 0.825647 0.826880 0.034677
Si Si3 0.309997 0.822791 0.233372
Si Si4 0.064660 0.177727 0.261261
Si Si5 0.729183 0.678170 0.420622
Si Si6 0.899322 0.670859 0.835372
Si Si7 0.922773 0.174151 0.225990
Si Si8 0.341006 0.820060 0.920256
O O1 0.706275 0.500000 0.653968
O O2 0.687803 0.236640 0.695372
O O3 0.726334 0.251176 0.603885
O O4 0.814232 0.326465 0.753780
O O5 0.877173 0.821060 0.130329
O O6 0.812570 0.000000 0.009502
O O7 0.750000 0.750000 0.000000
O O8 0.859280 0.743138 0.999962
O O9 0.380028 0.769672 0.245477
O O10 0.239075 0.744571 0.152488
O O11 0.300987 0.000000 0.225193
O O12 0.144473 0.209731 0.344763
O O13 0.059224 0.242104 0.188522
O O14 0.002409 0.230340 0.263502
O O15 0.056630 0.000000 0.250691
O O16 0.738865 0.500000 0.428476
O O17 0.750000 0.750000 0.500000
O O18 0.924435 0.500000 0.853673
O O19 0.894812 0.725526 0.902655
O O20 0.925775 0.000000 0.247805
O O21 0.337293 0.000000 0.917805
#
# Coordination Sequence:
#
# PCOD9180389 Si02
#       8
#     8   8   8   8   8   8   8   8
#     4   9  17  31  51  76 106 136 168 209 254 298
#     4  11  21  32  49  71  99 132 174 221 267 309
#     4  11  20  30  49  76 102 133 174 215 258 304
#     4   9  19  35  54  75 101 135 173 207 246 307
#     4  10  19  33  56  85 111 135 168 207 250 302
#     4   8  16  30  49  71  96 129 166 210 259 299
#     4  10  21  36  51  70 101 139 173 212 260 306
#     4  10  19  32  49  70  99 132 171 219 266 308
#
# _framework density 17.847709999999999
#
# number of rings (size 3 to 8) (size 9 to 14) (size 15 to 20)
#    0.000    2.250    1.250    3.375    0.000    5.000 
#    0.000    0.625    0.000    4.500    0.000    5.250 
#    0.000    0.000    0.000    0.000    0.000    0.000 
#
# Total GULP energy -178526.567250 kJ/mol
# GULP energy per Si atom -5578.955227 kJ/mol
# Density = 1.780709 g / cm^3
# Si number density = 17.847710 Si / 1000 Ang^3
#
#
#
# Elastic Constant Matrix: (Units=GPa)
#
#
# Indices 1 2 3 4 5 6 
#
# 1 106.7997 47.9998 27.9907 0.0000 -24.9046 0.0000
# 2 47.9998 89.5228 32.4896 0.0000 -15.2940 0.0000
# 3 27.9907 32.4896 42.5853 0.0000 -28.6722 0.0000
# 4 0.0000 0.0000 0.0000 23.2833 0.0000 -11.9959
# 5 -24.9046 -15.2940 -28.6722 0.0000 29.4578 0.0000
# 6 0.0000 0.0000 0.0000 -11.9959 0.0000 29.0099
#
#
#
# Elastic Compliance Matrix: (Units=1/GPa)
#
#
# Indices 1 2 3 4 5 6 
#
# 1 0.014424 -0.007292 0.005060 0.000000 0.013334 0.000000
# 2 -0.007292 0.020224 -0.022392 0.000000 -0.017460 0.000000
# 3 0.005060 -0.022392 0.093692 0.000000 0.083846 0.000000
# 4 0.000000 0.000000 0.000000 0.054577 0.000000 0.022568
# 5 0.013334 -0.017460 0.083846 0.000000 0.117764 0.000000
# 6 0.000000 0.000000 0.000000 0.022568 0.000000 0.043803
#
#
# Mechanical properties :
#
#
# Convention : Reuss Voigt Hill
#
# Bulk Modulus (GPa) = 12.64348 50.65200 31.64774
# Shear Modulus (GPa) = 11.90209 25.04539 18.47374
#
# Velocity S-wave (km/s) = 2.58518 3.75011 3.22075
# Velocity P-wave (km/s) = 4.00130 6.86970 5.62153
#
# Compressibility (1/GPa) = 0.07909213
#
# Stress axis : x y z
#
# Youngs Moduli (GPa) = 69.32986 49.44655 10.67332
#
# Poissons Ratio (x) = 0.36058 -0.05401
# Poissons Ratio (y) = 0.50557 0.23899
# Poissons Ratio (z) = -0.35084 1.10719
#
# Static dielectric constant tensor:
#      x y z
#    x 1.629580 0.000000 0.001920 
#    y 0.000000 1.604640 0.000000 
#    z 0.001920 0.000000 1.604930 
# 
# From -- ./inp_files/319807.got.cif
#   From: 2010.05.17/outbox.cif.g08.bks.cpg/sg12_160_cif.got.tgz:319807.got - 2010.06.03 13:09:07.
