data_PCOD9180247
_publ_section_title
;
Structure prediction by ZEFSAII (Michael W. Deem and Ramdas Pophale) SiO2 
 PCOD9180247
Probable space group: C 2/M
;
_chemical_formula_sum "Si O2"
_cell_formula_units_Z 64
_cell_length_a 27.283712
_cell_length_b 17.513076
_cell_length_c 22.777459
_cell_angle_alpha 90.000000
_cell_angle_beta 20.721821
_cell_angle_gamma 90.000000
_cell_volume 3850.943449
_symmetry_space_group_name_H-M "C 2/M"
_symmetry_group_IT_number 12
_symmetry_cell_setting 'monoclinic'
loop_
_space_group_symop_operation_xyz
x,y,z
-x,y,-z
-x,-y,-z
x,-y,z
1/2+x,1/2+y,z
1/2-x,1/2+y,-z
1/2-x,1/2-y,-z
1/2+x,1/2-y,z
loop_
_atom_site_type_symbol
_atom_site_label
_atom_site_fract_x
_atom_site_fract_y
_atom_site_fract_z
Si Si1 0.160702 0.591264 0.096965
Si Si2 0.672872 0.910320 0.860521
Si Si3 0.593539 0.712952 0.746134
Si Si4 0.159224 0.908226 0.217368
Si Si5 0.402975 0.197652 0.378969
Si Si6 0.621428 0.853504 0.790236
Si Si7 0.920905 0.087590 0.883828
Si Si8 0.414063 0.364850 0.415621
O O1 0.141561 0.500000 0.115219
O O2 0.017496 0.635067 0.263501
O O3 0.238099 0.616974 0.950238
O O4 0.269107 0.606554 0.028122
O O5 0.784916 0.882594 0.782250
O O6 0.666170 0.864214 0.807595
O O7 0.695245 0.000000 0.822129
O O8 0.519768 0.900438 0.060043
O O9 0.584295 0.773212 0.702391
O O10 0.744656 0.674632 0.568785
O O11 0.591215 0.766077 0.805870
O O12 0.477266 0.649371 0.866574
O O13 0.005986 0.885984 0.368849
O O14 0.165360 0.000000 0.211449
O O15 0.427496 0.274537 0.388889
O O16 0.752694 0.881615 0.605545
O O17 0.020244 0.094700 0.714889
O O18 0.922817 0.000000 0.902100
#
# Coordination Sequence:
#
# PCOD9180247 Si02
#       8
#     8   8   8   8   8   8   8   8
#     4   9  17  29  45  66  94 122 147 180 219 262
#     4  10  21  33  46  66  89 117 156 192 219 255
#     4   9  18  30  44  63  89 119 150 184 221 263
#     4   9  18  30  43  64  90 118 153 184 216 258
#     4   9  17  29  43  65  90 117 153 182 214 267
#     4  10  19  32  45  61  88 119 154 189 221 256
#     4   9  18  30  45  69  94 117 149 182 219 270
#     4   9  18  30  46  65  91 122 148 180 220 263
#
# _framework density 16.619304
#
# number of rings (size 3 to 8) (size 9 to 14) (size 15 to 20)
#    0.000    2.750    0.000    3.375    0.000    8.500 
#    0.000    3.125    0.000    0.000    0.000    1.750 
#    0.000    1.000    0.000   32.000    0.000    1.250 
#
# Total GULP energy -178331.862683 kJ/mol
# GULP energy per Si atom -5572.870709 kJ/mol
# Density = 1.658148 g / cm^3
# Si number density = 16.619304 Si / 1000 Ang^3
#
#
#
# Elastic Constant Matrix: (Units=GPa)
#
#
# Indices 1 2 3 4 5 6 
#
# 1 77.4751 36.6271 9.2872 0.0000 -17.1923 0.0002
# 2 36.6271 49.6252 20.5391 -0.0015 -10.3981 0.0007
# 3 9.2872 20.5391 46.7343 -0.0014 -11.2568 0.0008
# 4 0.0000 -0.0015 -0.0014 32.1064 0.0007 -7.1869
# 5 -17.1923 -10.3981 -11.2568 0.0007 17.5979 -0.0003
# 6 0.0002 0.0007 0.0008 -7.1869 -0.0003 30.6577
#
#
#
# Elastic Compliance Matrix: (Units=1/GPa)
#
#
# Indices 1 2 3 4 5 6 
#
# 1 0.024025 -0.016847 0.006957 -0.000001 0.017967 0.000000
# 2 -0.016847 0.037719 -0.013979 0.000001 -0.003114 0.000000
# 3 0.006957 -0.013979 0.030506 0.000000 0.018051 0.000000
# 4 -0.000001 0.000001 0.000000 0.032871 -0.000001 0.007706
# 5 0.017967 -0.003114 0.018051 -0.000001 0.084085 0.000000
# 6 0.000000 0.000000 0.000000 0.007706 0.000000 0.034425
#
#
# Mechanical properties :
#
#
# Convention : Reuss Voigt Hill
#
# Bulk Modulus (GPa) = 22.46533 34.08240 28.27386
# Shear Modulus (GPa) = 16.32884 23.23114 19.77999
#
# Velocity S-wave (km/s) = 3.13792 3.74283 3.45364
# Velocity P-wave (km/s) = 5.16485 6.26343 5.74048
#
# Compressibility (1/GPa) = 0.04451304
#
# Stress axis : x y z
#
# Youngs Moduli (GPa) = 41.62305 26.51202 32.77998
#
# Poissons Ratio (x) = 0.44665 -0.22807
# Poissons Ratio (y) = 0.70123 0.45823
# Poissons Ratio (z) = -0.28959 0.37061
#
# Static dielectric constant tensor:
#      x y z
#    x 1.582460 0.000000 -0.006750 
#    y 0.000000 1.549310 0.000000 
#    z -0.006750 0.000000 1.586140 
# 
# From -- ./inp_files/352274.got.cif
#   From: 2010.05.17/outbox.cif.g08.bks.cpg/sg12_177_cif.got.tgz:352274.got - 2010.06.03 13:09:07.
