data_PCOD9180485
_publ_section_title
;
Structure prediction by ZEFSAII (Michael W. Deem and Ramdas Pophale) SiO2 
 PCOD9180485
Probable space group: C 2/M
;
_chemical_formula_sum "Si O2"
_cell_formula_units_Z 64
_cell_length_a 25.938529
_cell_length_b 7.798798
_cell_length_c 24.221189
_cell_angle_alpha 90.000000
_cell_angle_beta 132.657592
_cell_angle_gamma 90.000000
_cell_volume 3603.311008
_symmetry_space_group_name_H-M "C 2/M"
_symmetry_group_IT_number 12
_symmetry_cell_setting 'monoclinic'
loop_
_space_group_symop_operation_xyz
x,y,z
-x,y,-z
-x,-y,-z
x,-y,z
1/2+x,1/2+y,z
1/2-x,1/2+y,-z
1/2-x,1/2-y,-z
1/2+x,1/2-y,z
loop_
_atom_site_type_symbol
_atom_site_label
_atom_site_fract_x
_atom_site_fract_y
_atom_site_fract_z
Si Si1 0.333474 0.206695 0.846939
Si Si2 0.196277 0.295482 0.689913
Si Si3 0.082435 0.797026 0.425455
Si Si4 0.776507 0.202592 0.415397
Si Si5 0.940469 0.710362 0.828576
Si Si6 0.056689 0.700382 0.990935
Si Si7 0.961295 0.296390 0.417455
Si Si8 0.877217 0.292351 0.667442
O O1 0.253659 0.252954 0.777683
O O2 0.379432 0.263138 0.827170
O O3 0.372804 0.273337 0.930442
O O4 0.338586 0.000000 0.852064
O O5 0.194624 0.500000 0.682924
O O6 0.220601 0.223473 0.648378
O O7 0.117874 0.229755 0.645415
O O8 0.152399 0.724395 0.506340
O O9 0.089552 0.760871 0.366066
O O10 0.012333 0.729002 0.402977
O O11 0.081625 0.000000 0.434038
O O12 0.703119 0.272097 0.385463
O O13 0.776203 0.000000 0.427626
O O14 0.941692 0.500000 0.830211
O O15 0.920234 0.765186 0.752591
O O16 0.014287 0.771863 0.907890
O O17 0.070272 0.500000 0.988366
O O18 0.000000 0.704540 0.000000
O O19 0.954252 0.500000 0.420877
O O20 0.000000 0.224154 0.500000
O O21 0.875244 0.500000 0.667853
#
# Coordination Sequence:
#
# PCOD9180485 Si02
#       8
#     8   8   8   8   8   8   8   8
#     4   9  15  27  46  69  99 127 157 195 234 281
#     4  11  21  31  49  73  96 125 160 200 241 286
#     4  11  23  35  50  72  96 124 163 207 243 281
#     4  10  20  34  50  70  96 128 163 196 236 283
#     4   8  13  24  44  70  96 127 163 191 225 276
#     4   7  11  20  40  68  94 123 158 193 224 269
#     4  10  21  38  54  68  90 124 164 201 244 292
#     4  10  19  32  50  70  99 134 163 193 230 283
#
# _framework density 17.761443
#
# number of rings (size 3 to 8) (size 9 to 14) (size 15 to 20)
#    0.000    2.500    2.500    2.625    0.000    2.250 
#    0.000    0.000    0.000    4.125    0.000    0.875 
#    0.000    0.000    0.000    0.000    0.000    0.000 
#
# Total GULP energy -178373.696475 kJ/mol
# GULP energy per Si atom -5574.178015 kJ/mol
# Density = 1.772102 g / cm^3
# Si number density = 17.761443 Si / 1000 Ang^3
#
#
#
# Elastic Constant Matrix: (Units=GPa)
#
#
# Indices 1 2 3 4 5 6 
#
# 1 91.5664 -9.1622 46.6233 0.0000 18.1666 0.0000
# 2 -9.1622 16.2203 -4.3675 -0.0001 4.0109 -0.0001
# 3 46.6233 -4.3675 123.2829 0.0000 28.0652 0.0000
# 4 0.0000 -0.0001 0.0000 0.3116 0.0000 -4.1178
# 5 18.1666 4.0109 28.0652 0.0000 17.2283 0.0000
# 6 0.0000 -0.0001 0.0000 -4.1178 0.0000 8.3388
#
#
#
# Elastic Compliance Matrix: (Units=1/GPa)
#
#
# Indices 1 2 3 4 5 6 
#
# 1 0.016701 0.013354 -0.001790 -0.000001 -0.017804 0.000000
# 2 0.013354 0.083382 0.008787 -0.000004 -0.047808 -0.000002
# 3 -0.001790 0.008787 0.014521 0.000000 -0.023812 0.000000
# 4 -0.000001 -0.000004 0.000000 -0.580779 0.000001 -0.286799
# 5 -0.017804 -0.047808 -0.023812 0.000001 0.126738 0.000001
# 6 0.000000 -0.000002 0.000000 -0.286799 0.000001 -0.021704
#
#
# Mechanical properties :
#
#
# Convention : Reuss Voigt Hill
#
# Bulk Modulus (GPa) = 6.43892 33.02854 19.73373
# Shear Modulus (GPa) = -14.28263 18.37414 2.04576
#
# Velocity S-wave (km/s) = -2.83881 3.21985 1.07438
# Velocity P-wave (km/s) = 2.66683 5.69730 3.56000
#
# Compressibility (1/GPa) = 0.15530561
#
# Stress axis : x y z
#
# Youngs Moduli (GPa) = 59.87742 11.99300 68.86811
#
# Poissons Ratio (x) = -0.16015 0.12327
# Poissons Ratio (y) = -0.79960 -0.60515
# Poissons Ratio (z) = 0.10717 -0.10538
#
# Static dielectric constant tensor:
#      x y z
#    x 1.570070 0.000000 0.029700 
#    y 0.000000 1.652720 0.000000 
#    z 0.029700 0.000000 1.659200 
# 
# From -- ./inp_files/348577.got.cif
#   From: 2010.05.17/outbox.cif.g08.bks.cpg/sg12_175_cif.got.tgz:348577.got - 2010.06.03 13:09:07.
