data_PCOD9180990
_publ_section_title
;
Structure prediction by ZEFSAII (Michael W. Deem and Ramdas Pophale) SiO2 
 PCOD9180990
Probable space group: C 2/M
;
_chemical_formula_sum "Si O2"
_cell_formula_units_Z 56
_cell_length_a 17.832471
_cell_length_b 14.420659
_cell_length_c 16.423969
_cell_angle_alpha 90.000000
_cell_angle_beta 146.492034
_cell_angle_gamma 90.000000
_cell_volume 2331.607587
_symmetry_space_group_name_H-M "C 2/M"
_symmetry_group_IT_number 12
_symmetry_cell_setting 'monoclinic'
loop_
_space_group_symop_operation_xyz
x,y,z
-x,y,-z
-x,-y,-z
x,-y,z
1/2+x,1/2+y,z
1/2-x,1/2+y,-z
1/2-x,1/2-y,-z
1/2+x,1/2-y,z
loop_
_atom_site_type_symbol
_atom_site_label
_atom_site_fract_x
_atom_site_fract_y
_atom_site_fract_z
Si Si1 0.600340 0.104541 0.168960
Si Si2 0.503773 0.264211 0.312248
Si Si3 0.602529 0.600227 0.017288
Si Si4 0.630677 0.215011 0.968575
Si Si5 0.415745 0.891294 0.501725
Si Si6 0.826239 0.892055 0.250043
Si Si7 0.357700 0.602503 0.674844
O O1 0.526193 0.182166 0.155012
O O2 0.745413 0.128950 0.260376
O O3 0.606522 0.000000 0.210231
O O4 0.500000 0.098671 0.000000
O O5 0.384354 0.246206 0.138087
O O6 0.542999 0.165505 0.382145
O O7 0.450064 0.327295 0.337604
O O8 0.623552 0.321154 0.376981
O O9 0.676957 0.500000 0.091060
O O10 0.672761 0.698805 0.065742
O O11 0.503993 0.596140 0.849862
O O12 0.500000 0.606303 0.000000
O O13 0.719612 0.128468 0.079373
O O14 0.500000 0.858907 0.500000
O O15 0.252761 0.878988 0.354511
O O16 0.444058 0.000000 0.535884
O O17 0.862529 0.000000 0.283640
O O18 0.324775 0.500000 0.611262
#
# Coordination Sequence:
#
# PCOD9180990 Si02
#       7
#     8   8   8   8   8   8   8
#     4   8  15  29  50  72 100 142 182 218 264 320
#     4  11  22  35  57  84 109 145 188 231 278 330
#     4   9  17  29  50  82 116 149 184 219 261 322
#     4  10  19  32  51  81 115 148 186 227 276 325
#     4  10  23  42  61  81 107 143 187 233 281 332
#     4  10  20  35  54  80 116 152 183 221 275 331
#     4   9  19  38  60  82 112 147 183 229 282 329
#
# _framework density 24.017762999999999
#
# number of rings (size 3 to 8) (size 9 to 14) (size 15 to 20)
#    0.000    2.429    0.000    3.857    0.000    5.143 
#    0.000    2.143    0.000    3.429    0.000    0.000 
#    0.000    0.000    0.000    0.000    0.000    0.000 
#
# Total GULP energy -156262.979735 kJ/mol
# GULP energy per Si atom -5580.820705 kJ/mol
# Density = 2.396310 g / cm^3
# Si number density = 24.017763 Si / 1000 Ang^3
#
#
#
# Elastic Constant Matrix: (Units=GPa)
#
#
# Indices 1 2 3 4 5 6 
#
# 1 89.8387 38.2729 -6.6372 0.0000 12.0120 0.0000
# 2 38.2729 89.5634 1.2549 0.0000 -2.0457 0.0000
# 3 -6.6372 1.2549 20.9317 0.0001 4.5727 0.0000
# 4 0.0000 0.0000 0.0001 8.4160 0.0000 -7.1515
# 5 12.0120 -2.0457 4.5727 0.0000 22.1491 0.0000
# 6 0.0000 0.0000 0.0000 -7.1515 0.0000 34.3073
#
#
#
# Elastic Compliance Matrix: (Units=1/GPa)
#
#
# Indices 1 2 3 4 5 6 
#
# 1 0.016366 -0.007363 0.008083 0.000000 -0.011224 0.000000
# 2 -0.007363 0.014519 -0.004577 0.000000 0.006279 0.000000
# 3 0.008083 -0.004577 0.054102 0.000000 -0.015976 0.000000
# 4 0.000000 0.000000 0.000000 0.144400 0.000000 0.030101
# 5 -0.011224 0.006279 -0.015976 0.000000 0.055114 0.000000
# 6 0.000000 0.000000 0.000000 0.030101 0.000000 0.035423
#
#
# Mechanical properties :
#
#
# Convention : Reuss Voigt Hill
#
# Bulk Modulus (GPa) = 12.94123 29.56833 21.25478
# Shear Modulus (GPa) = 14.14842 24.13735 19.14288
#
# Velocity S-wave (km/s) = 2.42973 3.17358 2.82624
# Velocity P-wave (km/s) = 3.64299 5.07608 4.41803
#
# Compressibility (1/GPa) = 0.07727242
#
# Stress axis : x y z
#
# Youngs Moduli (GPa) = 61.10275 68.87362 18.48369
#
# Poissons Ratio (x) = 0.50713 -0.14940
# Poissons Ratio (y) = 0.44991 0.08460
# Poissons Ratio (z) = -0.49389 0.31523
#
# Static dielectric constant tensor:
#      x y z
#    x 2.011910 0.000000 0.109830 
#    y 0.000000 1.942540 0.000000 
#    z 0.109830 0.000000 1.974650 
# 
# From -- ./inp_files/277877.got.cif
#   From: 2010.05.17/outbox.cif.g08.bks.cpg/sg12_139_cif.got.tgz:277877.got - 2010.06.03 13:09:07.
