data_PCOD9180316
_publ_section_title
;
Structure prediction by ZEFSAII (Michael W. Deem and Ramdas Pophale) SiO2 
 PCOD9180316
Probable space group: C 2/M
;
_chemical_formula_sum "Si O2"
_cell_formula_units_Z 56
_cell_length_a 27.774820
_cell_length_b 8.127752
_cell_length_c 14.044087
_cell_angle_alpha 90.000000
_cell_angle_beta 58.243752
_cell_angle_gamma 90.000000
_cell_volume 2695.781881
_symmetry_space_group_name_H-M "C 2/M"
_symmetry_group_IT_number 12
_symmetry_cell_setting 'monoclinic'
loop_
_space_group_symop_operation_xyz
x,y,z
-x,y,-z
-x,-y,-z
x,-y,z
1/2+x,1/2+y,z
1/2-x,1/2+y,-z
1/2-x,1/2-y,-z
1/2+x,1/2-y,z
loop_
_atom_site_type_symbol
_atom_site_label
_atom_site_fract_x
_atom_site_fract_y
_atom_site_fract_z
Si Si1 0.609627 0.298067 0.650205
Si Si2 0.584955 0.808097 0.392487
Si Si3 0.318852 0.193888 0.032295
Si Si4 0.781108 0.803921 0.564968
Si Si5 0.008522 0.190420 0.639362
Si Si6 0.328068 0.306158 0.225064
Si Si7 0.188672 0.299741 0.168748
O O1 0.609606 0.500000 0.649458
O O2 0.654968 0.244049 0.521578
O O3 0.546248 0.248018 0.688431
O O4 0.633992 0.239754 0.726664
O O5 0.553254 0.703487 0.505183
O O6 0.545096 0.792385 0.340236
O O7 0.646773 0.749088 0.296718
O O8 0.586265 0.000000 0.419531
O O9 0.346322 0.261751 0.099721
O O10 0.251857 0.232806 0.109263
O O11 0.327075 0.000000 0.024731
O O12 0.335309 0.254619 0.909773
O O13 0.750000 0.750000 0.500000
O O14 0.737720 0.742273 0.689619
O O15 0.782848 0.000000 0.569991
O O16 0.992401 0.000000 0.669534
O O17 0.330007 0.500000 0.232716
O O18 0.191127 0.500000 0.167472
#
# Coordination Sequence:
#
# PCOD9180316 Si02
#       7
#     8   8   8   8   8   8   8
#     4   8  17  31  47  68  99 132 164 202 244 290
#     4  10  20  35  52  74 101 130 164 206 253 298
#     4  10  20  34  53  77 101 129 168 209 249 302
#     4   9  16  28  43  65  95 131 167 201 240 288
#     4  10  19  33  52  76 101 131 169 205 245 294
#     4  10  19  32  48  70 101 135 166 204 249 299
#     4   9  20  37  54  73 101 133 165 206 256 302
#
# _framework density 20.773195000000001
#
# number of rings (size 3 to 8) (size 9 to 14) (size 15 to 20)
#    0.000    2.571    0.000    3.857    2.000    1.714 
#    0.000    7.857    0.000    0.857    0.000    6.000 
#    0.000    0.000    0.000    0.000    0.000    0.000 
#
# Total GULP energy -156111.509007 kJ/mol
# GULP energy per Si atom -5575.411036 kJ/mol
# Density = 2.072591 g / cm^3
# Si number density = 20.773195 Si / 1000 Ang^3
#
#
#
# Elastic Constant Matrix: (Units=GPa)
#
#
# Indices 1 2 3 4 5 6 
#
# 1 64.1508 -10.4131 -7.1845 0.0000 15.1157 0.0000
# 2 -10.4131 27.2825 -1.8970 0.0000 4.0267 0.0000
# 3 -7.1845 -1.8970 39.1632 0.0000 16.4536 0.0000
# 4 0.0000 0.0000 0.0000 20.3185 0.0000 5.3183
# 5 15.1157 4.0267 16.4536 0.0000 31.3463 0.0000
# 6 0.0000 0.0000 0.0000 5.3183 0.0000 21.5568
#
#
#
# Elastic Compliance Matrix: (Units=1/GPa)
#
#
# Indices 1 2 3 4 5 6 
#
# 1 0.024076 0.013159 0.013653 0.000000 -0.020466 0.000000
# 2 0.013159 0.045305 0.012469 0.000000 -0.018710 0.000000
# 3 0.013653 0.012469 0.041158 0.000000 -0.029789 0.000000
# 4 0.000000 0.000000 0.000000 0.052614 0.000000 -0.012980
# 5 -0.020466 -0.018710 -0.029789 0.000000 0.059810 0.000000
# 6 0.000000 0.000000 0.000000 -0.012980 0.000000 0.049591
#
#
# Mechanical properties :
#
#
# Convention : Reuss Voigt Hill
#
# Bulk Modulus (GPa) = 5.28820 10.17858 7.73339
# Shear Modulus (GPa) = 19.45334 24.65040 22.05187
#
# Velocity S-wave (km/s) = 3.06349 3.44851 3.26168
# Velocity P-wave (km/s) = 3.88130 4.55706 4.23269
#
# Compressibility (1/GPa) = 0.18910016
#
# Stress axis : x y z
#
# Youngs Moduli (GPa) = 41.53564 22.07281 24.29667
#
# Poissons Ratio (x) = -0.29046 -0.33171
# Poissons Ratio (y) = -0.54657 -0.30296
# Poissons Ratio (z) = -0.56707 -0.27523
#
# Static dielectric constant tensor:
#      x y z
#    x 1.806400 0.000000 0.039580 
#    y 0.000000 1.711000 0.000000 
#    z 0.039580 0.000000 1.766060 
# 
# From -- ./inp_files/248158.got.cif
#   From: 2010.05.17/outbox.cif.g08.bks.cpg/sg12_125_cif.got.tgz:248158.got - 2010.06.03 13:09:07.
