data_PCOD9180308
_publ_section_title
;
Structure prediction by ZEFSAII (Michael W. Deem and Ramdas Pophale) SiO2 
 PCOD9180308
Probable space group: C 2/M
;
_chemical_formula_sum "Si O2"
_cell_formula_units_Z 64
_cell_length_a 31.758560
_cell_length_b 8.888038
_cell_length_c 14.721834
_cell_angle_alpha 90.000000
_cell_angle_beta 89.429716
_cell_angle_gamma 90.000000
_cell_volume 4155.345205
_symmetry_space_group_name_H-M "C 2/M"
_symmetry_group_IT_number 12
_symmetry_cell_setting 'monoclinic'
loop_
_space_group_symop_operation_xyz
x,y,z
-x,y,-z
-x,-y,-z
x,-y,z
1/2+x,1/2+y,z
1/2-x,1/2+y,-z
1/2-x,1/2-y,-z
1/2+x,1/2-y,z
loop_
_atom_site_type_symbol
_atom_site_label
_atom_site_fract_x
_atom_site_fract_y
_atom_site_fract_z
Si Si1 0.666590 0.181945 0.790302
Si Si2 0.250485 0.680895 0.900276
Si Si3 0.799201 0.180948 0.594507
Si Si4 0.334273 0.682016 0.786485
Si Si5 0.799226 0.680969 0.403481
Si Si6 0.995958 0.672394 0.109926
Si Si7 0.909491 0.178610 0.096675
Si Si8 0.589428 0.181157 0.104498
O O1 0.708709 0.223347 0.845398
O O2 0.674398 0.226072 0.685515
O O3 0.626597 0.256996 0.837704
O O4 0.662500 0.000000 0.794241
O O5 0.250519 0.500000 0.907306
O O6 0.292595 0.723704 0.844875
O O7 0.250000 0.750000 0.000000
O O8 0.825632 0.225903 0.682324
O O9 0.813200 0.250018 0.498705
O O10 0.749988 0.223781 0.609683
O O11 0.800386 0.000000 0.588587
O O12 0.338361 0.500000 0.790308
O O13 0.374570 0.758033 0.830617
O O14 0.800429 0.500000 0.409337
O O15 0.988242 0.500000 0.139270
O O16 0.955636 0.772919 0.131476
O O17 0.042337 0.722741 0.139655
O O18 0.000000 0.670409 0.000000
O O19 0.906542 0.000000 0.089105
O O20 0.904340 0.250721 0.996357
O O21 0.590632 0.000000 0.097302
#
# Coordination Sequence:
#
# PCOD9180308 Si02
#       8
#     8   8   8   8   8   8   8   8
#     4  10  19  33  49  65  93 130 163 195 234 279
#     4  10  20  32  44  61  90 128 164 193 224 269
#     4   9  17  31  49  69  94 122 154 199 246 280
#     4  10  19  32  48  68  96 127 159 196 238 280
#     4   9  17  31  50  69  90 122 161 199 238 280
#     4   8  16  32  50  67  91 123 157 194 236 280
#     4  11  21  31  47  72  98 124 159 199 238 282
#     4  10  20  33  49  70  96 127 162 196 233 281
#
# _framework density 15.401849
#
# number of rings (size 3 to 8) (size 9 to 14) (size 15 to 20)
#    0.000    2.375    1.250    3.000    0.000    6.750 
#    0.000    0.000    0.000    0.000    0.000    0.875 
#    0.000    7.000    0.000    0.000    0.000    0.000 
#
# Total GULP energy -178436.386566 kJ/mol
# GULP energy per Si atom -5576.137080 kJ/mol
# Density = 1.536679 g / cm^3
# Si number density = 15.401849 Si / 1000 Ang^3
#
#
#
# Elastic Constant Matrix: (Units=GPa)
#
#
# Indices 1 2 3 4 5 6 
#
# 1 133.6269 47.7889 76.0898 0.0000 7.4056 0.0000
# 2 47.7889 38.6133 42.2190 0.0000 2.0654 0.0000
# 3 76.0898 42.2190 128.3361 0.0000 5.0645 0.0000
# 4 0.0000 0.0000 0.0000 25.5497 0.0000 1.7480
# 5 7.4056 2.0654 5.0645 0.0000 6.0530 0.0000
# 6 0.0000 0.0000 0.0000 1.7480 0.0000 22.2932
#
#
#
# Elastic Compliance Matrix: (Units=1/GPa)
#
#
# Indices 1 2 3 4 5 6 
#
# 1 0.015437 -0.014036 -0.004114 0.000000 -0.010654 0.000000
# 2 -0.014036 0.053254 -0.009470 0.000000 0.006926 0.000000
# 3 -0.004114 -0.009470 0.013465 0.000000 -0.003001 0.000000
# 4 0.000000 0.000000 0.000000 0.039350 0.000000 -0.003085
# 5 -0.010654 0.006926 -0.003001 0.000000 0.178391 0.000000
# 6 0.000000 0.000000 0.000000 -0.003085 0.000000 0.045099
#
#
# Mechanical properties :
#
#
# Convention : Reuss Voigt Hill
#
# Bulk Modulus (GPa) = 37.15551 70.30796 53.73173
# Shear Modulus (GPa) = 12.21871 19.74441 15.98156
#
# Velocity S-wave (km/s) = 2.81966 3.58432 3.22473
# Velocity P-wave (km/s) = 5.89721 7.92956 6.98767
#
# Compressibility (1/GPa) = 0.02691391
#
# Stress axis : x y z
#
# Youngs Moduli (GPa) = 64.78146 18.77797 74.26558
#
# Poissons Ratio (x) = 0.26358 0.30554
# Poissons Ratio (y) = 0.90930 0.70331
# Poissons Ratio (z) = 0.26652 0.17783
#
# Static dielectric constant tensor:
#      x y z
#    x 1.513550 0.000000 0.004740 
#    y 0.000000 1.519610 0.000000 
#    z 0.004740 0.000000 1.492520 
# 
# From -- ./inp_files/248390.got.cif
#   From: 2010.05.17/outbox.cif.g08.bks.cpg/sg12_125_cif.got.tgz:248390.got - 2010.06.03 13:09:07.
