data_PCOD9180461
_publ_section_title
;
Structure prediction by ZEFSAII (Michael W. Deem and Ramdas Pophale) SiO2 
 PCOD9180461
Probable space group: C 2/M
;
_chemical_formula_sum "Si O2"
_cell_formula_units_Z 56
_cell_length_a 20.319100
_cell_length_b 7.392302
_cell_length_c 23.332031
_cell_angle_alpha 90.000000
_cell_angle_beta 47.564929
_cell_angle_gamma 90.000000
_cell_volume 2586.533219
_symmetry_space_group_name_H-M "C 2/M"
_symmetry_group_IT_number 12
_symmetry_cell_setting 'monoclinic'
loop_
_space_group_symop_operation_xyz
x,y,z
-x,y,-z
-x,-y,-z
x,-y,z
1/2+x,1/2+y,z
1/2-x,1/2+y,-z
1/2-x,1/2-y,-z
1/2+x,1/2-y,z
loop_
_atom_site_type_symbol
_atom_site_label
_atom_site_fract_x
_atom_site_fract_y
_atom_site_fract_z
Si Si1 0.096319 0.219696 0.578364
Si Si2 0.542356 0.708802 0.177063
Si Si3 0.655282 0.292517 0.420534
Si Si4 0.603756 0.720301 0.328438
Si Si5 0.648963 0.280460 0.671844
Si Si6 0.204891 0.778339 0.161326
Si Si7 0.166504 0.713710 0.006503
O O1 0.133346 0.286598 0.495789
O O2 0.145274 0.278813 0.607332
O O3 0.991998 0.268278 0.641493
O O4 0.101927 0.000000 0.575621
O O5 0.535484 0.500000 0.199097
O O6 0.443643 0.781882 0.245024
O O7 0.620833 0.783879 0.171599
O O8 0.580358 0.714242 0.090241
O O9 0.622815 0.500000 0.442396
O O10 0.613025 0.212914 0.387914
O O11 0.761626 0.289300 0.351784
O O12 0.606545 0.500000 0.328917
O O13 0.681886 0.776992 0.239251
O O14 0.653555 0.500000 0.671185
O O15 0.206042 0.000000 0.158836
O O16 0.295794 0.718985 0.076595
O O17 0.153353 0.500000 0.010098
O O18 0.250000 0.750000 0.000000
#
# Coordination Sequence:
#
# PCOD9180461 Si02
#       7
#     8   8   8   8   8   8   8
#     4   9  16  29  49  71  92 121 162 199 232 273
#     4   9  16  28  46  67  89 120 160 194 227 271
#     4  10  20  30  46  74  99 119 152 201 243 272
#     4   9  15  27  48  71  95 121 155 197 233 273
#     4  10  19  32  50  67  93 132 162 187 230 291
#     4   8  13  24  43  67  91 116 150 187 228 274
#     4   9  16  25  42  69  97 121 148 189 235 277
#
# _framework density 21.650601000000002
#
# number of rings (size 3 to 8) (size 9 to 14) (size 15 to 20)
#    0.000    2.857    1.429    2.143    0.000    2.286 
#    0.000    0.000    0.000    7.714    0.000    6.000 
#    0.000    0.000    0.000    0.000    0.000    0.000 
#
# Total GULP energy -156148.656528 kJ/mol
# GULP energy per Si atom -5576.737733 kJ/mol
# Density = 2.160132 g / cm^3
# Si number density = 21.650601 Si / 1000 Ang^3
#
#
#
# Elastic Constant Matrix: (Units=GPa)
#
#
# Indices 1 2 3 4 5 6 
#
# 1 32.1190 -7.7497 -17.9771 -0.0001 5.0143 0.0010
# 2 -7.7497 72.3701 -9.8204 -0.0005 2.6282 0.0012
# 3 -17.9771 -9.8204 91.7432 -0.0001 -11.2236 -0.0001
# 4 -0.0001 -0.0005 -0.0001 7.8689 0.0001 -5.8613
# 5 5.0143 2.6282 -11.2236 0.0001 13.6603 -0.0004
# 6 0.0010 0.0012 -0.0001 -5.8613 -0.0004 5.1146
#
#
#
# Elastic Compliance Matrix: (Units=1/GPa)
#
#
# Indices 1 2 3 4 5 6 
#
# 1 0.037671 0.005295 0.006817 -0.000038 -0.009245 -0.000053
# 2 0.005295 0.014798 0.002263 -0.000016 -0.002931 -0.000024
# 3 0.006817 0.002263 0.013473 -0.000003 0.008132 -0.000004
# 4 -0.000038 -0.000016 -0.000003 0.868120 0.000040 0.994857
# 5 -0.009245 -0.002931 0.008132 0.000040 0.083844 0.000056
# 6 -0.000053 -0.000024 -0.000004 0.994857 0.000056 1.335616
#
#
# Mechanical properties :
#
#
# Convention : Reuss Voigt Hill
#
# Bulk Modulus (GPa) = 10.56052 13.90420 12.23236
# Shear Modulus (GPa) = 2.12194 20.78072 11.45133
#
# Velocity S-wave (km/s) = 0.99107 3.10146 2.30231
# Velocity P-wave (km/s) = 2.48956 4.38878 3.56787
#
# Compressibility (1/GPa) = 0.09469230
#
# Stress axis : x y z
#
# Youngs Moduli (GPa) = 26.54571 67.57493 74.22310
#
# Poissons Ratio (x) = -0.35780 -0.50600
# Poissons Ratio (y) = -0.14055 -0.16796
# Poissons Ratio (z) = -0.18097 -0.15292
#
# Static dielectric constant tensor:
#      x y z
#    x 1.725820 0.000000 0.001820 
#    y 0.000000 1.820930 0.000000 
#    z 0.001820 0.000000 1.842490 
# 
# From -- ./inp_files/280165.got.cif
#   From: 2010.05.17/outbox.cif.g08.bks.cpg/sg12_141_cif.got.tgz:280165.got - 2010.06.03 13:09:07.
