data_PCOD9180515
_publ_section_title
;
Structure prediction by ZEFSAII (Michael W. Deem and Ramdas Pophale) SiO2 
 PCOD9180515
Probable space group: C 2/M
;
_chemical_formula_sum "Si O2"
_cell_formula_units_Z 64
_cell_length_a 20.371666
_cell_length_b 8.384904
_cell_length_c 25.653240
_cell_angle_alpha 90.000000
_cell_angle_beta 131.000826
_cell_angle_gamma 90.000000
_cell_volume 3307.053999
_symmetry_space_group_name_H-M "C 2/M"
_symmetry_group_IT_number 12
_symmetry_cell_setting 'monoclinic'
loop_
_space_group_symop_operation_xyz
x,y,z
-x,y,-z
-x,-y,-z
x,-y,z
1/2+x,1/2+y,z
1/2-x,1/2+y,-z
1/2-x,1/2-y,-z
1/2+x,1/2-y,z
loop_
_atom_site_type_symbol
_atom_site_label
_atom_site_fract_x
_atom_site_fract_y
_atom_site_fract_z
Si Si1 0.539809 0.313896 0.573326
Si Si2 0.517266 0.690794 0.102886
Si Si3 0.317355 0.691314 0.990675
Si Si4 0.183879 0.691822 0.126222
Si Si5 0.307005 0.816567 0.611216
Si Si6 0.360335 0.315600 0.740419
Si Si7 0.142938 0.816512 0.471020
Si Si8 0.703723 0.686174 0.719309
O O1 0.500000 0.239979 0.500000
O O2 0.564170 0.500000 0.572609
O O3 0.457278 0.315879 0.567810
O O4 0.620610 0.241688 0.646674
O O5 0.515649 0.500000 0.093413
O O6 0.588458 0.757792 0.098865
O O7 0.556296 0.721580 0.180862
O O8 0.417971 0.749240 0.049311
O O9 0.318133 0.500000 0.993977
O O10 0.295402 0.744093 0.920318
O O11 0.250000 0.750000 0.000000
O O12 0.185360 0.500000 0.126333
O O13 0.255955 0.751076 0.205761
O O14 0.362191 0.712873 0.680020
O O15 0.204668 0.771545 0.552192
O O16 0.338981 0.791178 0.569122
O O17 0.314010 0.000000 0.630447
O O18 0.338176 0.500000 0.739517
O O19 0.283286 0.204776 0.721014
O O20 0.167926 0.000000 0.471396
O O21 0.683585 0.500000 0.718490
#
# Coordination Sequence:
#
# PCOD9180515 Si02
#       8
#     8   8   8   8   8   8   8   8
#     4   9  16  29  51  76 101 134 177 217 255 305
#     4   9  20  38  59  83 109 142 186 228 269 325
#     4  11  23  40  60  83 113 147 183 227 278 332
#     4  10  20  35  58  86 115 147 183 227 276 329
#     4  10  19  32  50  72 101 134 172 221 267 310
#     4  10  19  33  54  78 103 134 172 215 261 313
#     4   9  18  32  50  71  97 135 179 217 258 315
#     4   9  18  33  53  79 108 138 174 218 263 310
#
# _framework density 19.352571000000001
#
# number of rings (size 3 to 8) (size 9 to 14) (size 15 to 20)
#    0.000    2.375    0.000    2.625    0.000    6.000 
#    2.250    0.625    0.000    1.500    0.000    0.000 
#    0.000    0.000    0.000    0.000    0.000    0.000 
#
# Total GULP energy -178284.622440 kJ/mol
# GULP energy per Si atom -5571.394451 kJ/mol
# Density = 1.930852 g / cm^3
# Si number density = 19.352571 Si / 1000 Ang^3
#
#
#
# Elastic Constant Matrix: (Units=GPa)
#
#
# Indices 1 2 3 4 5 6 
#
# 1 78.6070 18.4341 70.2798 0.0000 0.9413 0.0000
# 2 18.4341 24.5121 28.1326 0.0000 -1.7708 0.0000
# 3 70.2798 28.1326 146.5568 0.0000 -0.9043 0.0000
# 4 0.0000 0.0000 0.0000 21.5720 0.0000 -5.1491
# 5 0.9413 -1.7708 -0.9043 0.0000 28.1891 0.0000
# 6 0.0000 0.0000 0.0000 -5.1491 0.0000 24.4652
#
#
#
# Elastic Compliance Matrix: (Units=1/GPa)
#
#
# Indices 1 2 3 4 5 6 
#
# 1 0.022982 -0.006067 -0.009865 0.000000 -0.001465 0.000000
# 2 -0.006067 0.054174 -0.007469 0.000000 0.003366 0.000000
# 3 -0.009865 -0.007469 0.012990 0.000000 0.000277 0.000000
# 4 0.000000 0.000000 0.000000 0.048808 0.000000 0.010272
# 5 -0.001465 0.003366 0.000277 0.000000 0.035744 0.000000
# 6 0.000000 0.000000 0.000000 0.010272 0.000000 0.043036
#
#
# Mechanical properties :
#
#
# Convention : Reuss Voigt Hill
#
# Bulk Modulus (GPa) = 23.07160 53.70765 38.38963
# Shear Modulus (GPa) = 17.92218 23.70057 20.81137
#
# Velocity S-wave (km/s) = 3.04647 3.50333 3.28286
# Velocity P-wave (km/s) = 4.93176 6.64657 5.85231
#
# Compressibility (1/GPa) = 0.04334332
#
# Stress axis : x y z
#
# Youngs Moduli (GPa) = 43.51243 18.45904 76.98520
#
# Poissons Ratio (x) = 0.11199 0.75948
# Poissons Ratio (y) = 0.26398 0.57500
# Poissons Ratio (z) = 0.42926 0.13787
#
# Static dielectric constant tensor:
#      x y z
#    x 1.668860 0.000000 0.002680 
#    y 0.000000 1.684600 0.000000 
#    z 0.002680 0.000000 1.743780 
# 
# From -- ./inp_files/346246.got.cif
#   From: 2010.05.17/outbox.cif.g08.bks.cpg/sg12_174_cif.got.tgz:346246.got - 2010.06.03 13:09:07.
