data_PCOD9180778
_publ_section_title
;
Structure prediction by ZEFSAII (Michael W. Deem and Ramdas Pophale) SiO2 
 PCOD9180778
Probable space group: C 2/M
;
_chemical_formula_sum "Si O2"
_cell_formula_units_Z 48
_cell_length_a 23.981323
_cell_length_b 8.568784
_cell_length_c 31.508527
_cell_angle_alpha 90.000000
_cell_angle_beta 155.066695
_cell_angle_gamma 90.000000
_cell_volume 2729.498822
_symmetry_space_group_name_H-M "C 2/M"
_symmetry_group_IT_number 12
_symmetry_cell_setting 'monoclinic'
loop_
_space_group_symop_operation_xyz
x,y,z
-x,y,-z
-x,-y,-z
x,-y,z
1/2+x,1/2+y,z
1/2-x,1/2+y,-z
1/2-x,1/2-y,-z
1/2+x,1/2-y,z
loop_
_atom_site_type_symbol
_atom_site_label
_atom_site_fract_x
_atom_site_fract_y
_atom_site_fract_z
Si Si1 0.695042 0.682784 0.749038
Si Si2 0.864511 0.313868 0.382600
Si Si3 0.359069 0.314036 0.108692
Si Si4 0.225936 0.685302 0.859231
Si Si5 0.583546 0.815169 0.210626
Si Si6 0.971969 0.817507 0.917160
O O1 0.667701 0.500000 0.729093
O O2 0.631319 0.764163 0.663896
O O3 0.660195 0.753500 0.770697
O O4 0.852000 0.713672 0.850922
O O5 0.842973 0.500000 0.370011
O O6 0.737935 0.229533 0.316189
O O7 0.000000 0.275099 0.500000
O O8 0.364413 0.500000 0.108279
O O9 0.321204 0.267329 0.130349
O O10 0.499355 0.238367 0.192789
O O11 0.250000 0.250000 0.000000
O O12 0.207330 0.500000 0.850596
O O13 0.384162 0.712956 0.964837
O O14 0.521638 0.720098 0.128379
O O15 0.568431 0.000000 0.193299
O O16 0.938521 0.000000 0.900947
#
# Coordination Sequence:
#
# PCOD9180778 Si02
#       6
#     8   8   8   8   8   8
#     4  11  22  34  52  79 111 143 181 228 277 333
#     4  10  21  39  63  86 109 140 181 232 284 331
#     4  12  23  36  54  78 112 152 193 229 267 321
#     4  11  22  35  52  75 109 151 189 226 269 322
#     4  11  21  34  55  82 113 146 185 230 274 326
#     4  10  19  32  51  74 107 147 186 227 268 319
#
# _framework density 17.585646000000001
#
# number of rings (size 3 to 8) (size 9 to 14) (size 15 to 20)
#    0.000    1.167    1.667    8.500    0.000    5.333 
#    0.000    0.000    0.000    1.000    0.000    0.000 
#    0.000    0.000    0.000    0.000    0.000    0.000 
#
# Total GULP energy -134089.226854 kJ/mol
# GULP energy per Si atom -5587.051119 kJ/mol
# Density = 1.754562 g / cm^3
# Si number density = 17.585646 Si / 1000 Ang^3
#
#
#
# Elastic Constant Matrix: (Units=GPa)
#
#
# Indices 1 2 3 4 5 6 
#
# 1 82.9535 14.7319 37.5312 0.0003 -17.4732 0.0002
# 2 14.7319 61.6990 32.9301 0.0006 -5.6152 0.0001
# 3 37.5312 32.9301 89.3816 -0.0007 -9.7810 0.0007
# 4 0.0003 0.0006 -0.0007 6.8244 0.0001 3.9777
# 5 -17.4732 -5.6152 -9.7810 0.0001 13.1851 0.0001
# 6 0.0002 0.0001 0.0007 3.9777 0.0001 30.6621
#
#
#
# Elastic Compliance Matrix: (Units=1/GPa)
#
#
# Indices 1 2 3 4 5 6 
#
# 1 0.019080 0.000510 -0.005886 -0.000002 0.021135 0.000000
# 2 0.000510 0.020325 -0.007271 -0.000003 0.003937 0.000000
# 3 -0.005886 -0.007271 0.016484 0.000003 0.001331 -0.000001
# 4 -0.000002 -0.000003 0.000003 0.158519 -0.000003 -0.020564
# 5 0.021135 0.003937 0.001331 -0.000003 0.106516 0.000000
# 6 0.000000 0.000000 -0.000001 -0.020564 0.000000 0.035281
#
#
# Mechanical properties :
#
#
# Convention : Reuss Voigt Hill
#
# Bulk Modulus (GPa) = 32.68762 44.93562 38.81162
# Shear Modulus (GPa) = 12.76491 20.05706 16.41098
#
# Velocity S-wave (km/s) = 2.69712 3.38085 3.05815
# Velocity P-wave (km/s) = 5.32234 6.39125 5.88113
#
# Compressibility (1/GPa) = 0.03059263
#
# Stress axis : x y z
#
# Youngs Moduli (GPa) = 52.41216 49.19985 60.66400
#
# Poissons Ratio (x) = -0.02507 0.35709
# Poissons Ratio (y) = -0.02671 0.44111
# Poissons Ratio (z) = 0.30852 0.35775
#
# Static dielectric constant tensor:
#      x y z
#    x 1.619060 0.000000 -0.004290 
#    y 0.000000 1.582620 0.000000 
#    z -0.004290 0.000000 1.586280 
# 
# From -- ./inp_files/327326.got.cif
#   From: 2010.05.17/outbox.cif.g08.bks.cpg/sg12_164_cif.got.tgz:327326.got - 2010.06.03 13:09:07.
