data_PCOD9180584
_publ_section_title
;
Structure prediction by ZEFSAII (Michael W. Deem and Ramdas Pophale) SiO2 
 PCOD9180584
Probable space group: C 2/M
;
_chemical_formula_sum "Si O2"
_cell_formula_units_Z 64
_cell_length_a 25.194836
_cell_length_b 14.957815
_cell_length_c 9.288260
_cell_angle_alpha 90.000000
_cell_angle_beta 79.622052
_cell_angle_gamma 90.000000
_cell_volume 3443.107839
_symmetry_space_group_name_H-M "C 2/M"
_symmetry_group_IT_number 12
_symmetry_cell_setting 'monoclinic'
loop_
_space_group_symop_operation_xyz
x,y,z
-x,y,-z
-x,-y,-z
x,-y,z
1/2+x,1/2+y,z
1/2-x,1/2+y,-z
1/2-x,1/2-y,-z
1/2+x,1/2-y,z
loop_
_atom_site_type_symbol
_atom_site_label
_atom_site_fract_x
_atom_site_fract_y
_atom_site_fract_z
Si Si1 0.766490 0.646670 0.478923
Si Si2 0.397105 0.287678 0.701590
Si Si3 0.970459 0.896222 0.862240
Si Si4 0.791128 0.903513 0.758360
Si Si5 0.433121 0.395305 0.413529
Si Si6 0.345244 0.104561 0.684944
Si Si7 0.169793 0.900093 0.723963
Si Si8 0.258388 0.655834 0.071468
O O1 0.750000 0.750000 0.500000
O O2 0.759846 0.618608 0.317515
O O3 0.820956 0.624776 0.537226
O O4 0.718437 0.596988 0.586419
O O5 0.423830 0.328706 0.832963
O O6 0.336985 0.329213 0.715841
O O7 0.429737 0.329621 0.550753
O O8 0.389392 0.180839 0.698624
O O9 0.015072 0.891060 0.714087
O O10 0.951035 0.000000 0.879052
O O11 0.000000 0.876710 0.000000
O O12 0.813824 0.000000 0.704523
O O13 0.773795 0.905654 0.931194
O O14 0.428074 0.500000 0.462669
O O15 0.382801 0.371602 0.335372
O O16 0.294084 0.122854 0.816073
O O17 0.360733 0.000000 0.687747
O O18 0.192223 0.840237 0.840981
O O19 0.160116 0.000000 0.786203
O O20 0.250000 0.750000 0.000000
#
# Coordination Sequence:
#
# PCOD9180584 Si02
#       8
#     8   8   8   8   8   8   8   8
#     4  11  18  34  51  79 112 148 188 231 271 323
#     4  12  22  37  58  84 112 148 195 236 276 340
#     4  10  23  40  60  89 122 148 176 227 297 359
#     4  12  21  31  53  82 113 146 187 234 277 328
#     4  10  20  36  59  86 115 146 180 229 291 347
#     4  11  23  40  57  78 116 160 198 236 280 327
#     4  10  19  32  50  74 107 146 183 219 272 335
#     4  11  21  35  49  77 115 155 192 231 275 328
#
# _framework density 18.587858000000001
#
# number of rings (size 3 to 8) (size 9 to 14) (size 15 to 20)
#    0.000    1.125    3.750    5.250    1.750    1.000 
#    0.000    0.000    0.000    1.875    0.000    0.000 
#    0.000    0.000    0.000    0.000    0.000    0.000 
#
# Total GULP energy -178635.763310 kJ/mol
# GULP energy per Si atom -5582.367603 kJ/mol
# Density = 1.854555 g / cm^3
# Si number density = 18.587858 Si / 1000 Ang^3
#
#
#
# Elastic Constant Matrix: (Units=GPa)
#
#
# Indices 1 2 3 4 5 6 
#
# 1 65.0994 34.2066 27.4867 0.0000 27.4473 0.0000
# 2 34.2066 145.5861 32.0170 0.0000 20.1648 0.0000
# 3 27.4867 32.0170 83.1604 0.0000 14.9635 0.0000
# 4 0.0000 0.0000 0.0000 24.6945 0.0000 1.4211
# 5 27.4473 20.1648 14.9635 0.0000 35.2436 0.0000
# 6 0.0000 0.0000 0.0000 1.4211 0.0000 15.6952
#
#
#
# Elastic Compliance Matrix: (Units=1/GPa)
#
#
# Indices 1 2 3 4 5 6 
#
# 1 0.025649 -0.002763 -0.004444 0.000000 -0.016508 0.000000
# 2 -0.002763 0.008179 -0.001928 0.000000 -0.001709 0.000000
# 3 -0.004444 -0.001928 0.014524 0.000000 -0.001603 0.000000
# 4 0.000000 0.000000 0.000000 0.040707 0.000000 -0.003686
# 5 -0.016508 -0.001709 -0.001603 0.000000 0.042889 0.000000
# 6 0.000000 0.000000 0.000000 -0.003686 0.000000 0.064047
#
#
# Mechanical properties :
#
#
# Convention : Reuss Voigt Hill
#
# Bulk Modulus (GPa) = 33.24119 53.47405 43.35762
# Shear Modulus (GPa) = 22.29237 28.46904 25.38070
#
# Velocity S-wave (km/s) = 3.46684 3.91780 3.69920
# Velocity P-wave (km/s) = 5.82644 7.02113 6.45150
#
# Compressibility (1/GPa) = 0.03008316
#
# Stress axis : x y z
#
# Youngs Moduli (GPa) = 38.98769 122.26903 68.84949
#
# Poissons Ratio (x) = 0.33780 0.30595
# Poissons Ratio (y) = 0.10771 0.13275
# Poissons Ratio (z) = 0.17325 0.23575
#
# Static dielectric constant tensor:
#      x y z
#    x 1.657170 0.000000 0.010190 
#    y 0.000000 1.716150 0.000000 
#    z 0.010190 0.000000 1.677680 
# 
# From -- ./inp_files/104595.got.cif
#   From: 2010.05.17/outbox.cif.g08.bks.cpg/sg12_53_cif.got.tgz:104595.got - 2010.06.03 13:09:07.
