data_PCOD9180957
_publ_section_title
;
Structure prediction by ZEFSAII (Michael W. Deem and Ramdas Pophale) SiO2 
 PCOD9180957
Probable space group: C 2/M
;
_chemical_formula_sum "Si O2"
_cell_formula_units_Z 64
_cell_length_a 14.613584
_cell_length_b 22.357940
_cell_length_c 8.322965
_cell_angle_alpha 90.000000
_cell_angle_beta 100.932096
_cell_angle_gamma 90.000000
_cell_volume 2670.010093
_symmetry_space_group_name_H-M "C 2/M"
_symmetry_group_IT_number 12
_symmetry_cell_setting 'monoclinic'
loop_
_space_group_symop_operation_xyz
x,y,z
-x,y,-z
-x,-y,-z
x,-y,z
1/2+x,1/2+y,z
1/2-x,1/2+y,-z
1/2-x,1/2-y,-z
1/2+x,1/2-y,z
loop_
_atom_site_type_symbol
_atom_site_label
_atom_site_fract_x
_atom_site_fract_y
_atom_site_fract_z
Si Si1 0.029400 0.570565 0.679927
Si Si2 0.183299 0.935570 0.590602
Si Si3 0.365326 0.692790 0.370260
Si Si4 0.365546 0.069821 0.835267
Si Si5 0.714061 0.264243 0.164322
Si Si6 0.901494 0.065218 0.793295
Si Si7 0.039908 0.196485 0.248599
Si Si8 0.776622 0.394584 0.127056
O O1 0.006931 0.500000 0.668385
O O2 0.963924 0.593145 0.802803
O O3 0.000000 0.597712 0.500000
O O4 0.138004 0.577685 0.746997
O O5 0.137121 0.878409 0.654975
O O6 0.293195 0.931118 0.662392
O O7 0.155095 0.933933 0.395081
O O8 0.151983 0.000000 0.644915
O O9 0.265422 0.721123 0.306112
O O10 0.437628 0.717686 0.262912
O O11 0.403951 0.700825 0.562670
O O12 0.374315 0.000000 0.895802
O O13 0.317023 0.107154 0.960207
O O14 0.603133 0.266319 0.147839
O O15 0.750062 0.331920 0.199454
O O16 0.750000 0.250000 0.000000
O O17 0.959286 0.126901 0.808213
O O18 0.820304 0.069929 0.899248
O O19 0.948559 0.000000 0.818027
#
# Coordination Sequence:
#
# PCOD9180957 Si02
#       8
#     8   8   8   8   8   8   8   8
#     4  10  20  35  54  79 115 151 188 240 296 349
#     4   9  18  33  57  87 115 149 187 231 291 351
#     4  10  20  41  62  87 117 154 191 247 290 347
#     4  10  19  32  51  78 114 151 189 235 287 344
#     4  11  24  42  59  83 114 157 199 246 293 342
#     4   9  17  32  57  86 117 147 183 232 288 349
#     4   9  21  39  63  87 117 150 197 236 295 348
#     4  11  21  35  52  80 110 151 199 238 285 346
#
# _framework density 23.969946
#
# number of rings (size 3 to 8) (size 9 to 14) (size 15 to 20)
#    0.000    2.125    0.000    3.375    0.000    4.000 
#    9.000    2.500    0.000    0.000    0.000    7.000 
#    0.000    0.000    0.000    0.000    0.000    0.000 
#
# Total GULP energy -178826.758902 kJ/mol
# GULP energy per Si atom -5588.336216 kJ/mol
# Density = 2.391539 g / cm^3
# Si number density = 23.969946 Si / 1000 Ang^3
#
#
#
# Elastic Constant Matrix: (Units=GPa)
#
#
# Indices 1 2 3 4 5 6 
#
# 1 69.1608 0.0172 12.6774 0.0000 -28.3500 0.0000
# 2 0.0172 45.4517 7.1999 0.0000 -7.1168 0.0000
# 3 12.6774 7.1999 69.4842 0.0000 -4.9534 0.0000
# 4 0.0000 0.0000 0.0000 13.8137 0.0000 -4.6444
# 5 -28.3500 -7.1168 -4.9534 0.0000 41.9971 0.0000
# 6 0.0000 0.0000 0.0000 -4.6444 0.0000 12.1723
#
#
#
# Elastic Compliance Matrix: (Units=1/GPa)
#
#
# Indices 1 2 3 4 5 6 
#
# 1 0.020821 0.002694 -0.003069 0.000000 0.014150 0.000000
# 2 0.002694 0.023254 -0.002512 0.000000 0.005463 0.000000
# 3 -0.003069 -0.002512 0.015161 0.000000 -0.000709 0.000000
# 4 0.000000 0.000000 0.000000 0.083045 0.000000 0.031686
# 5 0.014150 0.005463 -0.000709 0.000000 0.034205 0.000000
# 6 0.000000 0.000000 0.000000 0.031686 0.000000 0.094244
#
#
# Mechanical properties :
#
#
# Convention : Reuss Voigt Hill
#
# Bulk Modulus (GPa) = 18.70478 24.87618 21.79048
# Shear Modulus (GPa) = 16.98804 24.54346 20.76575
#
# Velocity S-wave (km/s) = 2.66507 3.20336 2.94653
# Velocity P-wave (km/s) = 4.15819 4.90740 4.54825
#
# Compressibility (1/GPa) = 0.05346227
#
# Stress axis : x y z
#
# Youngs Moduli (GPa) = 48.02802 43.00417 65.95687
#
# Poissons Ratio (x) = -0.11585 0.20244
# Poissons Ratio (y) = -0.12938 0.16565
# Poissons Ratio (z) = 0.14741 0.10801
#
# Static dielectric constant tensor:
#      x y z
#    x 1.897460 0.000000 -0.010720 
#    y 0.000000 1.951290 0.000000 
#    z -0.010720 0.000000 1.945470 
# 
# From -- ./inp_files/65855.got.cif
#   From: 2010.05.17/outbox.cif.g08.bks.cpg/sg12_33_cif.got.tgz:65855.got - 2010.06.03 13:09:07.
