data_PCOD9180878
_publ_section_title
;
Structure prediction by ZEFSAII (Michael W. Deem and Ramdas Pophale) SiO2 
 PCOD9180878
Probable space group: C 2/M
;
_chemical_formula_sum "Si O2"
_cell_formula_units_Z 50
_cell_length_a 24.930180
_cell_length_b 7.788433
_cell_length_c 15.341955
_cell_angle_alpha 90.000000
_cell_angle_beta 80.087249
_cell_angle_gamma 90.000000
_cell_volume 2934.430029
_symmetry_space_group_name_H-M "C 2/M"
_symmetry_group_IT_number 12
_symmetry_cell_setting 'monoclinic'
loop_
_space_group_symop_operation_xyz
x,y,z
-x,y,-z
-x,-y,-z
x,-y,z
1/2+x,1/2+y,z
1/2-x,1/2+y,-z
1/2-x,1/2-y,-z
1/2+x,1/2-y,z
loop_
_atom_site_type_symbol
_atom_site_label
_atom_site_fract_x
_atom_site_fract_y
_atom_site_fract_z
Si Si1 0.000000 0.500000 0.000000
Si Si2 0.430332 0.303406 0.078959
Si Si3 0.808704 0.297349 0.875791
Si Si4 0.953918 0.500000 0.388393
Si Si5 0.899376 0.193501 0.716787
Si Si6 0.687395 0.793712 0.923783
Si Si7 0.978156 0.800976 0.257237
Si Si8 0.419113 0.000000 0.588477
O O1 0.046928 0.653615 0.988931
O O2 0.440715 0.500000 0.047760
O O3 0.365778 0.279348 0.107482
O O4 0.459677 0.271611 0.163458
O O5 0.819963 0.500000 0.870267
O O6 0.850546 0.210223 0.798702
O O7 0.745504 0.265860 0.871278
O O8 0.815587 0.236850 0.973804
O O9 0.948832 0.668034 0.329678
O O10 0.917088 0.500000 0.484729
O O11 0.016676 0.500000 0.404085
O O12 0.894582 0.332664 0.641782
O O13 0.956969 0.227189 0.749680
O O14 0.902005 0.000000 0.681291
O O15 0.686359 0.000000 0.921769
O O16 0.966948 0.000000 0.282111
#
# Coordination Sequence:
#
# PCOD9180878 Si02
#       8
#     2   8   8   4   8   8   8   4
#     4  12  24  36  50  74 104 146 178 228 258 302
#     4  11  23  37  53  76 108 140 186 218 262 310
#     4  10  20  34  53  73 105 141 180 224 264 302
#     4   9  17  32  55  74 109 138 165 213 259 323
#     4  10  19  32  51  76 108 138 172 214 263 310
#     4  10  21  36  52  75 104 142 184 223 260 307
#     4   9  20  34  51  77 107 140 174 213 260 317
#     4   9  18  32  50  81 106 135 170 208 265 320
#
# _framework density 17.039083999999999
#
# number of rings (size 3 to 8) (size 9 to 14) (size 15 to 20)
#    0.000    2.080    1.600    1.680    2.240    2.560 
#    0.000    3.200    0.000    0.000    0.000    1.120 
#    0.000    0.000    0.000    0.000    0.000    0.000 
#
# Total GULP energy -139218.870979 kJ/mol
# GULP energy per Si atom -5568.754839 kJ/mol
# Density = 1.700030 g / cm^3
# Si number density = 17.039084 Si / 1000 Ang^3
#
#
#
# Elastic Constant Matrix: (Units=GPa)
#
#
# Indices 1 2 3 4 5 6 
#
# 1 71.1866 28.4894 33.8111 0.0000 -8.0470 0.0000
# 2 28.4894 96.2424 44.9743 0.0000 -4.2883 0.0000
# 3 33.8111 44.9743 64.3905 0.0000 -16.6706 0.0000
# 4 0.0000 0.0000 0.0000 8.9764 0.0000 -6.1907
# 5 -8.0470 -4.2883 -16.6706 0.0000 15.8974 0.0000
# 6 0.0000 0.0000 0.0000 -6.1907 0.0000 20.3931
#
#
#
# Elastic Compliance Matrix: (Units=1/GPa)
#
#
# Indices 1 2 3 4 5 6 
#
# 1 0.018845 -0.001386 -0.008997 0.000000 -0.000270 0.000000
# 2 -0.001386 0.016725 -0.013682 0.000000 -0.010537 0.000000
# 3 -0.008997 -0.013682 0.037990 0.000000 0.031593 0.000000
# 4 0.000000 0.000000 0.000000 0.140903 0.000000 0.042773
# 5 -0.000270 -0.010537 0.031593 0.000000 0.093054 0.000000
# 6 0.000000 0.000000 0.000000 0.042773 0.000000 0.062021
#
#
# Mechanical properties :
#
#
# Convention : Reuss Voigt Hill
#
# Bulk Modulus (GPa) = 39.32379 49.59656 44.46017
# Shear Modulus (GPa) = 11.73310 17.35636 14.54473
#
# Velocity S-wave (km/s) = 2.62696 3.19505 2.92483
# Velocity P-wave (km/s) = 5.68594 6.54078 6.12828
#
# Compressibility (1/GPa) = 0.02542990
#
# Stress axis : x y z
#
# Youngs Moduli (GPa) = 53.06394 59.79139 26.32253
#
# Poissons Ratio (x) = 0.08288 0.23683
# Poissons Ratio (y) = 0.07355 0.36014
# Poissons Ratio (z) = 0.47742 0.81806
#
# Static dielectric constant tensor:
#      x y z
#    x 1.580630 0.000000 -0.000830 
#    y 0.000000 1.604150 0.000000 
#    z -0.000830 0.000000 1.564950 
# 
# From -- ./inp_files/242672.got.cif
#   From: 2010.05.17/outbox.cif.g08.bks.cpg/sg12_122_cif.got.tgz:242672.got - 2010.06.03 13:09:07.
