data_PCOD9180611
_publ_section_title
;
Structure prediction by ZEFSAII (Michael W. Deem and Ramdas Pophale) SiO2 
 PCOD9180611
Probable space group: C 2/M
;
_chemical_formula_sum "Si O2"
_cell_formula_units_Z 44
_cell_length_a 8.736944
_cell_length_b 24.029796
_cell_length_c 11.599880
_cell_angle_alpha 90.000000
_cell_angle_beta 51.505458
_cell_angle_gamma 90.000000
_cell_volume 1906.076852
_symmetry_space_group_name_H-M "C 2/M"
_symmetry_group_IT_number 12
_symmetry_cell_setting 'monoclinic'
loop_
_space_group_symop_operation_xyz
x,y,z
-x,y,-z
-x,-y,-z
x,-y,z
1/2+x,1/2+y,z
1/2-x,1/2+y,-z
1/2-x,1/2-y,-z
1/2+x,1/2-y,z
loop_
_atom_site_type_symbol
_atom_site_label
_atom_site_fract_x
_atom_site_fract_y
_atom_site_fract_z
Si Si1 0.770965 0.063249 0.342582
Si Si2 0.239028 0.061940 0.147885
Si Si3 0.000000 0.343901 0.000000
Si Si4 0.553238 0.237514 0.164932
Si Si5 0.281692 0.433384 0.584152
Si Si6 0.170434 0.168895 0.820954
O O1 0.688780 0.083537 0.505604
O O2 0.758548 0.108546 0.249605
O O3 0.005829 0.061570 0.254820
O O4 0.708021 0.000000 0.343574
O O5 0.327732 0.114577 0.041419
O O6 0.311572 0.071075 0.246032
O O7 0.295860 0.000000 0.080959
O O8 0.062885 0.304222 0.865833
O O9 0.639439 0.203799 0.230201
O O10 0.433841 0.294449 0.230684
O O11 0.750000 0.250000 0.000000
O O12 0.500000 0.408886 0.500000
O O13 0.304428 0.500000 0.555974
O O14 0.000000 0.165720 0.000000
#
# Coordination Sequence:
#
# PCOD9180611 Si02
#       6
#     8   8   4   8   8   8
#     4   9  17  30  52  77 103 134 169 213 255 299
#     4   9  17  28  47  78 109 134 163 207 258 308
#     4  12  19  30  52  74 103 132 170 208 258 306
#     4  10  19  33  49  72  95 137 175 205 251 301
#     4   7  12  26  46  71  99 132 171 202 246 303
#     4  10  19  32  50  75  99 134 175 211 253 304
#
# _framework density 23.084064000000001
#
# number of rings (size 3 to 8) (size 9 to 14) (size 15 to 20)
#    0.000    2.727    2.727    4.636    0.000    0.364 
#    0.000    1.818    0.000    2.182    4.727    3.818 
#    0.000    0.000    0.000    0.000    0.000    0.000 
#
# Total GULP energy -122578.607985 kJ/mol
# GULP energy per Si atom -5571.754908 kJ/mol
# Density = 2.303152 g / cm^3
# Si number density = 23.084064 Si / 1000 Ang^3
#
#
#
# Elastic Constant Matrix: (Units=GPa)
#
#
# Indices 1 2 3 4 5 6 
#
# 1 56.3521 31.5450 13.7425 0.0000 1.9086 0.0000
# 2 31.5450 123.4382 21.2773 0.0000 2.0945 0.0000
# 3 13.7425 21.2773 21.8247 0.0000 -4.8078 0.0000
# 4 0.0000 0.0000 0.0000 6.3566 0.0000 18.0511
# 5 1.9086 2.0945 -4.8078 0.0000 28.5754 0.0000
# 6 0.0000 0.0000 0.0000 18.0511 0.0000 26.0607
#
#
#
# Elastic Compliance Matrix: (Units=1/GPa)
#
#
# Indices 1 2 3 4 5 6 
#
# 1 0.022740 -0.003811 -0.011295 0.000000 -0.003140 0.000000
# 2 -0.003811 0.010537 -0.008295 0.000000 -0.001913 0.000000
# 3 -0.011295 -0.008295 0.063679 0.000000 0.012076 0.000000
# 4 0.000000 0.000000 0.000000 -0.162691 0.000000 0.112689
# 5 -0.003140 -0.001913 0.012076 0.000000 0.037377 0.000000
# 6 0.000000 0.000000 0.000000 0.112689 0.000000 -0.039682
#
#
# Mechanical properties :
#
#
# Convention : Reuss Voigt Hill
#
# Bulk Modulus (GPa) = 19.93845 37.19383 28.56614
# Shear Modulus (GPa) = -1106.11673 21.20188 -542.45742
#
# Velocity S-wave (km/s) = -21.91368 3.03390 -15.34608
# Velocity P-wave (km/s) = 25.13211 5.33105 17.36667
#
# Compressibility (1/GPa) = 0.05015435
#
# Stress axis : x y z
#
# Youngs Moduli (GPa) = 43.97583 94.89996 15.70376
#
# Poissons Ratio (x) = 0.36166 0.17737
# Poissons Ratio (y) = 0.16759 0.13026
# Poissons Ratio (z) = 0.49671 0.78719
#
# Static dielectric constant tensor:
#      x y z
#    x 1.970360 0.000000 0.025100 
#    y 0.000000 1.873480 0.000000 
#    z 0.025100 0.000000 1.931140 
# 
# From -- ./inp_files/122349.got.cif
#   From: 2010.05.17/outbox.cif.g08.bks.cpg/sg12_62_cif.got.tgz:122349.got - 2010.06.03 13:09:07.
