data_PCOD9180034
_publ_section_title
;
Structure prediction by ZEFSAII (Michael W. Deem and Ramdas Pophale) SiO2 
 PCOD9180034
Probable space group: C 2/M
;
_chemical_formula_sum "Si O2"
_cell_formula_units_Z 64
_cell_length_a 29.611100
_cell_length_b 20.152975
_cell_length_c 5.042761
_cell_angle_alpha 90.000000
_cell_angle_beta 97.130287
_cell_angle_gamma 90.000000
_cell_volume 2986.004140
_symmetry_space_group_name_H-M "C 2/M"
_symmetry_group_IT_number 12
_symmetry_cell_setting 'monoclinic'
loop_
_space_group_symop_operation_xyz
x,y,z
-x,y,-z
-x,-y,-z
x,-y,z
1/2+x,1/2+y,z
1/2-x,1/2+y,-z
1/2-x,1/2-y,-z
1/2+x,1/2-y,z
loop_
_atom_site_type_symbol
_atom_site_label
_atom_site_fract_x
_atom_site_fract_y
_atom_site_fract_z
Si Si1 0.394088 0.735881 0.336719
Si Si2 0.398511 0.895519 0.301435
Si Si3 0.808623 0.189254 0.620572
Si Si4 0.220760 0.319031 0.176096
Si Si5 0.234472 0.924816 0.191778
Si Si6 0.952349 0.394921 0.849210
Si Si7 0.549978 0.734093 0.123538
Si Si8 0.320505 0.068452 0.610771
O O1 0.390883 0.816016 0.312964
O O2 0.349243 0.709317 0.453408
O O3 0.410794 0.713654 0.058038
O O4 0.434753 0.717478 0.569273
O O5 0.413119 0.917268 0.021828
O O6 0.354255 0.928491 0.389818
O O7 0.439226 0.911008 0.539831
O O8 0.799507 0.244458 0.845991
O O9 0.762937 0.188978 0.407749
O O10 0.810009 0.115362 0.744161
O O11 0.177598 0.361579 0.244377
O O12 0.240063 0.368978 0.968081
O O13 0.269354 0.932920 0.460517
O O14 0.227430 0.000000 0.079206
O O15 0.952499 0.314730 0.876369
O O16 0.000000 0.418990 0.000000
O O17 0.500000 0.710541 0.000000
O O18 0.327005 0.000000 0.769079
#
# Coordination Sequence:
#
# PCOD9180034 Si02
#       8
#     8   8   8   8   8   8   8   8
#     4  10  19  31  53  80 114 143 184 231 282 338
#     4  10  19  32  51  77 103 138 183 236 280 338
#     4  10  21  34  53  84 111 146 186 237 285 331
#     4  10  20  36  54  76 109 149 188 233 286 333
#     4  10  22  37  55  76 110 155 191 230 280 338
#     4   9  18  32  51  73 101 139 180 227 289 346
#     4   9  18  31  50  78 113 148 178 223 286 345
#     4  10  21  35  51  75 105 142 195 240 279 327
#
# _framework density 21.433326999999998
#
# number of rings (size 3 to 8) (size 9 to 14) (size 15 to 20)
#    0.000    2.250    1.250    1.500    3.500    4.500 
#    0.000    0.000    0.000    2.250    0.000    0.000 
#    0.000    3.000    0.000    0.000    0.000    0.000 
#
# Total GULP energy -178457.518704 kJ/mol
# GULP energy per Si atom -5576.797459 kJ/mol
# Density = 2.138454 g / cm^3
# Si number density = 21.433327 Si / 1000 Ang^3
#
#
#
# Elastic Constant Matrix: (Units=GPa)
#
#
# Indices 1 2 3 4 5 6 
#
# 1 61.9455 28.0456 -1.7845 0.0000 -1.0422 0.0000
# 2 28.0456 94.6579 13.2915 0.0000 -4.7141 0.0000
# 3 -1.7845 13.2915 61.9790 0.0000 -3.5118 0.0000
# 4 0.0000 0.0000 0.0000 -5.1740 0.0000 22.5217
# 5 -1.0422 -4.7141 -3.5118 0.0000 27.3188 0.0000
# 6 0.0000 0.0000 0.0000 22.5217 0.0000 -26.5940
#
#
#
# Elastic Compliance Matrix: (Units=1/GPa)
#
#
# Indices 1 2 3 4 5 6 
#
# 1 0.018836 -0.005835 0.001790 0.000000 -0.000058 0.000000
# 2 -0.005835 0.012769 -0.002815 0.000000 0.001619 0.000000
# 3 0.001790 -0.002815 0.016889 0.000000 0.001754 0.000000
# 4 0.000000 0.000000 0.000000 0.071947 0.000000 0.060930
# 5 -0.000058 0.001619 0.001754 0.000000 0.037107 0.000000
# 6 0.000000 0.000000 0.000000 0.060930 0.000000 0.013998
#
#
# Mechanical properties :
#
#
# Convention : Reuss Voigt Hill
#
# Bulk Modulus (GPa) = 28.75618 33.07639 30.91628
# Shear Modulus (GPa) = 25.39925 11.04550 18.22238
#
# Velocity S-wave (km/s) = 3.44617 2.27258 2.91896
# Velocity P-wave (km/s) = 5.41114 4.72778 5.08096
#
# Compressibility (1/GPa) = 0.03477513
#
# Stress axis : x y z
#
# Youngs Moduli (GPa) = 53.09101 78.31466 59.21017
#
# Poissons Ratio (x) = 0.45696 -0.10601
# Poissons Ratio (y) = 0.30978 0.16665
# Poissons Ratio (z) = -0.09505 0.22042
#
# Static dielectric constant tensor:
#      x y z
#    x 1.811880 0.000000 -0.009600 
#    y 0.000000 1.838520 0.000000 
#    z -0.009600 0.000000 1.863670 
# 
# From -- ./inp_files/29189.got.cif
#   From: 2010.05.17/outbox.cif.g08.bks.cpg/sg12_15_cif.got.tgz:29189.got - 2010.06.03 13:09:07.
