data_PCOD9180112
_publ_section_title
;
Structure prediction by ZEFSAII (Michael W. Deem and Ramdas Pophale) SiO2 
 PCOD9180112
Probable space group: C 2/M
;
_chemical_formula_sum "Si O2"
_cell_formula_units_Z 56
_cell_length_a 26.461646
_cell_length_b 9.034137
_cell_length_c 13.062591
_cell_angle_alpha 90.000000
_cell_angle_beta 111.370891
_cell_angle_gamma 90.000000
_cell_volume 2908.003855
_symmetry_space_group_name_H-M "C 2/M"
_symmetry_group_IT_number 12
_symmetry_cell_setting 'monoclinic'
loop_
_space_group_symop_operation_xyz
x,y,z
-x,y,-z
-x,-y,-z
x,-y,z
1/2+x,1/2+y,z
1/2-x,1/2+y,-z
1/2-x,1/2-y,-z
1/2+x,1/2-y,z
loop_
_atom_site_type_symbol
_atom_site_label
_atom_site_fract_x
_atom_site_fract_y
_atom_site_fract_z
Si Si1 0.443142 0.673172 0.820628
Si Si2 0.224702 0.178067 0.247512
Si Si3 0.868555 0.827379 0.968085
Si Si4 0.048571 0.176241 0.613865
Si Si5 0.348388 0.175460 0.634510
Si Si6 0.451001 0.175486 0.165849
Si Si7 0.655786 0.824722 0.608829
O O1 0.452764 0.500000 0.807175
O O2 0.409059 0.684548 0.900260
O O3 0.404529 0.744425 0.705904
O O4 0.499758 0.757714 0.864343
O O5 0.189758 0.217155 0.121155
O O6 0.196773 0.257080 0.323624
O O7 0.288209 0.211843 0.292329
O O8 0.218468 0.000000 0.256943
O O9 0.867084 0.000000 0.997667
O O10 0.894433 0.730650 0.076140
O O11 0.041244 0.258503 0.715762
O O12 0.105315 0.229713 0.608623
O O13 0.000000 0.213107 0.500000
O O14 0.048463 0.000000 0.630089
O O15 0.335244 0.198094 0.505868
O O16 0.353618 0.000000 0.657017
O O17 0.453582 0.000000 0.168984
O O18 0.644189 0.000000 0.615583
#
# Coordination Sequence:
#
# PCOD9180112 Si02
#       7
#     8   8   8   8   8   8   8
#     4  10  20  35  56  82 115 152 187 226 275 331
#     4   9  19  36  57  82 115 152 186 225 274 328
#     4   9  19  36  57  81 112 149 186 225 270 325
#     4  11  25  43  62  83 108 143 186 228 272 329
#     4  10  19  31  53  86 120 150 183 228 277 327
#     4  12  24  37  57  83 112 145 183 231 281 330
#     4  10  21  37  57  83 114 148 187 231 279 325
#
# _framework density 19.257196
#
# number of rings (size 3 to 8) (size 9 to 14) (size 15 to 20)
#    0.000    1.857    0.000    5.143    0.000    9.714 
#    0.000    0.714    0.000    0.000    0.000    0.000 
#    0.000    0.000    0.000    0.000    0.000    0.000 
#
# Total GULP energy -156466.977992 kJ/mol
# GULP energy per Si atom -5588.106357 kJ/mol
# Density = 1.921337 g / cm^3
# Si number density = 19.257196 Si / 1000 Ang^3
#
#
#
# Elastic Constant Matrix: (Units=GPa)
#
#
# Indices 1 2 3 4 5 6 
#
# 1 78.0478 42.7274 37.8498 0.0000 31.4958 0.0000
# 2 42.7274 89.7517 62.2976 0.0000 20.3598 0.0000
# 3 37.8498 62.2976 99.8933 0.0000 33.9910 0.0000
# 4 0.0000 0.0000 0.0000 17.1595 0.0000 5.9170
# 5 31.4958 20.3598 33.9910 0.0000 29.4304 0.0000
# 6 0.0000 0.0000 0.0000 5.9170 0.0000 10.1743
#
#
#
# Elastic Compliance Matrix: (Units=1/GPa)
#
#
# Indices 1 2 3 4 5 6 
#
# 1 0.027439 -0.010788 0.006233 0.000000 -0.029101 0.000000
# 2 -0.010788 0.023903 -0.015026 0.000000 0.012364 0.000000
# 3 0.006233 -0.015026 0.025952 0.000000 -0.026249 0.000000
# 4 0.000000 0.000000 0.000000 0.072895 0.000000 -0.042393
# 5 -0.029101 0.012364 -0.026249 0.000000 0.086885 0.000000
# 6 0.000000 0.000000 0.000000 -0.042393 0.000000 0.122941
#
#
# Mechanical properties :
#
#
# Convention : Reuss Voigt Hill
#
# Bulk Modulus (GPa) = 26.22482 61.49359 43.85921
# Shear Modulus (GPa) = 12.13926 19.67404 15.90665
#
# Velocity S-wave (km/s) = 2.51345 3.19979 2.87716
# Velocity P-wave (km/s) = 4.69798 6.75675 5.81913
#
# Compressibility (1/GPa) = 0.03813181
#
# Stress axis : x y z
#
# Youngs Moduli (GPa) = 36.44405 41.83605 38.53320
#
# Poissons Ratio (x) = 0.45133 -0.24019
# Poissons Ratio (y) = 0.39316 0.57901
# Poissons Ratio (z) = -0.22717 0.62864
#
# Static dielectric constant tensor:
#      x y z
#    x 1.670280 0.000000 0.013900 
#    y 0.000000 1.640950 0.000000 
#    z 0.013900 0.000000 1.676170 
# 
# From -- ./inp_files/181010.got.cif
#   From: 2010.05.17/outbox.cif.g08.bks.cpg/sg12_91_cif.got.tgz:181010.got - 2010.06.03 13:09:07.
