data_PCOD9180984
_publ_section_title
;
Structure prediction by ZEFSAII (Michael W. Deem and Ramdas Pophale) SiO2 
 PCOD9180984
Probable space group: C 2/M
;
_chemical_formula_sum "Si O2"
_cell_formula_units_Z 56
_cell_length_a 31.069250
_cell_length_b 8.051560
_cell_length_c 23.828829
_cell_angle_alpha 90.000000
_cell_angle_beta 153.076474
_cell_angle_gamma 90.000000
_cell_volume 2699.110945
_symmetry_space_group_name_H-M "C 2/M"
_symmetry_group_IT_number 12
_symmetry_cell_setting 'monoclinic'
loop_
_space_group_symop_operation_xyz
x,y,z
-x,y,-z
-x,-y,-z
x,-y,z
1/2+x,1/2+y,z
1/2-x,1/2+y,-z
1/2-x,1/2-y,-z
1/2+x,1/2-y,z
loop_
_atom_site_type_symbol
_atom_site_label
_atom_site_fract_x
_atom_site_fract_y
_atom_site_fract_z
Si Si1 0.693358 0.800830 0.377383
Si Si2 0.402680 0.802567 0.417061
Si Si3 0.807426 0.300835 0.121266
Si Si4 0.658053 0.690462 0.534143
Si Si5 0.974683 0.198945 0.132956
Si Si6 0.990422 0.697005 0.275290
Si Si7 0.720479 0.296885 0.137473
O O1 0.750000 0.750000 0.500000
O O2 0.746665 0.736829 0.383055
O O3 0.583155 0.749997 0.248123
O O4 0.697674 0.000000 0.380978
O O5 0.500000 0.737611 0.500000
O O6 0.391983 0.776462 0.471182
O O7 0.301819 0.738477 0.274958
O O8 0.404099 0.000000 0.407789
O O9 0.808460 0.500000 0.125356
O O10 0.761724 0.241875 0.125256
O O11 0.914529 0.247752 0.233504
O O12 0.750000 0.250000 0.000000
O O13 0.673762 0.500000 0.568528
O O14 0.585301 0.703368 0.397653
O O15 0.952007 0.267620 0.168707
O O16 0.970753 0.000000 0.131324
O O17 0.890616 0.254310 0.992618
O O18 0.008836 0.500000 0.301655
O O19 0.719580 0.500000 0.139309
#
# Coordination Sequence:
#
# PCOD9180984 Si02
#       7
#     8   8   8   8   8   8   8
#     4  11  23  39  60  87 121 158 201 249 308 365
#     4  10  21  41  67  90 118 159 205 248 293 357
#     4  10  19  32  51  80 116 151 189 234 289 353
#     4  11  24  40  60  87 119 155 198 253 308 355
#     4  11  21  35  57  85 120 156 194 245 301 355
#     4  11  21  33  55  85 118 156 197 240 296 362
#     4   9  19  36  57  83 119 158 196 245 299 353
#
# _framework density 20.747571000000001
#
# number of rings (size 3 to 8) (size 9 to 14) (size 15 to 20)
#    0.000    1.571    2.857    2.571    0.000    4.857 
#    0.000    2.857    0.000    4.286    0.000    0.000 
#    0.000    0.000    0.000    0.000    0.000    0.000 
#
# Total GULP energy -156140.598136 kJ/mol
# GULP energy per Si atom -5576.449933 kJ/mol
# Density = 2.070035 g / cm^3
# Si number density = 20.747571 Si / 1000 Ang^3
#
#
#
# Elastic Constant Matrix: (Units=GPa)
#
#
# Indices 1 2 3 4 5 6 
#
# 1 93.1820 7.0065 45.4091 0.0000 25.7888 0.0000
# 2 7.0065 19.7620 5.8999 0.0000 8.6894 0.0000
# 3 45.4091 5.8999 137.8263 0.0000 18.6169 0.0000
# 4 0.0000 0.0000 0.0000 13.0019 0.0000 -1.1219
# 5 25.7888 8.6894 18.6169 0.0000 37.1197 0.0000
# 6 0.0000 0.0000 0.0000 -1.1219 0.0000 22.2726
#
#
#
# Elastic Compliance Matrix: (Units=1/GPa)
#
#
# Indices 1 2 3 4 5 6 
#
# 1 0.014917 -0.000488 -0.003764 0.000000 -0.008361 0.000000
# 2 -0.000488 0.056483 -0.000554 0.000000 -0.012605 0.000000
# 3 -0.003764 -0.000554 0.008741 0.000000 -0.001639 0.000000
# 4 0.000000 0.000000 0.000000 0.077248 0.000000 0.003891
# 5 -0.008361 -0.012605 -0.001639 0.000000 0.036521 0.000000
# 6 0.000000 0.000000 0.000000 0.003891 0.000000 0.045094
#
#
# Mechanical properties :
#
#
# Convention : Reuss Voigt Hill
#
# Bulk Modulus (GPa) = 14.17900 40.82235 27.50068
# Shear Modulus (GPa) = 18.37373 27.30914 22.84144
#
# Velocity S-wave (km/s) = 2.97911 3.63196 3.32161
# Velocity P-wave (km/s) = 4.32231 6.10792 5.29098
#
# Compressibility (1/GPa) = 0.07052683
#
# Stress axis : x y z
#
# Youngs Moduli (GPa) = 67.03837 17.70434 114.40585
#
# Poissons Ratio (x) = 0.00865 0.43066
# Poissons Ratio (y) = 0.03274 0.06342
# Poissons Ratio (z) = 0.25235 0.00981
#
# Static dielectric constant tensor:
#      x y z
#    x 1.762740 0.000000 0.038570 
#    y 0.000000 1.742460 0.000000 
#    z 0.038570 0.000000 1.778170 
# 
# From -- ./inp_files/329698.got.cif
#   From: 2010.05.17/outbox.cif.g08.bks.cpg/sg12_165_cif.got.tgz:329698.got - 2010.06.03 13:09:07.
