data_PCOD9180364
_publ_section_title
;
Structure prediction by ZEFSAII (Michael W. Deem and Ramdas Pophale) SiO2 
 PCOD9180364
Probable space group: C 2/M
;
_chemical_formula_sum "Si O2"
_cell_formula_units_Z 56
_cell_length_a 14.382188
_cell_length_b 13.512596
_cell_length_c 17.569785
_cell_angle_alpha 90.000000
_cell_angle_beta 49.030929
_cell_angle_gamma 90.000000
_cell_volume 2578.183036
_symmetry_space_group_name_H-M "C 2/M"
_symmetry_group_IT_number 12
_symmetry_cell_setting 'monoclinic'
loop_
_space_group_symop_operation_xyz
x,y,z
-x,y,-z
-x,-y,-z
x,-y,z
1/2+x,1/2+y,z
1/2-x,1/2+y,-z
1/2-x,1/2-y,-z
1/2+x,1/2-y,z
loop_
_atom_site_type_symbol
_atom_site_label
_atom_site_fract_x
_atom_site_fract_y
_atom_site_fract_z
Si Si1 0.443297 0.386649 0.445110
Si Si2 0.289929 0.383263 0.746062
Si Si3 0.100171 0.112508 0.756700
Si Si4 0.798603 0.187227 0.136842
Si Si5 0.461425 0.885211 0.788018
Si Si6 0.706551 0.199295 0.625263
Si Si7 0.892117 0.220531 0.930542
O O1 0.500000 0.382882 0.500000
O O2 0.404105 0.500000 0.452688
O O3 0.562189 0.364666 0.330024
O O4 0.324450 0.317379 0.508987
O O5 0.268306 0.500000 0.770956
O O6 0.223893 0.303817 0.834886
O O7 0.246193 0.354658 0.683946
O O8 0.152623 0.136046 0.813035
O O9 0.171282 0.188563 0.664432
O O10 0.955307 0.139596 0.842390
O O11 0.118180 0.000000 0.725695
O O12 0.666952 0.140817 0.184137
O O13 0.890636 0.180693 0.016584
O O14 0.578168 0.853933 0.674362
O O15 0.464165 0.818530 0.863621
O O16 0.466663 0.000000 0.803398
O O17 0.750000 0.250000 0.000000
#
# Coordination Sequence:
#
# PCOD9180364 Si02
#       7
#     8   8   8   8   8   8   8
#     4   8  13  25  49  76  97 125 164 203 247 292
#     4   9  17  30  51  76 100 129 165 207 252 291
#     4  10  20  34  53  74  99 132 165 199 243 296
#     4  10  20  33  48  73 103 130 166 202 240 294
#     4  10  19  32  49  69  96 130 164 201 248 294
#     4   9  17  31  51  74  98 123 165 211 243 287
#     4   9  20  34  48  71  94 121 163 202 235 281
#
# _framework density 21.720724000000001
#
# number of rings (size 3 to 8) (size 9 to 14) (size 15 to 20)
#    0.000    2.714    0.000    3.000    0.000    4.000 
#    0.000    6.429    0.000   16.714    0.000    0.000 
#    0.000    0.000    0.000    0.000    0.000    0.000 
#
# Total GULP energy -156283.372412 kJ/mol
# GULP energy per Si atom -5581.549015 kJ/mol
# Density = 2.167129 g / cm^3
# Si number density = 21.720724 Si / 1000 Ang^3
#
#
#
# Elastic Constant Matrix: (Units=GPa)
#
#
# Indices 1 2 3 4 5 6 
#
# 1 73.4487 5.4431 32.3946 0.0000 -13.5834 0.0000
# 2 5.4431 141.0224 31.0732 0.0000 -13.9100 0.0000
# 3 32.3946 31.0732 92.4397 0.0000 -11.4353 0.0000
# 4 0.0000 0.0000 0.0000 15.5273 0.0000 -8.7781
# 5 -13.5834 -13.9100 -11.4353 0.0000 41.2831 0.0000
# 6 0.0000 0.0000 0.0000 -8.7781 0.0000 13.4280
#
#
#
# Elastic Compliance Matrix: (Units=1/GPa)
#
#
# Indices 1 2 3 4 5 6 
#
# 1 0.016860 0.001036 -0.005723 0.000000 0.004311 0.000000
# 2 0.001036 0.007874 -0.002733 0.000000 0.002237 0.000000
# 3 -0.005723 -0.002733 0.013871 0.000000 0.001038 0.000000
# 4 0.000000 0.000000 0.000000 0.102156 0.000000 0.066780
# 5 0.004311 0.002237 0.001038 0.000000 0.026683 0.000000
# 6 0.000000 0.000000 0.000000 0.066780 0.000000 0.118126
#
#
# Mechanical properties :
#
#
# Convention : Reuss Voigt Hill
#
# Bulk Modulus (GPa) = 42.08218 49.41474 45.74846
# Shear Modulus (GPa) = 16.21634 29.91435 23.06535
#
# Velocity S-wave (km/s) = 2.73533 3.71513 3.26222
# Velocity P-wave (km/s) = 5.42147 6.41890 5.94115
#
# Compressibility (1/GPa) = 0.02376303
#
# Stress axis : x y z
#
# Youngs Moduli (GPa) = 59.31323 127.00161 72.09508
#
# Poissons Ratio (x) = -0.13151 0.41261
# Poissons Ratio (y) = -0.06142 0.19703
# Poissons Ratio (z) = 0.33946 0.34709
#
# Static dielectric constant tensor:
#      x y z
#    x 1.893990 0.000000 0.009100 
#    y 0.000000 1.745120 0.000000 
#    z 0.009100 0.000000 1.820480 
# 
# From -- ./inp_files/342978.got.cif
#   From: 2010.05.17/outbox.cif.g08.bks.cpg/sg12_172_cif.got.tgz:342978.got - 2010.06.03 13:09:07.
