data_PCOD9180710
_publ_section_title
;
Structure prediction by ZEFSAII (Michael W. Deem and Ramdas Pophale) SiO2 
 PCOD9180710
Probable space group: C 2/M
;
_chemical_formula_sum "Si O2"
_cell_formula_units_Z 64
_cell_length_a 22.985245
_cell_length_b 21.703291
_cell_length_c 7.968905
_cell_angle_alpha 90.000000
_cell_angle_beta 52.702372
_cell_angle_gamma 90.000000
_cell_volume 3162.370734
_symmetry_space_group_name_H-M "C 2/M"
_symmetry_group_IT_number 12
_symmetry_cell_setting 'monoclinic'
loop_
_space_group_symop_operation_xyz
x,y,z
-x,y,-z
-x,-y,-z
x,-y,z
1/2+x,1/2+y,z
1/2-x,1/2+y,-z
1/2-x,1/2-y,-z
1/2+x,1/2-y,z
loop_
_atom_site_type_symbol
_atom_site_label
_atom_site_fract_x
_atom_site_fract_y
_atom_site_fract_z
Si Si1 0.421444 0.762704 0.068148
Si Si2 0.335022 0.385122 0.736545
Si Si3 0.527136 0.569458 0.699563
Si Si4 0.423367 0.727211 0.683485
Si Si5 0.744445 0.570384 0.807266
Si Si6 0.180155 0.310324 0.271964
Si Si7 0.724563 0.802766 0.797385
Si Si8 0.601372 0.378378 0.888382
O O1 0.431510 0.754505 0.851820
O O2 0.405210 0.692585 0.158940
O O3 0.500000 0.784183 0.000000
O O4 0.345132 0.800901 0.204914
O O5 0.410865 0.414107 0.543474
O O6 0.358827 0.322408 0.790464
O O7 0.289519 0.426192 0.944531
O O8 0.283132 0.358291 0.678579
O O9 0.501392 0.500000 0.719383
O O10 0.456337 0.611594 0.857551
O O11 0.572014 0.577827 0.793749
O O12 0.500000 0.699223 0.500000
O O13 0.399243 0.778838 0.590084
O O14 0.761393 0.500000 0.735086
O O15 0.679958 0.599062 0.807545
O O16 0.809467 0.620164 0.687576
O O17 0.234264 0.263350 0.274510
O O18 0.199228 0.309661 0.037909
#
# Coordination Sequence:
#
# PCOD9180710 Si02
#       8
#     8   8   8   8   8   8   8   8
#     4  11  18  31  52  70  98 127 158 194 233 290
#     4  10  20  33  51  71  95 123 160 208 236 272
#     4  11  22  34  44  64  99 134 162 192 235 276
#     4  10  19  32  51  73  96 123 157 198 246 282
#     4  11  19  31  51  72  92 125 168 197 228 277
#     4   8  15  30  49  68  95 124 154 195 239 282
#     4   8  15  31  49  68  93 125 155 193 244 279
#     4  11  20  33  46  64  97 135 163 187 226 284
#
# _framework density 20.237981999999999
#
# number of rings (size 3 to 8) (size 9 to 14) (size 15 to 20)
#    0.000    2.000    3.750    4.125    0.000    0.000 
#    0.000    3.125    0.000    0.375    0.000    0.000 
#    0.000   50.000    0.000    0.000    0.000    0.000 
#
# Total GULP energy -178486.155052 kJ/mol
# GULP energy per Si atom -5577.692345 kJ/mol
# Density = 2.019192 g / cm^3
# Si number density = 20.237982 Si / 1000 Ang^3
#
#
#
# Elastic Constant Matrix: (Units=GPa)
#
#
# Indices 1 2 3 4 5 6 
#
# 1 118.5685 28.5196 -6.4150 0.0000 -2.5036 0.0000
# 2 28.5196 59.5060 -15.6667 0.0000 -5.0891 0.0000
# 3 -6.4150 -15.6667 22.3257 0.0000 0.6528 0.0000
# 4 0.0000 0.0000 0.0000 13.7788 0.0000 1.3597
# 5 -2.5036 -5.0891 0.6528 0.0000 15.0056 0.0000
# 6 0.0000 0.0000 0.0000 1.3597 0.0000 16.8212
#
#
#
# Elastic Compliance Matrix: (Units=1/GPa)
#
#
# Indices 1 2 3 4 5 6 
#
# 1 0.009539 -0.004721 -0.000573 0.000000 0.000015 0.000000
# 2 -0.004721 0.023577 0.014996 0.000000 0.006556 0.000000
# 3 -0.000573 0.014996 0.055075 0.000000 0.002595 0.000000
# 4 0.000000 0.000000 0.000000 0.073159 0.000000 -0.005913
# 5 0.000015 0.006556 0.002595 0.000000 0.068755 0.000000
# 6 0.000000 0.000000 0.000000 -0.005913 0.000000 0.059927
#
#
# Mechanical properties :
#
#
# Convention : Reuss Voigt Hill
#
# Bulk Modulus (GPa) = 9.29410 23.69733 16.49572
# Shear Modulus (GPa) = 16.31372 22.05193 19.18283
#
# Velocity S-wave (km/s) = 2.84226 3.30454 3.08208
# Velocity P-wave (km/s) = 3.92092 5.12784 4.56445
#
# Compressibility (1/GPa) = 0.10759515
#
# Stress axis : x y z
#
# Youngs Moduli (GPa) = 104.83404 42.41482 18.15721
#
# Poissons Ratio (x) = 0.20025 0.01040
# Poissons Ratio (y) = 0.49494 -0.27229
# Poissons Ratio (z) = 0.06003 -0.63606
#
# Static dielectric constant tensor:
#      x y z
#    x 1.772460 0.000000 0.016900 
#    y 0.000000 1.718200 0.000000 
#    z 0.016900 0.000000 1.820930 
# 
# From -- ./inp_files/99518.got.cif
#   From: 2010.05.17/outbox.cif.g08.bks.cpg/sg12_50_cif.got.tgz:99518.got - 2010.06.03 13:09:07.
