data_PCOD9180866
_publ_section_title
;
Structure prediction by ZEFSAII (Michael W. Deem and Ramdas Pophale) SiO2 
 PCOD9180866
Probable space group: C 2/M
;
_chemical_formula_sum "Si O2"
_cell_formula_units_Z 64
_cell_length_a 24.165702
_cell_length_b 24.594367
_cell_length_c 15.669159
_cell_angle_alpha 90.000000
_cell_angle_beta 156.620398
_cell_angle_gamma 90.000000
_cell_volume 3695.519906
_symmetry_space_group_name_H-M "C 2/M"
_symmetry_group_IT_number 12
_symmetry_cell_setting 'monoclinic'
loop_
_space_group_symop_operation_xyz
x,y,z
-x,y,-z
-x,-y,-z
x,-y,z
1/2+x,1/2+y,z
1/2-x,1/2+y,-z
1/2-x,1/2-y,-z
1/2+x,1/2-y,z
loop_
_atom_site_type_symbol
_atom_site_label
_atom_site_fract_x
_atom_site_fract_y
_atom_site_fract_z
Si Si1 0.288991 0.062947 0.358993
Si Si2 0.644284 0.561430 0.973447
Si Si3 0.729584 0.222193 0.838889
Si Si4 0.975698 0.833911 0.735229
Si Si5 0.633909 0.765226 0.514445
Si Si6 0.851667 0.158768 0.742871
Si Si7 0.117195 0.560336 0.830404
Si Si8 0.850901 0.323362 0.095866
O O1 0.201840 0.073981 0.149551
O O2 0.238322 0.106416 0.356109
O O3 0.454561 0.067991 0.575742
O O4 0.263484 0.000000 0.347631
O O5 0.586601 0.500000 0.891795
O O6 0.778859 0.561031 0.102741
O O7 0.533589 0.607130 0.790409
O O8 0.647664 0.224157 0.634806
O O9 0.672118 0.185407 0.834885
O O10 0.744779 0.282768 0.899078
O O11 0.883891 0.198881 0.039683
O O12 0.901616 0.796878 0.559156
O O13 0.879281 0.839125 0.681510
O O14 0.770763 0.788159 0.662161
O O15 0.504917 0.800706 0.297245
O O16 0.000000 0.154557 0.000000
O O17 0.129043 0.500000 0.886788
O O18 0.159321 0.613789 0.942463
#
# Coordination Sequence:
#
# PCOD9180866 Si02
#       8
#     8   8   8   8   8   8   8   8
#     4  10  20  32  50  76 104 139 174 207 259 316
#     4  10  19  32  51  76 107 136 168 212 259 315
#     4  10  20  35  53  80 105 132 168 213 261 313
#     4  11  22  35  52  76 103 139 178 209 262 307
#     4  11  22  36  53  74 105 138 174 219 255 308
#     4  12  21  34  51  72 106 143 174 218 253 300
#     4  10  19  32  52  78 106 135 168 209 257 312
#     4  10  20  33  56  80 104 133 170 208 261 315
#
# _framework density 17.318266999999999
#
# number of rings (size 3 to 8) (size 9 to 14) (size 15 to 20)
#    0.000    1.500    5.000    1.125    0.000    3.250 
#    0.000    0.000    0.000    0.750    0.000    1.750 
#    0.000    2.500    0.000    0.000    0.000    0.000 
#
# Total GULP energy -178462.929367 kJ/mol
# GULP energy per Si atom -5576.966543 kJ/mol
# Density = 1.727885 g / cm^3
# Si number density = 17.318267 Si / 1000 Ang^3
#
#
#
# Elastic Constant Matrix: (Units=GPa)
#
#
# Indices 1 2 3 4 5 6 
#
# 1 49.4528 15.7483 11.9228 0.0000 18.6098 0.0000
# 2 15.7483 136.1179 22.2623 0.0000 8.1636 0.0000
# 3 11.9228 22.2623 33.2960 0.0000 11.5430 0.0000
# 4 0.0000 0.0000 0.0000 22.3547 0.0000 2.0494
# 5 18.6098 8.1636 11.5430 0.0000 19.4200 0.0000
# 6 0.0000 0.0000 0.0000 2.0494 0.0000 20.6471
#
#
#
# Elastic Compliance Matrix: (Units=1/GPa)
#
#
# Indices 1 2 3 4 5 6 
#
# 1 0.032108 -0.001949 0.000237 0.000000 -0.030090 0.000000
# 2 -0.001949 0.008368 -0.005447 0.000000 0.001588 0.000000
# 3 0.000237 -0.005447 0.041409 0.000000 -0.022550 0.000000
# 4 0.000000 0.000000 0.000000 0.045144 0.000000 -0.004481
# 5 -0.030090 0.001588 -0.022550 0.000000 0.093064 0.000000
# 6 0.000000 0.000000 0.000000 -0.004481 0.000000 0.048878
#
#
# Mechanical properties :
#
#
# Convention : Reuss Voigt Hill
#
# Bulk Modulus (GPa) = 14.80025 35.41483 25.10754
# Shear Modulus (GPa) = 16.34997 23.74658 20.04827
#
# Velocity S-wave (km/s) = 3.07593 3.70697 3.40610
# Velocity P-wave (km/s) = 4.60215 6.23025 5.47703
#
# Compressibility (1/GPa) = 0.06756644
#
# Stress axis : x y z
#
# Youngs Moduli (GPa) = 31.14477 119.50629 24.14952
#
# Poissons Ratio (x) = 0.23291 -0.00573
# Poissons Ratio (y) = 0.06070 0.13155
# Poissons Ratio (z) = -0.00739 0.65101
#
# Static dielectric constant tensor:
#      x y z
#    x 1.585520 0.000000 0.026140 
#    y 0.000000 1.635000 0.000000 
#    z 0.026140 0.000000 1.577420 
# 
# From -- ./inp_files/135347.got.cif
#   From: 2010.05.17/outbox.cif.g08.bks.cpg/sg12_68_cif.got.tgz:135347.got - 2010.06.03 13:09:07.
