data_PCOD9180977
_publ_section_title
;
Structure prediction by ZEFSAII (Michael W. Deem and Ramdas Pophale) SiO2 
 PCOD9180977
Probable space group: C 2/M
;
_chemical_formula_sum "Si O2"
_cell_formula_units_Z 56
_cell_length_a 20.108971
_cell_length_b 13.356119
_cell_length_c 12.459324
_cell_angle_alpha 90.000000
_cell_angle_beta 57.908778
_cell_angle_gamma 90.000000
_cell_volume 2834.994747
_symmetry_space_group_name_H-M "C 2/M"
_symmetry_group_IT_number 12
_symmetry_cell_setting 'monoclinic'
loop_
_space_group_symop_operation_xyz
x,y,z
-x,y,-z
-x,-y,-z
x,-y,z
1/2+x,1/2+y,z
1/2-x,1/2+y,-z
1/2-x,1/2-y,-z
1/2+x,1/2-y,z
loop_
_atom_site_type_symbol
_atom_site_label
_atom_site_fract_x
_atom_site_fract_y
_atom_site_fract_z
Si Si1 0.491497 0.386951 0.135713
Si Si2 0.704255 0.248260 0.426245
Si Si3 0.162971 0.112609 0.291497
Si Si4 0.083743 0.259046 0.201730
Si Si5 0.135962 0.272278 0.785342
Si Si6 0.835527 0.384703 0.035061
Si Si7 0.422935 0.882264 0.365193
O O1 0.484155 0.500000 0.181940
O O2 0.560020 0.328223 0.137666
O O3 0.415875 0.317816 0.214509
O O4 0.500000 0.390204 0.000000
O O5 0.750000 0.250000 0.500000
O O6 0.674887 0.354377 0.405096
O O7 0.776187 0.228034 0.283867
O O8 0.633521 0.171210 0.499522
O O9 0.111745 0.199415 0.281718
O O10 0.131200 0.000000 0.310698
O O11 0.246329 0.113083 0.155847
O O12 0.149569 0.328002 0.089140
O O13 0.007143 0.327439 0.288082
O O14 0.121089 0.359691 0.710709
O O15 0.116599 0.322026 0.915851
O O16 0.862295 0.500000 0.005345
O O17 0.430831 0.000000 0.375754
#
# Coordination Sequence:
#
# PCOD9180977 Si02
#       7
#     8   8   8   8   8   8   8
#     4  10  19  32  51  79 116 154 188 230 278 324
#     4   9  20  39  60  83 110 140 187 242 285 330
#     4  10  22  40  62  84 110 149 191 235 284 339
#     4  11  21  36  55  85 120 153 188 231 279 342
#     4   9  18  35  57  85 112 149 191 240 279 338
#     4  10  19  34  58  85 115 149 186 230 284 342
#     4  10  21  36  57  83 115 151 189 235 288 339
#
# _framework density 19.753124
#
# number of rings (size 3 to 8) (size 9 to 14) (size 15 to 20)
#    0.000    2.143    1.429    1.714    0.000    4.571 
#    0.000   11.429    0.000    0.857    0.000    0.000 
#    0.000    0.000    0.000    0.000    0.000    0.000 
#
# Total GULP energy -155931.146368 kJ/mol
# GULP energy per Si atom -5568.969513 kJ/mol
# Density = 1.970816 g / cm^3
# Si number density = 19.753124 Si / 1000 Ang^3
#
#
#
# Elastic Constant Matrix: (Units=GPa)
#
#
# Indices 1 2 3 4 5 6 
#
# 1 39.7957 29.6441 15.0603 0.0000 4.6328 0.0000
# 2 29.6441 156.3198 45.6139 0.0000 -3.9295 0.0000
# 3 15.0603 45.6139 44.9586 0.0000 9.1921 0.0000
# 4 0.0000 0.0000 0.0000 27.5060 0.0000 2.7821
# 5 4.6328 -3.9295 9.1921 0.0000 18.5802 0.0000
# 6 0.0000 0.0000 0.0000 2.7821 0.0000 22.3461
#
#
#
# Elastic Compliance Matrix: (Units=1/GPa)
#
#
# Indices 1 2 3 4 5 6 
#
# 1 0.031093 -0.004873 -0.004089 0.000000 -0.006760 0.000000
# 2 -0.004873 0.010812 -0.011184 0.000000 0.009035 0.000000
# 3 -0.004089 -0.011184 0.039200 0.000000 -0.020739 0.000000
# 4 0.000000 0.000000 0.000000 0.036819 0.000000 -0.004584
# 5 -0.006760 0.009035 -0.020739 0.000000 0.067677 0.000000
# 6 0.000000 0.000000 0.000000 -0.004584 0.000000 0.045321
#
#
# Mechanical properties :
#
#
# Convention : Reuss Voigt Hill
#
# Bulk Modulus (GPa) = 24.50293 46.85675 35.67984
# Shear Modulus (GPa) = 17.55493 23.73684 20.64589
#
# Velocity S-wave (km/s) = 2.98437 3.47028 3.23646
# Velocity P-wave (km/s) = 4.93019 6.31109 5.66289
#
# Compressibility (1/GPa) = 0.04081145
#
# Stress axis : x y z
#
# Youngs Moduli (GPa) = 32.16179 92.49015 25.51008
#
# Poissons Ratio (x) = 0.45071 0.10432
# Poissons Ratio (y) = 0.15673 0.28532
# Poissons Ratio (z) = 0.13152 1.03445
#
# Static dielectric constant tensor:
#      x y z
#    x 1.732830 0.000000 -0.014250 
#    y 0.000000 1.678270 0.000000 
#    z -0.014250 0.000000 1.757200 
# 
# From -- ./inp_files/174486.got.cif
#   From: 2010.05.17/outbox.cif.g08.bks.cpg/sg12_88_cif.got.tgz:174486.got - 2010.06.03 13:09:07.
