data_PCOD9180431
_publ_section_title
;
Structure prediction by ZEFSAII (Michael W. Deem and Ramdas Pophale) SiO2 
 PCOD9180431
Probable space group: C 2/M
;
_chemical_formula_sum "Si O2"
_cell_formula_units_Z 56
_cell_length_a 20.353838
_cell_length_b 7.536577
_cell_length_c 21.927971
_cell_angle_alpha 90.000000
_cell_angle_beta 125.022933
_cell_angle_gamma 90.000000
_cell_volume 2754.619728
_symmetry_space_group_name_H-M "C 2/M"
_symmetry_group_IT_number 12
_symmetry_cell_setting 'monoclinic'
loop_
_space_group_symop_operation_xyz
x,y,z
-x,y,-z
-x,-y,-z
x,-y,z
1/2+x,1/2+y,z
1/2-x,1/2+y,-z
1/2-x,1/2-y,-z
1/2+x,1/2-y,z
loop_
_atom_site_type_symbol
_atom_site_label
_atom_site_fract_x
_atom_site_fract_y
_atom_site_fract_z
Si Si1 0.591301 0.282275 0.547505
Si Si2 0.655956 0.783547 0.129662
Si Si3 0.762720 0.216465 0.298551
Si Si4 0.613371 0.210600 0.297959
Si Si5 0.494897 0.216861 0.868836
Si Si6 0.171563 0.287034 0.999143
Si Si7 0.343561 0.291094 0.545586
O O1 0.500000 0.225849 0.500000
O O2 0.592358 0.500000 0.549129
O O3 0.649688 0.225282 0.633421
O O4 0.625693 0.216841 0.501605
O O5 0.724900 0.727573 0.214122
O O6 0.569573 0.731360 0.112847
O O7 0.655046 0.000000 0.128721
O O8 0.673788 0.723145 0.070616
O O9 0.698209 0.274168 0.315501
O O10 0.763412 0.000000 0.298129
O O11 0.543336 0.276623 0.215964
O O12 0.610874 0.240421 0.368369
O O13 0.614248 0.000000 0.289715
O O14 0.586002 0.277174 0.926938
O O15 0.496333 0.000000 0.870471
O O16 0.166423 0.500000 0.999289
O O17 0.250000 0.250000 0.000000
O O18 0.352377 0.500000 0.545533
O O19 0.250000 0.250000 0.500000
#
# Coordination Sequence:
#
# PCOD9180431 Si02
#       7
#     8   8   8   8   8   8   8
#     4   9  17  29  44  66  96 127 158 195 240 283
#     4   8  14  26  49  74  89 115 167 215 236 267
#     4   8  13  25  46  70  92 117 157 203 243 277
#     4   9  16  30  51  74  95 123 162 206 248 284
#     4   8  15  29  52  74  94 123 165 208 241 279
#     4  10  19  32  49  74 103 130 158 195 246 297
#     4  11  20  31  50  75  99 129 163 201 244 288
#
# _framework density 20.329484999999998
#
# number of rings (size 3 to 8) (size 9 to 14) (size 15 to 20)
#    0.000    3.000    1.429    2.571    0.000    1.714 
#    2.571    0.714    0.000    6.857    0.000    0.000 
#    0.000    0.000    0.000    0.000    0.000    0.000 
#
# Total GULP energy -156073.950725 kJ/mol
# GULP energy per Si atom -5574.069669 kJ/mol
# Density = 2.028321 g / cm^3
# Si number density = 20.329485 Si / 1000 Ang^3
#
#
#
# Elastic Constant Matrix: (Units=GPa)
#
#
# Indices 1 2 3 4 5 6 
#
# 1 145.9905 -0.0064 111.9624 0.0000 18.2525 0.0000
# 2 -0.0064 44.4340 6.2208 0.0000 2.7804 0.0000
# 3 111.9624 6.2208 193.3817 0.0000 18.0384 0.0000
# 4 0.0000 0.0000 0.0000 6.5242 0.0000 -4.9017
# 5 18.2525 2.7804 18.0384 0.0000 31.3817 0.0000
# 6 0.0000 0.0000 0.0000 -4.9017 0.0000 13.4015
#
#
#
# Elastic Compliance Matrix: (Units=1/GPa)
#
#
# Indices 1 2 3 4 5 6 
#
# 1 0.012704 0.001207 -0.007074 0.000000 -0.003430 0.000000
# 2 0.001207 0.022805 -0.001245 0.000000 -0.002007 0.000000
# 3 -0.007074 -0.001245 0.009418 0.000000 -0.001189 0.000000
# 4 0.000000 0.000000 0.000000 0.211354 0.000000 0.077304
# 5 -0.003430 -0.002007 -0.001189 0.000000 0.034722 0.000000
# 6 0.000000 0.000000 0.000000 0.077304 0.000000 0.102892
#
#
# Mechanical properties :
#
#
# Convention : Reuss Voigt Hill
#
# Bulk Modulus (GPa) = 32.57107 68.90665 50.73886
# Shear Modulus (GPa) = 11.95162 27.97012 19.96087
#
# Velocity S-wave (km/s) = 2.42729 3.71326 3.13688
# Velocity P-wave (km/s) = 4.88999 7.23553 6.17515
#
# Compressibility (1/GPa) = 0.03070209
#
# Stress axis : x y z
#
# Youngs Moduli (GPa) = 78.71676 43.84939 106.18310
#
# Poissons Ratio (x) = -0.05292 0.75114
# Poissons Ratio (y) = -0.09500 0.13221
# Poissons Ratio (z) = 0.55684 0.05460
#
# Static dielectric constant tensor:
#      x y z
#    x 1.703090 0.000000 -0.008640 
#    y 0.000000 1.639150 0.000000 
#    z -0.008640 0.000000 1.735190 
# 
# From -- ./inp_files/314423.got.cif
#   From: 2010.05.17/outbox.cif.g08.bks.cpg/sg12_158_cif.got.tgz:314423.got - 2010.06.03 13:09:07.
