data_PCOD9180368
_publ_section_title
;
Structure prediction by ZEFSAII (Michael W. Deem and Ramdas Pophale) SiO2 
 PCOD9180368
Probable space group: C 2/M
;
_chemical_formula_sum "Si O2"
_cell_formula_units_Z 40
_cell_length_a 14.473133
_cell_length_b 9.815938
_cell_length_c 31.762470
_cell_angle_alpha 90.000000
_cell_angle_beta 157.007498
_cell_angle_gamma 90.000000
_cell_volume 1762.595766
_symmetry_space_group_name_H-M "C 2/M"
_symmetry_group_IT_number 12
_symmetry_cell_setting 'monoclinic'
loop_
_space_group_symop_operation_xyz
x,y,z
-x,y,-z
-x,-y,-z
x,-y,z
1/2+x,1/2+y,z
1/2-x,1/2+y,-z
1/2-x,1/2-y,-z
1/2+x,1/2-y,z
loop_
_atom_site_type_symbol
_atom_site_label
_atom_site_fract_x
_atom_site_fract_y
_atom_site_fract_z
Si Si1 0.538093 0.660668 0.467163
Si Si2 0.787498 0.846679 0.127375
Si Si3 0.218708 0.649428 0.806480
Si Si4 0.258270 0.151385 0.043199
Si Si5 0.431877 0.843010 0.346969
O O1 0.500000 0.700902 0.500000
O O2 0.482130 0.500000 0.440390
O O3 0.402851 0.746890 0.374882
O O4 0.812050 0.679380 0.568123
O O5 0.867594 0.783020 0.205487
O O6 0.866091 0.733973 0.126835
O O7 0.877111 0.000000 0.158183
O O8 0.500000 0.857327 0.000000
O O9 0.096858 0.500000 0.761102
O O10 0.236565 0.673032 0.764135
O O11 0.479219 0.633653 0.935017
O O12 0.358420 0.000000 0.077511
O O13 0.250000 0.250000 0.000000
O O14 0.425116 0.000000 0.357984
#
# Coordination Sequence:
#
# PCOD9180368 Si02
#       5
#     8   8   8   8   8
#     4   9  18  34  55  78 106 136 169 209 256 310
#     4   9  17  30  49  70  94 127 167 205 244 294
#     4   9  18  33  51  71  99 132 168 208 252 301
#     4  10  19  32  49  69  98 134 170 210 255 298
#     4   9  18  34  55  77 105 138 171 209 257 310
#
# _framework density 22.693801000000001
#
# number of rings (size 3 to 8) (size 9 to 14) (size 15 to 20)
#    0.000    2.800    0.000    1.200    0.000    4.400 
#    3.600    0.000    0.000    0.000    0.000    0.000 
#    0.000    0.000    0.000    0.000    0.000    0.000 
#
# Total GULP energy -111519.002572 kJ/mol
# GULP energy per Si atom -5575.950129 kJ/mol
# Density = 2.264215 g / cm^3
# Si number density = 22.693801 Si / 1000 Ang^3
#
#
#
# Elastic Constant Matrix: (Units=GPa)
#
#
# Indices 1 2 3 4 5 6 
#
# 1 100.5805 70.1957 32.2403 0.0004 -30.1048 0.0003
# 2 70.1957 174.9980 36.1567 0.0003 -44.7992 0.0011
# 3 32.2403 36.1567 79.3886 0.0032 -19.8237 0.0033
# 4 0.0004 0.0003 0.0032 18.8465 0.0011 -21.0284
# 5 -30.1048 -44.7992 -19.8237 0.0011 47.3666 0.0000
# 6 0.0003 0.0011 0.0033 -21.0284 0.0000 30.4659
#
#
#
# Elastic Compliance Matrix: (Units=1/GPa)
#
#
# Indices 1 2 3 4 5 6 
#
# 1 0.015289 -0.004397 -0.003147 0.000002 0.004242 0.000002
# 2 -0.004397 0.009055 -0.001002 -0.000002 0.005350 -0.000001
# 3 -0.003147 -0.001002 0.015181 -0.000020 0.003405 -0.000015
# 4 0.000002 -0.000002 -0.000020 0.230834 -0.000014 0.159328
# 5 0.004242 0.005350 0.003405 -0.000014 0.030293 -0.000010
# 6 0.000002 -0.000001 -0.000015 0.159328 -0.000010 0.142796
#
#
# Mechanical properties :
#
#
# Convention : Reuss Voigt Hill
#
# Bulk Modulus (GPa) = 44.57907 70.23918 57.40913
# Shear Modulus (GPa) = 10.68333 33.76077 22.22205
#
# Velocity S-wave (km/s) = 2.17205 3.86121 3.13263
# Velocity P-wave (km/s) = 5.09674 7.13419 6.19973
#
# Compressibility (1/GPa) = 0.02243205
#
# Stress axis : x y z
#
# Youngs Moduli (GPa) = 65.40541 110.44049 65.87054
#
# Poissons Ratio (x) = 0.48557 0.20733
# Poissons Ratio (y) = 0.28757 0.06603
# Poissons Ratio (z) = 0.20586 0.11071
#
# Static dielectric constant tensor:
#      x y z
#    x 1.956250 0.000000 0.089090 
#    y 0.000000 1.873940 0.000000 
#    z 0.089090 0.000000 1.906010 
# 
# From -- ./inp_files/211380.got.cif
#   From: 2010.05.17/outbox.cif.g08.bks.cpg/sg12_106_cif.got.tgz:211380.got - 2010.06.03 13:09:07.
