data_PCOD9180687
_publ_section_title
;
Structure prediction by ZEFSAII (Michael W. Deem and Ramdas Pophale) SiO2 
 PCOD9180687
Probable space group: C 2/M
;
_chemical_formula_sum "Si O2"
_cell_formula_units_Z 48
_cell_length_a 22.858709
_cell_length_b 12.308630
_cell_length_c 9.902329
_cell_angle_alpha 90.000000
_cell_angle_beta 38.934642
_cell_angle_gamma 90.000000
_cell_volume 1750.886857
_symmetry_space_group_name_H-M "C 2/M"
_symmetry_group_IT_number 12
_symmetry_cell_setting 'monoclinic'
loop_
_space_group_symop_operation_xyz
x,y,z
-x,y,-z
-x,-y,-z
x,-y,z
1/2+x,1/2+y,z
1/2-x,1/2+y,-z
1/2-x,1/2-y,-z
1/2+x,1/2-y,z
loop_
_atom_site_type_symbol
_atom_site_label
_atom_site_fract_x
_atom_site_fract_y
_atom_site_fract_z
Si Si1 0.628646 0.623356 0.625510
Si Si2 0.163429 0.886046 0.161296
Si Si3 0.350287 0.122539 0.466330
Si Si4 0.626475 0.845491 0.264823
Si Si5 0.939371 0.612639 0.899414
Si Si6 0.592994 0.654200 0.995698
O O1 0.659231 0.500000 0.523315
O O2 0.673495 0.745517 0.513226
O O3 0.627918 0.615921 0.789522
O O4 0.517718 0.634046 0.788952
O O5 0.273024 0.867393 0.986299
O O6 0.144772 0.886859 0.034728
O O7 0.132174 0.000000 0.274498
O O8 0.111333 0.782544 0.310647
O O9 0.358066 0.112084 0.614240
O O10 0.457542 0.119385 0.226444
O O11 0.312752 0.000000 0.489880
O O12 0.556567 0.882583 0.272858
O O13 0.894443 0.500000 0.018762
O O14 0.887797 0.717835 0.038746
#
# Coordination Sequence:
#
# PCOD9180687 Si02
#       6
#     8   8   8   8   8   8
#     4  10  19  33  53  73  97 128 163 204 245 284
#     4  10  19  32  51  72  96 126 161 201 242 288
#     4  10  20  33  50  73 101 131 162 197 240 289
#     4  10  20  32  49  73  99 129 161 195 241 293
#     4   9  17  30  50  74  99 127 159 198 240 284
#     4   9  18  32  51  74  96 125 164 201 242 287
#
# _framework density 27.414677999999999
#
# number of rings (size 3 to 8) (size 9 to 14) (size 15 to 20)
#    0.000    2.333    0.000    4.000    0.000    2.667 
#    0.000    4.167    0.000    6.000    0.000    0.000 
#    0.000    0.000    0.000    0.000    0.000    0.000 
#
# Total GULP energy -133870.056730 kJ/mol
# GULP energy per Si atom -5577.919030 kJ/mol
# Density = 2.735228 g / cm^3
# Si number density = 27.414678 Si / 1000 Ang^3
#
#
#
# Elastic Constant Matrix: (Units=GPa)
#
#
# Indices 1 2 3 4 5 6 
#
# 1 103.3714 18.9107 32.2519 0.0000 6.7726 0.0000
# 2 18.9107 338.9424 17.6130 0.0000 0.2723 0.0000
# 3 32.2519 17.6130 51.3337 0.0000 5.9426 0.0000
# 4 0.0000 0.0000 0.0000 -46.3220 0.0000 -16.7090
# 5 6.7726 0.2723 5.9426 0.0000 42.0659 0.0000
# 6 0.0000 0.0000 0.0000 -16.7090 0.0000 1.4271
#
#
#
# Elastic Compliance Matrix: (Units=1/GPa)
#
#
# Indices 1 2 3 4 5 6 
#
# 1 0.012093 -0.000290 -0.007394 0.000000 -0.000901 0.000000
# 2 -0.000290 0.003012 -0.000869 0.000000 0.000150 0.000000
# 3 -0.007394 -0.000869 0.024689 0.000000 -0.002292 0.000000
# 4 0.000000 0.000000 0.000000 -0.004133 0.000000 -0.048390
# 5 -0.000901 0.000150 -0.002292 0.000000 0.024240 0.000000
# 6 0.000000 0.000000 0.000000 -0.048390 0.000000 0.134151
#
#
# Mechanical properties :
#
#
# Convention : Reuss Voigt Hill
#
# Bulk Modulus (GPa) = 44.07450 70.13320 57.10385
# Shear Modulus (GPa) = 22.86041 27.75901 25.30971
#
# Velocity S-wave (km/s) = 2.89082 3.18553 3.04175
# Velocity P-wave (km/s) = 5.22057 6.25843 5.76291
#
# Compressibility (1/GPa) = 0.02268886
#
# Stress axis : x y z
#
# Youngs Moduli (GPa) = 82.69389 332.05654 40.50358
#
# Poissons Ratio (x) = 0.09621 0.29948
# Poissons Ratio (y) = 0.02396 0.03518
# Poissons Ratio (z) = 0.61144 0.28842
#
# Static dielectric constant tensor:
#      x y z
#    x 2.113150 0.000000 -0.011880 
#    y 0.000000 2.197870 0.000000 
#    z -0.011880 0.000000 2.164650 
# 
# From -- ./inp_files/187954.got.cif
#   From: 2010.05.17/outbox.cif.g08.bks.cpg/sg12_94_cif.got.tgz:187954.got - 2010.06.03 13:09:07.
