data_PCOD9180369
_publ_section_title
;
Structure prediction by ZEFSAII (Michael W. Deem and Ramdas Pophale) SiO2 
 PCOD9180369
Probable space group: C 2/M
;
_chemical_formula_sum "Si O2"
_cell_formula_units_Z 56
_cell_length_a 27.932794
_cell_length_b 11.750238
_cell_length_c 9.244794
_cell_angle_alpha 90.000000
_cell_angle_beta 70.709612
_cell_angle_gamma 90.000000
_cell_volume 2863.941869
_symmetry_space_group_name_H-M "C 2/M"
_symmetry_group_IT_number 12
_symmetry_cell_setting 'monoclinic'
loop_
_space_group_symop_operation_xyz
x,y,z
-x,y,-z
-x,-y,-z
x,-y,z
1/2+x,1/2+y,z
1/2-x,1/2+y,-z
1/2-x,1/2-y,-z
1/2+x,1/2-y,z
loop_
_atom_site_type_symbol
_atom_site_label
_atom_site_fract_x
_atom_site_fract_y
_atom_site_fract_z
Si Si1 0.719404 0.123689 0.408653
Si Si2 0.891264 0.865661 0.769573
Si Si3 0.681471 0.875293 0.773864
Si Si4 0.016431 0.860890 0.142497
Si Si5 0.221322 0.195171 0.163194
Si Si6 0.339610 0.369776 0.258671
Si Si7 0.423090 0.364889 0.425303
O O1 0.693582 0.132801 0.590143
O O2 0.706184 0.216538 0.303966
O O3 0.780606 0.127507 0.365842
O O4 0.706817 0.000000 0.359737
O O5 0.928297 0.823356 0.858860
O O6 0.831060 0.854606 0.841925
O O7 0.909011 0.817270 0.596076
O O8 0.901000 0.000000 0.754576
O O9 0.735491 0.878559 0.801926
O O10 0.657156 0.750502 0.832212
O O11 0.656480 0.000000 0.824966
O O12 0.974338 0.821645 0.300041
O O13 0.015088 0.000000 0.138630
O O14 0.000000 0.822022 0.000000
O O15 0.250000 0.250000 0.000000
O O16 0.349812 0.500000 0.186694
O O17 0.377375 0.356291 0.355982
O O18 0.431229 0.500000 0.436576
#
# Coordination Sequence:
#
# PCOD9180369 Si02
#       7
#     8   8   8   8   8   8   8
#     4   9  18  32  49  69  97 134 175 217 259 312
#     4  10  19  32  49  69  98 136 175 213 262 322
#     4  10  19  33  51  72 101 138 180 219 258 314
#     4   9  18  30  45  70 102 132 166 213 267 321
#     4  11  22  33  48  73 104 137 177 224 273 321
#     4   9  16  27  47  74 101 132 171 212 255 304
#     4   9  16  28  49  74 101 135 173 212 257 316
#
# _framework density 19.553470000000001
#
# number of rings (size 3 to 8) (size 9 to 14) (size 15 to 20)
#    0.000    2.429    0.000    4.286    0.000    7.429 
#    0.000    4.286    0.000    0.000    0.000    1.000 
#    0.000    6.857    0.000    0.000    0.000    0.000 
#
# Total GULP energy -155913.452628 kJ/mol
# GULP energy per Si atom -5568.337594 kJ/mol
# Density = 1.950897 g / cm^3
# Si number density = 19.553470 Si / 1000 Ang^3
#
#
#
# Elastic Constant Matrix: (Units=GPa)
#
#
# Indices 1 2 3 4 5 6 
#
# 1 109.3971 17.0751 44.3091 0.0000 16.9540 0.0000
# 2 17.0751 103.4855 14.3725 0.0000 10.6946 0.0000
# 3 44.3091 14.3725 73.2329 0.0000 3.4733 0.0000
# 4 0.0000 0.0000 0.0000 -5.8535 0.0000 -8.5896
# 5 16.9540 10.6946 3.4733 0.0000 24.7250 0.0000
# 6 0.0000 0.0000 0.0000 -8.5896 0.0000 13.4712
#
#
#
# Elastic Compliance Matrix: (Units=1/GPa)
#
#
# Indices 1 2 3 4 5 6 
#
# 1 0.013596 -0.000327 -0.007778 0.000000 -0.008089 0.000000
# 2 -0.000327 0.010362 -0.001645 0.000000 -0.004026 0.000000
# 3 -0.007778 -0.001645 0.018521 0.000000 0.003443 0.000000
# 4 0.000000 0.000000 0.000000 -0.088257 0.000000 -0.056275
# 5 -0.008089 -0.004026 0.003443 0.000000 0.047249 0.000000
# 6 0.000000 0.000000 0.000000 -0.056275 0.000000 0.038350
#
#
# Mechanical properties :
#
#
# Convention : Reuss Voigt Hill
#
# Bulk Modulus (GPa) = 43.51949 48.62545 46.07247
# Shear Modulus (GPa) = 74.64920 20.49246 47.57083
#
# Velocity S-wave (km/s) = 6.18545 3.24083 4.93775
# Velocity P-wave (km/s) = 8.56260 6.23906 7.49146
#
# Compressibility (1/GPa) = 0.02297821
#
# Stress axis : x y z
#
# Youngs Moduli (GPa) = 73.55041 96.50932 53.99327
#
# Poissons Ratio (x) = 0.03157 0.41998
# Poissons Ratio (y) = 0.02406 0.08880
# Poissons Ratio (z) = 0.57211 0.15872
#
# Static dielectric constant tensor:
#      x y z
#    x 1.691300 0.000000 0.003680 
#    y 0.000000 1.747500 0.000000 
#    z 0.003680 0.000000 1.711550 
# 
# From -- ./inp_files/103125.got.cif
#   From: 2010.05.17/outbox.cif.g08.bks.cpg/sg12_52_cif.got.tgz:103125.got - 2010.06.03 13:09:07.
