data_PCOD9180205
_publ_section_title
;
Structure prediction by ZEFSAII (Michael W. Deem and Ramdas Pophale) SiO2 
 PCOD9180205
Probable space group: C 2/M
;
_chemical_formula_sum "Si O2"
_cell_formula_units_Z 64
_cell_length_a 24.454419
_cell_length_b 20.852433
_cell_length_c 9.833442
_cell_angle_alpha 90.000000
_cell_angle_beta 140.213748
_cell_angle_gamma 90.000000
_cell_volume 3208.846536
_symmetry_space_group_name_H-M "C 2/M"
_symmetry_group_IT_number 12
_symmetry_cell_setting 'monoclinic'
loop_
_space_group_symop_operation_xyz
x,y,z
-x,y,-z
-x,-y,-z
x,-y,z
1/2+x,1/2+y,z
1/2-x,1/2+y,-z
1/2-x,1/2-y,-z
1/2+x,1/2-y,z
loop_
_atom_site_type_symbol
_atom_site_label
_atom_site_fract_x
_atom_site_fract_y
_atom_site_fract_z
Si Si1 0.939636 0.234583 0.016935
Si Si2 0.925752 0.620068 0.467343
Si Si3 0.168153 0.750630 0.660197
Si Si4 0.807843 0.810821 0.570414
Si Si5 0.349476 0.692880 0.081276
Si Si6 0.250428 0.425968 0.990823
Si Si7 0.769192 0.572340 0.729777
Si Si8 0.458131 0.112259 0.066336
O O1 0.867058 0.187630 0.813917
O O2 0.935565 0.205861 0.161077
O O3 0.932106 0.311603 0.027877
O O4 0.000000 0.233438 0.000000
O O5 0.881179 0.683908 0.438779
O O6 0.847565 0.582822 0.247070
O O7 0.000000 0.633669 0.500000
O O8 0.974856 0.591630 0.690273
O O9 0.147467 0.788807 0.484223
O O10 0.270545 0.736435 0.869549
O O11 0.140338 0.783913 0.745286
O O12 0.750000 0.750000 0.500000
O O13 0.762575 0.876244 0.441539
O O14 0.310600 0.621713 0.020537
O O15 0.274586 0.500000 0.023064
O O16 0.254145 0.408551 0.159054
O O17 0.737743 0.500000 0.645498
O O18 0.871126 0.574203 0.917443
O O19 0.500000 0.103386 0.000000
#
# Coordination Sequence:
#
# PCOD9180205 Si02
#       8
#     8   8   8   8   8   8   8   8
#     4  11  23  38  62  92 124 154 199 259 330 374
#     4  11  21  33  56  89 124 160 203 246 301 367
#     4  10  19  31  56  86 114 158 201 253 306 353
#     4  12  21  38  63  88 121 165 203 255 317 366
#     4  10  19  35  57  84 118 150 204 262 308 354
#     4  10  22  39  60  86 120 170 217 252 302 369
#     4  11  23  40  61  88 122 169 214 253 304 370
#     4  11  22  37  55  87 129 167 196 244 304 375
#
# _framework density 19.944862000000001
#
# number of rings (size 3 to 8) (size 9 to 14) (size 15 to 20)
#    0.000    1.250    5.000    2.250    1.750    1.000 
#    0.000    1.875    0.000    1.500    0.000    1.750 
#    0.000    0.000    0.000    0.000    0.000    0.000 
#
# Total GULP energy -178344.863063 kJ/mol
# GULP energy per Si atom -5573.276971 kJ/mol
# Density = 1.989947 g / cm^3
# Si number density = 19.944862 Si / 1000 Ang^3
#
#
#
# Elastic Constant Matrix: (Units=GPa)
#
#
# Indices 1 2 3 4 5 6 
#
# 1 95.6283 18.4167 -12.4867 0.0000 -19.8592 0.0000
# 2 18.4167 77.7289 10.4389 0.0000 -0.4918 0.0000
# 3 -12.4867 10.4389 50.6195 0.0000 -20.7794 0.0000
# 4 0.0000 0.0000 0.0000 20.1777 0.0000 -6.7486
# 5 -19.8592 -0.4918 -20.7794 0.0000 24.1780 0.0000
# 6 0.0000 0.0000 0.0000 -6.7486 0.0000 17.2231
#
#
#
# Elastic Compliance Matrix: (Units=1/GPa)
#
#
# Indices 1 2 3 4 5 6 
#
# 1 0.023335 -0.008454 0.023636 0.000000 0.039308 0.000000
# 2 -0.008454 0.016458 -0.012659 0.000000 -0.017489 0.000000
# 3 0.023636 -0.012659 0.055717 0.000000 0.067041 0.000000
# 4 0.000000 0.000000 0.000000 0.057034 0.000000 0.022348
# 5 0.039308 -0.017489 0.067041 0.000000 0.130908 0.000000
# 6 0.000000 0.000000 0.000000 0.022348 0.000000 0.066818
#
#
# Mechanical properties :
#
#
# Convention : Reuss Voigt Hill
#
# Bulk Modulus (GPa) = 9.94490 28.52383 19.23436
# Shear Modulus (GPa) = 13.20160 26.15629 19.67895
#
# Velocity S-wave (km/s) = 2.57554 3.62530 3.14453
# Velocity P-wave (km/s) = 3.72043 5.64412 4.78004
#
# Compressibility (1/GPa) = 0.10055406
#
# Stress axis : x y z
#
# Youngs Moduli (GPa) = 42.85477 60.76159 17.94799
#
# Poissons Ratio (x) = 0.51370 -0.42421
# Poissons Ratio (y) = 0.36231 0.22720
# Poissons Ratio (z) = -1.01290 0.76916
#
# Static dielectric constant tensor:
#      x y z
#    x 1.759760 0.000000 0.071090 
#    y 0.000000 1.725230 0.000000 
#    z 0.071090 0.000000 1.795870 
# 
# From -- ./inp_files/99138.got.cif
#   From: 2010.05.17/outbox.cif.g08.bks.cpg/sg12_50_cif.got.tgz:99138.got - 2010.06.03 13:09:07.
