data_PCOD9180095
_publ_section_title
;
Structure prediction by ZEFSAII (Michael W. Deem and Ramdas Pophale) SiO2 
 PCOD9180095
Probable space group: C 2/M
;
_chemical_formula_sum "Si O2"
_cell_formula_units_Z 64
_cell_length_a 13.127017
_cell_length_b 23.717741
_cell_length_c 28.927321
_cell_angle_alpha 90.000000
_cell_angle_beta 155.742798
_cell_angle_gamma 90.000000
_cell_volume 3700.099376
_symmetry_space_group_name_H-M "C 2/M"
_symmetry_group_IT_number 12
_symmetry_cell_setting 'monoclinic'
loop_
_space_group_symop_operation_xyz
x,y,z
-x,y,-z
-x,-y,-z
x,-y,z
1/2+x,1/2+y,z
1/2-x,1/2+y,-z
1/2-x,1/2-y,-z
1/2+x,1/2-y,z
loop_
_atom_site_type_symbol
_atom_site_label
_atom_site_fract_x
_atom_site_fract_y
_atom_site_fract_z
Si Si1 0.600384 0.167822 0.431790
Si Si2 0.502653 0.829448 0.285526
Si Si3 0.497303 0.818737 0.862361
Si Si4 0.371463 0.721960 0.370282
Si Si5 0.226998 0.935314 0.628061
Si Si6 0.225038 0.065359 0.737134
Si Si7 0.522856 0.736661 0.060833
Si Si8 0.165257 0.565689 0.522944
O O1 0.486206 0.172175 0.333692
O O2 0.465603 0.214154 0.407729
O O3 0.585315 0.107424 0.449182
O O4 0.886812 0.185465 0.542784
O O5 0.740451 0.796024 0.363526
O O6 0.550545 0.893200 0.289933
O O7 0.262733 0.802267 0.164176
O O8 0.329006 0.790430 0.752741
O O9 0.417065 0.884626 0.828907
O O10 0.447275 0.786476 0.889672
O O11 0.782511 0.802472 0.970655
O O12 0.169600 0.931172 0.658860
O O13 0.000000 0.919297 0.500000
O O14 0.286600 0.000000 0.642356
O O15 0.960293 0.075203 0.652525
O O16 0.304057 0.000000 0.778622
O O17 0.500000 0.760418 0.000000
O O18 0.137976 0.500000 0.498617
O O19 0.000000 0.575961 0.500000
#
# Coordination Sequence:
#
# PCOD9180095 Si02
#       8
#     8   8   8   8   8   8   8   8
#     4  11  23  34  55  87 118 152 181 230 288 340
#     4  12  21  36  56  85 116 150 189 233 284 341
#     4  11  21  40  58  82 110 149 196 232 283 349
#     4  11  21  35  54  84 121 147 182 233 287 348
#     4  10  19  31  53  84 119 155 184 217 275 348
#     4  10  19  36  59  81 111 150 190 233 277 331
#     4  11  23  38  60  79 109 150 192 242 288 336
#     4  10  21  37  56  82 118 159 193 225 273 340
#
# _framework density 17.296832999999999
#
# number of rings (size 3 to 8) (size 9 to 14) (size 15 to 20)
#    0.000    1.250    5.000    1.875    0.000    4.500 
#    0.000    0.625    0.000    2.625    0.000    0.000 
#    0.000    0.000    0.000    0.000    0.000    0.000 
#
# Total GULP energy -178571.562042 kJ/mol
# GULP energy per Si atom -5580.361314 kJ/mol
# Density = 1.725746 g / cm^3
# Si number density = 17.296833 Si / 1000 Ang^3
#
#
#
# Elastic Constant Matrix: (Units=GPa)
#
#
# Indices 1 2 3 4 5 6 
#
# 1 58.9606 32.2140 8.7768 0.0007 -7.8688 -0.0014
# 2 32.2140 99.0346 24.8649 0.0046 -0.7086 -0.0007
# 3 8.7768 24.8649 61.5744 0.0176 -3.0927 -0.0027
# 4 0.0007 0.0046 0.0176 24.2415 -0.0053 -6.1960
# 5 -7.8688 -0.7086 -3.0927 -0.0053 25.4197 -0.0005
# 6 -0.0014 -0.0007 -0.0027 -6.1960 -0.0005 24.5330
#
#
#
# Elastic Compliance Matrix: (Units=1/GPa)
#
#
# Indices 1 2 3 4 5 6 
#
# 1 0.021652 -0.007015 0.000074 0.000003 0.006516 0.000002
# 2 -0.007015 0.013511 -0.004574 0.000000 -0.002351 0.000000
# 3 0.000074 -0.004574 0.018183 -0.000012 0.002108 -0.000001
# 4 0.000003 0.000000 -0.000012 0.044098 0.000009 0.011137
# 5 0.006516 -0.002351 0.002108 0.000009 0.041547 0.000004
# 6 0.000002 0.000000 -0.000001 0.011137 0.000004 0.043574
#
#
# Mechanical properties :
#
#
# Convention : Reuss Voigt Hill
#
# Bulk Modulus (GPa) = 32.98676 39.03123 36.00900
# Shear Modulus (GPa) = 23.18024 25.08644 24.13334
#
# Velocity S-wave (km/s) = 3.66477 3.81248 3.73935
# Velocity P-wave (km/s) = 6.08439 6.48032 6.28547
#
# Compressibility (1/GPa) = 0.03031519
#
# Stress axis : x y z
#
# Youngs Moduli (GPa) = 46.18575 74.01448 54.99642
#
# Poissons Ratio (x) = 0.51919 -0.00406
# Poissons Ratio (y) = 0.32398 0.25156
# Poissons Ratio (z) = -0.00341 0.33855
#
# Static dielectric constant tensor:
#      x y z
#    x 1.611920 0.000000 -0.002650 
#    y 0.000000 1.596640 0.000000 
#    z -0.002650 0.000000 1.579650 
# 
# From -- ./inp_files/359138.got.cif
#   From: 2010.05.17/outbox.cif.g08.bks.cpg/sg12_180_cif.got.tgz:359138.got - 2010.06.03 13:09:07.
