data_PCOD9180055
_publ_section_title
;
Structure prediction by ZEFSAII (Michael W. Deem and Ramdas Pophale) SiO2 
 PCOD9180055
Probable space group: C 2/M
;
_chemical_formula_sum "Si O2"
_cell_formula_units_Z 52
_cell_length_a 12.775940
_cell_length_b 12.993096
_cell_length_c 16.589170
_cell_angle_alpha 90.000000
_cell_angle_beta 117.483810
_cell_angle_gamma 90.000000
_cell_volume 2442.997111
_symmetry_space_group_name_H-M "C 2/M"
_symmetry_group_IT_number 12
_symmetry_cell_setting 'monoclinic'
loop_
_space_group_symop_operation_xyz
x,y,z
-x,y,-z
-x,-y,-z
x,-y,z
1/2+x,1/2+y,z
1/2-x,1/2+y,-z
1/2-x,1/2-y,-z
1/2+x,1/2-y,z
loop_
_atom_site_type_symbol
_atom_site_label
_atom_site_fract_x
_atom_site_fract_y
_atom_site_fract_z
Si Si1 0.759170 0.384975 0.851807
Si Si2 0.000000 0.310433 0.000000
Si Si3 0.227798 0.783995 0.285191
Si Si4 0.527586 0.711356 0.836439
Si Si5 0.535302 0.823440 0.682097
Si Si6 0.779948 0.614743 0.580475
Si Si7 0.958149 0.113529 0.578441
O O1 0.750761 0.500000 0.815675
O O2 0.769550 0.297987 0.787312
O O3 0.641846 0.357235 0.860150
O O4 0.880320 0.374587 0.944728
O O5 0.979922 0.243628 0.073480
O O6 0.340391 0.856033 0.310960
O O7 0.239607 0.709673 0.366309
O O8 0.099263 0.835255 0.234954
O O9 0.537360 0.811934 0.780055
O O10 0.418533 0.880062 0.610254
O O11 0.517638 0.705585 0.646317
O O12 0.756489 0.500000 0.606945
O O13 0.683760 0.625391 0.475843
O O14 0.000000 0.118820 0.500000
O O15 0.987515 0.000000 0.619729
#
# Coordination Sequence:
#
# PCOD9180055 Si02
#       7
#     8   4   8   8   8   8   8
#     4  10  19  32  54  81 103 130 169 216 258 299
#     4  10  19  36  55  74 104 134 170 208 253 312
#     4   9  18  33  52  76 105 139 174 211 256 306
#     4   9  20  34  53  76 104 138 170 208 258 309
#     4  10  19  33  53  79 106 139 175 217 263 308
#     4  10  19  32  51  78 107 139 177 217 260 307
#     4  10  19  31  53  82 106 134 173 221 264 305
#
# _framework density 21.285329999999998
#
# number of rings (size 3 to 8) (size 9 to 14) (size 15 to 20)
#    0.000    2.308    1.538    1.615    0.000    2.462 
#    0.000    1.923    0.000    1.385    0.000    0.000 
#    0.000    0.000    0.000    0.000    0.000    0.000 
#
# Total GULP energy -145055.025212 kJ/mol
# GULP energy per Si atom -5579.039431 kJ/mol
# Density = 2.123688 g / cm^3
# Si number density = 21.285330 Si / 1000 Ang^3
#
#
#
# Elastic Constant Matrix: (Units=GPa)
#
#
# Indices 1 2 3 4 5 6 
#
# 1 136.1701 9.9457 25.3368 0.0000 36.6441 0.0000
# 2 9.9457 38.4814 19.7588 0.0000 -2.9500 0.0000
# 3 25.3368 19.7588 63.3297 0.0000 19.7758 0.0000
# 4 0.0000 0.0000 0.0000 -3.2973 0.0000 -5.2307
# 5 36.6441 -2.9500 19.7758 0.0000 49.3249 0.0000
# 6 0.0000 0.0000 0.0000 -5.2307 0.0000 5.1825
#
#
#
# Elastic Compliance Matrix: (Units=1/GPa)
#
#
# Indices 1 2 3 4 5 6 
#
# 1 0.009548 -0.002549 -0.000871 0.000000 -0.006896 0.000000
# 2 -0.002549 0.033587 -0.012206 0.000000 0.008796 0.000000
# 3 -0.000871 -0.012206 0.022831 0.000000 -0.009237 0.000000
# 4 0.000000 0.000000 0.000000 -0.116594 0.000000 -0.117680
# 5 -0.006896 0.008796 -0.009237 0.000000 0.029627 0.000000
# 6 0.000000 0.000000 0.000000 -0.117680 0.000000 0.074182
#
#
# Mechanical properties :
#
#
# Convention : Reuss Voigt Hill
#
# Bulk Modulus (GPa) = 28.80683 38.67374 33.74028
# Shear Modulus (GPa) = 52.08045 22.43801 37.25923
#
# Velocity S-wave (km/s) = 4.95186 3.25030 4.18840
# Velocity P-wave (km/s) = 6.80129 5.68283 6.26706
#
# Compressibility (1/GPa) = 0.03471399
#
# Stress axis : x y z
#
# Youngs Moduli (GPa) = 104.73522 29.77332 43.79927
#
# Poissons Ratio (x) = 0.07590 0.03815
# Poissons Ratio (y) = 0.26698 0.53462
# Poissons Ratio (z) = 0.09123 0.36342
#
# Static dielectric constant tensor:
#      x y z
#    x 1.873350 0.000000 0.021700 
#    y 0.000000 1.733590 0.000000 
#    z 0.021700 0.000000 1.786230 
# 
# From -- ./inp_files/263035.got.cif
#   From: 2010.05.17/outbox.cif.g08.bks.cpg/sg12_132_cif.got.tgz:263035.got - 2010.06.03 13:09:07.
