data_PCOD9180628
_publ_section_title
;
Structure prediction by ZEFSAII (Michael W. Deem and Ramdas Pophale) SiO2 
 PCOD9180628
Probable space group: C 2/M
;
_chemical_formula_sum "Si O2"
_cell_formula_units_Z 64
_cell_length_a 30.635326
_cell_length_b 7.475924
_cell_length_c 19.830024
_cell_angle_alpha 90.000000
_cell_angle_beta 37.519913
_cell_angle_gamma 90.000000
_cell_volume 2766.014083
_symmetry_space_group_name_H-M "C 2/M"
_symmetry_group_IT_number 12
_symmetry_cell_setting 'monoclinic'
loop_
_space_group_symop_operation_xyz
x,y,z
-x,y,-z
-x,-y,-z
x,-y,z
1/2+x,1/2+y,z
1/2-x,1/2+y,-z
1/2-x,1/2-y,-z
1/2+x,1/2-y,z
loop_
_atom_site_type_symbol
_atom_site_label
_atom_site_fract_x
_atom_site_fract_y
_atom_site_fract_z
Si Si1 0.610465 0.218557 0.937198
Si Si2 0.490401 0.781273 0.190093
Si Si3 0.274340 0.286853 0.546374
Si Si4 0.376602 0.782184 0.225172
Si Si5 0.809049 0.286709 0.869979
Si Si6 0.034031 0.710610 0.282498
Si Si7 0.729151 0.707721 0.235538
Si Si8 0.614181 0.283885 0.484785
O O1 0.588858 0.270447 0.887909
O O2 0.691295 0.282852 0.851006
O O3 0.610122 0.000000 0.939668
O O4 0.555598 0.273798 0.061811
O O5 0.418560 0.720999 0.240009
O O6 0.504951 0.714981 0.247193
O O7 0.487749 0.000000 0.194925
O O8 0.278833 0.500000 0.545866
O O9 0.250000 0.250000 0.500000
O O10 0.205762 0.225027 0.673327
O O11 0.346362 0.219301 0.494217
O O12 0.376930 0.000000 0.226683
O O13 0.813114 0.500000 0.857782
O O14 0.888240 0.217015 0.792593
O O15 0.787708 0.215755 0.822830
O O16 0.750000 0.250000 0.000000
O O17 0.045771 0.500000 0.257045
O O18 0.968598 0.728838 0.414663
O O19 0.735190 0.500000 0.248888
O O20 0.664697 0.779044 0.361249
O O21 0.612856 0.500000 0.485909
#
# Coordination Sequence:
#
# PCOD9180628 Si02
#       8
#     8   8   8   8   8   8   8   8
#     4   9  15  27  48  75 108 142 178 228 280 330
#     4   9  16  26  46  76 106 139 180 227 283 336
#     4  10  19  32  50  76 111 153 197 238 284 337
#     4   9  15  25  44  73 106 138 178 226 276 331
#     4  11  24  42  64  90 118 148 187 234 289 352
#     4  10  22  39  57  82 114 147 187 239 292 344
#     4  10  20  37  60  84 115 153 194 242 291 340
#     4  10  21  37  57  82 114 154 199 243 290 345
#
# _framework density 23.137986999999999
#
# number of rings (size 3 to 8) (size 9 to 14) (size 15 to 20)
#    0.000    2.250    1.250    2.250    0.000    7.000 
#    0.000    2.500    0.000    0.000    0.000    0.000 
#    0.000    6.000    0.000    0.000    0.000    0.000 
#
# Total GULP energy -178731.665505 kJ/mol
# GULP energy per Si atom -5585.364547 kJ/mol
# Density = 2.308532 g / cm^3
# Si number density = 23.137987 Si / 1000 Ang^3
#
#
#
# Elastic Constant Matrix: (Units=GPa)
#
#
# Indices 1 2 3 4 5 6 
#
# 1 107.3293 -9.1397 21.1434 -0.0146 -15.9206 -0.0028
# 2 -9.1397 63.5497 -16.1087 -0.0196 -4.6682 0.0088
# 3 21.1434 -16.1087 79.0369 -0.0289 -15.6127 0.0107
# 4 -0.0146 -0.0196 -0.0289 10.5810 0.0053 3.0165
# 5 -15.9206 -4.6682 -15.6127 0.0053 43.3892 -0.0016
# 6 -0.0028 0.0088 0.0107 3.0165 -0.0016 13.9979
#
#
#
# Elastic Compliance Matrix: (Units=1/GPa)
#
#
# Indices 1 2 3 4 5 6 
#
# 1 0.010268 0.001244 -0.001854 0.000009 0.003234 0.000001
# 2 0.001244 0.017176 0.003900 0.000049 0.003708 -0.000024
# 3 -0.001854 0.003900 0.014955 0.000050 0.005120 -0.000024
# 4 0.000009 0.000049 0.000050 0.100695 0.000014 -0.021699
# 5 0.003234 0.003708 0.005120 0.000014 0.026475 -0.000005
# 6 0.000001 -0.000024 -0.000024 -0.021699 -0.000005 0.076115
#
#
# Mechanical properties :
#
#
# Convention : Reuss Voigt Hill
#
# Bulk Modulus (GPa) = 20.41695 26.85621 23.63658
# Shear Modulus (GPa) = 19.57478 30.52835 25.05157
#
# Velocity S-wave (km/s) = 2.91177 3.63630 3.29401
# Velocity P-wave (km/s) = 4.48861 5.40947 4.97042
#
# Compressibility (1/GPa) = 0.04897892
#
# Stress axis : x y z
#
# Youngs Moduli (GPa) = 97.38868 58.22179 66.86820
#
# Poissons Ratio (x) = -0.07244 0.12400
# Poissons Ratio (y) = -0.12118 -0.26080
# Poissons Ratio (z) = 0.18059 -0.22708
#
# Static dielectric constant tensor:
#      x y z
#    x 1.875960 -0.000010 -0.000970 
#    y -0.000010 1.911600 0.000000 
#    z -0.000970 0.000000 1.864340 
# 
# From -- ./inp_files/295608.got.cif
#   From: 2010.05.17/outbox.cif.g08.bks.cpg/sg12_148_cif.got.tgz:295608.got - 2010.06.03 13:09:07.
