data_PCOD9180447
_publ_section_title
;
Structure prediction by ZEFSAII (Michael W. Deem and Ramdas Pophale) SiO2 
 PCOD9180447
Probable space group: C 2/M
;
_chemical_formula_sum "Si O2"
_cell_formula_units_Z 40
_cell_length_a 19.552216
_cell_length_b 8.615853
_cell_length_c 14.748401
_cell_angle_alpha 90.000000
_cell_angle_beta 37.694132
_cell_angle_gamma 90.000000
_cell_volume 1519.138305
_symmetry_space_group_name_H-M "C 2/M"
_symmetry_group_IT_number 12
_symmetry_cell_setting 'monoclinic'
loop_
_space_group_symop_operation_xyz
x,y,z
-x,y,-z
-x,-y,-z
x,-y,z
1/2+x,1/2+y,z
1/2-x,1/2+y,-z
1/2-x,1/2-y,-z
1/2+x,1/2-y,z
loop_
_atom_site_type_symbol
_atom_site_label
_atom_site_fract_x
_atom_site_fract_y
_atom_site_fract_z
Si Si1 0.611461 0.000000 0.447889
Si Si2 0.427967 0.322122 0.849737
Si Si3 0.420609 0.169591 0.173482
Si Si4 0.225188 0.825689 0.151466
Si Si5 0.895404 0.166718 0.540679
Si Si6 0.863589 0.000000 0.176217
O O1 0.500000 0.000000 0.500000
O O2 0.606121 0.834350 0.504376
O O3 0.734605 0.000000 0.269331
O O4 0.465114 0.500000 0.822477
O O5 0.507881 0.197344 0.810665
O O6 0.386411 0.298604 0.790779
O O7 0.315424 0.297927 0.026666
O O8 0.359520 0.334527 0.230387
O O9 0.365723 0.000000 0.236761
O O10 0.500000 0.164044 0.000000
O O11 0.202938 0.830950 0.280730
O O12 0.263399 0.000000 0.084471
O O13 0.000000 0.161598 0.500000
O O14 0.893625 0.000000 0.493134
O O15 0.000000 0.000000 0.000000
#
# Coordination Sequence:
#
# PCOD9180447 Si02
#       6
#     4   8   8   8   8   4
#     4  10  22  38  58  86 118 148 193 238 288 346
#     4  10  19  32  49  76 117 156 189 230 295 356
#     4  10  21  34  50  75 112 151 189 231 280 352
#     4   9  19  31  49  77 113 154 191 237 291 352
#     4   9  19  35  55  81 114 147 190 243 287 330
#     4  10  22  36  54  84 114 156 185 230 296 344
#
# _framework density 26.330718999999998
#
# number of rings (size 3 to 8) (size 9 to 14) (size 15 to 20)
#    0.000    2.400    1.000    0.600    7.000    1.600 
#    0.000    0.000    0.000    0.000    0.000    5.600 
#    0.000    0.000    0.000    0.000    0.000    0.000 
#
# Total GULP energy -111453.678088 kJ/mol
# GULP energy per Si atom -5572.683904 kJ/mol
# Density = 2.627079 g / cm^3
# Si number density = 26.330719 Si / 1000 Ang^3
#
#
#
# Elastic Constant Matrix: (Units=GPa)
#
#
# Indices 1 2 3 4 5 6 
#
# 1 101.6815 45.5449 39.8849 0.0000 -15.9752 0.0000
# 2 45.5449 274.4139 35.4152 -0.0001 -3.3724 0.0000
# 3 39.8849 35.4152 84.3624 0.0000 -1.3736 0.0000
# 4 0.0000 -0.0001 0.0000 9.6221 0.0000 -18.1222
# 5 -15.9752 -3.3724 -1.3736 0.0000 43.5391 0.0000
# 6 0.0000 0.0000 0.0000 -18.1222 0.0000 8.9748
#
#
#
# Elastic Compliance Matrix: (Units=1/GPa)
#
#
# Indices 1 2 3 4 5 6 
#
# 1 0.013433 -0.001441 -0.005671 0.000000 0.004638 0.000000
# 2 -0.001441 0.004010 -0.001006 0.000000 -0.000250 0.000000
# 3 -0.005671 -0.001006 0.014930 0.000000 -0.001688 0.000000
# 4 0.000000 0.000000 0.000000 -0.037077 0.000000 -0.074867
# 5 0.004638 -0.000250 -0.001688 0.000000 0.024597 0.000000
# 6 0.000000 0.000000 0.000000 -0.074867 0.000000 -0.039751
#
#
# Mechanical properties :
#
#
# Convention : Reuss Voigt Hill
#
# Bulk Modulus (GPa) = 61.96776 78.01640 69.99208
# Shear Modulus (GPa) = 2847.56537 35.06805 1441.31671
#
# Velocity S-wave (km/s) = 32.92126 3.65338 23.42175
# Velocity P-wave (km/s) = 38.32316 6.89130 27.53320
#
# Compressibility (1/GPa) = 0.01613742
#
# Stress axis : x y z
#
# Youngs Moduli (GPa) = 74.44396 249.37363 66.98142
#
# Poissons Ratio (x) = 0.35926 0.37982
# Poissons Ratio (y) = 0.10725 0.06741
# Poissons Ratio (z) = 0.42214 0.25096
#
# Static dielectric constant tensor:
#      x y z
#    x 2.092050 0.000000 -0.094630 
#    y 0.000000 2.015530 0.000000 
#    z -0.094630 0.000000 2.182370 
# 
# From -- ./inp_files/280735.got.cif
#   From: 2010.05.17/outbox.cif.g08.bks.cpg/sg12_141_cif.got.tgz:280735.got - 2010.06.03 13:09:07.
