data_PCOD9180215
_publ_section_title
;
Structure prediction by ZEFSAII (Michael W. Deem and Ramdas Pophale) SiO2 
 PCOD9180215
Probable space group: C 2/M
;
_chemical_formula_sum "Si O2"
_cell_formula_units_Z 48
_cell_length_a 13.975476
_cell_length_b 18.948261
_cell_length_c 17.089524
_cell_angle_alpha 90.000000
_cell_angle_beta 150.290846
_cell_angle_gamma 90.000000
_cell_volume 2242.822936
_symmetry_space_group_name_H-M "C 2/M"
_symmetry_group_IT_number 12
_symmetry_cell_setting 'monoclinic'
loop_
_space_group_symop_operation_xyz
x,y,z
-x,y,-z
-x,-y,-z
x,-y,z
1/2+x,1/2+y,z
1/2-x,1/2+y,-z
1/2-x,1/2-y,-z
1/2+x,1/2-y,z
loop_
_atom_site_type_symbol
_atom_site_label
_atom_site_fract_x
_atom_site_fract_y
_atom_site_fract_z
Si Si1 0.570716 0.576077 0.236542
Si Si2 0.298648 0.922246 0.557972
Si Si3 0.210279 0.581701 0.763860
Si Si4 0.305211 0.241678 0.253185
Si Si5 0.756294 0.776237 0.393805
Si Si6 0.633931 0.298846 0.860315
O O1 0.489049 0.500000 0.160740
O O2 0.647699 0.578914 0.379384
O O3 0.745156 0.585940 0.298336
O O4 0.399030 0.630732 0.114262
O O5 0.501078 0.918272 0.655139
O O6 0.261007 0.856357 0.587898
O O7 0.287925 0.000000 0.588707
O O8 0.282122 0.500000 0.834005
O O9 0.270588 0.663586 0.825718
O O10 0.223243 0.268196 0.277340
O O11 0.537033 0.242087 0.437357
O O12 0.273297 0.295701 0.159371
O O13 0.581188 0.732193 0.305287
O O14 0.750000 0.250000 0.000000
#
# Coordination Sequence:
#
# PCOD9180215 Si02
#       6
#     8   8   8   8   8   8
#     4  10  20  37  58  90 126 156 196 248 308 364
#     4  10  19  34  60  92 122 154 197 254 310 360
#     4  10  19  31  56  91 120 151 190 247 307 358
#     4  11  22  38  62  88 119 153 205 254 298 355
#     4  11  22  38  61  87 119 158 200 255 298 350
#     4  12  24  39  60  88 124 167 204 243 300 368
#
# _framework density 21.401600999999999
#
# number of rings (size 3 to 8) (size 9 to 14) (size 15 to 20)
#    0.000    1.333    5.000    2.000    2.333    2.667 
#    0.000    4.167    0.000    2.000    0.000    2.333 
#    0.000    0.000    0.000    0.000    0.000    0.000 
#
# Total GULP energy -133640.292344 kJ/mol
# GULP energy per Si atom -5568.345514 kJ/mol
# Density = 2.135289 g / cm^3
# Si number density = 21.401601 Si / 1000 Ang^3
#
#
#
# Elastic Constant Matrix: (Units=GPa)
#
#
# Indices 1 2 3 4 5 6 
#
# 1 110.8920 46.4403 13.3942 -0.0140 -14.9982 -0.0021
# 2 46.4403 174.2699 18.7517 -0.0096 14.6418 0.0151
# 3 13.3942 18.7517 30.4961 -0.0294 -3.1987 0.0013
# 4 -0.0140 -0.0096 -0.0294 12.1512 -0.0025 4.3132
# 5 -14.9982 14.6418 -3.1987 -0.0025 16.3487 0.0033
# 6 -0.0021 0.0151 0.0013 4.3132 0.0033 39.9572
#
#
#
# Elastic Compliance Matrix: (Units=1/GPa)
#
#
# Indices 1 2 3 4 5 6 
#
# 1 0.013392 -0.004814 -0.001206 0.000012 0.016361 0.000000
# 2 -0.004814 0.008602 -0.004540 -0.000012 -0.013009 -0.000001
# 3 -0.001206 -0.004540 0.037186 0.000091 0.010235 -0.000010
# 4 0.000012 -0.000012 0.000091 0.085576 0.000055 -0.009238
# 5 0.016361 -0.013009 0.010235 0.000055 0.089830 -0.000008
# 6 0.000000 -0.000001 -0.000010 -0.009238 -0.000008 0.026024
#
#
# Mechanical properties :
#
#
# Convention : Reuss Voigt Hill
#
# Bulk Modulus (GPa) = 26.27323 52.53671 39.40497
# Shear Modulus (GPa) = 16.98278 29.49620 23.23949
#
# Velocity S-wave (km/s) = 2.82002 3.71647 3.29884
# Velocity P-wave (km/s) = 4.78605 6.55878 5.74125
#
# Compressibility (1/GPa) = 0.03806155
#
# Stress axis : x y z
#
# Youngs Moduli (GPa) = 74.67032 116.24629 26.89193
#
# Poissons Ratio (x) = 0.55957 0.03243
# Poissons Ratio (y) = 0.35944 0.12208
# Poissons Ratio (z) = 0.09006 0.52773
#
# Static dielectric constant tensor:
#      x y z
#    x 1.844600 -0.000030 -0.009700 
#    y -0.000030 1.918670 -0.000020 
#    z -0.009700 -0.000020 1.811610 
# 
# From -- ./inp_files/271783.got.cif
#   From: 2010.05.17/outbox.cif.g08.bks.cpg/sg12_136_cif.got.tgz:271783.got - 2010.06.03 13:09:07.
