data_PCOD9180853
_publ_section_title
;
Structure prediction by ZEFSAII (Michael W. Deem and Ramdas Pophale) SiO2 
 PCOD9180853
Probable space group: C 2/M
;
_chemical_formula_sum "Si O2"
_cell_formula_units_Z 40
_cell_length_a 20.336245
_cell_length_b 12.922545
_cell_length_c 9.765190
_cell_angle_alpha 90.000000
_cell_angle_beta 103.260933
_cell_angle_gamma 90.000000
_cell_volume 2497.825427
_symmetry_space_group_name_H-M "C 2/M"
_symmetry_group_IT_number 12
_symmetry_cell_setting 'monoclinic'
loop_
_space_group_symop_operation_xyz
x,y,z
-x,y,-z
-x,-y,-z
x,-y,z
1/2+x,1/2+y,z
1/2-x,1/2+y,-z
1/2-x,1/2-y,-z
1/2+x,1/2-y,z
loop_
_atom_site_type_symbol
_atom_site_label
_atom_site_fract_x
_atom_site_fract_y
_atom_site_fract_z
Si Si1 0.337712 0.163426 0.453680
Si Si2 0.708206 0.615131 0.888614
Si Si3 0.159027 0.337327 0.871106
Si Si4 0.294197 0.385058 0.432489
Si Si5 0.545911 0.000000 0.889433
Si Si6 0.445140 0.000000 0.591487
O O1 0.335742 0.141450 0.289715
O O2 0.342756 0.287075 0.475664
O O3 0.268480 0.129441 0.494783
O O4 0.397324 0.099141 0.550334
O O5 0.679204 0.500000 0.894922
O O6 0.659103 0.712677 0.889599
O O7 0.729464 0.622388 0.738058
O O8 0.773415 0.627150 0.016828
O O9 0.095602 0.401072 0.897592
O O10 0.323165 0.500000 0.465111
O O11 0.489880 0.000000 0.745965
O O12 0.500000 0.000000 0.000000
O O13 0.500000 0.000000 0.500000
#
# Coordination Sequence:
#
# PCOD9180853 Si02
#       6
#     8   8   8   8   4   4
#     4  10  19  32  51  76 105 134 172 206 261 303
#     4   9  18  31  54  76 104 132 165 218 259 304
#     4  10  19  34  49  76 104 134 174 209 260 301
#     4   9  18  31  52  78 105 132 163 219 256 303
#     4  12  26  36  54  74 106 142 178 214 246 311
#     4  12  22  36  54  74 104 146 172 212 250 308
#
# _framework density 16.013929000000001
#
# number of rings (size 3 to 8) (size 9 to 14) (size 15 to 20)
#    0.000    2.000    4.000    0.000    2.800    0.000 
#    0.000    0.000    0.000    2.400    0.000    0.000 
#    0.000    0.000    0.000    0.000    0.000    0.000 
#
# Total GULP energy -111380.678295 kJ/mol
# GULP energy per Si atom -5569.033915 kJ/mol
# Density = 1.597748 g / cm^3
# Si number density = 16.013929 Si / 1000 Ang^3
#
#
#
# Elastic Constant Matrix: (Units=GPa)
#
#
# Indices 1 2 3 4 5 6 
#
# 1 88.2514 63.5320 49.5930 0.0000 -1.7469 0.0000
# 2 63.5320 170.5314 47.2640 0.0000 0.8785 0.0000
# 3 49.5930 47.2640 84.0075 0.0000 -1.7102 0.0000
# 4 0.0000 0.0000 0.0000 16.0013 0.0000 -0.8400
# 5 -1.7469 0.8785 -1.7102 0.0000 31.0441 0.0000
# 6 0.0000 0.0000 0.0000 -0.8400 0.0000 30.3344
#
#
#
# Elastic Compliance Matrix: (Units=1/GPa)
#
#
# Indices 1 2 3 4 5 6 
#
# 1 0.019956 -0.004950 -0.008981 0.000000 0.000768 0.000000
# 2 -0.004950 0.008180 -0.001693 0.000000 -0.000603 0.000000
# 3 -0.008981 -0.001693 0.018169 0.000000 0.000543 0.000000
# 4 0.000000 0.000000 0.000000 0.062586 0.000000 0.001733
# 5 0.000768 -0.000603 0.000543 0.000000 0.032302 0.000000
# 6 0.000000 0.000000 0.000000 0.001733 0.000000 0.033014
#
#
# Mechanical properties :
#
#
# Convention : Reuss Voigt Hill
#
# Bulk Modulus (GPa) = 66.40360 73.72982 70.06671
# Shear Modulus (GPa) = 23.75597 27.63607 25.69602
#
# Velocity S-wave (km/s) = 3.85575 4.15872 4.01010
# Velocity P-wave (km/s) = 7.83445 8.31871 8.08021
#
# Compressibility (1/GPa) = 0.01505942
#
# Stress axis : x y z
#
# Youngs Moduli (GPa) = 50.10901 122.24497 55.03968
#
# Poissons Ratio (x) = 0.60508 0.49429
# Poissons Ratio (y) = 0.24803 0.09316
# Poissons Ratio (z) = 0.45001 0.20691
#
# Static dielectric constant tensor:
#      x y z
#    x 1.483450 0.000000 -0.009880 
#    y 0.000000 1.590020 0.000000 
#    z -0.009880 0.000000 1.531100 
# 
# From -- ./inp_files/84657.got.cif
#   From: 2010.05.17/outbox.cif.g08.bks.cpg/sg12_43_cif.got.tgz:84657.got - 2010.06.03 13:09:07.
