data_PCOD9180119
_publ_section_title
;
Structure prediction by ZEFSAII (Michael W. Deem and Ramdas Pophale) SiO2 
 PCOD9180119
Probable space group: C 2/M
;
_chemical_formula_sum "Si O2"
_cell_formula_units_Z 50
_cell_length_a 29.265471
_cell_length_b 7.712236
_cell_length_c 11.017924
_cell_angle_alpha 90.000000
_cell_angle_beta 113.626797
_cell_angle_gamma 90.000000
_cell_volume 2278.317373
_symmetry_space_group_name_H-M "C 2/M"
_symmetry_group_IT_number 12
_symmetry_cell_setting 'monoclinic'
loop_
_space_group_symop_operation_xyz
x,y,z
-x,y,-z
-x,-y,-z
x,-y,z
1/2+x,1/2+y,z
1/2-x,1/2+y,-z
1/2-x,1/2-y,-z
1/2+x,1/2-y,z
loop_
_atom_site_type_symbol
_atom_site_label
_atom_site_fract_x
_atom_site_fract_y
_atom_site_fract_z
Si Si1 0.317096 0.207811 0.168150
Si Si2 0.035236 0.799659 0.918571
Si Si3 0.500000 0.500000 0.500000
Si Si4 0.445164 0.701729 0.670781
Si Si5 0.076256 0.698320 0.612844
Si Si6 0.211446 0.707534 0.129651
Si Si7 0.379792 0.201054 0.824555
O O1 0.370813 0.255751 0.276219
O O2 0.270055 0.257513 0.201334
O O3 0.317043 0.000000 0.160767
O O4 0.305711 0.276925 0.020712
O O5 0.997351 0.725752 0.778508
O O6 0.046376 0.000000 0.901395
O O7 0.085555 0.710776 0.017185
O O8 0.000000 0.800113 0.000000
O O9 0.535969 0.344421 0.595769
O O10 0.453731 0.500000 0.636637
O O11 0.422523 0.799247 0.533001
O O12 0.407635 0.702274 0.744901
O O13 0.065205 0.500000 0.639919
O O14 0.204481 0.500000 0.120846
O O15 0.174042 0.771521 0.193669
O O16 0.376917 0.000000 0.784585
#
# Coordination Sequence:
#
# PCOD9180119 Si02
#       7
#     8   8   2   8   8   8   8
#     4   9  20  39  61  87 118 158 205 255 317 366
#     4   8  16  30  48  73 110 153 196 242 294 357
#     4  12  26  44  64  94 122 168 214 244 306 370
#     4  10  20  37  57  82 120 164 205 248 308 370
#     4  11  24  43  66  92 126 164 207 258 306 370
#     4   9  19  36  59  88 120 155 202 259 312 373
#     4  10  19  31  53  87 119 154 203 252 309 372
#
# _framework density 21.946020000000001
#
# number of rings (size 3 to 8) (size 9 to 14) (size 15 to 20)
#    0.000    2.400    0.800    2.160    1.120    6.080 
#    0.000    2.400    0.000    0.000    0.000    0.000 
#    0.000    0.000    0.000    0.000    0.000    0.000 
#
# Total GULP energy -139361.212370 kJ/mol
# GULP energy per Si atom -5574.448495 kJ/mol
# Density = 2.189607 g / cm^3
# Si number density = 21.946020 Si / 1000 Ang^3
#
#
#
# Elastic Constant Matrix: (Units=GPa)
#
#
# Indices 1 2 3 4 5 6 
#
# 1 119.3997 36.1895 36.3845 0.0000 12.6345 0.0000
# 2 36.1895 80.4959 20.5464 0.0000 15.3629 0.0000
# 3 36.3845 20.5464 83.0460 0.0000 11.0360 0.0000
# 4 0.0000 0.0000 0.0000 26.7181 0.0000 0.4035
# 5 12.6345 15.3629 11.0360 0.0000 30.7752 0.0000
# 6 0.0000 0.0000 0.0000 0.4035 0.0000 33.1994
#
#
#
# Elastic Compliance Matrix: (Units=1/GPa)
#
#
# Indices 1 2 3 4 5 6 
#
# 1 0.010722 -0.003651 -0.003624 0.000000 -0.001279 0.000000
# 2 -0.003651 0.015536 -0.001483 0.000000 -0.005724 0.000000
# 3 -0.003624 -0.001483 0.014386 0.000000 -0.002930 0.000000
# 4 0.000000 0.000000 0.000000 0.037435 0.000000 -0.000455
# 5 -0.001279 -0.005724 -0.002930 0.000000 0.036928 0.000000
# 6 0.000000 0.000000 0.000000 -0.000455 0.000000 0.030127
#
#
# Mechanical properties :
#
#
# Convention : Reuss Voigt Hill
#
# Bulk Modulus (GPa) = 43.24121 52.13139 47.68630
# Shear Modulus (GPa) = 29.35010 30.79327 30.07169
#
# Velocity S-wave (km/s) = 3.66098 3.74991 3.70571
# Velocity P-wave (km/s) = 6.13324 6.52342 6.33134
#
# Compressibility (1/GPa) = 0.02312609
#
# Stress axis : x y z
#
# Youngs Moduli (GPa) = 93.26980 64.36840 69.51335
#
# Poissons Ratio (x) = 0.23501 0.25192
# Poissons Ratio (y) = 0.34053 0.10311
# Poissons Ratio (z) = 0.33802 0.09548
#
# Static dielectric constant tensor:
#      x y z
#    x 1.682660 0.000000 0.025290 
#    y 0.000000 1.805730 0.000000 
#    z 0.025290 0.000000 1.782110 
# 
# From -- ./inp_files/186935.got.cif
#   From: 2010.05.17/outbox.cif.g08.bks.cpg/sg12_94_cif.got.tgz:186935.got - 2010.06.03 13:09:07.
