data_PCOD9180657
_publ_section_title
;
Structure prediction by ZEFSAII (Michael W. Deem and Ramdas Pophale) SiO2 
 PCOD9180657
Probable space group: C 2/M
;
_chemical_formula_sum "Si O2"
_cell_formula_units_Z 32
_cell_length_a 10.175529
_cell_length_b 17.379356
_cell_length_c 17.290754
_cell_angle_alpha 90.000000
_cell_angle_beta 154.487011
_cell_angle_gamma 90.000000
_cell_volume 1317.028924
_symmetry_space_group_name_H-M "C 2/M"
_symmetry_group_IT_number 12
_symmetry_cell_setting 'monoclinic'
loop_
_space_group_symop_operation_xyz
x,y,z
-x,y,-z
-x,-y,-z
x,-y,z
1/2+x,1/2+y,z
1/2-x,1/2+y,-z
1/2-x,1/2-y,-z
1/2+x,1/2-y,z
loop_
_atom_site_type_symbol
_atom_site_label
_atom_site_fract_x
_atom_site_fract_y
_atom_site_fract_z
Si Si1 0.141027 0.586564 0.803017
Si Si2 0.357782 0.500000 0.197522
Si Si3 0.151269 0.833503 0.778013
Si Si4 0.167111 0.500000 0.669708
Si Si5 0.066708 0.268706 0.213426
O O1 0.087652 0.500000 0.807356
O O2 0.099014 0.572219 0.689067
O O3 0.967056 0.652183 0.756127
O O4 0.500000 0.604915 0.000000
O O5 0.436636 0.421490 0.282599
O O6 0.488898 0.500000 0.179751
O O7 0.000000 0.500000 0.000000
O O8 0.919899 0.798431 0.717016
O O9 0.180411 0.782296 0.717079
O O10 0.500000 0.833243 0.000000
O O11 0.000000 0.500000 0.500000
O O12 0.750000 0.250000 0.000000
#
# Coordination Sequence:
#
# PCOD9180657 Si02
#       5
#     8   4   8   4   8
#     4   9  20  31  60  89 118 158 214 258 302 376
#     4  10  22  34  58  95 117 158 212 269 303 366
#     4   9  20  29  53  81 132 151 201 252 335 352
#     4  10  23  40  62  91 132 172 205 255 329 390
#     4  10  19  32  50  90 129 159 193 272 324 361
#
# _framework density 24.297114000000001
#
# number of rings (size 3 to 8) (size 9 to 14) (size 15 to 20)
#    0.750    1.750    0.000    2.250   15.750    0.000 
#    0.000    0.000    0.000    4.500    0.000    0.000 
#    0.000    0.000    0.000    0.000    0.000    0.000 
#
# Total GULP energy -89340.917887 kJ/mol
# GULP energy per Si atom -5583.807368 kJ/mol
# Density = 2.424181 g / cm^3
# Si number density = 24.297114 Si / 1000 Ang^3
#
#
#
# Elastic Constant Matrix: (Units=GPa)
#
#
# Indices 1 2 3 4 5 6 
#
# 1 138.5543 56.3963 32.4839 -0.0069 -28.5747 -0.0077
# 2 56.3963 105.1853 -3.2642 -0.0079 -6.6559 0.0008
# 3 32.4839 -3.2642 80.2338 -0.0177 -16.0376 -0.0022
# 4 -0.0069 -0.0079 -0.0177 -4.5683 -0.0020 -17.8306
# 5 -28.5747 -6.6559 -16.0376 -0.0020 24.9473 -0.0054
# 6 -0.0077 0.0008 -0.0022 -17.8306 -0.0054 48.1713
#
#
#
# Elastic Compliance Matrix: (Units=1/GPa)
#
#
# Indices 1 2 3 4 5 6 
#
# 1 0.012768 -0.006259 -0.003253 -0.000005 0.010864 0.000001
# 2 -0.006259 0.012815 0.002646 -0.000007 -0.002049 -0.000004
# 3 -0.003253 0.002646 0.015243 -0.000027 0.006780 -0.000009
# 4 -0.000005 -0.000007 -0.000027 -0.089539 -0.000040 -0.033143
# 5 0.010864 -0.002049 0.006780 -0.000040 0.056340 -0.000006
# 6 0.000001 -0.000004 -0.000009 -0.033143 -0.000006 0.008491
#
#
# Mechanical properties :
#
#
# Convention : Reuss Voigt Hill
#
# Bulk Modulus (GPa) = 36.90713 55.02283 45.96498
# Shear Modulus (GPa) = 128.59363 29.60056 79.09709
#
# Velocity S-wave (km/s) = 7.28288 3.49417 5.71181
# Velocity P-wave (km/s) = 9.27057 6.24291 7.90308
#
# Compressibility (1/GPa) = 0.02709503
#
# Stress axis : x y z
#
# Youngs Moduli (GPa) = 78.31960 78.03069 65.60292
#
# Poissons Ratio (x) = 0.48842 0.21338
# Poissons Ratio (y) = 0.49023 -0.17358
# Poissons Ratio (z) = 0.25474 -0.20646
#
# Static dielectric constant tensor:
#      x y z
#    x 1.956400 0.000000 0.000820 
#    y 0.000000 1.946120 -0.000030 
#    z 0.000820 -0.000030 2.034390 
# 
# From -- ./inp_files/264091.got.cif
#   From: 2010.05.17/outbox.cif.g08.bks.cpg/sg12_133_cif.got.tgz:264091.got - 2010.06.03 13:09:07.
