data_PCOD9180298
_publ_section_title
;
Structure prediction by ZEFSAII (Michael W. Deem and Ramdas Pophale) SiO2 
 PCOD9180298
Probable space group: C 2/M
;
_chemical_formula_sum "Si O2"
_cell_formula_units_Z 64
_cell_length_a 28.656663
_cell_length_b 8.979927
_cell_length_c 15.320002
_cell_angle_alpha 90.000000
_cell_angle_beta 89.271398
_cell_angle_gamma 90.000000
_cell_volume 3942.050004
_symmetry_space_group_name_H-M "C 2/M"
_symmetry_group_IT_number 12
_symmetry_cell_setting 'monoclinic'
loop_
_space_group_symop_operation_xyz
x,y,z
-x,y,-z
-x,-y,-z
x,-y,z
1/2+x,1/2+y,z
1/2-x,1/2+y,-z
1/2-x,1/2-y,-z
1/2+x,1/2-y,z
loop_
_atom_site_type_symbol
_atom_site_label
_atom_site_fract_x
_atom_site_fract_y
_atom_site_fract_z
Si Si1 0.245409 0.677705 0.096798
Si Si2 0.098882 0.176105 0.971631
Si Si3 0.665927 0.820312 0.824935
Si Si4 0.444239 0.821831 0.745878
Si Si5 0.491335 0.677845 0.400506
Si Si6 0.911865 0.328932 0.298617
Si Si7 0.978329 0.670837 0.125245
Si Si8 0.361746 0.823485 0.858848
O O1 0.253235 0.500000 0.088847
O O2 0.283667 0.751032 0.159059
O O3 0.193492 0.701935 0.135720
O O4 0.250000 0.750000 0.000000
O O5 0.134354 0.257357 0.904377
O O6 0.047445 0.232935 0.946703
O O7 0.101901 0.000000 0.960436
O O8 0.115353 0.226923 0.065664
O O9 0.638664 0.779348 0.736098
O O10 0.667104 0.000000 0.829876
O O11 0.468730 0.743207 0.664074
O O12 0.473457 0.778662 0.832483
O O13 0.390285 0.791970 0.769377
O O14 0.450847 0.000000 0.735226
O O15 0.500000 0.724208 0.500000
O O16 0.492633 0.500000 0.395214
O O17 0.441210 0.734281 0.366580
O O18 0.908779 0.500000 0.328721
O O19 0.943759 0.328270 0.210273
O O20 0.982432 0.500000 0.095912
O O21 0.369461 0.000000 0.877838
#
# Coordination Sequence:
#
# PCOD9180298 Si02
#       8
#     8   8   8   8   8   8   8   8
#     4  11  21  32  49  70  94 128 171 214 254 291
#     4  11  20  28  43  66  91 125 167 203 244 289
#     4  10  19  32  48  67  96 128 165 212 251 283
#     4   9  19  35  52  69  91 127 166 197 235 286
#     4  10  20  33  52  80 109 130 149 186 242 296
#     4   8  16  30  49  72  96 128 164 197 236 286
#     4   8  15  29  46  63  89 123 161 200 237 278
#     4  10  21  35  48  64  92 127 166 209 246 282
#
# _framework density 16.235208
#
# number of rings (size 3 to 8) (size 9 to 14) (size 15 to 20)
#    0.000    2.375    1.250    3.750    0.000    7.500 
#    0.000    2.500    0.000    0.000    0.000    0.875 
#    0.000    0.000    0.000    0.000    0.000    0.000 
#
# Total GULP energy -178383.754047 kJ/mol
# GULP energy per Si atom -5574.492314 kJ/mol
# Density = 1.619826 g / cm^3
# Si number density = 16.235208 Si / 1000 Ang^3
#
#
#
# Elastic Constant Matrix: (Units=GPa)
#
#
# Indices 1 2 3 4 5 6 
#
# 1 119.1041 54.8477 54.6437 0.0000 8.8978 0.0000
# 2 54.8477 62.2964 46.2556 0.0000 6.8115 0.0000
# 3 54.6437 46.2556 82.8202 0.0000 14.8868 0.0000
# 4 0.0000 0.0000 0.0000 14.8143 0.0000 -4.3879
# 5 8.8978 6.8115 14.8868 0.0000 17.3787 0.0000
# 6 0.0000 0.0000 0.0000 -4.3879 0.0000 -3.4593
#
#
#
# Elastic Compliance Matrix: (Units=1/GPa)
#
#
# Indices 1 2 3 4 5 6 
#
# 1 0.014966 -0.009989 -0.004281 0.000000 -0.000080 0.000000
# 2 -0.009989 0.034209 -0.013031 0.000000 0.002869 0.000000
# 3 -0.004281 -0.013031 0.024662 0.000000 -0.013827 0.000000
# 4 0.000000 0.000000 0.000000 0.049067 0.000000 -0.062240
# 5 -0.000080 0.002869 -0.013827 0.000000 0.068302 0.000000
# 6 0.000000 0.000000 0.000000 -0.062240 0.000000 -0.210130
#
#
# Mechanical properties :
#
#
# Convention : Reuss Voigt Hill
#
# Bulk Modulus (GPa) = 51.98860 63.96831 57.97846
# Shear Modulus (GPa) = 118.79167 12.97831 65.88499
#
# Velocity S-wave (km/s) = 8.56318 2.83042 6.37728
# Velocity P-wave (km/s) = 11.39572 7.08295 9.48764
#
# Compressibility (1/GPa) = 0.01923499
#
# Stress axis : x y z
#
# Youngs Moduli (GPa) = 66.81744 29.23217 40.54823
#
# Poissons Ratio (x) = 0.29201 0.17359
# Poissons Ratio (y) = 0.66745 0.52838
# Poissons Ratio (z) = 0.28605 0.38092
#
# Static dielectric constant tensor:
#      x y z
#    x 1.595840 0.000000 0.003340 
#    y 0.000000 1.543400 0.000000 
#    z 0.003340 0.000000 1.529640 
# 
# From -- ./inp_files/248420.got.cif
#   From: 2010.05.17/outbox.cif.g08.bks.cpg/sg12_125_cif.got.tgz:248420.got - 2010.06.03 13:09:07.
