data_PCOD9180851
_publ_section_title
;
Structure prediction by ZEFSAII (Michael W. Deem and Ramdas Pophale) SiO2 
 PCOD9180851
Probable space group: C 2/M
;
_chemical_formula_sum "Si O2"
_cell_formula_units_Z 56
_cell_length_a 10.081852
_cell_length_b 18.210499
_cell_length_c 18.961697
_cell_angle_alpha 90.000000
_cell_angle_beta 54.044223
_cell_angle_gamma 90.000000
_cell_volume 2817.995881
_symmetry_space_group_name_H-M "C 2/M"
_symmetry_group_IT_number 12
_symmetry_cell_setting 'monoclinic'
loop_
_space_group_symop_operation_xyz
x,y,z
-x,y,-z
-x,-y,-z
x,-y,z
1/2+x,1/2+y,z
1/2-x,1/2+y,-z
1/2-x,1/2-y,-z
1/2+x,1/2-y,z
loop_
_atom_site_type_symbol
_atom_site_label
_atom_site_fract_x
_atom_site_fract_y
_atom_site_fract_z
Si Si1 0.775331 0.079907 0.832902
Si Si2 0.849824 0.083256 0.970537
Si Si3 0.056429 0.238183 0.058347
Si Si4 0.865110 0.670457 0.336097
Si Si5 0.148802 0.083484 0.509972
Si Si6 0.467905 0.874897 0.847976
Si Si7 0.944071 0.814195 0.672864
O O1 0.596212 0.080920 0.854950
O O2 0.873250 0.144368 0.763726
O O3 0.851966 0.000000 0.793698
O O4 0.767145 0.088176 0.919200
O O5 0.712617 0.100705 0.072312
O O6 0.911896 0.000000 0.958722
O O7 0.976623 0.151229 0.928629
O O8 0.998019 0.290045 0.139050
O O9 0.250000 0.250000 0.000000
O O10 0.000000 0.266237 0.000000
O O11 0.794337 0.623855 0.423120
O O12 0.981114 0.621820 0.248887
O O13 0.707030 0.692687 0.336243
O O14 0.969338 0.739014 0.331760
O O15 0.000000 0.079512 0.500000
O O16 0.078484 0.133029 0.594702
O O17 0.188722 0.000000 0.518402
#
# Coordination Sequence:
#
# PCOD9180851 Si02
#       7
#     8   8   8   8   8   8   8
#     4  10  19  32  53  79 104 135 178 220 258 304
#     4  10  20  32  48  73 106 139 172 215 264 311
#     4  10  20  34  52  72  99 136 177 215 256 305
#     4  10  21  33  55  80 106 137 173 212 258 313
#     4   9  18  34  56  81 106 133 171 219 262 302
#     4  10  19  32  51  76 104 137 174 218 258 301
#     4  10  20  36  55  80 107 138 172 215 261 308
#
# _framework density 19.87228
#
# number of rings (size 3 to 8) (size 9 to 14) (size 15 to 20)
#    0.000    2.143    0.000    4.286    0.000    8.857 
#    0.000    0.000    0.000    2.571    0.000    0.000 
#    0.000    0.000    0.000    0.000    0.000    0.000 
#
# Total GULP energy -156182.104948 kJ/mol
# GULP energy per Si atom -5577.932320 kJ/mol
# Density = 1.982705 g / cm^3
# Si number density = 19.872280 Si / 1000 Ang^3
#
#
#
# Elastic Constant Matrix: (Units=GPa)
#
#
# Indices 1 2 3 4 5 6 
#
# 1 44.9156 8.6625 13.2115 0.0000 10.3012 0.0000
# 2 8.6625 89.9400 6.6294 0.0000 -4.3682 0.0000
# 3 13.2115 6.6294 80.8183 0.0000 -7.2533 0.0000
# 4 0.0000 0.0000 0.0000 28.1499 0.0000 -4.0958
# 5 10.3012 -4.3682 -7.2533 0.0000 14.4698 0.0000
# 6 0.0000 0.0000 0.0000 -4.0958 0.0000 6.7216
#
#
#
# Elastic Compliance Matrix: (Units=1/GPa)
#
#
# Indices 1 2 3 4 5 6 
#
# 1 0.031340 -0.003800 -0.007243 0.000000 -0.027089 0.000000
# 2 -0.003800 0.011777 0.000227 0.000000 0.006375 0.000000
# 3 -0.007243 0.000227 0.014668 0.000000 0.012577 0.000000
# 4 0.000000 0.000000 0.000000 0.038980 0.000000 0.023753
# 5 -0.027089 0.006375 0.012577 0.000000 0.096623 0.000000
# 6 0.000000 0.000000 0.000000 0.023753 0.000000 0.163248
#
#
# Mechanical properties :
#
#
# Convention : Reuss Voigt Hill
#
# Bulk Modulus (GPa) = 27.65979 30.29787 28.97883
# Shear Modulus (GPa) = 12.81004 22.34630 17.57817
#
# Velocity S-wave (km/s) = 2.54169 3.35699 2.97738
# Velocity P-wave (km/s) = 4.75001 5.50502 5.14139
#
# Compressibility (1/GPa) = 0.03615357
#
# Stress axis : x y z
#
# Youngs Moduli (GPa) = 31.90815 84.90831 68.17772
#
# Poissons Ratio (x) = 0.32268 0.49379
# Poissons Ratio (y) = 0.12126 -0.01550
# Poissons Ratio (z) = 0.23110 -0.01930
#
# Static dielectric constant tensor:
#      x y z
#    x 1.693600 0.000000 0.005890 
#    y 0.000000 1.778140 0.000000 
#    z 0.005890 0.000000 1.687540 
# 
# From -- ./inp_files/264187.got.cif
#   From: 2010.05.17/outbox.cif.g08.bks.cpg/sg12_133_cif.got.tgz:264187.got - 2010.06.03 13:09:07.
