data_PCOD9180857
_publ_section_title
;
Structure prediction by ZEFSAII (Michael W. Deem and Ramdas Pophale) SiO2 
 PCOD9180857
Probable space group: C 2/M
;
_chemical_formula_sum "Si O2"
_cell_formula_units_Z 64
_cell_length_a 26.438837
_cell_length_b 9.684840
_cell_length_c 31.273018
_cell_angle_alpha 90.000000
_cell_angle_beta 155.472214
_cell_angle_gamma 90.000000
_cell_volume 3324.247916
_symmetry_space_group_name_H-M "C 2/M"
_symmetry_group_IT_number 12
_symmetry_cell_setting 'monoclinic'
loop_
_space_group_symop_operation_xyz
x,y,z
-x,y,-z
-x,-y,-z
x,-y,z
1/2+x,1/2+y,z
1/2-x,1/2+y,-z
1/2-x,1/2-y,-z
1/2+x,1/2-y,z
loop_
_atom_site_type_symbol
_atom_site_label
_atom_site_fract_x
_atom_site_fract_y
_atom_site_fract_z
Si Si1 0.516933 0.662072 0.704256
Si Si2 0.436249 0.332410 0.357764
Si Si3 0.978882 0.844615 0.034079
Si Si4 0.396862 0.834136 0.683427
Si Si5 0.293332 0.167113 0.762058
Si Si6 0.795694 0.652851 0.929981
Si Si7 0.864513 0.656011 0.078101
Si Si8 0.689119 0.332563 0.588843
O O1 0.480759 0.500000 0.676458
O O2 0.537567 0.708036 0.671094
O O3 0.425472 0.752782 0.661964
O O4 0.652624 0.670896 0.829000
O O5 0.434972 0.500000 0.356616
O O6 0.308778 0.292785 0.281263
O O7 0.551059 0.286589 0.474567
O O8 0.082871 0.747110 0.133480
O O9 0.983139 0.000000 0.055043
O O10 0.000000 0.850428 0.000000
O O11 0.849649 0.772839 0.943031
O O12 0.510251 0.804981 0.802695
O O13 0.275932 0.791373 0.616157
O O14 0.392449 0.000000 0.672799
O O15 0.242798 0.205057 0.676197
O O16 0.310889 0.000000 0.776996
O O17 0.808499 0.500000 0.919619
O O18 0.871222 0.654708 0.032008
O O19 0.836308 0.500000 0.070633
O O20 0.750000 0.750000 0.000000
O O21 0.688339 0.500000 0.587926
#
# Coordination Sequence:
#
# PCOD9180857 Si02
#       8
#     8   8   8   8   8   8   8   8
#     4  10  20  34  53  79 111 145 184 227 266 317
#     4   9  18  33  57  86 109 136 179 231 281 322
#     4  11  24  38  53  79 115 149 178 216 271 332
#     4  10  20  33  51  77 111 148 183 220 269 326
#     4  10  19  36  63  86 106 138 182 230 277 325
#     4  10  20  35  55  79 108 143 186 230 268 315
#     4  10  19  32  51  76 105 138 179 222 265 314
#     4   9  18  34  57  85 112 137 177 232 279 323
#
# _framework density 19.252473999999999
#
# number of rings (size 3 to 8) (size 9 to 14) (size 15 to 20)
#    0.000    2.125    1.250    2.250    0.000    7.000 
#    0.000    2.500    0.000    3.000    0.000    0.000 
#    0.000    0.000    0.000    0.000    0.000    0.000 
#
# Total GULP energy -178533.623419 kJ/mol
# GULP energy per Si atom -5579.175732 kJ/mol
# Density = 1.920865 g / cm^3
# Si number density = 19.252474 Si / 1000 Ang^3
#
#
#
# Elastic Constant Matrix: (Units=GPa)
#
#
# Indices 1 2 3 4 5 6 
#
# 1 79.0839 24.5104 3.8230 0.0002 0.6834 -0.0001
# 2 24.5104 43.3613 14.2459 -0.0012 8.5408 0.0000
# 3 3.8230 14.2459 46.2399 -0.0017 2.1804 -0.0002
# 4 0.0002 -0.0012 -0.0017 11.3018 -0.0001 1.7202
# 5 0.6834 8.5408 2.1804 -0.0001 29.6899 0.0001
# 6 -0.0001 0.0000 -0.0002 1.7202 0.0001 27.6334
#
#
#
# Elastic Compliance Matrix: (Units=1/GPa)
#
#
# Indices 1 2 3 4 5 6 
#
# 1 0.015585 -0.009803 0.001621 -0.000001 0.002342 0.000000
# 2 -0.009803 0.033282 -0.009034 0.000002 -0.008685 0.000000
# 3 0.001621 -0.009034 0.024239 0.000003 0.000781 0.000000
# 4 -0.000001 0.000002 0.000003 0.089328 0.000000 -0.005561
# 5 0.002342 -0.008685 0.000781 0.000000 0.036069 0.000000
# 6 0.000000 0.000000 0.000000 -0.005561 0.000000 0.036534
#
#
# Mechanical properties :
#
#
# Convention : Reuss Voigt Hill
#
# Bulk Modulus (GPa) = 25.85729 28.20485 27.03107
# Shear Modulus (GPa) = 17.70799 22.13207 19.92003
#
# Velocity S-wave (km/s) = 3.03607 3.39421 3.22012
# Velocity P-wave (km/s) = 5.07446 5.48112 5.28170
#
# Compressibility (1/GPa) = 0.03867381
#
# Stress axis : x y z
#
# Youngs Moduli (GPa) = 64.16625 30.04621 41.25645
#
# Poissons Ratio (x) = 0.29455 -0.06689
# Poissons Ratio (y) = 0.62904 0.37270
# Poissons Ratio (z) = -0.10403 0.27143
#
# Static dielectric constant tensor:
#      x y z
#    x 1.689980 0.000000 -0.017230 
#    y 0.000000 1.661310 0.000000 
#    z -0.017230 0.000000 1.677210 
# 
# From -- ./inp_files/382426.got.cif
#   From: 2010.05.17/outbox.cif.g08.bks.cpg/sg12_192_cif.got.tgz:382426.got - 2010.06.03 13:09:07.
