data_PCOD9180155
_publ_section_title
;
Structure prediction by ZEFSAII (Michael W. Deem and Ramdas Pophale) SiO2 
 PCOD9180155
Probable space group: C 2/M
;
_chemical_formula_sum "Si O2"
_cell_formula_units_Z 64
_cell_length_a 14.962515
_cell_length_b 7.477350
_cell_length_c 27.402197
_cell_angle_alpha 90.000000
_cell_angle_beta 53.298412
_cell_angle_gamma 90.000000
_cell_volume 2457.998309
_symmetry_space_group_name_H-M "C 2/M"
_symmetry_group_IT_number 12
_symmetry_cell_setting 'monoclinic'
loop_
_space_group_symop_operation_xyz
x,y,z
-x,y,-z
-x,-y,-z
x,-y,z
1/2+x,1/2+y,z
1/2-x,1/2+y,-z
1/2-x,1/2-y,-z
1/2+x,1/2-y,z
loop_
_atom_site_type_symbol
_atom_site_label
_atom_site_fract_x
_atom_site_fract_y
_atom_site_fract_z
Si Si1 0.153017 0.782668 0.592527
Si Si2 0.192510 0.798837 0.764107
Si Si3 0.348327 0.283795 0.854791
Si Si4 0.708929 0.217528 0.363796
Si Si5 0.432298 0.283594 0.723807
Si Si6 0.110868 0.707100 0.896095
Si Si7 0.033796 0.792614 0.540439
Si Si8 0.621324 0.200874 0.047109
O O1 0.255471 0.726185 0.593117
O O2 0.045301 0.734269 0.660196
O O3 0.126283 0.714564 0.546767
O O4 0.156326 0.000000 0.588566
O O5 0.201708 0.723761 0.706292
O O6 0.323439 0.801955 0.735465
O O7 0.138484 0.709680 0.828975
O O8 0.145792 0.000000 0.776549
O O9 0.344458 0.500000 0.859560
O O10 0.423341 0.237788 0.783831
O O11 0.221230 0.217785 0.886225
O O12 0.395414 0.211669 0.889448
O O13 0.585603 0.287132 0.393160
O O14 0.707920 0.000000 0.362597
O O15 0.420219 0.500000 0.724339
O O16 0.106650 0.500000 0.912436
O O17 0.987523 0.789738 0.941803
O O18 0.000000 0.705541 0.500000
O O19 0.062153 0.000000 0.522694
O O20 0.617529 0.000000 0.030303
O O21 0.750000 0.250000 0.000000
#
# Coordination Sequence:
#
# PCOD9180155 Si02
#       8
#     8   8   8   8   8   8   8   8
#     4   9  18  34  55  79 111 149 185 223 278 342
#     4  10  19  31  54  85 115 140 181 234 278 325
#     4   9  19  36  59  84 110 146 190 228 274 337
#     4  10  21  35  54  82 112 147 184 227 283 337
#     4   9  17  33  58  80 110 154 187 217 278 347
#     4   9  21  40  59  81 113 154 188 220 278 344
#     4  10  21  38  59  80 107 148 195 238 277 329
#     4  11  24  41  60  84 115 151 192 234 279 330
#
# _framework density 26.037445999999999
#
# number of rings (size 3 to 8) (size 9 to 14) (size 15 to 20)
#    0.000    2.375    1.250    1.500    1.750    4.750 
#    0.000    3.750    0.000    0.000    0.000    0.000 
#    0.000    0.000    0.000    0.000    0.000    0.000 
#
# Total GULP energy -178825.379023 kJ/mol
# GULP energy per Si atom -5588.293094 kJ/mol
# Density = 2.597818 g / cm^3
# Si number density = 26.037446 Si / 1000 Ang^3
#
#
#
# Elastic Constant Matrix: (Units=GPa)
#
#
# Indices 1 2 3 4 5 6 
#
# 1 142.8764 -0.0423 42.8985 0.0000 -7.3730 0.0001
# 2 -0.0423 78.0322 4.0514 0.0003 -1.8237 -0.0001
# 3 42.8985 4.0514 52.8587 0.0000 0.9117 0.0000
# 4 0.0000 0.0003 0.0000 18.0736 0.0000 1.1662
# 5 -7.3730 -1.8237 0.9117 0.0000 57.8824 0.0000
# 6 0.0001 -0.0001 0.0000 1.1662 0.0000 4.9759
#
#
#
# Elastic Compliance Matrix: (Units=1/GPa)
#
#
# Indices 1 2 3 4 5 6 
#
# 1 0.009367 0.000434 -0.007658 0.000000 0.001327 0.000000
# 2 0.000434 0.012897 -0.001349 0.000000 0.000483 0.000000
# 3 -0.007658 -0.001349 0.025261 0.000000 -0.001416 0.000000
# 4 0.000000 0.000000 0.000000 0.056179 0.000000 -0.013166
# 5 0.001327 0.000483 -0.001416 0.000000 0.017483 0.000000
# 6 0.000000 0.000000 0.000000 -0.013166 0.000000 0.204054
#
#
# Mechanical properties :
#
#
# Convention : Reuss Voigt Hill
#
# Bulk Modulus (GPa) = 32.91790 40.84253 36.88021
# Shear Modulus (GPa) = 14.18383 31.31034 22.74708
#
# Velocity S-wave (km/s) = 2.33651 3.47149 2.95893
# Velocity P-wave (km/s) = 4.46643 5.63812 5.08613
#
# Compressibility (1/GPa) = 0.03037861
#
# Stress axis : x y z
#
# Youngs Moduli (GPa) = 106.75736 77.53878 39.58628
#
# Poissons Ratio (x) = -0.03363 0.30316
# Poissons Ratio (y) = -0.04630 0.05339
# Poissons Ratio (z) = 0.81756 0.10458
#
# Static dielectric constant tensor:
#      x y z
#    x 2.063290 0.000000 0.001020 
#    y 0.000000 1.983500 0.000000 
#    z 0.001020 0.000000 2.115200 
# 
# From -- ./inp_files/375499.got.cif
#   From: 2010.05.17/outbox.cif.g08.bks.cpg/sg12_188_cif.got.tgz:375499.got - 2010.06.03 13:09:07.
