data_PCOD9180396
_publ_section_title
;
Structure prediction by ZEFSAII (Michael W. Deem and Ramdas Pophale) SiO2 
 PCOD9180396
Probable space group: C 2/M
;
_chemical_formula_sum "Si O2"
_cell_formula_units_Z 48
_cell_length_a 26.474262
_cell_length_b 16.026422
_cell_length_c 11.797046
_cell_angle_alpha 90.000000
_cell_angle_beta 150.027585
_cell_angle_gamma 90.000000
_cell_volume 2500.583475
_symmetry_space_group_name_H-M "C 2/M"
_symmetry_group_IT_number 12
_symmetry_cell_setting 'monoclinic'
loop_
_space_group_symop_operation_xyz
x,y,z
-x,y,-z
-x,-y,-z
x,-y,z
1/2+x,1/2+y,z
1/2-x,1/2+y,-z
1/2-x,1/2-y,-z
1/2+x,1/2-y,z
loop_
_atom_site_type_symbol
_atom_site_label
_atom_site_fract_x
_atom_site_fract_y
_atom_site_fract_z
Si Si1 0.794012 0.406312 0.336839
Si Si2 0.098463 0.099317 0.832544
Si Si3 0.882681 0.342392 0.296790
Si Si4 0.623786 0.658510 0.626138
Si Si5 0.180694 0.600082 0.068169
Si Si6 0.488269 0.101820 0.846502
O O1 0.773922 0.500000 0.340920
O O2 0.849139 0.410052 0.322229
O O3 0.881065 0.367643 0.585961
O O4 0.685163 0.369511 0.088160
O O5 0.129799 0.112703 0.761367
O O6 0.991558 0.144955 0.637625
O O7 0.085821 0.000000 0.823923
O O8 0.858483 0.254599 0.308242
O O9 0.000000 0.346566 0.500000
O O10 0.834530 0.355846 0.081956
O O11 0.702458 0.624834 0.685767
O O12 0.174470 0.500000 0.044448
O O13 0.088849 0.626265 0.971642
O O14 0.484510 0.000000 0.832901
O O15 0.500000 0.125534 0.000000
#
# Coordination Sequence:
#
# PCOD9180396 Si02
#       6
#     8   8   8   8   8   8
#     4  10  20  33  53  76 104 137 170 216 261 313
#     4  10  19  32  49  71 105 144 177 206 246 310
#     4  12  21  31  48  81 110 142 166 208 262 320
#     4  11  21  32  47  77 111 146 171 202 253 312
#     4  11  21  33  54  78 108 139 171 218 260 312
#     4   9  19  35  55  79 101 130 175 223 269 305
#
# _framework density 19.195519999999998
#
# number of rings (size 3 to 8) (size 9 to 14) (size 15 to 20)
#    0.000    1.500    5.000    3.000    0.000    0.667 
#    0.000    0.000    0.000    2.000    0.000    5.833 
#    0.000    0.000    0.000    0.000    0.000    4.333 
#
# Total GULP energy -133729.384342 kJ/mol
# GULP energy per Si atom -5572.057681 kJ/mol
# Density = 1.915183 g / cm^3
# Si number density = 19.195520 Si / 1000 Ang^3
#
#
#
# Elastic Constant Matrix: (Units=GPa)
#
#
# Indices 1 2 3 4 5 6 
#
# 1 65.1939 15.7828 77.8328 0.0000 4.8476 0.0000
# 2 15.7828 52.4519 18.4571 0.0000 12.5877 0.0000
# 3 77.8328 18.4571 159.9752 0.0000 13.0802 0.0000
# 4 0.0000 0.0000 0.0000 2.5747 0.0000 -3.9664
# 5 4.8476 12.5877 13.0802 0.0000 25.8644 0.0000
# 6 0.0000 0.0000 0.0000 -3.9664 0.0000 -7.8916
#
#
#
# Elastic Compliance Matrix: (Units=1/GPa)
#
#
# Indices 1 2 3 4 5 6 
#
# 1 0.038462 -0.006341 -0.018405 0.000000 0.005185 0.000000
# 2 -0.006341 0.023085 0.001297 0.000000 -0.010702 0.000000
# 3 -0.018405 0.001297 0.015465 0.000000 -0.005003 0.000000
# 4 0.000000 0.000000 0.000000 0.218902 0.000000 -0.110022
# 5 0.005185 -0.010702 -0.005003 0.000000 0.045430 0.000000
# 6 0.000000 0.000000 0.000000 -0.110022 0.000000 -0.071419
#
#
# Mechanical properties :
#
#
# Convention : Reuss Voigt Hill
#
# Bulk Modulus (GPa) = 33.20815 55.75181 44.47998
# Shear Modulus (GPa) = 15.29699 15.14606 15.22152
#
# Velocity S-wave (km/s) = 2.82601 2.81204 2.81903
# Velocity P-wave (km/s) = 5.29018 6.29687 5.81535
#
# Compressibility (1/GPa) = 0.03011309
#
# Stress axis : x y z
#
# Youngs Moduli (GPa) = 25.99989 43.31776 64.66186
#
# Poissons Ratio (x) = 0.27468 1.19011
# Poissons Ratio (y) = 0.16487 -0.08385
# Poissons Ratio (z) = 0.47853 -0.05617
#
# Static dielectric constant tensor:
#      x y z
#    x 1.642260 0.000000 0.066970 
#    y 0.000000 1.707320 0.000000 
#    z 0.066970 0.000000 1.847290 
# 
# From -- ./inp_files/183874.got.cif
#   From: 2010.05.17/outbox.cif.g08.bks.cpg/sg12_92_cif.got.tgz:183874.got - 2010.06.03 13:09:07.
