data_PCOD9180326
_publ_section_title
;
Structure prediction by ZEFSAII (Michael W. Deem and Ramdas Pophale) SiO2 
 PCOD9180326
Probable space group: C 2/M
;
_chemical_formula_sum "Si O2"
_cell_formula_units_Z 56
_cell_length_a 9.061932
_cell_length_b 19.784261
_cell_length_c 24.363217
_cell_angle_alpha 90.000000
_cell_angle_beta 44.187193
_cell_angle_gamma 90.000000
_cell_volume 3044.465507
_symmetry_space_group_name_H-M "C 2/M"
_symmetry_group_IT_number 12
_symmetry_cell_setting 'monoclinic'
loop_
_space_group_symop_operation_xyz
x,y,z
-x,y,-z
-x,-y,-z
x,-y,z
1/2+x,1/2+y,z
1/2-x,1/2+y,-z
1/2-x,1/2-y,-z
1/2+x,1/2-y,z
loop_
_atom_site_type_symbol
_atom_site_label
_atom_site_fract_x
_atom_site_fract_y
_atom_site_fract_z
Si Si1 0.253321 0.702700 0.425383
Si Si2 0.277655 0.351887 0.530013
Si Si3 0.570739 0.687525 0.245119
Si Si4 0.537067 0.169558 0.776676
Si Si5 0.977742 0.922214 0.180503
Si Si6 0.969825 0.575617 0.320951
Si Si7 0.133019 0.919464 0.909754
O O1 0.323078 0.651166 0.453753
O O2 0.318033 0.778751 0.426167
O O3 0.358598 0.685345 0.339650
O O4 0.000000 0.702460 0.500000
O O5 0.500000 0.360303 0.500000
O O6 0.122080 0.407444 0.595110
O O7 0.558991 0.759352 0.217642
O O8 0.770211 0.681816 0.232973
O O9 0.574147 0.628767 0.198774
O O10 0.610705 0.129452 0.702299
O O11 0.348591 0.123452 0.851316
O O12 0.723084 0.919415 0.255484
O O13 0.000685 0.903547 0.109985
O O14 0.046649 0.000000 0.170360
O O15 0.911872 0.500000 0.319343
O O16 0.182356 0.000000 0.893181
O O17 0.000000 0.907207 0.000000
#
# Coordination Sequence:
#
# PCOD9180326 Si02
#       7
#     8   8   8   8   8   8   8
#     4  10  21  32  53  75 107 149 200 248 290 343
#     4  10  19  32  48  74 103 142 194 244 288 339
#     4  12  23  37  59  84 120 157 194 254 290 340
#     4  11  22  36  57  89 115 151 199 234 292 348
#     4   9  20  37  58  84 113 151 191 232 291 351
#     4  10  19  35  56  77 112 150 191 245 296 352
#     4   9  19  41  69  92 119 153 187 227 281 352
#
# _framework density 18.394031999999999
#
# number of rings (size 3 to 8) (size 9 to 14) (size 15 to 20)
#    0.000    1.857    1.429    4.714    4.000    1.429 
#    0.000    4.286    0.000    5.143    0.000    0.000 
#    0.000    0.000    0.000    0.000    0.000    0.000 
#
# Total GULP energy -156203.593254 kJ/mol
# GULP energy per Si atom -5578.699759 kJ/mol
# Density = 1.835217 g / cm^3
# Si number density = 18.394032 Si / 1000 Ang^3
#
#
#
# Elastic Constant Matrix: (Units=GPa)
#
#
# Indices 1 2 3 4 5 6 
#
# 1 82.8042 46.1625 13.5270 -0.0004 5.7281 0.0012
# 2 46.1625 90.1991 26.0412 0.0002 10.3659 0.0004
# 3 13.5270 26.0412 95.3987 0.0006 13.0038 0.0007
# 4 -0.0004 0.0002 0.0006 27.6676 0.0003 4.1906
# 5 5.7281 10.3659 13.0038 0.0003 19.3120 -0.0003
# 6 0.0012 0.0004 0.0007 4.1906 -0.0003 28.0619
#
#
#
# Elastic Compliance Matrix: (Units=1/GPa)
#
#
# Indices 1 2 3 4 5 6 
#
# 1 0.016901 -0.008606 0.000007 0.000000 -0.000398 -0.000001
# 2 -0.008606 0.016813 -0.002738 0.000000 -0.004628 0.000000
# 3 0.000007 -0.002738 0.012143 0.000000 -0.006709 0.000000
# 4 0.000000 0.000000 0.000000 0.036980 -0.000001 -0.005522
# 5 -0.000398 -0.004628 -0.006709 -0.000001 0.058901 0.000001
# 6 -0.000001 0.000000 0.000000 -0.005522 0.000001 0.036460
#
#
# Mechanical properties :
#
#
# Convention : Reuss Voigt Hill
#
# Bulk Modulus (GPa) = 43.13500 48.87370 46.00435
# Shear Modulus (GPa) = 23.96923 27.18638 25.57781
#
# Velocity S-wave (km/s) = 3.61376 3.84865 3.73305
# Velocity P-wave (km/s) = 6.39639 6.81011 6.60649
#
# Compressibility (1/GPa) = 0.02318303
#
# Stress axis : x y z
#
# Youngs Moduli (GPa) = 59.16908 59.47645 82.34954
#
# Poissons Ratio (x) = 0.51184 -0.00058
# Poissons Ratio (y) = 0.50919 0.22551
# Poissons Ratio (z) = -0.00042 0.16287
#
# Static dielectric constant tensor:
#      x y z
#    x 1.647780 0.000000 0.013760 
#    y 0.000000 1.644560 0.000000 
#    z 0.013760 0.000000 1.642390 
# 
# From -- ./inp_files/257685.got.cif
#   From: 2010.05.17/outbox.cif.g08.bks.cpg/sg12_129_cif.got.tgz:257685.got - 2010.06.03 13:09:07.
