data_PCOD9180724
_publ_section_title
;
Structure prediction by ZEFSAII (Michael W. Deem and Ramdas Pophale) SiO2 
 PCOD9180724
Probable space group: C 2/M
;
_chemical_formula_sum "Si O2"
_cell_formula_units_Z 64
_cell_length_a 18.650053
_cell_length_b 7.420441
_cell_length_c 31.360563
_cell_angle_alpha 90.000000
_cell_angle_beta 42.857183
_cell_angle_gamma 90.000000
_cell_volume 2951.978474
_symmetry_space_group_name_H-M "C 2/M"
_symmetry_group_IT_number 12
_symmetry_cell_setting 'monoclinic'
loop_
_space_group_symop_operation_xyz
x,y,z
-x,y,-z
-x,-y,-z
x,-y,z
1/2+x,1/2+y,z
1/2-x,1/2+y,-z
1/2-x,1/2-y,-z
1/2+x,1/2-y,z
loop_
_atom_site_type_symbol
_atom_site_label
_atom_site_fract_x
_atom_site_fract_y
_atom_site_fract_z
Si Si1 0.330547 0.280433 0.569231
Si Si2 0.117594 0.788041 0.943868
Si Si3 0.505191 0.719568 0.429062
Si Si4 0.289834 0.784515 0.935032
Si Si5 0.902184 0.715364 0.308885
Si Si6 0.191757 0.717930 0.816068
Si Si7 0.027710 0.720766 0.815155
Si Si8 0.572961 0.284590 0.306957
O O1 0.329264 0.500000 0.568847
O O2 0.399899 0.229886 0.580350
O O3 0.396668 0.221965 0.498938
O O4 0.211147 0.216292 0.625662
O O5 0.204904 0.712466 0.938144
O O6 0.156526 0.771167 0.878610
O O7 0.109326 0.000000 0.958133
O O8 0.000000 0.710992 0.000000
O O9 0.503183 0.500000 0.429285
O O10 0.526887 0.783618 0.371917
O O11 0.408546 0.717712 0.875925
O O12 0.295793 0.000000 0.926463
O O13 0.250000 0.750000 0.000000
O O14 0.891457 0.500000 0.309719
O O15 0.933164 0.780913 0.248372
O O16 0.993753 0.750112 0.302841
O O17 0.193184 0.500000 0.814419
O O18 0.107735 0.777981 0.817312
O O19 0.309545 0.783021 0.754118
O O20 0.027730 0.500000 0.815255
O O21 0.582233 0.500000 0.307505
#
# Coordination Sequence:
#
# PCOD9180724 Si02
#       8
#     8   8   8   8   8   8   8   8
#     4   8  14  26  48  74  94 123 169 208 239 283
#     4  10  21  36  53  76 106 134 158 192 245 299
#     4   8  14  27  47  71  99 127 161 208 249 281
#     4  10  20  34  52  73  98 128 160 195 237 283
#     4  10  19  32  51  73  98 129 165 202 241 293
#     4  10  20  34  53  74  95 126 169 208 241 283
#     4   9  18  33  52  72  94 123 162 205 241 274
#     4  10  20  32  47  71 102 130 157 199 253 295
#
# _framework density 21.680375999999999
#
# number of rings (size 3 to 8) (size 9 to 14) (size 15 to 20)
#    0.000    2.625    0.000    3.000    0.000    5.750 
#    0.000    1.250    0.000    2.250    0.000    1.750 
#    0.000    0.000    0.000    0.000    0.000    0.000 
#
# Total GULP energy -178791.812857 kJ/mol
# GULP energy per Si atom -5587.244152 kJ/mol
# Density = 2.163103 g / cm^3
# Si number density = 21.680376 Si / 1000 Ang^3
#
#
#
# Elastic Constant Matrix: (Units=GPa)
#
#
# Indices 1 2 3 4 5 6 
#
# 1 210.1308 -5.2057 142.3667 -0.0954 -11.7907 -0.0332
# 2 -5.2057 66.2536 -5.4202 -0.2753 -8.4579 -0.1387
# 3 142.3667 -5.4202 221.3968 -0.0156 -15.6474 -0.0083
# 4 -0.0954 -0.2753 -0.0156 177.4031 -0.0236 84.0176
# 5 -11.7907 -8.4579 -15.6474 -0.0236 45.7015 -0.0123
# 6 -0.0332 -0.1387 -0.0083 84.0176 -0.0123 48.0817
#
#
#
# Elastic Compliance Matrix: (Units=1/GPa)
#
#
# Indices 1 2 3 4 5 6 
#
# 1 0.008442 0.000271 -0.005395 0.000010 0.000381 -0.000013
# 2 0.000271 0.015544 0.000425 0.000017 0.003092 0.000016
# 3 -0.005395 0.000425 0.008100 -0.000006 0.001460 0.000009
# 4 0.000010 0.000017 -0.000006 0.032689 0.000005 -0.057120
# 5 0.000381 0.003092 0.001460 0.000005 0.023051 0.000006
# 6 -0.000013 0.000016 0.000009 -0.057120 0.000006 0.120609
#
#
# Mechanical properties :
#
#
# Convention : Reuss Voigt Hill
#
# Bulk Modulus (GPa) = 44.07731 84.58475 64.33103
# Shear Modulus (GPa) = 22.18303 78.63996 50.41150
#
# Velocity S-wave (km/s) = 3.20220 6.02919 4.82728
# Velocity P-wave (km/s) = 5.83496 9.35774 7.79789
#
# Compressibility (1/GPa) = 0.02268741
#
# Stress axis : x y z
#
# Youngs Moduli (GPa) = 118.45024 64.33184 123.46133
#
# Poissons Ratio (x) = -0.01741 0.66610
# Poissons Ratio (y) = -0.03205 -0.05248
# Poissons Ratio (z) = 0.63907 -0.02735
#
# Static dielectric constant tensor:
#      x y z
#    x 1.746890 0.000000 -0.015480 
#    y 0.000000 1.826830 -0.000010 
#    z -0.015480 -0.000010 1.755670 
# 
# From -- ./inp_files/378011.got.cif
#   From: 2010.05.17/outbox.cif.g08.bks.cpg/sg12_190_cif.got.tgz:378011.got - 2010.06.03 13:09:07.
