data_PCOD9180654
_publ_section_title
;
Structure prediction by ZEFSAII (Michael W. Deem and Ramdas Pophale) SiO2 
 PCOD9180654
Probable space group: C 2/M
;
_chemical_formula_sum "Si O2"
_cell_formula_units_Z 52
_cell_length_a 16.984068
_cell_length_b 19.548219
_cell_length_c 7.915528
_cell_angle_alpha 90.000000
_cell_angle_beta 81.127622
_cell_angle_gamma 90.000000
_cell_volume 2596.574828
_symmetry_space_group_name_H-M "C 2/M"
_symmetry_group_IT_number 12
_symmetry_cell_setting 'monoclinic'
loop_
_space_group_symop_operation_xyz
x,y,z
-x,y,-z
-x,-y,-z
x,-y,z
1/2+x,1/2+y,z
1/2-x,1/2+y,-z
1/2-x,1/2-y,-z
1/2+x,1/2-y,z
loop_
_atom_site_type_symbol
_atom_site_label
_atom_site_fract_x
_atom_site_fract_y
_atom_site_fract_z
Si Si1 0.824546 0.718513 0.770172
Si Si2 0.899698 0.715763 0.369139
Si Si3 0.757564 0.145939 0.714221
Si Si4 0.167851 0.147715 0.681320
Si Si5 0.628630 0.000000 0.218141
Si Si6 0.743533 0.000000 0.885138
Si Si7 0.541401 0.133401 0.165113
Si Si8 0.689113 0.500000 0.787076
O O1 0.872382 0.717368 0.574510
O O2 0.801323 0.796835 0.813765
O O3 0.743875 0.675507 0.763325
O O4 0.881263 0.681788 0.884741
O O5 0.828383 0.676424 0.299482
O O6 0.899006 0.793392 0.297754
O O7 0.978548 0.675023 0.298030
O O8 0.802709 0.144973 0.521154
O O9 0.751619 0.069979 0.783577
O O10 0.150678 0.070368 0.739332
O O11 0.575822 0.932485 0.252258
O O12 0.713897 0.000000 0.289559
O O13 0.660037 0.000000 0.013927
O O14 0.808519 0.000000 0.011971
O O15 0.500000 0.116116 0.000000
#
# Coordination Sequence:
#
# PCOD9180654 Si02
#       8
#     8   8   8   8   4   4   8   4
#     4   9  18  36  53  75 103 137 187 233 271 314
#     4   9  20  33  55  77 103 140 185 230 268 318
#     4   9  18  33  56  76 102 135 185 237 269 315
#     4   9  17  35  56  79  99 137 186 233 275 312
#     4  10  23  36  48  76 120 156 174 210 264 324
#     4  10  19  32  50  80 107 142 175 214 273 312
#     4  12  22  35  51  75 115 153 180 212 267 329
#     4  10  19  32  55  75 114 140 178 220 268 316
#
# _framework density 20.026381000000001
#
# number of rings (size 3 to 8) (size 9 to 14) (size 15 to 20)
#    0.462    1.846    1.538    3.923    0.000    1.846 
#    0.000    6.154    0.000    0.923    0.000    6.462 
#    0.000    0.000    0.000    0.000    0.000    0.000 
#
# Total GULP energy -145062.924286 kJ/mol
# GULP energy per Si atom -5579.343242 kJ/mol
# Density = 1.998080 g / cm^3
# Si number density = 20.026381 Si / 1000 Ang^3
#
#
#
# Elastic Constant Matrix: (Units=GPa)
#
#
# Indices 1 2 3 4 5 6 
#
# 1 36.2989 25.4043 -1.1983 0.0000 -2.0579 0.0000
# 2 25.4043 179.0899 16.3599 0.0000 -4.2374 0.0000
# 3 -1.1983 16.3599 34.8799 0.0000 -2.9139 0.0000
# 4 0.0000 0.0000 0.0000 -52.5114 0.0000 103.1386
# 5 -2.0579 -4.2374 -2.9139 0.0000 23.0663 0.0000
# 6 0.0000 0.0000 0.0000 103.1386 0.0000 -147.7946
#
#
#
# Elastic Compliance Matrix: (Units=1/GPa)
#
#
# Indices 1 2 3 4 5 6 
#
# 1 0.031062 -0.004666 0.003452 0.000000 0.002350 0.000000
# 2 -0.004666 0.006547 -0.003199 0.000000 0.000382 0.000000
# 3 0.003452 -0.003199 0.030588 0.000000 0.003584 0.000000
# 4 0.000000 0.000000 0.000000 0.051377 0.000000 0.035854
# 5 0.002350 0.000382 0.003584 0.000000 0.044086 0.000000
# 6 0.000000 0.000000 0.000000 0.035854 0.000000 0.018254
#
#
# Mechanical properties :
#
#
# Convention : Reuss Voigt Hill
#
# Bulk Modulus (GPa) = 16.84328 36.82227 26.83278
# Shear Modulus (GPa) = 23.74946 -21.46777 1.14085
#
# Velocity S-wave (km/s) = 3.44744 -3.27765 0.75558
# Velocity P-wave (km/s) = 4.92699 2.02553 3.76683
#
# Compressibility (1/GPa) = 0.05937085
#
# Stress axis : x y z
#
# Youngs Moduli (GPa) = 32.19393 152.74310 32.69217
#
# Poissons Ratio (x) = 0.71268 -0.11285
# Poissons Ratio (y) = 0.15021 0.10459
# Poissons Ratio (z) = -0.11113 0.48864
#
# Static dielectric constant tensor:
#      x y z
#    x 1.707900 0.000000 0.006320 
#    y 0.000000 1.745610 0.000000 
#    z 0.006320 0.000000 1.749780 
# 
# From -- ./inp_files/75265.got.cif
#   From: 2010.05.17/outbox.cif.g08.bks.cpg/sg12_38_cif.got.tgz:75265.got - 2010.06.03 13:09:07.
