data_PCOD9180060
_publ_section_title
;
Structure prediction by ZEFSAII (Michael W. Deem and Ramdas Pophale) SiO2 
 PCOD9180060
Probable space group: C 2/M
;
_chemical_formula_sum "Si O2"
_cell_formula_units_Z 48
_cell_length_a 21.700047
_cell_length_b 18.196881
_cell_length_c 20.807260
_cell_angle_alpha 90.000000
_cell_angle_beta 19.942962
_cell_angle_gamma 90.000000
_cell_volume 2802.428359
_symmetry_space_group_name_H-M "C 2/M"
_symmetry_group_IT_number 12
_symmetry_cell_setting 'monoclinic'
loop_
_space_group_symop_operation_xyz
x,y,z
-x,y,-z
-x,-y,-z
x,-y,z
1/2+x,1/2+y,z
1/2-x,1/2+y,-z
1/2-x,1/2-y,-z
1/2+x,1/2-y,z
loop_
_atom_site_type_symbol
_atom_site_label
_atom_site_fract_x
_atom_site_fract_y
_atom_site_fract_z
Si Si1 0.342589 0.084907 0.793443
Si Si2 0.773190 0.414447 0.013237
Si Si3 0.534995 0.320626 0.039922
Si Si4 0.055263 0.701779 0.767803
Si Si5 0.928465 0.175747 0.350119
Si Si6 0.769102 0.087011 0.385719
O O1 0.275415 0.090801 0.933176
O O2 0.556451 0.099272 0.583681
O O3 0.313349 0.000000 0.801737
O O4 0.227293 0.141062 0.864668
O O5 0.763548 0.500000 0.039515
O O6 0.953300 0.374946 0.861396
O O7 0.601253 0.367955 0.205218
O O8 0.513463 0.248278 0.104602
O O9 0.387255 0.377363 0.213637
O O10 0.500000 0.306792 0.000000
O O11 0.013232 0.750537 0.745003
O O12 0.271984 0.693823 0.554126
O O13 0.832942 0.125931 0.388762
O O14 0.801279 0.000000 0.358827
#
# Coordination Sequence:
#
# PCOD9180060 Si02
#       6
#     8   8   8   8   8   8
#     4  10  20  33  53  80 112 142 172 216 265 316
#     4  11  20  32  55  85 110 135 167 217 280 328
#     4  11  24  38  53  73 106 152 191 215 249 306
#     4  10  21  34  53  78 109 137 178 221 269 311
#     4  10  19  31  53  82 110 138 170 216 273 324
#     4  10  19  33  53  80 113 142 172 215 264 317
#
# _framework density 17.128001999999999
#
# number of rings (size 3 to 8) (size 9 to 14) (size 15 to 20)
#    0.000    1.667    5.000    1.500    0.000    2.667 
#    0.000    1.667    0.000    0.500    0.000    1.167 
#    0.000    0.000    0.000    0.000    0.000    0.000 
#
# Total GULP energy -134029.387988 kJ/mol
# GULP energy per Si atom -5584.557833 kJ/mol
# Density = 1.708902 g / cm^3
# Si number density = 17.128002 Si / 1000 Ang^3
#
#
#
# Elastic Constant Matrix: (Units=GPa)
#
#
# Indices 1 2 3 4 5 6 
#
# 1 31.1545 -4.8664 -5.2883 -0.0021 5.4773 -0.0008
# 2 -4.8664 56.2242 11.0033 -0.0089 0.5278 0.0066
# 3 -5.2883 11.0033 51.6915 -0.0119 -6.6289 0.0158
# 4 -0.0021 -0.0089 -0.0119 33.4776 0.0026 -7.3352
# 5 5.4773 0.5278 -6.6289 0.0026 7.4208 -0.0032
# 6 -0.0008 0.0066 0.0158 -7.3352 -0.0032 2.3192
#
#
#
# Elastic Compliance Matrix: (Units=1/GPa)
#
#
# Indices 1 2 3 4 5 6 
#
# 1 0.037581 0.003635 -0.000587 -0.000006 -0.028521 -0.000052
# 2 0.003635 0.019110 -0.004760 -0.000009 -0.008294 -0.000062
# 3 -0.000587 -0.004760 0.023037 -0.000064 0.021350 -0.000317
# 4 -0.000006 -0.000009 -0.000064 0.097298 0.000047 0.307738
# 5 -0.028521 -0.008294 0.021350 0.000047 0.175469 0.000259
# 6 -0.000052 -0.000062 -0.000317 0.307738 0.000259 1.404511
#
#
# Mechanical properties :
#
#
# Convention : Reuss Voigt Hill
#
# Bulk Modulus (GPa) = 13.10523 15.64082 14.37302
# Shear Modulus (GPa) = 2.79977 17.85829 10.32903
#
# Velocity S-wave (km/s) = 1.27991 3.23249 2.45837
# Velocity P-wave (km/s) = 3.13882 4.80453 4.05806
#
# Compressibility (1/GPa) = 0.07630543
#
# Stress axis : x y z
#
# Youngs Moduli (GPa) = 26.60945 52.32893 43.40909
#
# Poissons Ratio (x) = -0.19023 0.02546
# Poissons Ratio (y) = -0.09673 0.20661
# Poissons Ratio (z) = 0.01561 0.24906
#
# Static dielectric constant tensor:
#      x y z
#    x 1.538890 0.000000 -0.008540 
#    y 0.000000 1.593540 0.000010 
#    z -0.008540 0.000010 1.612560 
# 
# From -- ./inp_files/285370.got.cif
#   From: 2010.05.17/outbox.cif.g08.bks.cpg/sg12_143_cif.got.tgz:285370.got - 2010.06.03 13:09:07.
