data_PCOD9180087
_publ_section_title
;
Structure prediction by ZEFSAII (Michael W. Deem and Ramdas Pophale) SiO2 
 PCOD9180087
Probable space group: C 2/M
;
_chemical_formula_sum "Si O2"
_cell_formula_units_Z 56
_cell_length_a 21.036325
_cell_length_b 8.816103
_cell_length_c 31.887368
_cell_angle_alpha 90.000000
_cell_angle_beta 32.473089
_cell_angle_gamma 90.000000
_cell_volume 3175.128979
_symmetry_space_group_name_H-M "C 2/M"
_symmetry_group_IT_number 12
_symmetry_cell_setting 'monoclinic'
loop_
_space_group_symop_operation_xyz
x,y,z
-x,y,-z
-x,-y,-z
x,-y,z
1/2+x,1/2+y,z
1/2-x,1/2+y,-z
1/2-x,1/2-y,-z
1/2+x,1/2-y,z
loop_
_atom_site_type_symbol
_atom_site_label
_atom_site_fract_x
_atom_site_fract_y
_atom_site_fract_z
Si Si1 0.920165 0.183471 0.668400
Si Si2 0.328268 0.682716 0.339358
Si Si3 0.586615 0.682702 0.230333
Si Si4 0.931565 0.317525 0.911293
Si Si5 0.328376 0.817835 0.493991
Si Si6 0.307587 0.183054 0.259020
Si Si7 0.766145 0.680941 0.924211
O O1 0.906500 0.226847 0.724823
O O2 0.805260 0.228406 0.705706
O O3 0.039372 0.255811 0.584018
O O4 0.931480 0.000000 0.660663
O O5 0.328316 0.500000 0.335836
O O6 0.458642 0.729301 0.283046
O O7 0.233262 0.725202 0.427780
O O8 0.302086 0.753213 0.308955
O O9 0.593249 0.500000 0.224516
O O10 0.687920 0.751734 0.144798
O O11 0.926747 0.500000 0.917943
O O12 0.862126 0.276231 0.906965
O O13 0.067496 0.269346 0.831117
O O14 0.858161 0.244771 0.989962
O O15 0.250000 0.750000 0.500000
O O16 0.327028 0.000000 0.491656
O O17 0.309370 0.000000 0.260185
O O18 0.761910 0.500000 0.924378
#
# Coordination Sequence:
#
# PCOD9180087 Si02
#       7
#     8   8   8   8   8   8   8
#     4  10  22  40  59  82 114 150 187 228 280 334
#     4  10  21  36  57  82 111 146 184 228 279 330
#     4  10  19  35  56  80 110 146 184 226 274 330
#     4   9  18  33  52  79 111 143 180 225 278 329
#     4  11  22  38  59  85 114 147 188 234 279 328
#     4  10  21  38  59  83 113 148 187 231 275 331
#     4  10  19  31  53  84 110 138 184 234 274 322
#
# _framework density 17.637080000000001
#
# number of rings (size 3 to 8) (size 9 to 14) (size 15 to 20)
#    0.000    2.000    2.857    0.857    0.000    4.000 
#    0.000    3.571    0.000    4.286    0.000    0.000 
#    0.000    0.000    0.000    0.000    0.000    0.000 
#
# Total GULP energy -156320.304145 kJ/mol
# GULP energy per Si atom -5582.868005 kJ/mol
# Density = 1.759694 g / cm^3
# Si number density = 17.637080 Si / 1000 Ang^3
#
#
#
# Elastic Constant Matrix: (Units=GPa)
#
#
# Indices 1 2 3 4 5 6 
#
# 1 138.0925 33.2663 98.0357 0.0000 -0.8404 -0.0033
# 2 33.2663 16.2896 44.9443 0.0001 1.0548 0.0022
# 3 98.0357 44.9443 202.9821 -0.0002 5.7827 -0.0004
# 4 0.0000 0.0001 -0.0002 34.0786 0.0001 2.8626
# 5 -0.8404 1.0548 5.7827 0.0001 30.1607 -0.0009
# 6 -0.0033 0.0022 -0.0004 2.8626 -0.0009 24.2460
#
#
#
# Elastic Compliance Matrix: (Units=1/GPa)
#
#
# Indices 1 2 3 4 5 6 
#
# 1 0.014427 -0.026256 -0.001198 0.000000 0.001550 0.000004
# 2 -0.026256 0.205605 -0.032797 0.000001 -0.001634 -0.000023
# 3 -0.001198 -0.032797 0.012806 0.000000 -0.001342 0.000003
# 4 0.000000 0.000001 0.000000 0.029638 0.000000 -0.003499
# 5 0.001550 -0.001634 -0.001342 0.000000 0.033513 0.000002
# 6 0.000004 -0.000023 0.000003 -0.003499 0.000002 0.041657
#
#
# Mechanical properties :
#
#
# Convention : Reuss Voigt Hill
#
# Bulk Modulus (GPa) = 8.90208 78.87300 43.88754
# Shear Modulus (GPa) = 10.08893 29.77161 19.93027
#
# Velocity S-wave (km/s) = 2.39431 4.11300 3.36523
# Velocity P-wave (km/s) = 3.56398 8.20809 6.32751
#
# Compressibility (1/GPa) = 0.11233334
#
# Stress axis : x y z
#
# Youngs Moduli (GPa) = 69.31584 4.86371 78.09137
#
# Poissons Ratio (x) = 0.12770 0.09358
# Poissons Ratio (y) = 1.81996 2.56119
# Poissons Ratio (z) = 0.08306 0.15952
#
# Static dielectric constant tensor:
#      x y z
#    x 1.578690 0.000000 -0.006780 
#    y 0.000000 1.595570 0.000000 
#    z -0.006780 0.000000 1.586490 
# 
# From -- ./inp_files/275009.got.cif
#   From: 2010.05.17/outbox.cif.g08.bks.cpg/sg12_138_cif.got.tgz:275009.got - 2010.06.03 13:09:07.
