data_PCOD9180821
_publ_section_title
;
Structure prediction by ZEFSAII (Michael W. Deem and Ramdas Pophale) SiO2 
 PCOD9180821
Probable space group: C 2/M
;
_chemical_formula_sum "Si O2"
_cell_formula_units_Z 56
_cell_length_a 19.884955
_cell_length_b 8.599312
_cell_length_c 23.920101
_cell_angle_alpha 90.000000
_cell_angle_beta 128.304965
_cell_angle_gamma 90.000000
_cell_volume 3209.722759
_symmetry_space_group_name_H-M "C 2/M"
_symmetry_group_IT_number 12
_symmetry_cell_setting 'monoclinic'
loop_
_space_group_symop_operation_xyz
x,y,z
-x,y,-z
-x,-y,-z
x,-y,z
1/2+x,1/2+y,z
1/2-x,1/2+y,-z
1/2-x,1/2-y,-z
1/2+x,1/2-y,z
loop_
_atom_site_type_symbol
_atom_site_label
_atom_site_fract_x
_atom_site_fract_y
_atom_site_fract_z
Si Si1 0.864418 0.311701 0.221795
Si Si2 0.787351 0.684920 0.780161
Si Si3 0.751772 0.813245 0.938723
Si Si4 0.175158 0.312860 0.501460
Si Si5 0.595716 0.688000 0.064827
Si Si6 0.208061 0.813086 0.342263
Si Si7 0.558087 0.811424 0.345404
O O1 0.861928 0.500000 0.222973
O O2 0.797838 0.249583 0.233342
O O3 0.827022 0.264283 0.141921
O O4 0.961582 0.261067 0.282507
O O5 0.785727 0.500000 0.780132
O O6 0.866808 0.744608 0.858535
O O7 0.793321 0.744951 0.720184
O O8 0.837536 0.766326 0.949438
O O9 0.750790 0.000000 0.940854
O O10 0.750000 0.750000 0.000000
O O11 0.176885 0.500000 0.502228
O O12 0.250000 0.250000 0.500000
O O13 0.205795 0.264306 0.578914
O O14 0.089051 0.266372 0.424200
O O15 0.597238 0.500000 0.069856
O O16 0.500000 0.737221 0.000000
O O17 0.126847 0.755737 0.336926
O O18 0.205953 0.000000 0.338322
O O19 0.561319 0.000000 0.343175
#
# Coordination Sequence:
#
# PCOD9180821 Si02
#       7
#     8   8   8   8   8   8   8
#     4   9  19  36  54  72 100 135 167 206 257 305
#     4  11  22  35  52  74 102 136 173 211 249 294
#     4   9  18  32  50  72  97 126 158 194 240 291
#     4   8  15  28  48  73  99 129 164 205 254 302
#     4   9  19  37  57  75  98 130 166 205 252 301
#     4  10  19  32  51  75 104 136 169 206 252 306
#     4   9  17  32  54  78 101 127 167 216 258 300
#
# _framework density 17.446988999999999
#
# number of rings (size 3 to 8) (size 9 to 14) (size 15 to 20)
#    0.000    2.714    0.000    2.571    0.000    4.857 
#    0.000    3.571    0.000    4.286    0.000    0.000 
#    0.000    0.000    0.000    0.000    0.000    0.000 
#
# Total GULP energy -156006.806261 kJ/mol
# GULP energy per Si atom -5571.671652 kJ/mol
# Density = 1.740728 g / cm^3
# Si number density = 17.446989 Si / 1000 Ang^3
#
#
#
# Elastic Constant Matrix: (Units=GPa)
#
#
# Indices 1 2 3 4 5 6 
#
# 1 74.7662 22.8730 106.9821 0.0000 7.6854 0.0000
# 2 22.8730 20.2300 39.8159 0.0000 1.8224 0.0000
# 3 106.9821 39.8159 217.6545 0.0000 4.4617 0.0000
# 4 0.0000 0.0000 0.0000 20.9052 0.0000 -6.6369
# 5 7.6854 1.8224 4.4617 0.0000 35.9339 0.0000
# 6 0.0000 0.0000 0.0000 -6.6369 0.0000 24.1179
#
#
#
# Elastic Compliance Matrix: (Units=1/GPa)
#
#
# Indices 1 2 3 4 5 6 
#
# 1 0.048607 -0.011847 -0.021579 0.000000 -0.007116 0.000000
# 2 -0.011847 0.080298 -0.008857 0.000000 -0.000439 0.000000
# 3 -0.021579 -0.008857 0.016760 0.000000 0.002983 0.000000
# 4 0.000000 0.000000 0.000000 0.052414 0.000000 0.014424
# 5 -0.007116 -0.000439 0.002983 0.000000 0.029003 0.000000
# 6 0.000000 0.000000 0.000000 0.014424 0.000000 0.045432
#
#
# Mechanical properties :
#
#
# Convention : Reuss Voigt Hill
#
# Bulk Modulus (GPa) = 16.36651 72.44363 44.40507
# Shear Modulus (GPa) = 13.24695 25.72337 19.48516
#
# Velocity S-wave (km/s) = 2.75847 3.84392 3.34551
# Velocity P-wave (km/s) = 4.42116 7.83028 6.35845
#
# Compressibility (1/GPa) = 0.06110040
#
# Stress axis : x y z
#
# Youngs Moduli (GPa) = 20.57311 12.45361 59.66634
#
# Poissons Ratio (x) = 0.14753 1.28751
# Poissons Ratio (y) = 0.24372 0.52848
# Poissons Ratio (z) = 0.44394 0.11030
#
# Static dielectric constant tensor:
#      x y z
#    x 1.556610 0.000000 0.018150 
#    y 0.000000 1.590950 0.000000 
#    z 0.018150 0.000000 1.621990 
# 
# From -- ./inp_files/320227.got.cif
#   From: 2010.05.17/outbox.cif.g08.bks.cpg/sg12_161_cif.got.tgz:320227.got - 2010.06.03 13:09:07.
