data_PCOD9180874
_publ_section_title
;
Structure prediction by ZEFSAII (Michael W. Deem and Ramdas Pophale) SiO2 
 PCOD9180874
Probable space group: C 2/M
;
_chemical_formula_sum "Si O2"
_cell_formula_units_Z 56
_cell_length_a 15.926995
_cell_length_b 11.443023
_cell_length_c 18.758327
_cell_angle_alpha 90.000000
_cell_angle_beta 128.674915
_cell_angle_gamma 90.000000
_cell_volume 2669.040491
_symmetry_space_group_name_H-M "C 2/M"
_symmetry_group_IT_number 12
_symmetry_cell_setting 'monoclinic'
loop_
_space_group_symop_operation_xyz
x,y,z
-x,y,-z
-x,-y,-z
x,-y,z
1/2+x,1/2+y,z
1/2-x,1/2+y,-z
1/2-x,1/2-y,-z
1/2+x,1/2-y,z
loop_
_atom_site_type_symbol
_atom_site_label
_atom_site_fract_x
_atom_site_fract_y
_atom_site_fract_z
Si Si1 0.573572 0.286769 0.756081
Si Si2 0.888284 0.128285 0.564545
Si Si3 0.043457 0.634151 0.866634
Si Si4 0.220121 0.368976 0.064862
Si Si5 0.912164 0.800677 0.902619
Si Si6 0.797176 0.372280 0.281018
Si Si7 0.663043 0.869011 0.530058
O O1 0.479919 0.362874 0.673174
O O2 0.528059 0.181559 0.779522
O O3 0.654274 0.352920 0.852925
O O4 0.641572 0.229833 0.728114
O O5 0.772425 0.130246 0.541760
O O6 0.897530 0.249563 0.524847
O O7 0.897706 0.000000 0.532983
O O8 0.011029 0.500000 0.855759
O O9 0.975904 0.713901 0.884185
O O10 0.169074 0.641918 0.958823
O O11 0.190067 0.500000 0.072345
O O12 0.158971 0.276518 0.081133
O O13 0.826692 0.869342 0.810061
O O14 0.000000 0.862376 0.000000
O O15 0.841588 0.500000 0.284293
O O16 0.808261 0.359042 0.371419
O O17 0.612224 0.000000 0.492869
#
# Coordination Sequence:
#
# PCOD9180874 Si02
#       7
#     8   8   8   8   8   8   8
#     4  11  21  33  52  80 111 142 177 220 271 328
#     4  10  21  39  62  86 109 136 180 233 278 324
#     4  10  19  32  51  76 107 143 185 228 268 317
#     4   9  18  33  51  73 106 145 181 222 271 320
#     4   9  18  33  54  78 104 139 184 228 268 314
#     4  10  21  37  54  77 111 146 179 217 268 329
#     4   9  20  40  62  81 107 144 182 224 274 329
#
# _framework density 20.981324000000001
#
# number of rings (size 3 to 8) (size 9 to 14) (size 15 to 20)
#    0.000    2.286    0.000    2.571    0.000    3.714 
#    0.000   10.000    0.000    0.857    0.000    0.000 
#    0.000    0.000    0.000    0.000    0.000    0.000 
#
# Total GULP energy -156102.359872 kJ/mol
# GULP energy per Si atom -5575.084281 kJ/mol
# Density = 2.093357 g / cm^3
# Si number density = 20.981324 Si / 1000 Ang^3
#
#
#
# Elastic Constant Matrix: (Units=GPa)
#
#
# Indices 1 2 3 4 5 6 
#
# 1 16.5753 10.9081 10.6101 0.0000 2.6265 0.0000
# 2 10.9081 134.6152 49.2670 0.0000 -0.8867 0.0000
# 3 10.6101 49.2670 83.9729 0.0000 5.4881 0.0000
# 4 0.0000 0.0000 0.0000 31.7855 0.0000 -14.1060
# 5 2.6265 -0.8867 5.4881 0.0000 31.0816 0.0000
# 6 0.0000 0.0000 0.0000 -14.1060 0.0000 40.0702
#
#
#
# Elastic Compliance Matrix: (Units=1/GPa)
#
#
# Indices 1 2 3 4 5 6 
#
# 1 0.067200 -0.003158 -0.006334 0.000000 -0.004650 0.000000
# 2 -0.003158 0.009658 -0.005364 0.000000 0.001490 0.000000
# 3 -0.006334 -0.005364 0.016016 0.000000 -0.002446 0.000000
# 4 0.000000 0.000000 0.000000 0.037286 0.000000 0.013126
# 5 -0.004650 0.001490 -0.002446 0.000000 0.033041 0.000000
# 6 0.000000 0.000000 0.000000 0.013126 0.000000 0.029577
#
#
# Mechanical properties :
#
#
# Convention : Reuss Voigt Hill
#
# Bulk Modulus (GPa) = 15.83255 41.85934 28.84594
# Shear Modulus (GPa) = 20.53013 31.54600 26.03806
#
# Velocity S-wave (km/s) = 3.13148 3.88174 3.52662
# Velocity P-wave (km/s) = 4.54283 6.33124 5.51008
#
# Compressibility (1/GPa) = 0.06316101
#
# Stress axis : x y z
#
# Youngs Moduli (GPa) = 14.88087 103.54555 62.43702
#
# Poissons Ratio (x) = 0.32697 0.39549
# Poissons Ratio (y) = 0.04699 0.33494
# Poissons Ratio (z) = 0.09426 0.55547
#
# Static dielectric constant tensor:
#      x y z
#    x 1.738790 0.000000 0.036980 
#    y 0.000000 1.783550 0.000000 
#    z 0.036980 0.000000 1.766080 
# 
# From -- ./inp_files/223385.got.cif
#   From: 2010.05.17/outbox.cif.g08.bks.cpg/sg12_112_cif.got.tgz:223385.got - 2010.06.03 13:09:07.
