data_PCOD9180401
_publ_section_title
;
Structure prediction by ZEFSAII (Michael W. Deem and Ramdas Pophale) SiO2 
 PCOD9180401
Probable space group: C 2/M
;
_chemical_formula_sum "Si O2"
_cell_formula_units_Z 44
_cell_length_a 13.498299
_cell_length_b 17.602356
_cell_length_c 11.179293
_cell_angle_alpha 90.000000
_cell_angle_beta 38.323314
_cell_angle_gamma 90.000000
_cell_volume 1647.118068
_symmetry_space_group_name_H-M "C 2/M"
_symmetry_group_IT_number 12
_symmetry_cell_setting 'monoclinic'
loop_
_space_group_symop_operation_xyz
x,y,z
-x,y,-z
-x,-y,-z
x,-y,z
1/2+x,1/2+y,z
1/2-x,1/2+y,-z
1/2-x,1/2-y,-z
1/2+x,1/2-y,z
loop_
_atom_site_type_symbol
_atom_site_label
_atom_site_fract_x
_atom_site_fract_y
_atom_site_fract_z
Si Si1 0.359350 0.422496 0.227316
Si Si2 0.830987 0.242256 0.296393
Si Si3 0.818494 0.916729 0.821839
Si Si4 0.889506 0.416293 0.743401
Si Si5 0.359073 0.750003 0.775717
Si Si6 0.500000 0.865696 0.000000
O O1 0.356965 0.500000 0.304659
O O2 0.396980 0.342238 0.246462
O O3 0.196803 0.419814 0.303758
O O4 0.500000 0.429458 0.000000
O O5 0.750000 0.250000 0.500000
O O6 0.734831 0.242368 0.261656
O O7 0.953386 0.309810 0.152902
O O8 0.916218 0.838117 0.711814
O O9 0.891463 0.000000 0.730706
O O10 0.747477 0.916212 0.024102
O O11 0.658169 0.909726 0.890921
O O12 0.969709 0.500000 0.686758
O O13 0.957780 0.329847 0.685485
O O14 0.250000 0.750000 0.000000
#
# Coordination Sequence:
#
# PCOD9180401 Si02
#       6
#     8   8   8   8   8   4
#     4   9  16  29  51  77 101 134 179 224 267 314
#     4  10  19  32  51  77 105 134 170 220 268 312
#     4   9  16  27  45  71 100 134 171 204 247 315
#     4   8  14  25  45  73  97 125 171 216 260 303
#     4   8  15  28  47  69  95 133 171 205 249 311
#     4  10  19  32  49  72 100 140 175 208 256 322
#
# _framework density 26.713325999999999
#
# number of rings (size 3 to 8) (size 9 to 14) (size 15 to 20)
#    0.000    3.091    0.909    0.273    0.000    0.000 
#    0.000    4.545    0.000   17.455    0.000   17.818 
#    0.000   33.455    0.000    0.000    0.000    0.000 
#
# Total GULP energy -122629.325448 kJ/mol
# GULP energy per Si atom -5574.060248 kJ/mol
# Density = 2.665253 g / cm^3
# Si number density = 26.713326 Si / 1000 Ang^3
#
#
#
# Elastic Constant Matrix: (Units=GPa)
#
#
# Indices 1 2 3 4 5 6 
#
# 1 156.8493 20.7944 14.3576 -0.0001 27.3773 -0.0168
# 2 20.7944 308.2704 30.1662 -0.0002 -4.6545 -0.0155
# 3 14.3576 30.1662 124.2188 0.0003 27.6138 -0.0177
# 4 -0.0001 -0.0002 0.0003 3.5000 0.0011 -13.4294
# 5 27.3773 -4.6545 27.6138 0.0011 25.1584 0.0157
# 6 -0.0168 -0.0155 -0.0177 -13.4294 0.0157 26.9843
#
#
#
# Elastic Compliance Matrix: (Units=1/GPa)
#
#
# Indices 1 2 3 4 5 6 
#
# 1 0.008264 -0.000892 0.001716 -0.000055 -0.011041 -0.000015
# 2 -0.000892 0.003496 -0.001462 0.000007 0.003222 0.000002
# 3 0.001716 -0.001462 0.011484 -0.000073 -0.014743 -0.000020
# 4 -0.000055 0.000007 -0.000073 -0.314123 0.000254 -0.156331
# 5 -0.011041 0.003222 -0.014743 0.000254 0.068541 0.000072
# 6 -0.000015 0.000002 -0.000020 -0.156331 0.000072 -0.040743
#
#
# Mechanical properties :
#
#
# Convention : Reuss Voigt Hill
#
# Bulk Modulus (GPa) = 45.52178 79.99721 62.75949
# Shear Modulus (GPa) = -19.64777 46.06322 13.20772
#
# Velocity S-wave (km/s) = -2.71496 4.15704 2.22598
# Velocity P-wave (km/s) = 2.69255 7.28374 5.49102
#
# Compressibility (1/GPa) = 0.02196751
#
# Stress axis : x y z
#
# Youngs Moduli (GPa) = 121.00787 286.05613 87.07440
#
# Poissons Ratio (x) = 0.25518 -0.14941
# Poissons Ratio (y) = 0.10795 0.12732
# Poissons Ratio (z) = -0.20764 0.41826
#
# Static dielectric constant tensor:
#      x y z
#    x 2.133830 0.000000 -0.070900 
#    y 0.000000 1.960480 0.000000 
#    z -0.070900 0.000000 2.017230 
# 
# From -- ./inp_files/158157.got.cif
#   From: 2010.05.17/outbox.cif.g08.bks.cpg/sg12_80_cif.got.tgz:158157.got - 2010.06.03 13:09:07.
