data_PCOD9180541
_publ_section_title
;
Structure prediction by ZEFSAII (Michael W. Deem and Ramdas Pophale) SiO2 
 PCOD9180541
Probable space group: C 2/M
;
_chemical_formula_sum "Si O2"
_cell_formula_units_Z 56
_cell_length_a 22.807324
_cell_length_b 7.544201
_cell_length_c 29.495691
_cell_angle_alpha 90.000000
_cell_angle_beta 149.819956
_cell_angle_gamma 90.000000
_cell_volume 2551.357772
_symmetry_space_group_name_H-M "C 2/M"
_symmetry_group_IT_number 12
_symmetry_cell_setting 'monoclinic'
loop_
_space_group_symop_operation_xyz
x,y,z
-x,y,-z
-x,-y,-z
x,-y,z
1/2+x,1/2+y,z
1/2-x,1/2+y,-z
1/2-x,1/2-y,-z
1/2+x,1/2-y,z
loop_
_atom_site_type_symbol
_atom_site_label
_atom_site_fract_x
_atom_site_fract_y
_atom_site_fract_z
Si Si1 0.831075 0.787917 0.011318
Si Si2 0.270955 0.794244 0.241986
Si Si3 0.731213 0.712941 0.380266
Si Si4 0.595437 0.718116 0.200192
Si Si5 0.918041 0.792875 0.637537
Si Si6 0.473210 0.710009 0.574501
Si Si7 0.321232 0.784265 0.174635
O O1 0.962193 0.722333 0.106713
O O2 0.839770 0.000000 0.012363
O O3 0.750000 0.750000 0.000000
O O4 0.766614 0.722981 0.922920
O O5 0.173449 0.720023 0.210003
O O6 0.399127 0.784413 0.350140
O O7 0.284792 0.720051 0.200472
O O8 0.240710 0.000000 0.215391
O O9 0.720047 0.500000 0.373817
O O10 0.657484 0.775978 0.288058
O O11 0.675528 0.783686 0.390039
O O12 0.867809 0.755441 0.470035
O O13 0.596510 0.500000 0.201254
O O14 0.932105 0.716134 0.596394
O O15 0.046421 0.776903 0.745291
O O16 0.889563 0.000000 0.612544
O O17 0.489326 0.500000 0.589683
O O18 0.324057 0.000000 0.176893
#
# Coordination Sequence:
#
# PCOD9180541 Si02
#       7
#     8   8   8   8   8   8   8
#     4  10  20  35  54  79 106 132 163 201 246 297
#     4   9  18  35  54  73  98 131 169 207 244 290
#     4  10  19  32  50  72  97 132 172 207 245 294
#     4   9  19  34  53  74  99 132 170 206 243 292
#     4   9  18  32  51  74 102 133 165 201 249 303
#     4  10  20  33  50  74 101 131 165 207 254 298
#     4   9  18  31  52  78 102 129 164 206 249 289
#
# _framework density 21.949096000000001
#
# number of rings (size 3 to 8) (size 9 to 14) (size 15 to 20)
#    0.000    2.571    0.000    1.714    0.000    4.000 
#    0.000    7.857    0.000    0.000    0.000    5.000 
#    0.000    0.000    0.000    0.000    0.000    0.000 
#
# Total GULP energy -156376.695533 kJ/mol
# GULP energy per Si atom -5584.881983 kJ/mol
# Density = 2.189914 g / cm^3
# Si number density = 21.949096 Si / 1000 Ang^3
#
#
#
# Elastic Constant Matrix: (Units=GPa)
#
#
# Indices 1 2 3 4 5 6 
#
# 1 77.3230 -4.1687 55.5091 0.0001 33.9088 -0.0010
# 2 -4.1687 53.7884 -17.3184 -0.0004 -3.3775 -0.0019
# 3 55.5091 -17.3184 172.9296 0.0007 9.0827 -0.0001
# 4 0.0001 -0.0004 0.0007 15.2970 0.0001 2.3665
# 5 33.9088 -3.3775 9.0827 0.0001 28.1812 0.0001
# 6 -0.0010 -0.0019 -0.0001 2.3665 0.0001 2.3842
#
#
#
# Elastic Compliance Matrix: (Units=1/GPa)
#
#
# Indices 1 2 3 4 5 6 
#
# 1 0.040817 -0.003269 -0.011016 -0.000002 -0.045955 0.000017
# 2 -0.003269 0.019554 0.002724 -0.000002 0.005399 0.000016
# 3 -0.011016 0.002724 0.009031 0.000000 0.010670 -0.000002
# 4 -0.000002 -0.000002 0.000000 0.077232 0.000002 -0.076659
# 5 -0.045955 0.005399 0.010670 0.000002 0.087987 -0.000018
# 6 0.000017 0.000016 -0.000002 -0.076659 -0.000018 0.495516
#
#
# Mechanical properties :
#
#
# Convention : Reuss Voigt Hill
#
# Bulk Modulus (GPa) = 21.60710 41.34278 31.47494
# Shear Modulus (GPa) = 6.50461 27.17375 16.83918
#
# Velocity S-wave (km/s) = 1.72335 3.52239 2.77283
# Velocity P-wave (km/s) = 3.71826 5.95144 4.96211
#
# Compressibility (1/GPa) = 0.04628107
#
# Stress axis : x y z
#
# Youngs Moduli (GPa) = 24.49943 51.14020 110.72924
#
# Poissons Ratio (x) = 0.16717 1.21977
# Poissons Ratio (y) = 0.08009 -0.30163
# Poissons Ratio (z) = 0.26988 -0.13931
#
# Static dielectric constant tensor:
#      x y z
#    x 1.799060 0.000000 -0.014020 
#    y 0.000000 1.820390 0.000000 
#    z -0.014020 0.000000 1.778350 
# 
# From -- ./inp_files/380720.got.cif
#   From: 2010.05.17/outbox.cif.g08.bks.cpg/sg12_191_cif.got.tgz:380720.got - 2010.06.03 13:09:07.
