data_PCOD9180404
_publ_section_title
;
Structure prediction by ZEFSAII (Michael W. Deem and Ramdas Pophale) SiO2 
 PCOD9180404
Probable space group: C 2/M
;
_chemical_formula_sum "Si O2"
_cell_formula_units_Z 56
_cell_length_a 32.081275
_cell_length_b 8.012720
_cell_length_c 18.654843
_cell_angle_alpha 90.000000
_cell_angle_beta 142.276675
_cell_angle_gamma 90.000000
_cell_volume 2934.049978
_symmetry_space_group_name_H-M "C 2/M"
_symmetry_group_IT_number 12
_symmetry_cell_setting 'monoclinic'
loop_
_space_group_symop_operation_xyz
x,y,z
-x,y,-z
-x,-y,-z
x,-y,z
1/2+x,1/2+y,z
1/2-x,1/2+y,-z
1/2-x,1/2-y,-z
1/2+x,1/2-y,z
loop_
_atom_site_type_symbol
_atom_site_label
_atom_site_fract_x
_atom_site_fract_y
_atom_site_fract_z
Si Si1 0.284162 0.307191 0.853150
Si Si2 0.201913 0.812893 0.870078
Si Si3 0.833484 0.300717 0.412165
Si Si4 0.916798 0.298174 0.964106
Si Si5 0.320008 0.202114 0.556173
Si Si6 0.078696 0.200421 0.605268
Si Si7 0.927453 0.296741 0.817624
O O1 0.271625 0.500000 0.856166
O O2 0.252664 0.194251 0.871613
O O3 0.240883 0.270556 0.722951
O O4 0.362373 0.276750 0.943492
O O5 0.131797 0.735233 0.739787
O O6 0.182853 0.000000 0.864863
O O7 0.250000 0.750000 0.000000
O O8 0.844281 0.500000 0.429737
O O9 0.832020 0.235721 0.491422
O O10 0.886879 0.235206 0.425484
O O11 0.912593 0.500000 0.961594
O O12 0.902635 0.245161 0.862764
O O13 0.994172 0.247816 0.084952
O O14 0.250000 0.250000 0.500000
O O15 0.379942 0.262251 0.689633
O O16 0.321587 0.000000 0.555214
O O17 0.000000 0.261560 0.500000
O O18 0.076673 0.000000 0.611084
O O19 0.926681 0.500000 0.817046
#
# Coordination Sequence:
#
# PCOD9180404 Si02
#       7
#     8   8   8   8   8   8   8
#     4  10  19  32  50  73 101 132 166 208 254 304
#     4  10  20  36  57  80 106 135 170 214 260 312
#     4   9  19  33  50  74 104 135 171 212 254 307
#     4   9  16  30  50  70  93 131 174 208 250 302
#     4  10  19  32  49  72 102 133 169 212 255 299
#     4   9  19  37  59  80 105 139 175 215 264 316
#     4   8  16  30  48  68  97 132 168 210 251 299
#
# _framework density 19.086245000000002
#
# number of rings (size 3 to 8) (size 9 to 14) (size 15 to 20)
#    0.000    2.714    0.000    2.571    0.000    2.000 
#    2.571    2.143    0.000    0.000    0.000    0.000 
#    0.000    0.000    0.000    0.000    0.000    0.000 
#
# Total GULP energy -155940.055194 kJ/mol
# GULP energy per Si atom -5569.287685 kJ/mol
# Density = 1.904280 g / cm^3
# Si number density = 19.086245 Si / 1000 Ang^3
#
#
#
# Elastic Constant Matrix: (Units=GPa)
#
#
# Indices 1 2 3 4 5 6 
#
# 1 79.3440 3.6560 66.6961 0.0000 9.8246 0.0000
# 2 3.6560 15.0292 19.9691 0.0000 -5.5198 0.0000
# 3 66.6961 19.9691 141.7436 0.0000 -15.1680 0.0000
# 4 0.0000 0.0000 0.0000 15.8638 0.0000 2.5282
# 5 9.8246 -5.5198 -15.1680 0.0000 29.9216 0.0000
# 6 0.0000 0.0000 0.0000 2.5282 0.0000 22.7277
#
#
#
# Elastic Compliance Matrix: (Units=1/GPa)
#
#
# Indices 1 2 3 4 5 6 
#
# 1 0.027302 0.008582 -0.015697 0.000000 -0.015339 0.000000
# 2 0.008582 0.087361 -0.015778 0.000000 0.005300 0.000000
# 3 -0.015697 -0.015778 0.017874 0.000000 0.011304 0.000000
# 4 0.000000 0.000000 0.000000 0.064174 0.000000 -0.007139
# 5 -0.015339 0.005300 0.011304 0.000000 0.045165 0.000000
# 6 0.000000 0.000000 0.000000 -0.007139 0.000000 0.044793
#
#
# Mechanical properties :
#
#
# Convention : Reuss Voigt Hill
#
# Bulk Modulus (GPa) = 11.52757 46.30658 28.91708
# Shear Modulus (GPa) = 13.83612 23.42233 18.62923
#
# Velocity S-wave (km/s) = 2.69537 3.50692 3.12758
# Velocity P-wave (km/s) = 3.96730 6.38063 5.31281
#
# Compressibility (1/GPa) = 0.08674857
#
# Stress axis : x y z
#
# Youngs Moduli (GPa) = 36.62718 11.44680 55.94824
#
# Poissons Ratio (x) = -0.09823 0.87823
# Poissons Ratio (y) = -0.31432 0.88277
# Poissons Ratio (z) = 0.57494 0.18061
#
# Static dielectric constant tensor:
#      x y z
#    x 1.630050 0.000000 -0.007510 
#    y 0.000000 1.713460 0.000000 
#    z -0.007510 0.000000 1.702740 
# 
# From -- ./inp_files/295100.got.cif
#   From: 2010.05.17/outbox.cif.g08.bks.cpg/sg12_148_cif.got.tgz:295100.got - 2010.06.03 13:09:07.
