data_PCOD9180813
_publ_section_title
;
Structure prediction by ZEFSAII (Michael W. Deem and Ramdas Pophale) SiO2 
 PCOD9180813
Probable space group: C 2/M
;
_chemical_formula_sum "Si O2"
_cell_formula_units_Z 56
_cell_length_a 25.657632
_cell_length_b 8.133812
_cell_length_c 15.640275
_cell_angle_alpha 90.000000
_cell_angle_beta 105.977134
_cell_angle_gamma 90.000000
_cell_volume 3137.952647
_symmetry_space_group_name_H-M "C 2/M"
_symmetry_group_IT_number 12
_symmetry_cell_setting 'monoclinic'
loop_
_space_group_symop_operation_xyz
x,y,z
-x,y,-z
-x,-y,-z
x,-y,z
1/2+x,1/2+y,z
1/2-x,1/2+y,-z
1/2-x,1/2-y,-z
1/2+x,1/2-y,z
loop_
_atom_site_type_symbol
_atom_site_label
_atom_site_fract_x
_atom_site_fract_y
_atom_site_fract_z
Si Si1 0.007666 0.198824 0.404734
Si Si2 0.894733 0.690304 0.285891
Si Si3 0.291806 0.300123 0.901249
Si Si4 0.671393 0.695891 0.899448
Si Si5 0.128688 0.798385 0.413839
Si Si6 0.811072 0.192400 0.387257
Si Si7 0.193712 0.194404 0.280259
O O1 0.956894 0.262419 0.328242
O O2 0.000000 0.250313 0.500000
O O3 0.066514 0.252668 0.398426
O O4 0.006365 0.000000 0.402549
O O5 0.886691 0.500000 0.302638
O O6 0.873387 0.724926 0.181189
O O7 0.856878 0.788454 0.335367
O O8 0.289825 0.500000 0.899834
O O9 0.230451 0.238910 0.887459
O O10 0.312818 0.240200 0.819040
O O11 0.325698 0.249585 0.000261
O O12 0.664399 0.500000 0.894026
O O13 0.164117 0.746964 0.511931
O O14 0.155683 0.738845 0.338290
O O15 0.129231 0.000000 0.414838
O O16 0.756208 0.281688 0.335246
O O17 0.797921 0.000000 0.390289
O O18 0.182673 0.000000 0.270727
#
# Coordination Sequence:
#
# PCOD9180813 Si02
#       7
#     8   8   8   8   8   8   8
#     4  10  19  36  57  75 100 136 176 214 254 306
#     4  12  23  34  51  77 106 135 172 221 265 300
#     4   9  18  31  50  77 107 134 165 209 257 306
#     4  10  19  32  51  75 103 136 171 208 257 314
#     4   9  19  34  53  75 104 140 174 207 250 306
#     4  11  20  33  51  76 106 142 176 204 250 310
#     4  10  19  33  52  78 109 138 167 207 256 305
#
# _framework density 17.846032000000001
#
# number of rings (size 3 to 8) (size 9 to 14) (size 15 to 20)
#    0.000    1.857    2.857    2.571    0.000    0.857 
#    0.000    1.429    0.000    0.857    0.000    6.000 
#    0.000    0.000    0.000    0.000    0.000    0.000 
#
# Total GULP energy -156300.081495 kJ/mol
# GULP energy per Si atom -5582.145768 kJ/mol
# Density = 1.780541 g / cm^3
# Si number density = 17.846032 Si / 1000 Ang^3
#
#
#
# Elastic Constant Matrix: (Units=GPa)
#
#
# Indices 1 2 3 4 5 6 
#
# 1 79.3656 -7.9980 63.1656 0.0000 -15.4105 0.0000
# 2 -7.9980 11.5911 3.2842 0.0000 -1.8633 0.0000
# 3 63.1656 3.2842 157.1882 0.0000 -7.1700 0.0000
# 4 0.0000 0.0000 0.0000 15.3520 0.0000 5.0628
# 5 -15.4105 -1.8633 -7.1700 0.0000 25.0343 0.0000
# 6 0.0000 0.0000 0.0000 5.0628 0.0000 15.4154
#
#
#
# Elastic Compliance Matrix: (Units=1/GPa)
#
#
# Indices 1 2 3 4 5 6 
#
# 1 0.025954 0.023184 -0.010240 0.000000 0.014769 0.000000
# 2 0.023184 0.108401 -0.010702 0.000000 0.019275 0.000000
# 3 -0.010240 -0.010702 0.010514 0.000000 -0.004089 0.000000
# 4 0.000000 0.000000 0.000000 0.073050 0.000000 -0.023992
# 5 0.014769 0.019275 -0.004089 0.000000 0.049300 0.000000
# 6 0.000000 0.000000 0.000000 -0.023992 0.000000 0.072750
#
#
# Mechanical properties :
#
#
# Convention : Reuss Voigt Hill
#
# Bulk Modulus (GPa) = 6.69556 40.56094 23.62825
# Shear Modulus (GPa) = 12.97790 23.80654 18.39222
#
# Velocity S-wave (km/s) = 2.69962 3.65635 3.21379
# Velocity P-wave (km/s) = 3.67114 6.37204 5.20000
#
# Compressibility (1/GPa) = 0.14935273
#
# Stress axis : x y z
#
# Youngs Moduli (GPa) = 38.52949 9.22500 95.11198
#
# Poissons Ratio (x) = -0.21388 0.97397
# Poissons Ratio (y) = -0.89328 1.01791
# Poissons Ratio (z) = 0.39455 0.09873
#
# Static dielectric constant tensor:
#      x y z
#    x 1.576130 0.000000 -0.019470 
#    y 0.000000 1.626860 0.000000 
#    z -0.019470 0.000000 1.626970 
# 
# From -- ./inp_files/237909.got.cif
#   From: 2010.05.17/outbox.cif.g08.bks.cpg/sg12_119_cif.got.tgz:237909.got - 2010.06.03 13:09:07.
