data_PCOD9180477
_publ_section_title
;
Structure prediction by ZEFSAII (Michael W. Deem and Ramdas Pophale) SiO2 
 PCOD9180477
Probable space group: C 2/M
;
_chemical_formula_sum "Si O2"
_cell_formula_units_Z 56
_cell_length_a 18.619385
_cell_length_b 7.762391
_cell_length_c 24.134052
_cell_angle_alpha 90.000000
_cell_angle_beta 126.686004
_cell_angle_gamma 90.000000
_cell_volume 2797.196691
_symmetry_space_group_name_H-M "C 2/M"
_symmetry_group_IT_number 12
_symmetry_cell_setting 'monoclinic'
loop_
_space_group_symop_operation_xyz
x,y,z
-x,y,-z
-x,-y,-z
x,-y,z
1/2+x,1/2+y,z
1/2-x,1/2+y,-z
1/2-x,1/2-y,-z
1/2+x,1/2-y,z
loop_
_atom_site_type_symbol
_atom_site_label
_atom_site_fract_x
_atom_site_fract_y
_atom_site_fract_z
Si Si1 0.762830 0.801146 0.646242
Si Si2 0.451997 0.296560 0.204919
Si Si3 0.595996 0.711164 0.067929
Si Si4 0.835918 0.706863 0.501196
Si Si5 0.883914 0.211529 0.796096
Si Si6 0.740575 0.204676 0.931399
Si Si7 0.928672 0.702742 0.647435
O O1 0.687080 0.723301 0.570698
O O2 0.798316 0.727355 0.720662
O O3 0.853093 0.796171 0.649810
O O4 0.738453 0.000000 0.645600
O O5 0.463736 0.500000 0.213953
O O6 0.526384 0.231883 0.195143
O O7 0.353488 0.260958 0.137683
O O8 0.478660 0.225437 0.277557
O O9 0.595683 0.500000 0.067736
O O10 0.612038 0.765678 0.138559
O O11 0.675690 0.772697 0.065207
O O12 0.500000 0.765597 0.000000
O O13 0.840942 0.500000 0.497158
O O14 0.750000 0.750000 0.500000
O O15 0.917997 0.761342 0.578703
O O16 0.882615 0.000000 0.794739
O O17 0.743545 0.000000 0.928610
O O18 0.750000 0.250000 0.000000
O O19 0.905893 0.500000 0.638321
#
# Coordination Sequence:
#
# PCOD9180477 Si02
#       7
#     8   8   8   8   8   8   8
#     4   8  13  22  37  59  88 122 158 193 232 275
#     4  10  19  32  50  70  95 125 156 191 230 273
#     4   9  17  30  49  72  94 118 151 188 225 268
#     4   8  13  20  32  54  86 121 153 189 231 272
#     4   8  14  26  46  69  91 120 158 195 229 269
#     4  11  22  35  53  74  96 121 150 186 226 272
#     4   9  15  23  37  60  91 123 155 191 231 274
#
# _framework density 20.020042
#
# number of rings (size 3 to 8) (size 9 to 14) (size 15 to 20)
#    0.000    3.000    0.000    3.000    0.000    2.857 
#    0.000    0.000    0.000   14.571    0.000    1.000 
#    0.000    8.000    0.000    0.000    0.000    0.000 
#
# Total GULP energy -155911.522243 kJ/mol
# GULP energy per Si atom -5568.268652 kJ/mol
# Density = 1.997448 g / cm^3
# Si number density = 20.020042 Si / 1000 Ang^3
#
#
#
# Elastic Constant Matrix: (Units=GPa)
#
#
# Indices 1 2 3 4 5 6 
#
# 1 66.6002 2.3842 76.0727 0.0000 -5.4873 0.0000
# 2 2.3842 36.4038 3.4465 0.0000 -1.3517 0.0000
# 3 76.0727 3.4465 260.3782 0.0000 -13.3691 0.0000
# 4 0.0000 0.0000 0.0000 17.2022 0.0000 2.2813
# 5 -5.4873 -1.3517 -13.3691 0.0000 20.4508 0.0000
# 6 0.0000 0.0000 0.0000 2.2813 0.0000 9.5679
#
#
#
# Elastic Compliance Matrix: (Units=1/GPa)
#
#
# Indices 1 2 3 4 5 6 
#
# 1 0.022623 -0.000800 -0.006509 0.000000 0.001763 0.000000
# 2 -0.000800 0.027585 -0.000050 0.000000 0.001576 0.000000
# 3 -0.006509 -0.000050 0.005849 0.000000 0.002074 0.000000
# 4 0.000000 0.000000 0.000000 0.060030 0.000000 -0.014313
# 5 0.001763 0.001576 0.002074 0.000000 0.050831 0.000000
# 6 0.000000 0.000000 0.000000 -0.014313 0.000000 0.107929
#
#
# Mechanical properties :
#
#
# Convention : Reuss Voigt Hill
#
# Bulk Modulus (GPa) = 24.18991 58.57656 41.38323
# Shear Modulus (GPa) = 16.48284 28.20943 22.34613
#
# Velocity S-wave (km/s) = 2.87246 3.75782 3.34456
# Velocity P-wave (km/s) = 4.80733 6.93907 5.96914
#
# Compressibility (1/GPa) = 0.04133954
#
# Stress axis : x y z
#
# Youngs Moduli (GPa) = 44.20265 36.25118 170.96123
#
# Poissons Ratio (x) = 0.02900 1.11271
# Poissons Ratio (y) = 0.03536 0.00863
# Poissons Ratio (z) = 0.28769 0.00183
#
# Static dielectric constant tensor:
#      x y z
#    x 1.678270 0.000000 -0.002210 
#    y 0.000000 1.774720 0.000000 
#    z -0.002210 0.000000 1.766760 
# 
# From -- ./inp_files/345659.got.cif
#   From: 2010.05.17/outbox.cif.g08.bks.cpg/sg12_173_cif.got.tgz:345659.got - 2010.06.03 13:09:07.
