data_PCOD9180077
_publ_section_title
;
Structure prediction by ZEFSAII (Michael W. Deem and Ramdas Pophale) SiO2 
 PCOD9180077
Probable space group: C 2/M
;
_chemical_formula_sum "Si O2"
_cell_formula_units_Z 64
_cell_length_a 21.157326
_cell_length_b 8.647504
_cell_length_c 25.064950
_cell_angle_alpha 90.000000
_cell_angle_beta 127.683926
_cell_angle_gamma 90.000000
_cell_volume 3629.206903
_symmetry_space_group_name_H-M "C 2/M"
_symmetry_group_IT_number 12
_symmetry_cell_setting 'monoclinic'
loop_
_space_group_symop_operation_xyz
x,y,z
-x,y,-z
-x,-y,-z
x,-y,z
1/2+x,1/2+y,z
1/2-x,1/2+y,-z
1/2-x,1/2-y,-z
1/2+x,1/2-y,z
loop_
_atom_site_type_symbol
_atom_site_label
_atom_site_fract_x
_atom_site_fract_y
_atom_site_fract_z
Si Si1 0.707583 0.185233 0.282093
Si Si2 0.734522 0.185013 0.076948
Si Si3 0.874232 0.686938 0.571218
Si Si4 0.760224 0.314914 0.419229
Si Si5 0.976285 0.686837 0.795802
Si Si6 0.033544 0.687998 0.707423
Si Si7 0.284781 0.185662 0.214816
Si Si8 0.875990 0.184958 0.068382
O O1 0.755755 0.243310 0.358546
O O2 0.615046 0.234165 0.241848
O O3 0.743255 0.251532 0.246251
O O4 0.709340 0.000000 0.281631
O O5 0.741846 0.256253 0.139088
O O6 0.813111 0.230485 0.082832
O O7 0.732402 0.000000 0.079152
O O8 0.659659 0.244888 0.004149
O O9 0.869916 0.500000 0.573633
O O10 0.836996 0.729412 0.494809
O O11 0.815864 0.756250 0.586031
O O12 0.964575 0.735191 0.630413
O O13 0.757640 0.500000 0.414042
O O14 0.979651 0.500000 0.799090
O O15 0.005857 0.736834 0.752262
O O16 0.037826 0.753448 0.870439
O O17 0.035063 0.500000 0.708478
O O18 0.122809 0.740341 0.740623
O O19 0.284244 0.000000 0.215237
O O20 0.876165 0.000000 0.064888
#
# Coordination Sequence:
#
# PCOD9180077 Si02
#       8
#     8   8   8   8   8   8   8   8
#     4  11  23  39  57  77 112 153 185 220 274 338
#     4  10  20  35  55  81 114 149 182 216 270 333
#     4   9  17  33  55  81 111 144 182 226 276 329
#     4  10  19  31  53  83 112 142 183 230 275 321
#     4  10  19  35  58  81 107 144 186 225 269 327
#     4   9  17  33  57  82 107 141 184 226 272 325
#     4  11  22  37  58  82 111 143 183 231 275 323
#     4  10  20  33  55  86 115 141 178 231 274 312
#
# _framework density 17.634706999999999
#
# number of rings (size 3 to 8) (size 9 to 14) (size 15 to 20)
#    0.000    2.000    2.500    1.875    0.000    2.500 
#    0.000    2.500    0.000    7.500    0.000    0.000 
#    0.000    0.000    0.000    0.000    0.000    0.000 
#
# Total GULP energy -178614.991478 kJ/mol
# GULP energy per Si atom -5581.718484 kJ/mol
# Density = 1.759457 g / cm^3
# Si number density = 17.634707 Si / 1000 Ang^3
#
#
#
# Elastic Constant Matrix: (Units=GPa)
#
#
# Indices 1 2 3 4 5 6 
#
# 1 108.0571 30.7675 79.6801 0.0000 -9.2296 0.0000
# 2 30.7675 33.2996 41.1057 0.0000 -6.2283 0.0000
# 3 79.6801 41.1057 177.3711 0.0000 -8.5835 0.0000
# 4 0.0000 0.0000 0.0000 30.0695 0.0000 -3.4883
# 5 -9.2296 -6.2283 -8.5835 0.0000 28.0573 0.0000
# 6 0.0000 0.0000 0.0000 -3.4883 0.0000 25.0638
#
#
#
# Elastic Compliance Matrix: (Units=1/GPa)
#
#
# Indices 1 2 3 4 5 6 
#
# 1 0.015262 -0.007576 -0.005013 0.000000 0.001805 0.000000
# 2 -0.007576 0.047007 -0.007213 0.000000 0.005736 0.000000
# 3 -0.005013 -0.007213 0.009546 0.000000 -0.000330 0.000000
# 4 0.000000 0.000000 0.000000 0.033802 0.000000 0.004704
# 5 0.001805 0.005736 -0.000330 0.000000 0.037408 0.000000
# 6 0.000000 0.000000 0.000000 0.004704 0.000000 0.040553
#
#
# Mechanical properties :
#
#
# Convention : Reuss Voigt Hill
#
# Bulk Modulus (GPa) = 31.04545 69.09270 50.06907
# Shear Modulus (GPa) = 21.37503 27.78310 24.57906
#
# Velocity S-wave (km/s) = 3.48530 3.97354 3.73740
# Velocity P-wave (km/s) = 5.81716 7.76640 6.86135
#
# Compressibility (1/GPa) = 0.03221084
#
# Stress axis : x y z
#
# Youngs Moduli (GPa) = 65.52091 21.27357 104.76006
#
# Poissons Ratio (x) = 0.16116 0.52519
# Poissons Ratio (y) = 0.49636 0.75563
# Poissons Ratio (z) = 0.32847 0.15345
#
# Static dielectric constant tensor:
#      x y z
#    x 1.576720 0.000000 0.013520 
#    y 0.000000 1.593150 0.000000 
#    z 0.013520 0.000000 1.601380 
# 
# From -- ./inp_files/346240.got.cif
#   From: 2010.05.17/outbox.cif.g08.bks.cpg/sg12_174_cif.got.tgz:346240.got - 2010.06.03 13:09:07.
