data_PCOD9180392
_publ_section_title
;
Structure prediction by ZEFSAII (Michael W. Deem and Ramdas Pophale) SiO2 
 PCOD9180392
Probable space group: C 2/M
;
_chemical_formula_sum "Si O2"
_cell_formula_units_Z 64
_cell_length_a 25.153710
_cell_length_b 7.573289
_cell_length_c 16.447403
_cell_angle_alpha 90.000000
_cell_angle_beta 101.862735
_cell_angle_gamma 90.000000
_cell_volume 3066.254226
_symmetry_space_group_name_H-M "C 2/M"
_symmetry_group_IT_number 12
_symmetry_cell_setting 'monoclinic'
loop_
_space_group_symop_operation_xyz
x,y,z
-x,y,-z
-x,-y,-z
x,-y,z
1/2+x,1/2+y,z
1/2-x,1/2+y,-z
1/2-x,1/2-y,-z
1/2+x,1/2-y,z
loop_
_atom_site_type_symbol
_atom_site_label
_atom_site_fract_x
_atom_site_fract_y
_atom_site_fract_z
Si Si1 0.555690 0.713931 0.473635
Si Si2 0.417862 0.787862 0.225669
Si Si3 0.244798 0.788132 0.403102
Si Si4 0.143858 0.292804 0.633588
Si Si5 0.846171 0.216483 0.747273
Si Si6 0.172053 0.714311 0.925255
Si Si7 0.215160 0.792785 0.112710
Si Si8 0.543146 0.288700 0.285623
O O1 0.500000 0.768834 0.500000
O O2 0.557307 0.500000 0.474172
O O3 0.606308 0.776083 0.542462
O O4 0.553926 0.777251 0.380598
O O5 0.389419 0.719433 0.299788
O O6 0.381948 0.727261 0.138116
O O7 0.481347 0.746865 0.241983
O O8 0.414240 0.000000 0.226625
O O9 0.297089 0.718115 0.369925
O O10 0.189422 0.729894 0.342303
O O11 0.245655 0.000000 0.396397
O O12 0.152180 0.500000 0.653949
O O13 0.250000 0.250000 0.500000
O O14 0.815354 0.279925 0.818306
O O15 0.908275 0.275592 0.756610
O O16 0.846717 0.000000 0.750310
O O17 0.173415 0.500000 0.926772
O O18 0.225223 0.778118 0.891900
O O19 0.179539 0.773837 0.020078
O O20 0.223762 0.000000 0.131941
O O21 0.548154 0.500000 0.291128
#
# Coordination Sequence:
#
# PCOD9180392 Si02
#       8
#     8   8   8   8   8   8   8   8
#     4  10  19  32  49  71 101 136 171 209 254 295
#     4  10  20  34  51  74 103 133 164 204 254 302
#     4  10  20  35  53  75 103 135 170 210 254 300
#     4  10  20  32  51  76 100 130 171 212 252 301
#     4   9  18  34  55  74  99 136 173 206 246 297
#     4   9  18  33  54  79 105 127 155 203 259 305
#     4   9  17  33  57  80  99 127 166 204 246 300
#     4  10  20  34  51  72  99 135 175 210 244 292
#
# _framework density 20.872371999999999
#
# number of rings (size 3 to 8) (size 9 to 14) (size 15 to 20)
#    0.000    2.375    1.250    1.500    0.000    5.750 
#    0.000    2.500    0.000    6.750    0.000    0.000 
#    0.000    0.000    0.000    0.000    0.000    0.000 
#
# Total GULP energy -178671.151825 kJ/mol
# GULP energy per Si atom -5583.473495 kJ/mol
# Density = 2.082487 g / cm^3
# Si number density = 20.872372 Si / 1000 Ang^3
#
#
#
# Elastic Constant Matrix: (Units=GPa)
#
#
# Indices 1 2 3 4 5 6 
#
# 1 144.9498 -2.0907 64.0910 0.0000 0.4041 0.0000
# 2 -2.0907 44.0108 -6.8787 0.0000 -7.5962 0.0000
# 3 64.0910 -6.8787 105.4312 0.0000 -6.8039 0.0000
# 4 0.0000 0.0000 0.0000 16.1349 0.0000 5.4540
# 5 0.4041 -7.5962 -6.8039 0.0000 31.9952 0.0000
# 6 0.0000 0.0000 0.0000 5.4540 0.0000 14.2919
#
#
#
# Elastic Compliance Matrix: (Units=1/GPa)
#
#
# Indices 1 2 3 4 5 6 
#
# 1 0.009516 -0.000744 -0.005934 0.000000 -0.001559 0.000000
# 2 -0.000744 0.024147 0.002432 0.000000 0.006259 0.000000
# 3 -0.005934 0.002432 0.013478 0.000000 0.003518 0.000000
# 4 0.000000 0.000000 0.000000 0.071156 0.000000 -0.027154
# 5 -0.001559 0.006259 0.003518 0.000000 0.033509 0.000000
# 6 0.000000 0.000000 0.000000 -0.027154 0.000000 0.080332
#
#
# Mechanical properties :
#
#
# Convention : Reuss Voigt Hill
#
# Bulk Modulus (GPa) = 25.87473 44.95944 35.41708
# Shear Modulus (GPa) = 19.72279 28.43576 24.07927
#
# Velocity S-wave (km/s) = 3.07729 3.69503 3.40022
# Velocity P-wave (km/s) = 5.00499 6.30803 5.69390
#
# Compressibility (1/GPa) = 0.03864775
#
# Stress axis : x y z
#
# Youngs Moduli (GPa) = 105.08199 41.41337 74.19550
#
# Poissons Ratio (x) = 0.03083 0.44029
# Poissons Ratio (y) = 0.07823 -0.18044
# Poissons Ratio (z) = 0.62357 -0.10071
#
# Static dielectric constant tensor:
#      x y z
#    x 1.747820 0.000000 -0.013100 
#    y 0.000000 1.789790 0.000000 
#    z -0.013100 0.000000 1.721860 
# 
# From -- ./inp_files/281395.got.cif
#   From: 2010.05.17/outbox.cif.g08.bks.cpg/sg12_141_cif.got.tgz:281395.got - 2010.06.03 13:09:07.
