data_PCOD9180421
_publ_section_title
;
Structure prediction by ZEFSAII (Michael W. Deem and Ramdas Pophale) SiO2 
 PCOD9180421
Probable space group: C 2/M
;
_chemical_formula_sum "Si O2"
_cell_formula_units_Z 60
_cell_length_a 32.249265
_cell_length_b 18.833864
_cell_length_c 6.240680
_cell_angle_alpha 90.000000
_cell_angle_beta 63.437790
_cell_angle_gamma 90.000000
_cell_volume 3390.368667
_symmetry_space_group_name_H-M "C 2/M"
_symmetry_group_IT_number 12
_symmetry_cell_setting 'monoclinic'
loop_
_space_group_symop_operation_xyz
x,y,z
-x,y,-z
-x,-y,-z
x,-y,z
1/2+x,1/2+y,z
1/2-x,1/2+y,-z
1/2-x,1/2-y,-z
1/2+x,1/2-y,z
loop_
_atom_site_type_symbol
_atom_site_label
_atom_site_fract_x
_atom_site_fract_y
_atom_site_fract_z
Si Si1 0.209474 0.079531 0.528126
Si Si2 0.183330 0.209901 0.336949
Si Si3 0.753806 0.333043 0.802432
Si Si4 0.121320 0.579848 0.803107
Si Si5 0.301784 0.079654 0.039389
Si Si6 0.910417 0.705444 0.440942
Si Si7 0.500000 0.784113 0.000000
Si Si8 0.542709 0.878013 0.279997
O O1 0.177836 0.140438 0.497407
O O2 0.232655 0.110538 0.688538
O O3 0.251431 0.074503 0.262257
O O4 0.190327 0.000000 0.602900
O O5 0.219203 0.266256 0.361731
O O6 0.133671 0.245120 0.416757
O O7 0.211482 0.191981 0.053318
O O8 0.793485 0.369869 0.857830
O O9 0.130883 0.500000 0.696839
O O10 0.164343 0.604854 0.850186
O O11 0.106842 0.638057 0.662052
O O12 0.079453 0.575724 0.069447
O O13 0.317079 0.000000 0.941582
O O14 0.930589 0.671963 0.612398
O O15 0.952288 0.745893 0.215873
O O16 0.519027 0.830726 0.151608
O O17 0.500000 0.914719 0.500000
#
# Coordination Sequence:
#
# PCOD9180421 Si02
#       8
#     8   8   8   8   8   8   4   8
#     4  10  20  34  51  71 101 136 165 199 242 288
#     4  10  21  32  50  76 101 128 166 206 241 287
#     4  10  19  32  49  73 101 135 169 203 243 284
#     4  10  20  31  46  69  96 130 172 212 245 283
#     4   9  18  31  46  68  98 133 173 207 236 277
#     4  10  19  34  52  71  97 128 161 204 250 295
#     4   8  18  34  53  72  95 122 160 204 248 298
#     4   9  18  33  49  67  93 127 163 205 251 290
#
# _framework density 17.697189000000002
#
# number of rings (size 3 to 8) (size 9 to 14) (size 15 to 20)
#    0.000    2.400    0.000    2.400    0.000    5.600 
#    0.000   14.667    0.000    0.800    0.000    0.467 
#    0.000    5.867    0.000    0.133    0.000    0.000 
#
# Total GULP energy -167100.319720 kJ/mol
# GULP energy per Si atom -5570.010657 kJ/mol
# Density = 1.765691 g / cm^3
# Si number density = 17.697189 Si / 1000 Ang^3
#
#
#
# Elastic Constant Matrix: (Units=GPa)
#
#
# Indices 1 2 3 4 5 6 
#
# 1 94.6202 43.4060 29.6001 0.0000 4.2754 0.0000
# 2 43.4060 90.6059 29.1109 0.0000 10.3291 0.0000
# 3 29.6001 29.1109 50.4690 0.0000 2.5339 0.0000
# 4 0.0000 0.0000 0.0000 7.8551 0.0000 -14.0660
# 5 4.2754 10.3291 2.5339 0.0000 28.5061 0.0000
# 6 0.0000 0.0000 0.0000 -14.0660 0.0000 -21.4595
#
#
#
# Elastic Compliance Matrix: (Units=1/GPa)
#
#
# Indices 1 2 3 4 5 6 
#
# 1 0.014736 -0.005281 -0.005607 0.000000 0.000202 0.000000
# 2 -0.005281 0.015969 -0.005889 0.000000 -0.004471 0.000000
# 3 -0.005607 -0.005889 0.026468 0.000000 0.000622 0.000000
# 4 0.000000 0.000000 0.000000 0.058565 0.000000 -0.038388
# 5 0.000202 -0.004471 0.000622 0.000000 0.036615 0.000000
# 6 0.000000 0.000000 0.000000 -0.038388 0.000000 -0.021437
#
#
# Mechanical properties :
#
#
# Convention : Reuss Voigt Hill
#
# Bulk Modulus (GPa) = 42.33851 48.88103 45.60977
# Shear Modulus (GPa) = 29.01216 11.88554 20.44885
#
# Velocity S-wave (km/s) = 4.05330 2.59435 3.40293
# Velocity P-wave (km/s) = 6.77359 6.05433 6.42403
#
# Compressibility (1/GPa) = 0.02361916
#
# Stress axis : x y z
#
# Youngs Moduli (GPa) = 67.86081 62.62323 37.78156
#
# Poissons Ratio (x) = 0.33072 0.21183
# Poissons Ratio (y) = 0.35838 0.22249
# Poissons Ratio (z) = 0.38047 0.36878
#
# Static dielectric constant tensor:
#      x y z
#    x 1.612860 0.000000 -0.017540 
#    y 0.000000 1.644390 0.000000 
#    z -0.017540 0.000000 1.652530 
# 
# From -- ./inp_files/32024.got.cif
#   From: 2010.05.17/outbox.cif.g08.bks.cpg/sg12_17_cif.got.tgz:32024.got - 2010.06.03 13:09:07.
