data_PCOD9180023
_publ_section_title
;
Structure prediction by ZEFSAII (Michael W. Deem and Ramdas Pophale) SiO2 
 PCOD9180023
Probable space group: C 2/M
;
_chemical_formula_sum "Si O2"
_cell_formula_units_Z 22
_cell_length_a 24.037001
_cell_length_b 5.302631
_cell_length_c 11.154934
_cell_angle_alpha 90.000000
_cell_angle_beta 35.201961
_cell_angle_gamma 90.000000
_cell_volume 819.611576
_symmetry_space_group_name_H-M "C 2/M"
_symmetry_group_IT_number 12
_symmetry_cell_setting 'monoclinic'
loop_
_space_group_symop_operation_xyz
x,y,z
-x,y,-z
-x,-y,-z
x,-y,z
1/2+x,1/2+y,z
1/2-x,1/2+y,-z
1/2-x,1/2-y,-z
1/2+x,1/2-y,z
loop_
_atom_site_type_symbol
_atom_site_label
_atom_site_fract_x
_atom_site_fract_y
_atom_site_fract_z
Si Si1 0.894734 0.000000 0.609529
Si Si2 0.500000 0.500000 0.000000
Si Si3 0.617989 0.000000 0.709909
Si Si4 0.880482 0.500000 0.561649
Si Si5 0.311600 0.000000 0.157758
Si Si6 0.665530 0.500000 0.010686
O O1 0.941623 0.744315 0.483708
O O2 0.793971 0.000000 0.713852
O O3 0.872704 0.000000 0.788098
O O4 0.560662 0.733555 0.824753
O O5 0.658324 0.000000 0.504969
O O6 0.688933 0.000000 0.698659
O O7 0.783684 0.500000 0.814076
O O8 0.360419 0.253696 0.021215
#
# Coordination Sequence:
#
# PCOD9180023 Si02
#       6
#     4   2   4   4   4   4
#     4  10  19  32  51  86 120 146 165 193 243 327
#     4  10  24  42  54  70 104 130 192 242 268 314
#     4  11  22  38  57  80  97 140 180 229 284 296
#     4  10  19  31  53  79 112 142 173 207 254 322
#     4  10  19  31  53  79 112 142 173 207 254 322
#     4  10  19  32  51  86 120 146 165 193 243 327
#
# _framework density 26.841985999999999
#
# number of rings (size 3 to 8) (size 9 to 14) (size 15 to 20)
#    0.000    1.818    0.000    7.636    0.000    5.818 
#    0.000    0.000    0.000    0.000    0.000  147.636 
#    0.000    0.000    0.000    0.000    0.000    0.000 
#
# Total GULP energy -61348.948580 kJ/mol
# GULP energy per Si atom -5577.177144 kJ/mol
# Density = 2.678089 g / cm^3
# Si number density = 26.841986 Si / 1000 Ang^3
#
#
#
# Elastic Constant Matrix: (Units=GPa)
#
#
# Indices 1 2 3 4 5 6 
#
# 1 138.3493 26.3534 53.5767 0.0001 27.7373 0.0058
# 2 26.3534 320.9121 46.9847 -0.0092 18.2448 0.0336
# 3 53.5767 46.9847 107.1542 -0.0041 32.5435 0.0223
# 4 0.0001 -0.0092 -0.0041 7.4216 0.0002 15.9474
# 5 27.7373 18.2448 32.5435 0.0002 49.3131 0.0033
# 6 0.0058 0.0336 0.0223 15.9474 0.0033 67.8882
#
#
#
# Elastic Compliance Matrix: (Units=1/GPa)
#
#
# Indices 1 2 3 4 5 6 
#
# 1 0.009241 -0.000053 -0.003783 -0.000007 -0.002682 0.000002
# 2 -0.000053 0.003335 -0.001338 0.000012 -0.000321 -0.000004
# 3 -0.003783 -0.001338 0.013775 0.000027 -0.006468 -0.000009
# 4 -0.000007 0.000012 0.000027 0.272076 -0.000015 -0.063912
# 5 -0.002682 -0.000321 -0.006468 -0.000015 0.026174 0.000005
# 6 0.000002 -0.000004 -0.000009 -0.063912 0.000005 0.029744
#
#
# Mechanical properties :
#
#
# Convention : Reuss Voigt Hill
#
# Bulk Modulus (GPa) = 62.48958 91.13835 76.81397
# Shear Modulus (GPa) = 13.51258 54.22464 33.86861
#
# Velocity S-wave (km/s) = 2.24612 4.49948 3.55600
# Velocity P-wave (km/s) = 5.48250 7.81160 6.74829
#
# Compressibility (1/GPa) = 0.01600267
#
# Stress axis : x y z
#
# Youngs Moduli (GPa) = 108.21734 299.88262 72.59597
#
# Poissons Ratio (x) = 0.01576 0.27461
# Poissons Ratio (y) = 0.00569 0.09716
# Poissons Ratio (z) = 0.40936 0.40137
#
# Static dielectric constant tensor:
#      x y z
#    x 2.136310 0.000000 -0.057760 
#    y 0.000000 2.304650 0.000000 
#    z -0.057760 0.000000 2.049890 
# 
# From -- ./inp_files/100281.got.cif
#   From: 2010.05.17/outbox.cif.g08.bks.cpg/sg12_51_cif.got.tgz:100281.got - 2010.06.03 13:09:07.
