data_PCOD9180765
_publ_section_title
;
Structure prediction by ZEFSAII (Michael W. Deem and Ramdas Pophale) SiO2 
 PCOD9180765
Probable space group: C 2/M
;
_chemical_formula_sum "Si O2"
_cell_formula_units_Z 56
_cell_length_a 22.094502
_cell_length_b 33.295500
_cell_length_c 9.394312
_cell_angle_alpha 90.000000
_cell_angle_beta 28.013226
_cell_angle_gamma 90.000000
_cell_volume 3245.880463
_symmetry_space_group_name_H-M "C 2/M"
_symmetry_group_IT_number 12
_symmetry_cell_setting 'monoclinic'
loop_
_space_group_symop_operation_xyz
x,y,z
-x,y,-z
-x,-y,-z
x,-y,z
1/2+x,1/2+y,z
1/2-x,1/2+y,-z
1/2-x,1/2-y,-z
1/2+x,1/2-y,z
loop_
_atom_site_type_symbol
_atom_site_label
_atom_site_fract_x
_atom_site_fract_y
_atom_site_fract_z
Si Si1 0.247631 0.185376 0.386530
Si Si2 0.243057 0.952947 0.647756
Si Si3 0.618922 0.230005 0.643357
Si Si4 0.488557 0.547336 0.357206
Si Si5 0.209968 0.093545 0.428608
Si Si6 0.001974 0.323435 0.664959
Si Si7 0.990257 0.400902 0.185183
O O1 0.293262 0.198074 0.451248
O O2 0.169125 0.225298 0.513000
O O3 0.186803 0.141076 0.504643
O O4 0.365143 0.182139 0.029973
O O5 0.194864 0.930221 0.607164
O O6 0.381327 0.934850 0.405934
O O7 0.258039 0.000000 0.586696
O O8 0.130453 0.947485 0.996036
O O9 0.586348 0.211167 0.560135
O O10 0.500000 0.233734 0.000000
O O11 0.500000 0.556265 0.500000
O O12 0.453083 0.500000 0.413116
O O13 0.384491 0.574760 0.492063
O O14 0.363334 0.087833 0.076126
O O15 0.052046 0.365859 0.621315
O O16 0.000000 0.322550 0.500000
O O17 0.000000 0.385438 0.000000
#
# Coordination Sequence:
#
# PCOD9180765 Si02
#       7
#     8   8   8   8   8   8   8
#     4   9  19  34  52  75  99 130 171 211 255 304
#     4  10  20  34  55  81 105 132 172 219 261 304
#     4   9  17  33  53  72  99 133 168 207 254 307
#     4  10  22  38  52  71 106 146 175 206 257 315
#     4  10  19  34  56  80 104 132 173 220 259 303
#     4  10  19  32  51  74 103 135 166 207 257 305
#     4   9  19  35  56  80 105 133 172 217 261 309
#
# _framework density 17.252638999999999
#
# number of rings (size 3 to 8) (size 9 to 14) (size 15 to 20)
#    0.000    2.429    0.000    3.857    0.000    8.286 
#    0.000    2.143    0.000    3.000    0.000    0.000 
#    0.000    0.000    0.000    0.000    0.000    0.000 
#
# Total GULP energy -155934.648780 kJ/mol
# GULP energy per Si atom -5569.094599 kJ/mol
# Density = 1.721337 g / cm^3
# Si number density = 17.252639 Si / 1000 Ang^3
#
#
#
# Elastic Constant Matrix: (Units=GPa)
#
#
# Indices 1 2 3 4 5 6 
#
# 1 113.1555 89.9305 46.9494 -0.0001 14.5250 0.0001
# 2 89.9305 152.1842 51.9959 0.0000 8.8583 -0.0001
# 3 46.9494 51.9959 37.7543 -0.0002 8.4071 0.0003
# 4 -0.0001 0.0000 -0.0002 23.1725 0.0002 -0.1621
# 5 14.5250 8.8583 8.4071 0.0002 17.8336 -0.0002
# 6 0.0001 -0.0001 0.0003 -0.1621 -0.0002 -10.2668
#
#
#
# Elastic Compliance Matrix: (Units=1/GPa)
#
#
# Indices 1 2 3 4 5 6 
#
# 1 0.022066 -0.007152 -0.016066 0.000000 -0.006846 0.000000
# 2 -0.007152 0.014801 -0.012458 0.000000 0.004346 -0.000001
# 3 -0.016066 -0.012458 0.066291 0.000001 -0.011977 0.000002
# 4 0.000000 0.000000 0.000001 0.043150 -0.000001 -0.000681
# 5 -0.006846 0.004346 -0.011977 -0.000001 0.065137 -0.000002
# 6 0.000000 -0.000001 0.000002 -0.000681 -0.000002 -0.097391
#
#
# Mechanical properties :
#
#
# Convention : Reuss Voigt Hill
#
# Bulk Modulus (GPa) = 31.44122 75.64949 53.54535
# Shear Modulus (GPa) = 25.50923 13.76241 19.63582
#
# Velocity S-wave (km/s) = 3.84939 2.82742 3.37728
# Velocity P-wave (km/s) = 6.16609 7.38934 6.80525
#
# Compressibility (1/GPa) = 0.03180539
#
# Stress axis : x y z
#
# Youngs Moduli (GPa) = 45.31824 67.56454 15.08509
#
# Poissons Ratio (x) = 0.48321 0.24236
# Poissons Ratio (y) = 0.32411 0.18793
# Poissons Ratio (z) = 0.72810 0.84171
#
# Static dielectric constant tensor:
#      x y z
#    x 1.579400 0.000000 -0.037120 
#    y 0.000000 1.592960 0.000000 
#    z -0.037120 0.000000 1.605790 
# 
# From -- ./inp_files/91562.got.cif
#   From: 2010.05.17/outbox.cif.g08.bks.cpg/sg12_46_cif.got.tgz:91562.got - 2010.06.03 13:09:07.
