data_PCOD9180006
_publ_section_title
;
Structure prediction by ZEFSAII (Michael W. Deem and Ramdas Pophale) SiO2 
 PCOD9180006
Probable space group: C 2/M
;
_chemical_formula_sum "Si O2"
_cell_formula_units_Z 48
_cell_length_a 10.967671
_cell_length_b 14.411057
_cell_length_c 26.307019
_cell_angle_alpha 90.000000
_cell_angle_beta 35.677358
_cell_angle_gamma 90.000000
_cell_volume 2425.015297
_symmetry_space_group_name_H-M "C 2/M"
_symmetry_group_IT_number 12
_symmetry_cell_setting 'monoclinic'
loop_
_space_group_symop_operation_xyz
x,y,z
-x,y,-z
-x,-y,-z
x,-y,z
1/2+x,1/2+y,z
1/2-x,1/2+y,-z
1/2-x,1/2-y,-z
1/2+x,1/2-y,z
loop_
_atom_site_type_symbol
_atom_site_label
_atom_site_fract_x
_atom_site_fract_y
_atom_site_fract_z
Si Si1 0.021020 0.729491 0.053633
Si Si2 0.715891 0.899490 0.630886
Si Si3 0.448845 0.716298 0.631555
Si Si4 0.637515 0.891686 0.805581
Si Si5 0.166630 0.605836 0.532466
Si Si6 0.301206 0.104667 0.828992
O O1 0.931183 0.643293 0.116129
O O2 0.875682 0.818866 0.113764
O O3 0.250000 0.750000 0.000000
O O4 0.000000 0.714161 0.000000
O O5 0.829868 0.821094 0.622610
O O6 0.767018 0.901164 0.554701
O O7 0.469235 0.889223 0.726224
O O8 0.774229 0.000000 0.634072
O O9 0.314308 0.677771 0.723906
O O10 0.673457 0.663680 0.556645
O O11 0.478462 0.824676 0.610009
O O12 0.443320 0.883260 0.831643
O O13 0.702018 0.000000 0.783255
O O14 0.122872 0.500000 0.530547
O O15 0.215080 0.000000 0.858875
#
# Coordination Sequence:
#
# PCOD9180006 Si02
#       6
#     8   8   8   8   8   8
#     4  12  24  40  62  92 123 154 196 254 308 367
#     4   9  17  32  56  83 110 146 199 247 285 337
#     4  10  19  32  56  83 115 156 197 244 294 349
#     4  10  21  39  61  84 117 159 204 248 302 367
#     4  10  19  31  52  85 119 152 198 247 291 342
#     4   9  19  37  61  86 114 157 201 244 299 364
#
# _framework density 19.793689000000001
#
# number of rings (size 3 to 8) (size 9 to 14) (size 15 to 20)
#    0.000    2.000    1.667    4.000    0.000    2.667 
#    0.000    0.000    0.000   18.000    0.000    0.000 
#    0.000    0.000    0.000    0.000    0.000    0.000 
#
# Total GULP energy -133797.125571 kJ/mol
# GULP energy per Si atom -5574.880232 kJ/mol
# Density = 1.974864 g / cm^3
# Si number density = 19.793689 Si / 1000 Ang^3
#
#
#
# Elastic Constant Matrix: (Units=GPa)
#
#
# Indices 1 2 3 4 5 6 
#
# 1 49.7568 16.9612 26.9202 -0.0001 4.2595 0.0006
# 2 16.9612 119.9477 31.3309 -0.0003 -20.2070 0.0002
# 3 26.9202 31.3309 87.7434 0.0003 6.3758 0.0008
# 4 -0.0001 -0.0003 0.0003 22.1594 0.0005 -3.2377
# 5 4.2595 -20.2070 6.3758 0.0005 24.8855 -0.0005
# 6 0.0006 0.0002 0.0008 -3.2377 -0.0005 28.5599
#
#
#
# Elastic Compliance Matrix: (Units=1/GPa)
#
#
# Indices 1 2 3 4 5 6 
#
# 1 0.024837 -0.002671 -0.006318 0.000000 -0.004801 0.000000
# 2 -0.002671 0.011643 -0.004135 0.000000 0.010971 0.000000
# 3 -0.006318 -0.004135 0.015261 0.000000 -0.006186 0.000000
# 4 0.000000 0.000000 0.000000 0.045888 -0.000001 0.005202
# 5 -0.004801 0.010971 -0.006186 -0.000001 0.051499 0.000001
# 6 0.000000 0.000000 0.000000 0.005202 0.000001 0.035604
#
#
# Mechanical properties :
#
#
# Convention : Reuss Voigt Hill
#
# Bulk Modulus (GPa) = 39.22450 45.31916 42.27183
# Shear Modulus (GPa) = 22.78141 27.27000 25.02571
#
# Velocity S-wave (km/s) = 3.39624 3.71578 3.55960
# Velocity P-wave (km/s) = 5.93624 6.43077 6.18845
#
# Compressibility (1/GPa) = 0.02549427
#
# Stress axis : x y z
#
# Youngs Moduli (GPa) = 40.26201 85.88926 65.52539
#
# Poissons Ratio (x) = 0.22939 0.41397
# Poissons Ratio (y) = 0.10753 0.27096
# Poissons Ratio (z) = 0.25436 0.35516
#
# Static dielectric constant tensor:
#      x y z
#    x 1.705540 0.000000 -0.003300 
#    y 0.000000 1.733850 0.000000 
#    z -0.003300 0.000000 1.748560 
# 
# From -- ./inp_files/204389.got.cif
#   From: 2010.05.17/outbox.cif.g08.bks.cpg/sg12_103_cif.got.tgz:204389.got - 2010.06.03 13:09:07.
