data_PCOD9180070
_publ_section_title
;
Structure prediction by ZEFSAII (Michael W. Deem and Ramdas Pophale) SiO2 
 PCOD9180070
Probable space group: C 2/M
;
_chemical_formula_sum "Si O2"
_cell_formula_units_Z 64
_cell_length_a 24.932316
_cell_length_b 8.821954
_cell_length_c 19.399533
_cell_angle_alpha 90.000000
_cell_angle_beta 131.001630
_cell_angle_gamma 90.000000
_cell_volume 3220.236805
_symmetry_space_group_name_H-M "C 2/M"
_symmetry_group_IT_number 12
_symmetry_cell_setting 'monoclinic'
loop_
_space_group_symop_operation_xyz
x,y,z
-x,y,-z
-x,-y,-z
x,-y,z
1/2+x,1/2+y,z
1/2-x,1/2+y,-z
1/2-x,1/2-y,-z
1/2+x,1/2-y,z
loop_
_atom_site_type_symbol
_atom_site_label
_atom_site_fract_x
_atom_site_fract_y
_atom_site_fract_z
Si Si1 0.450468 0.679767 0.610440
Si Si2 0.327507 0.826377 0.139340
Si Si3 0.714249 0.816952 0.685728
Si Si4 0.705998 0.818556 0.525798
Si Si5 0.075798 0.674807 0.639627
Si Si6 0.705973 0.180908 0.116196
Si Si7 0.968563 0.316298 0.191152
Si Si8 0.456701 0.815317 0.029655
O O1 0.442430 0.500000 0.602555
O O2 0.374570 0.759620 0.542572
O O3 0.505572 0.732051 0.597456
O O4 0.486575 0.734236 0.712482
O O5 0.375587 0.823349 0.249885
O O6 0.257748 0.732488 0.098003
O O7 0.384990 0.777362 0.131291
O O8 0.307113 0.000000 0.108708
O O9 0.736477 0.777131 0.627095
O O10 0.631706 0.771306 0.629410
O O11 0.761209 0.744247 0.785075
O O12 0.715947 0.000000 0.695116
O O13 0.750000 0.750000 0.500000
O O14 0.706040 0.000000 0.520606
O O15 0.056042 0.500000 0.610152
O O16 0.706363 0.000000 0.118737
O O17 0.625119 0.234521 0.041552
O O18 0.973862 0.500000 0.205267
O O19 0.989624 0.275156 0.131389
O O20 0.455983 0.000000 0.027206
O O21 0.500000 0.761254 0.000000
#
# Coordination Sequence:
#
# PCOD9180070 Si02
#       8
#     8   8   8   8   8   8   8   8
#     4  11  22  36  56  85 116 143 177 226 278 322
#     4   8  15  29  50  76 107 142 176 212 263 327
#     4   9  20  38  59  81 110 146 179 217 270 331
#     4  11  24  42  60  80 108 145 189 230 269 320
#     4   8  15  32  56  81 109 144 180 212 261 330
#     4  10  19  31  53  83 110 138 176 223 271 319
#     4   9  18  35  57  78 105 144 183 217 263 325
#     4   9  19  35  53  76 105 138 181 227 268 316
#
# _framework density 19.874314999999999
#
# number of rings (size 3 to 8) (size 9 to 14) (size 15 to 20)
#    0.000    2.625    0.000    3.375    0.000    7.500 
#    0.000    5.000    0.000    2.625    0.000    0.000 
#    0.000    0.000    0.000    0.000    0.000    0.000 
#
# Total GULP energy -178610.138407 kJ/mol
# GULP energy per Si atom -5581.566825 kJ/mol
# Density = 1.982908 g / cm^3
# Si number density = 19.874315 Si / 1000 Ang^3
#
#
#
# Elastic Constant Matrix: (Units=GPa)
#
#
# Indices 1 2 3 4 5 6 
#
# 1 79.8948 12.6095 10.0922 0.0000 -20.6039 0.0000
# 2 12.6095 33.2147 7.7655 0.0000 -3.6547 0.0000
# 3 10.0922 7.7655 46.3024 0.0000 -3.3993 0.0000
# 4 0.0000 0.0000 0.0000 14.4686 0.0000 6.2709
# 5 -20.6039 -3.6547 -3.3993 0.0000 31.6901 0.0000
# 6 0.0000 0.0000 0.0000 6.2709 0.0000 30.0164
#
#
#
# Elastic Compliance Matrix: (Units=1/GPa)
#
#
# Indices 1 2 3 4 5 6 
#
# 1 0.015974 -0.004532 -0.002013 0.000000 0.009647 0.000000
# 2 -0.004532 0.032922 -0.004507 0.000000 0.000367 0.000000
# 3 -0.002013 -0.004507 0.022837 0.000000 0.000621 0.000000
# 4 0.000000 0.000000 0.000000 0.075996 0.000000 -0.015877
# 5 0.009647 0.000367 0.000621 0.000000 0.037937 0.000000
# 6 0.000000 0.000000 0.000000 -0.015877 0.000000 0.036632
#
#
# Mechanical properties :
#
#
# Convention : Reuss Voigt Hill
#
# Bulk Modulus (GPa) = 20.14957 24.48292 22.31624
# Shear Modulus (GPa) = 19.16111 23.83134 21.49623
#
# Velocity S-wave (km/s) = 3.10839 3.46656 3.29235
# Velocity P-wave (km/s) = 4.80034 5.32620 5.07009
#
# Compressibility (1/GPa) = 0.04962886
#
# Stress axis : x y z
#
# Youngs Moduli (GPa) = 62.60203 30.37511 43.78785
#
# Poissons Ratio (x) = 0.13766 0.08816
# Poissons Ratio (y) = 0.28372 0.19733
# Poissons Ratio (z) = 0.12604 0.13689
#
# Static dielectric constant tensor:
#      x y z
#    x 1.718280 0.000000 -0.026490 
#    y 0.000000 1.665720 0.000000 
#    z -0.026490 0.000000 1.720110 
# 
# From -- ./inp_files/324331.got.cif
#   From: 2010.05.17/outbox.cif.g08.bks.cpg/sg12_163_cif.got.tgz:324331.got - 2010.06.03 13:09:07.
