data_PCOD9180117
_publ_section_title
;
Structure prediction by ZEFSAII (Michael W. Deem and Ramdas Pophale) SiO2 
 PCOD9180117
Probable space group: C 2/M
;
_chemical_formula_sum "Si O2"
_cell_formula_units_Z 48
_cell_length_a 23.470203
_cell_length_b 11.010681
_cell_length_c 13.728900
_cell_angle_alpha 90.000000
_cell_angle_beta 135.927815
_cell_angle_gamma 90.000000
_cell_volume 2467.765685
_symmetry_space_group_name_H-M "C 2/M"
_symmetry_group_IT_number 12
_symmetry_cell_setting 'monoclinic'
loop_
_space_group_symop_operation_xyz
x,y,z
-x,y,-z
-x,-y,-z
x,-y,z
1/2+x,1/2+y,z
1/2-x,1/2+y,-z
1/2-x,1/2-y,-z
1/2+x,1/2-y,z
loop_
_atom_site_type_symbol
_atom_site_label
_atom_site_fract_x
_atom_site_fract_y
_atom_site_fract_z
Si Si1 0.029259 0.862578 0.309423
Si Si2 0.093617 0.629235 0.077788
Si Si3 0.869928 0.728363 0.078672
Si Si4 0.910849 0.131036 0.837311
Si Si5 0.206799 0.361892 0.822819
Si Si6 0.431058 0.139786 0.499848
O O1 0.932730 0.838351 0.172979
O O2 0.072292 0.856600 0.256608
O O3 0.056782 0.749263 0.409511
O O4 0.041925 0.000000 0.363972
O O5 0.133016 0.500000 0.151041
O O6 0.131669 0.749615 0.172438
O O7 0.092600 0.646959 0.960702
O O8 0.000000 0.625476 0.000000
O O9 0.853709 0.660768 0.159842
O O10 0.782961 0.774084 0.932156
O O11 0.870816 0.000000 0.807917
O O12 0.000000 0.126713 0.000000
O O13 0.236114 0.500000 0.862896
O O14 0.155035 0.344378 0.661675
O O15 0.500000 0.148933 0.500000
O O16 0.435686 0.000000 0.544415
#
# Coordination Sequence:
#
# PCOD9180117 Si02
#       6
#     8   8   8   8   8   8
#     4  11  21  34  56  86 114 146 186 237 287 338
#     4  10  19  31  53  87 118 145 181 234 290 335
#     4  11  20  35  57  87 118 148 189 241 287 338
#     4   9  17  31  50  79 113 141 178 229 286 334
#     4  10  22  38  55  80 117 160 194 228 285 346
#     4  10  21  38  57  78 111 156 197 235 281 343
#
# _framework density 19.450793000000001
#
# number of rings (size 3 to 8) (size 9 to 14) (size 15 to 20)
#    0.000    1.833    5.000    1.000    0.000    2.333 
#    0.000    1.667    0.000    1.000    0.000    0.000 
#    0.000    0.000    0.000    0.000    0.000    0.000 
#
# Total GULP energy -133799.833148 kJ/mol
# GULP energy per Si atom -5574.993048 kJ/mol
# Density = 1.940652 g / cm^3
# Si number density = 19.450793 Si / 1000 Ang^3
#
#
#
# Elastic Constant Matrix: (Units=GPa)
#
#
# Indices 1 2 3 4 5 6 
#
# 1 54.5696 23.2923 20.2622 0.0000 -20.7142 0.0000
# 2 23.2923 185.2096 57.1462 0.0000 -23.8351 0.0000
# 3 20.2622 57.1462 65.8071 0.0000 -9.2979 0.0000
# 4 0.0000 0.0000 0.0000 23.5904 0.0000 -9.4648
# 5 -20.7142 -23.8351 -9.2979 0.0000 23.1022 0.0000
# 6 0.0000 0.0000 0.0000 -9.4648 0.0000 5.6356
#
#
#
# Elastic Compliance Matrix: (Units=1/GPa)
#
#
# Indices 1 2 3 4 5 6 
#
# 1 0.030043 0.001746 -0.007110 0.000000 0.025877 0.000000
# 2 0.001746 0.008154 -0.006583 0.000000 0.007329 0.000000
# 3 -0.007110 -0.006583 0.022522 0.000000 -0.004102 0.000000
# 4 0.000000 0.000000 0.000000 0.129961 0.000000 0.218264
# 5 0.025877 0.007329 -0.004102 0.000000 0.072398 0.000000
# 6 0.000000 0.000000 0.000000 0.218264 0.000000 0.544012
#
#
# Mechanical properties :
#
#
# Convention : Reuss Voigt Hill
#
# Bulk Modulus (GPa) = 27.15596 56.33198 41.74397
# Shear Modulus (GPa) = 5.92938 24.12467 15.02702
#
# Velocity S-wave (km/s) = 1.74786 3.52560 2.78252
# Velocity P-wave (km/s) = 4.25030 6.75258 5.64191
#
# Compressibility (1/GPa) = 0.03682433
#
# Stress axis : x y z
#
# Youngs Moduli (GPa) = 33.28583 122.63877 44.40090
#
# Poissons Ratio (x) = -0.21410 0.31569
# Poissons Ratio (y) = -0.05811 0.29229
# Poissons Ratio (z) = 0.23667 0.80732
#
# Static dielectric constant tensor:
#      x y z
#    x 1.685960 0.000000 -0.003820 
#    y 0.000000 1.737450 0.000000 
#    z -0.003820 0.000000 1.673320 
# 
# From -- ./inp_files/174870.got.cif
#   From: 2010.05.17/outbox.cif.g08.bks.cpg/sg12_88_cif.got.tgz:174870.got - 2010.06.03 13:09:07.
