data_PCOD9180504
_publ_section_title
;
Structure prediction by ZEFSAII (Michael W. Deem and Ramdas Pophale) SiO2 
 PCOD9180504
Probable space group: C 2/M
;
_chemical_formula_sum "Si O2"
_cell_formula_units_Z 56
_cell_length_a 14.178204
_cell_length_b 13.993227
_cell_length_c 21.611859
_cell_angle_alpha 90.000000
_cell_angle_beta 139.427928
_cell_angle_gamma 90.000000
_cell_volume 2788.781306
_symmetry_space_group_name_H-M "C 2/M"
_symmetry_group_IT_number 12
_symmetry_cell_setting 'monoclinic'
loop_
_space_group_symop_operation_xyz
x,y,z
-x,y,-z
-x,-y,-z
x,-y,z
1/2+x,1/2+y,z
1/2-x,1/2+y,-z
1/2-x,1/2-y,-z
1/2+x,1/2-y,z
loop_
_atom_site_type_symbol
_atom_site_label
_atom_site_fract_x
_atom_site_fract_y
_atom_site_fract_z
Si Si1 0.901547 0.396063 0.678929
Si Si2 0.188397 0.108556 0.220233
Si Si3 0.644918 0.199500 0.875741
Si Si4 0.035616 0.241252 0.952339
Si Si5 0.495595 0.891936 0.411680
Si Si6 0.234334 0.786911 0.422337
Si Si7 0.981325 0.892191 0.236374
O O1 0.846133 0.500000 0.670432
O O2 0.796691 0.305311 0.635758
O O3 0.051957 0.371505 0.787702
O O4 0.934231 0.398275 0.622104
O O5 0.339110 0.152634 0.319300
O O6 0.083689 0.101850 0.227117
O O7 0.101911 0.174239 0.129929
O O8 0.214720 0.000000 0.210207
O O9 0.571347 0.200575 0.907408
O O10 0.627144 0.305773 0.835681
O O11 0.815167 0.180884 0.966516
O O12 0.000000 0.291267 0.000000
O O13 0.616662 0.842677 0.514309
O O14 0.467838 0.000000 0.418602
O O15 0.250000 0.750000 0.500000
O O16 0.093272 0.854249 0.344333
O O17 0.925517 0.000000 0.220884
#
# Coordination Sequence:
#
# PCOD9180504 Si02
#       7
#     8   8   8   8   8   8   8
#     4   9  17  30  48  69  96 129 164 203 241 282
#     4   9  18  29  44  72 103 126 151 188 245 313
#     4   9  19  33  50  75  98 127 168 199 243 300
#     4  10  19  32  50  71  99 130 161 203 246 291
#     4   9  16  27  45  73 104 128 154 191 240 299
#     4   9  17  28  44  68  95 126 164 198 236 290
#     4   9  17  31  49  70  98 127 156 197 245 292
#
# _framework density 20.080456000000002
#
# number of rings (size 3 to 8) (size 9 to 14) (size 15 to 20)
#    0.000    2.857    0.000    1.286    0.000    2.000 
#    0.000    4.286    0.000    1.714    0.000   19.000 
#    0.000    0.000    0.000    0.000    0.000    0.000 
#
# Total GULP energy -155927.645874 kJ/mol
# GULP energy per Si atom -5568.844495 kJ/mol
# Density = 2.003475 g / cm^3
# Si number density = 20.080456 Si / 1000 Ang^3
#
#
#
# Elastic Constant Matrix: (Units=GPa)
#
#
# Indices 1 2 3 4 5 6 
#
# 1 30.6253 -1.4551 8.2276 0.0000 -4.1581 0.0000
# 2 -1.4551 80.0676 31.6518 0.0000 10.7533 0.0000
# 3 8.2276 31.6518 115.4375 0.0000 14.1165 0.0000
# 4 0.0000 0.0000 0.0000 2.1255 0.0000 7.8665
# 5 -4.1581 10.7533 14.1165 0.0000 40.7004 0.0000
# 6 0.0000 0.0000 0.0000 7.8665 0.0000 12.2995
#
#
#
# Elastic Compliance Matrix: (Units=1/GPa)
#
#
# Indices 1 2 3 4 5 6 
#
# 1 0.034196 0.001364 -0.003336 0.000000 0.004290 0.000000
# 2 0.001364 0.014305 -0.003733 0.000000 -0.002345 0.000000
# 3 -0.003336 -0.003733 0.010281 0.000000 -0.002920 0.000000
# 4 0.000000 0.000000 0.000000 -0.344148 0.000000 0.220109
# 5 0.004290 -0.002345 -0.002920 0.000000 0.026641 0.000000
# 6 0.000000 0.000000 0.000000 0.220109 0.000000 -0.059473
#
#
# Mechanical properties :
#
#
# Convention : Reuss Voigt Hill
#
# Bulk Modulus (GPa) = 21.10903 33.66431 27.38667
# Shear Modulus (GPa) = -17.18228 23.53882 3.17827
#
# Velocity S-wave (km/s) = -2.92836 3.42749 1.25945
# Velocity P-wave (km/s) = 0.94799 5.69778 3.97278
#
# Compressibility (1/GPa) = 0.04737309
#
# Stress axis : x y z
#
# Youngs Moduli (GPa) = 29.24293 69.90665 97.26637
#
# Poissons Ratio (x) = -0.09535 0.32447
# Poissons Ratio (y) = -0.03989 0.36306
# Poissons Ratio (z) = 0.09755 0.26094
#
# Static dielectric constant tensor:
#      x y z
#    x 1.754570 0.000000 -0.018300 
#    y 0.000000 24.703740 0.000000 
#    z -0.018300 0.000000 1.775130 
# 
# From -- ./inp_files/310852.got.cif
#   From: 2010.05.17/outbox.cif.g08.bks.cpg/sg12_156_cif.got.tgz:310852.got - 2010.06.03 13:09:07.
