data_PCOD9180826
_publ_section_title
;
Structure prediction by ZEFSAII (Michael W. Deem and Ramdas Pophale) SiO2 
 PCOD9180826
Probable space group: C 2/M
;
_chemical_formula_sum "Si O2"
_cell_formula_units_Z 56
_cell_length_a 15.328420
_cell_length_b 9.171520
_cell_length_c 27.115734
_cell_angle_alpha 90.000000
_cell_angle_beta 43.489019
_cell_angle_gamma 90.000000
_cell_volume 2623.521030
_symmetry_space_group_name_H-M "C 2/M"
_symmetry_group_IT_number 12
_symmetry_cell_setting 'monoclinic'
loop_
_space_group_symop_operation_xyz
x,y,z
-x,y,-z
-x,-y,-z
x,-y,z
1/2+x,1/2+y,z
1/2-x,1/2+y,-z
1/2-x,1/2-y,-z
1/2+x,1/2-y,z
loop_
_atom_site_type_symbol
_atom_site_label
_atom_site_fract_x
_atom_site_fract_y
_atom_site_fract_z
Si Si1 0.078013 0.666318 0.421175
Si Si2 0.659195 0.174391 0.997879
Si Si3 0.574866 0.336420 0.860780
Si Si4 0.756049 0.332727 0.279241
Si Si5 0.361232 0.834416 0.426813
Si Si6 0.034746 0.167832 0.284751
Si Si7 0.288093 0.836127 0.855555
O O1 0.118965 0.500000 0.416227
O O2 0.192909 0.761083 0.353202
O O3 0.000000 0.725088 0.500000
O O4 0.977097 0.658254 0.418097
O O5 0.522740 0.235784 0.069589
O O6 0.661491 0.000000 0.997752
O O7 0.750000 0.250000 0.000000
O O8 0.711987 0.236903 0.925057
O O9 0.522736 0.500000 0.873356
O O10 0.627684 0.260332 0.790083
O O11 0.695431 0.351436 0.846912
O O12 0.792224 0.500000 0.272588
O O13 0.645990 0.332389 0.281516
O O14 0.250000 0.750000 0.500000
O O15 0.414792 0.746561 0.358322
O O16 0.324384 0.000000 0.429326
O O17 0.088473 0.256744 0.216319
O O18 0.009110 0.000000 0.282968
O O19 0.312602 0.000000 0.865204
#
# Coordination Sequence:
#
# PCOD9180826 Si02
#       7
#     8   8   8   8   8   8   8
#     4   9  18  33  52  74 102 137 175 215 261 313
#     4  12  25  40  57  79 111 146 179 217 266 321
#     4  10  20  36  59  84 109 139 178 222 266 315
#     4   9  17  30  51  79 107 135 172 219 266 310
#     4  10  19  32  51  75 104 137 174 217 265 317
#     4   9  17  31  52  78 106 136 174 219 265 311
#     4  10  20  36  59  85 110 138 177 222 266 315
#
# _framework density 21.345358999999998
#
# number of rings (size 3 to 8) (size 9 to 14) (size 15 to 20)
#    0.000    2.143    0.000    3.857    0.000    7.714 
#    0.000    1.429    0.000    1.714    0.000    0.000 
#    0.000    0.000    0.000    0.000    0.000    0.000 
#
# Total GULP energy -156415.606709 kJ/mol
# GULP energy per Si atom -5586.271668 kJ/mol
# Density = 2.129678 g / cm^3
# Si number density = 21.345359 Si / 1000 Ang^3
#
#
#
# Elastic Constant Matrix: (Units=GPa)
#
#
# Indices 1 2 3 4 5 6 
#
# 1 18.1144 9.5390 1.8531 0.0000 2.4962 0.0000
# 2 9.5390 230.4988 129.2496 0.0000 -8.3980 0.0000
# 3 1.8531 129.2496 219.9716 0.0000 -3.7293 0.0000
# 4 0.0000 0.0000 0.0000 31.4570 0.0000 -3.0733
# 5 2.4962 -8.3980 -3.7293 0.0000 19.6327 0.0000
# 6 0.0000 0.0000 0.0000 -3.0733 0.0000 14.6284
#
#
#
# Elastic Compliance Matrix: (Units=1/GPa)
#
#
# Indices 1 2 3 4 5 6 
#
# 1 0.058101 -0.003523 0.001434 0.000000 -0.008622 0.000000
# 2 -0.003523 0.006767 -0.003902 0.000000 0.002601 0.000000
# 3 0.001434 -0.003902 0.006818 0.000000 -0.000557 0.000000
# 4 0.000000 0.000000 0.000000 0.032456 0.000000 0.006819
# 5 -0.008622 0.002601 -0.000557 0.000000 0.053039 0.000000
# 6 0.000000 0.000000 0.000000 0.006819 0.000000 0.069793
#
#
# Mechanical properties :
#
#
# Convention : Reuss Voigt Hill
#
# Bulk Modulus (GPa) = 16.74936 83.31868 50.03402
# Shear Modulus (GPa) = 19.31573 35.00648 27.16110
#
# Velocity S-wave (km/s) = 3.01144 4.05409 3.57102
# Velocity P-wave (km/s) = 4.46717 7.81233 6.36350
#
# Compressibility (1/GPa) = 0.05970379
#
# Stress axis : x y z
#
# Youngs Moduli (GPa) = 17.21138 147.77025 146.68091
#
# Poissons Ratio (x) = 0.52057 -0.21038
# Poissons Ratio (y) = 0.06063 0.57242
# Poissons Ratio (z) = -0.02469 0.57667
#
# Static dielectric constant tensor:
#      x y z
#    x 1.262030 0.000000 0.096490 
#    y 0.000000 1.748740 0.000000 
#    z 0.096490 0.000000 1.783520 
# 
# From -- ./inp_files/362945.got.cif
#   From: 2010.05.17/outbox.cif.g08.bks.cpg/sg12_182_cif.got.tgz:362945.got - 2010.06.03 13:09:07.
