data_PCOD9180160
_publ_section_title
;
Structure prediction by ZEFSAII (Michael W. Deem and Ramdas Pophale) SiO2 
 PCOD9180160
Probable space group: C 2/M
;
_chemical_formula_sum "Si O2"
_cell_formula_units_Z 48
_cell_length_a 30.587662
_cell_length_b 13.951208
_cell_length_c 13.551684
_cell_angle_alpha 90.000000
_cell_angle_beta 152.557922
_cell_angle_gamma 90.000000
_cell_volume 2665.093989
_symmetry_space_group_name_H-M "C 2/M"
_symmetry_group_IT_number 12
_symmetry_cell_setting 'monoclinic'
loop_
_space_group_symop_operation_xyz
x,y,z
-x,y,-z
-x,-y,-z
x,-y,z
1/2+x,1/2+y,z
1/2-x,1/2+y,-z
1/2-x,1/2-y,-z
1/2+x,1/2-y,z
loop_
_atom_site_type_symbol
_atom_site_label
_atom_site_fract_x
_atom_site_fract_y
_atom_site_fract_z
Si Si1 0.247700 0.702769 0.102036
Si Si2 0.732328 0.174042 0.550969
Si Si3 0.383816 0.264332 0.984620
Si Si4 0.408653 0.105094 0.874619
Si Si5 0.906945 0.284915 0.550952
Si Si6 0.441541 0.000000 0.534549
Si Si7 0.346515 0.000000 0.128594
O O1 0.172942 0.751645 0.027609
O O2 0.349343 0.725805 0.353697
O O3 0.250000 0.750000 0.000000
O O4 0.213466 0.593805 0.019976
O O5 0.750000 0.250000 0.500000
O O6 0.829206 0.157936 0.806495
O O7 0.674063 0.097395 0.371917
O O8 0.659326 0.213772 0.485727
O O9 0.377150 0.168580 0.903538
O O10 0.494535 0.268028 0.229429
O O11 0.437542 0.000000 0.968122
O O12 0.500000 0.147800 0.000000
O O13 0.922189 0.397557 0.550379
O O14 0.376895 0.000000 0.305359
O O15 0.552278 0.000000 0.725213
#
# Coordination Sequence:
#
# PCOD9180160 Si02
#       7
#     8   8   8   8   8   4   4
#     4  11  23  39  59  88 125 159 197 252 311 359
#     4   9  20  35  51  82 120 160 189 233 297 363
#     4  10  21  35  56  84 115 155 201 238 301 354
#     4  10  19  31  54  86 116 144 184 243 298 345
#     4  11  21  36  61  91 122 156 199 252 306 358
#     4  11  22  34  64  95 117 154 202 257 309 350
#     4  11  22  40  60  89 121 158 202 253 302 367
#
# _framework density 18.010621
#
# number of rings (size 3 to 8) (size 9 to 14) (size 15 to 20)
#    0.000    1.667    5.000    0.000    3.500    0.667 
#    0.000    0.000    1.833    1.000    0.000    3.500 
#    0.000    0.000    0.000    0.000    0.000    0.000 
#
# Total GULP energy -133611.391513 kJ/mol
# GULP energy per Si atom -5567.141313 kJ/mol
# Density = 1.796963 g / cm^3
# Si number density = 18.010621 Si / 1000 Ang^3
#
#
#
# Elastic Constant Matrix: (Units=GPa)
#
#
# Indices 1 2 3 4 5 6 
#
# 1 114.8707 23.3941 42.8114 0.0000 -9.3268 0.0000
# 2 23.3941 62.1267 39.2590 0.0000 -0.4401 0.0000
# 3 42.8114 39.2590 173.9483 0.0000 -2.6761 0.0000
# 4 0.0000 0.0000 0.0000 17.2492 0.0000 -3.5209
# 5 -9.3268 -0.4401 -2.6761 0.0000 27.3379 0.0000
# 6 0.0000 0.0000 0.0000 -3.5209 0.0000 2.0835
#
#
#
# Elastic Compliance Matrix: (Units=1/GPa)
#
#
# Indices 1 2 3 4 5 6 
#
# 1 0.010203 -0.002640 -0.001865 0.000000 0.003256 0.000000
# 2 -0.002640 0.019457 -0.003756 0.000000 -0.000955 0.000000
# 3 -0.001865 -0.003756 0.007056 0.000000 -0.000006 0.000000
# 4 0.000000 0.000000 0.000000 0.088500 0.000000 0.149553
# 5 0.003256 -0.000955 -0.000006 0.000000 0.037674 0.000000
# 6 0.000000 0.000000 0.000000 0.149553 0.000000 0.732680
#
#
# Mechanical properties :
#
#
# Convention : Reuss Voigt Hill
#
# Bulk Modulus (GPa) = 49.52393 62.43054 55.97723
# Shear Modulus (GPa) = 5.44174 25.69953 15.57064
#
# Velocity S-wave (km/s) = 1.74011 3.78154 2.94347
# Velocity P-wave (km/s) = 5.62086 7.33520 6.53449
#
# Compressibility (1/GPa) = 0.02019226
#
# Stress axis : x y z
#
# Youngs Moduli (GPa) = 98.01459 51.39478 141.73296
#
# Poissons Ratio (x) = 0.13569 0.26434
# Poissons Ratio (y) = 0.25878 0.53239
# Poissons Ratio (z) = 0.18280 0.19305
#
# Static dielectric constant tensor:
#      x y z
#    x 1.606870 0.000000 -0.009500 
#    y 0.000000 1.555170 0.000000 
#    z -0.009500 0.000000 1.686360 
# 
# From -- ./inp_files/183906.got.cif
#   From: 2010.05.17/outbox.cif.g08.bks.cpg/sg12_92_cif.got.tgz:183906.got - 2010.06.03 13:09:07.
