data_PCOD9180708
_publ_section_title
;
Structure prediction by ZEFSAII (Michael W. Deem and Ramdas Pophale) SiO2 
 PCOD9180708
Probable space group: C 2/M
;
_chemical_formula_sum "Si O2"
_cell_formula_units_Z 56
_cell_length_a 19.958958
_cell_length_b 7.797964
_cell_length_c 18.708714
_cell_angle_alpha 90.000000
_cell_angle_beta 96.866864
_cell_angle_gamma 90.000000
_cell_volume 2890.922535
_symmetry_space_group_name_H-M "C 2/M"
_symmetry_group_IT_number 12
_symmetry_cell_setting 'monoclinic'
loop_
_space_group_symop_operation_xyz
x,y,z
-x,y,-z
-x,-y,-z
x,-y,z
1/2+x,1/2+y,z
1/2-x,1/2+y,-z
1/2-x,1/2-y,-z
1/2+x,1/2-y,z
loop_
_atom_site_type_symbol
_atom_site_label
_atom_site_fract_x
_atom_site_fract_y
_atom_site_fract_z
Si Si1 0.329295 0.707215 0.007781
Si Si2 0.052446 0.801198 0.073778
Si Si3 0.569270 0.297068 0.857171
Si Si4 0.006103 0.792439 0.417107
Si Si5 0.346173 0.706733 0.557565
Si Si6 0.707983 0.206492 0.603129
Si Si7 0.609580 0.801825 0.705497
O O1 0.332589 0.500000 0.006533
O O2 0.370731 0.767973 0.083429
O O3 0.250000 0.750000 0.000000
O O4 0.376489 0.770237 0.947232
O O5 0.004598 0.724663 0.129818
O O6 0.066986 0.000000 0.094309
O O7 0.000000 0.799631 0.000000
O O8 0.564415 0.500000 0.871640
O O9 0.588192 0.277456 0.777428
O O10 0.081428 0.738479 0.405294
O O11 0.000000 0.748175 0.500000
O O12 0.950672 0.712190 0.359325
O O13 0.999554 0.000000 0.411103
O O14 0.344966 0.500000 0.559503
O O15 0.335628 0.754811 0.473304
O O16 0.282384 0.772458 0.593845
O O17 0.673062 0.274476 0.670120
O O18 0.710937 0.000000 0.609641
O O19 0.623957 0.000000 0.722661
#
# Coordination Sequence:
#
# PCOD9180708 Si02
#       7
#     8   8   8   8   8   8   8
#     4   9  17  31  54  82 106 130 162 203 246 290
#     4   7  12  27  51  74  95 125 167 203 231 276
#     4   9  18  34  54  73  97 133 173 205 238 289
#     4  10  19  32  51  73  94 123 167 212 247 291
#     4   9  17  31  50  69  89 117 161 207 245 291
#     4   9  18  31  47  68  94 125 157 197 249 298
#     4  11  22  33  48  72 103 133 162 204 258 303
#
# _framework density 19.370978999999998
#
# number of rings (size 3 to 8) (size 9 to 14) (size 15 to 20)
#    0.000    2.857    1.429    2.143    0.000    2.000 
#    0.000    2.143    0.000    9.429    0.000    0.000 
#    0.000    0.000    0.000    0.000    0.000    0.000 
#
# Total GULP energy -155917.153305 kJ/mol
# GULP energy per Si atom -5568.469761 kJ/mol
# Density = 1.932689 g / cm^3
# Si number density = 19.370979 Si / 1000 Ang^3
#
#
#
# Elastic Constant Matrix: (Units=GPa)
#
#
# Indices 1 2 3 4 5 6 
#
# 1 143.9253 7.7351 57.7941 0.0000 -34.4899 0.0000
# 2 7.7351 22.9874 3.0067 0.0000 -3.5858 0.0000
# 3 57.7941 3.0067 98.2375 0.0000 -35.0163 0.0000
# 4 0.0000 0.0000 0.0000 7.9901 0.0000 2.8822
# 5 -34.4899 -3.5858 -35.0163 0.0000 31.3822 0.0000
# 6 0.0000 0.0000 0.0000 2.8822 0.0000 17.4635
#
#
#
# Elastic Compliance Matrix: (Units=1/GPa)
#
#
# Indices 1 2 3 4 5 6 
#
# 1 0.010105 -0.001845 -0.003329 0.000000 0.007180 0.000000
# 2 -0.001845 0.044661 0.001353 0.000000 0.004585 0.000000
# 3 -0.003329 0.001353 0.018011 0.000000 0.016592 0.000000
# 4 0.000000 0.000000 0.000000 0.133078 0.000000 -0.021964
# 5 0.007180 0.004585 0.016592 0.000000 0.058794 0.000000
# 6 0.000000 0.000000 0.000000 -0.021964 0.000000 0.060887
#
#
# Mechanical properties :
#
#
# Convention : Reuss Voigt Hill
#
# Bulk Modulus (GPa) = 15.35288 44.69133 30.02210
# Shear Modulus (GPa) = 14.08891 24.47478 19.28184
#
# Velocity S-wave (km/s) = 2.69981 3.55840 3.15842
# Velocity P-wave (km/s) = 4.20257 6.32489 5.36963
#
# Compressibility (1/GPa) = 0.06513436
#
# Stress axis : x y z
#
# Youngs Moduli (GPa) = 98.96571 22.39090 55.52262
#
# Poissons Ratio (x) = 0.04130 0.18483
# Poissons Ratio (y) = 0.18256 -0.07510
# Poissons Ratio (z) = 0.32944 -0.03029
#
# Static dielectric constant tensor:
#      x y z
#    x 1.733850 0.000000 -0.054230 
#    y 0.000000 1.721890 0.000000 
#    z -0.054230 0.000000 1.659930 
# 
# From -- ./inp_files/280250.got.cif
#   From: 2010.05.17/outbox.cif.g08.bks.cpg/sg12_141_cif.got.tgz:280250.got - 2010.06.03 13:09:07.
