data_PCOD9180473
_publ_section_title
;
Structure prediction by ZEFSAII (Michael W. Deem and Ramdas Pophale) SiO2 
 PCOD9180473
Probable space group: C 2/M
;
_chemical_formula_sum "Si O2"
_cell_formula_units_Z 64
_cell_length_a 21.203643
_cell_length_b 7.423131
_cell_length_c 19.642347
_cell_angle_alpha 90.000000
_cell_angle_beta 103.066602
_cell_angle_gamma 90.000000
_cell_volume 3011.605356
_symmetry_space_group_name_H-M "C 2/M"
_symmetry_group_IT_number 12
_symmetry_cell_setting 'monoclinic'
loop_
_space_group_symop_operation_xyz
x,y,z
-x,y,-z
-x,-y,-z
x,-y,z
1/2+x,1/2+y,z
1/2-x,1/2+y,-z
1/2-x,1/2-y,-z
1/2+x,1/2-y,z
loop_
_atom_site_type_symbol
_atom_site_label
_atom_site_fract_x
_atom_site_fract_y
_atom_site_fract_z
Si Si1 0.176472 0.780329 0.913515
Si Si2 0.035069 0.779441 0.665137
Si Si3 0.782597 0.713197 0.581581
Si Si4 0.183794 0.292698 0.074805
Si Si5 0.651484 0.720388 0.602754
Si Si6 0.545629 0.212392 0.071604
Si Si7 0.413302 0.292929 0.552804
Si Si8 0.959767 0.782808 0.180589
O O1 0.244178 0.716755 0.897488
O O2 0.112043 0.723825 0.859053
O O3 0.177914 0.000000 0.916697
O O4 0.173845 0.714313 0.990638
O O5 0.105306 0.728035 0.653317
O O6 0.024370 0.720027 0.739706
O O7 0.978042 0.715249 0.601219
O O8 0.032969 0.000000 0.664306
O O9 0.790353 0.500000 0.592292
O O10 0.750000 0.750000 0.500000
O O11 0.726551 0.778895 0.619194
O O12 0.854546 0.790202 0.593036
O O13 0.187685 0.500000 0.099006
O O14 0.118320 0.210916 0.089242
O O15 0.653747 0.500000 0.600732
O O16 0.615629 0.783341 0.524453
O O17 0.509752 0.229722 0.134298
O O18 0.553453 0.000000 0.057963
O O19 0.500000 0.287184 0.000000
O O20 0.428659 0.500000 0.539961
O O21 0.958824 0.000000 0.181595
#
# Coordination Sequence:
#
# PCOD9180473 Si02
#       8
#     8   8   8   8   8   8   8   8
#     4   9  17  29  46  69  93 115 145 189 233 272
#     4   9  17  30  47  68  94 125 160 197 238 282
#     4   9  16  27  46  72  98 123 155 198 242 281
#     4   9  17  30  48  69  90 116 151 186 227 276
#     4   8  14  26  47  72  92 118 162 202 230 271
#     4  10  19  32  50  70  93 124 156 188 230 288
#     4   9  16  28  49  72  94 124 160 200 239 278
#     4  10  20  32  48  70  96 123 154 197 242 281
#
# _framework density 21.251124000000001
#
# number of rings (size 3 to 8) (size 9 to 14) (size 15 to 20)
#    0.000    2.875    1.250    1.500    0.000    2.250 
#    0.000    1.875    0.000   13.500    0.000    0.000 
#    0.000    0.000    0.000    0.000    0.000    0.000 
#
# Total GULP energy -178416.640507 kJ/mol
# GULP energy per Si atom -5575.520016 kJ/mol
# Density = 2.120276 g / cm^3
# Si number density = 21.251124 Si / 1000 Ang^3
#
#
#
# Elastic Constant Matrix: (Units=GPa)
#
#
# Indices 1 2 3 4 5 6 
#
# 1 148.2231 -3.7812 24.5883 0.0000 -27.7767 0.0000
# 2 -3.7812 67.9151 -8.2331 0.0000 2.3721 0.0000
# 3 24.5883 -8.2331 39.1866 0.0000 -23.4794 0.0000
# 4 0.0000 0.0000 0.0000 -0.1411 0.0000 -3.0483
# 5 -27.7767 2.3721 -23.4794 0.0000 26.3430 0.0000
# 6 0.0000 0.0000 0.0000 -3.0483 0.0000 7.0253
#
#
#
# Elastic Compliance Matrix: (Units=1/GPa)
#
#
# Indices 1 2 3 4 5 6 
#
# 1 0.008410 0.000171 0.000135 0.000000 0.008973 0.000000
# 2 0.000171 0.015236 0.005107 0.000000 0.003360 0.000000
# 3 0.000135 0.005107 0.056479 0.000000 0.050022 0.000000
# 4 0.000000 0.000000 0.000000 -0.683149 0.000000 -0.296425
# 5 0.008973 0.003360 0.050022 0.000000 0.091703 0.000000
# 6 0.000000 0.000000 0.000000 -0.296425 0.000000 0.013721
#
#
# Mechanical properties :
#
#
# Convention : Reuss Voigt Hill
#
# Bulk Modulus (GPa) = 10.99494 31.16367 21.07931
# Shear Modulus (GPa) = -10.45785 22.82881 6.18548
#
# Velocity S-wave (km/s) = -2.22076 3.28112 1.70792
# Velocity P-wave (km/s) = 1.17925 5.38986 3.71887
#
# Compressibility (1/GPa) = 0.09095090
#
# Stress axis : x y z
#
# Youngs Moduli (GPa) = 118.90599 65.63607 17.70583
#
# Poissons Ratio (x) = -0.01124 -0.00239
# Poissons Ratio (y) = -0.02036 -0.09042
# Poissons Ratio (z) = -0.01607 -0.33521
#
# Static dielectric constant tensor:
#      x y z
#    x 1.804590 0.000000 -0.002180 
#    y 0.000000 8.344180 0.000000 
#    z -0.002180 0.000000 1.718240 
# 
# From -- ./inp_files/319215.got.cif
#   From: 2010.05.17/outbox.cif.g08.bks.cpg/sg12_160_cif.got.tgz:319215.got - 2010.06.03 13:09:07.
