data_PCOD9180143
_publ_section_title
;
Structure prediction by ZEFSAII (Michael W. Deem and Ramdas Pophale) SiO2 
 PCOD9180143
Probable space group: C 2/M
;
_chemical_formula_sum "Si O2"
_cell_formula_units_Z 56
_cell_length_a 13.602188
_cell_length_b 26.286032
_cell_length_c 8.680461
_cell_angle_alpha 90.000000
_cell_angle_beta 112.631804
_cell_angle_gamma 90.000000
_cell_volume 2864.684323
_symmetry_space_group_name_H-M "C 2/M"
_symmetry_group_IT_number 12
_symmetry_cell_setting 'monoclinic'
loop_
_space_group_symop_operation_xyz
x,y,z
-x,y,-z
-x,-y,-z
x,-y,z
1/2+x,1/2+y,z
1/2-x,1/2+y,-z
1/2-x,1/2-y,-z
1/2+x,1/2-y,z
loop_
_atom_site_type_symbol
_atom_site_label
_atom_site_fract_x
_atom_site_fract_y
_atom_site_fract_z
Si Si1 0.921354 0.129051 0.097079
Si Si2 0.248474 0.359942 0.454922
Si Si3 0.924164 0.786142 0.692719
Si Si4 0.724158 0.710256 0.115470
Si Si5 0.883815 0.941959 0.351966
Si Si6 0.528717 0.178370 0.194008
Si Si7 0.388377 0.850080 0.347148
O O1 0.897490 0.081643 0.190381
O O2 0.983028 0.172245 0.234243
O O3 0.813000 0.156096 0.975969
O O4 0.000000 0.118014 0.000000
O O5 0.331799 0.313163 0.535560
O O6 0.310070 0.404931 0.408187
O O7 0.147344 0.343024 0.292086
O O8 0.197056 0.376771 0.589740
O O9 0.872402 0.777461 0.830539
O O10 0.968945 0.729708 0.697757
O O11 0.825197 0.702512 0.284874
O O12 0.750000 0.750000 0.000000
O O13 0.000000 0.941365 0.500000
O O14 0.845207 0.000000 0.324985
O O15 0.434949 0.141423 0.203207
O O16 0.500000 0.187850 0.000000
O O17 0.500000 0.851996 0.500000
#
# Coordination Sequence:
#
# PCOD9180143 Si02
#       7
#     8   8   8   8   8   8   8
#     4  10  21  37  59  88 125 154 195 249 300 363
#     4  10  22  40  57  85 119 162 204 252 296 359
#     4  10  19  35  52  84 126 167 200 234 290 364
#     4  10  19  31  54  83 123 166 199 235 290 355
#     4  11  24  44  67  89 115 155 204 259 314 360
#     4  11  21  35  57  90 126 168 203 240 289 357
#     4   9  20  37  53  78 119 163 200 240 284 350
#
# _framework density 19.548400999999998
#
# number of rings (size 3 to 8) (size 9 to 14) (size 15 to 20)
#    0.000    1.857    1.429    3.429    4.000    0.286 
#    7.714    0.000    0.000    4.286    0.000    0.000 
#    0.000    0.000    0.000    0.000    0.000    0.000 
#
# Total GULP energy -155878.205593 kJ/mol
# GULP energy per Si atom -5567.078771 kJ/mol
# Density = 1.950391 g / cm^3
# Si number density = 19.548401 Si / 1000 Ang^3
#
#
#
# Elastic Constant Matrix: (Units=GPa)
#
#
# Indices 1 2 3 4 5 6 
#
# 1 108.6561 59.1553 41.2515 0.0000 1.0492 0.0000
# 2 59.1553 104.6063 38.8628 0.0000 -16.0590 0.0000
# 3 41.2515 38.8628 67.9074 0.0000 -4.2491 0.0000
# 4 0.0000 0.0000 0.0000 18.0260 0.0000 -2.2989
# 5 1.0492 -16.0590 -4.2491 0.0000 30.8157 0.0000
# 6 0.0000 0.0000 0.0000 -2.2989 0.0000 13.6727
#
#
#
# Elastic Compliance Matrix: (Units=1/GPa)
#
#
# Indices 1 2 3 4 5 6 
#
# 1 0.015371 -0.007489 -0.005375 0.000000 -0.005167 0.000000
# 2 -0.007489 0.016757 -0.004517 0.000000 0.008365 0.000000
# 3 -0.005375 -0.004517 0.020618 0.000000 0.000672 0.000000
# 4 0.000000 0.000000 0.000000 0.056691 0.000000 0.009532
# 5 -0.005167 0.008365 0.000672 0.000000 0.037079 0.000000
# 6 0.000000 0.000000 0.000000 0.009532 0.000000 0.074741
#
#
# Mechanical properties :
#
#
# Convention : Reuss Voigt Hill
#
# Bulk Modulus (GPa) = 55.60420 62.18991 58.89705
# Shear Modulus (GPa) = 19.08300 21.96290 20.52295
#
# Velocity S-wave (km/s) = 3.12780 3.35552 3.24366
# Velocity P-wave (km/s) = 6.44595 6.84800 6.65001
#
# Compressibility (1/GPa) = 0.01798425
#
# Stress axis : x y z
#
# Youngs Moduli (GPa) = 65.05814 59.67694 48.50064
#
# Poissons Ratio (x) = 0.44690 0.26069
# Poissons Ratio (y) = 0.48720 0.21909
# Poissons Ratio (z) = 0.34968 0.26958
#
# Static dielectric constant tensor:
#      x y z
#    x 1.784850 0.000000 -0.023390 
#    y 0.000000 1.674310 0.000000 
#    z -0.023390 0.000000 1.783630 
# 
# From -- ./inp_files/65962.got.cif
#   From: 2010.05.17/outbox.cif.g08.bks.cpg/sg12_33_cif.got.tgz:65962.got - 2010.06.03 13:09:07.
