data_PCOD9180969
_publ_section_title
;
Structure prediction by ZEFSAII (Michael W. Deem and Ramdas Pophale) SiO2 
 PCOD9180969
Probable space group: C 2/M
;
_chemical_formula_sum "Si O2"
_cell_formula_units_Z 40
_cell_length_a 28.949058
_cell_length_b 8.029328
_cell_length_c 10.323542
_cell_angle_alpha 90.000000
_cell_angle_beta 103.651400
_cell_angle_gamma 90.000000
_cell_volume 2331.829347
_symmetry_space_group_name_H-M "C 2/M"
_symmetry_group_IT_number 12
_symmetry_cell_setting 'monoclinic'
loop_
_space_group_symop_operation_xyz
x,y,z
-x,y,-z
-x,-y,-z
x,-y,z
1/2+x,1/2+y,z
1/2-x,1/2+y,-z
1/2-x,1/2-y,-z
1/2+x,1/2-y,z
loop_
_atom_site_type_symbol
_atom_site_label
_atom_site_fract_x
_atom_site_fract_y
_atom_site_fract_z
Si Si1 0.113277 0.813061 0.391198
Si Si2 0.227772 0.301498 0.848916
Si Si3 0.950547 0.500000 0.637397
Si Si4 0.876805 0.812313 0.290833
Si Si5 0.286370 0.802437 0.637077
Si Si6 0.940856 0.500000 0.316748
O O1 0.076641 0.665894 0.334656
O O2 0.123835 0.800473 0.552634
O O3 0.163171 0.784591 0.352725
O O4 0.095216 0.000000 0.354325
O O5 0.221685 0.500000 0.838057
O O6 0.176406 0.218790 0.793669
O O7 0.262357 0.244875 0.756416
O O8 0.250000 0.250000 0.000000
O O9 0.946434 0.500000 0.477363
O O10 0.006277 0.500000 0.705457
O O11 0.911247 0.666087 0.264553
O O12 0.892434 0.000000 0.267791
O O13 0.250000 0.750000 0.500000
O O14 0.293740 0.000000 0.634013
#
# Coordination Sequence:
#
# PCOD9180969 Si02
#       6
#     8   8   4   8   8   4
#     4  10  19  32  51  79 111 144 184 232 277 331
#     4  12  24  38  54  80 115 151 190 234 278 337
#     4   9  18  32  50  77 111 143 187 237 280 330
#     4  10  19  33  52  77 109 145 188 229 276 335
#     4  12  22  34  54  82 111 151 193 226 280 342
#     4   9  18  32  52  75 107 151 185 229 290 329
#
# _framework density 17.153912999999999
#
# number of rings (size 3 to 8) (size 9 to 14) (size 15 to 20)
#    0.000    1.400    4.000    3.600    0.000    0.800 
#    0.000    4.000    0.000    0.000    0.000    2.800 
#    0.000    4.800    0.000    0.000    0.000    0.000 
#
# Total GULP energy -111675.988565 kJ/mol
# GULP energy per Si atom -5583.799428 kJ/mol
# Density = 1.711487 g / cm^3
# Si number density = 17.153913 Si / 1000 Ang^3
#
#
#
# Elastic Constant Matrix: (Units=GPa)
#
#
# Indices 1 2 3 4 5 6 
#
# 1 145.1515 68.6350 29.4088 0.0000 5.4399 0.0000
# 2 68.6350 162.4093 26.1107 0.0000 8.2597 0.0000
# 3 29.4088 26.1107 52.9475 0.0000 -6.6338 0.0000
# 4 0.0000 0.0000 0.0000 19.1253 0.0000 -0.0987
# 5 5.4399 8.2597 -6.6338 0.0000 12.2653 0.0000
# 6 0.0000 0.0000 0.0000 -0.0987 0.0000 24.9179
#
#
#
# Elastic Compliance Matrix: (Units=1/GPa)
#
#
# Indices 1 2 3 4 5 6 
#
# 1 0.009355 -0.003048 -0.004243 0.000000 -0.004391 0.000000
# 2 -0.003048 0.008244 -0.003110 0.000000 -0.005882 0.000000
# 3 -0.004243 -0.003110 0.024967 0.000000 0.017480 0.000000
# 4 0.000000 0.000000 0.000000 0.052288 0.000000 0.000207
# 5 -0.004391 -0.005882 0.017480 0.000000 0.096893 0.000000
# 6 0.000000 0.000000 0.000000 0.000207 0.000000 0.040133
#
#
# Mechanical properties :
#
#
# Convention : Reuss Voigt Hill
#
# Bulk Modulus (GPa) = 45.94598 67.64637 56.79618
# Shear Modulus (GPa) = 19.23546 27.01863 23.12705
#
# Velocity S-wave (km/s) = 3.35228 3.97302 3.67578
# Velocity P-wave (km/s) = 6.46734 7.78249 7.15519
#
# Compressibility (1/GPa) = 0.02176469
#
# Stress axis : x y z
#
# Youngs Moduli (GPa) = 106.89676 121.29386 40.05288
#
# Poissons Ratio (x) = 0.36969 0.16995
# Poissons Ratio (y) = 0.32581 0.12455
# Poissons Ratio (z) = 0.45358 0.37720
#
# Static dielectric constant tensor:
#      x y z
#    x 1.559450 0.000000 -0.001960 
#    y 0.000000 1.605030 0.000000 
#    z -0.001960 0.000000 1.540690 
# 
# From -- ./inp_files/101046.got.cif
#   From: 2010.05.17/outbox.cif.g08.bks.cpg/sg12_51_cif.got.tgz:101046.got - 2010.06.03 13:09:07.
