data_PCOD9180268
_publ_section_title
;
Structure prediction by ZEFSAII (Michael W. Deem and Ramdas Pophale) SiO2 
 PCOD9180268
Probable space group: C 2/M
;
_chemical_formula_sum "Si O2"
_cell_formula_units_Z 56
_cell_length_a 29.598125
_cell_length_b 8.656867
_cell_length_c 17.782008
_cell_angle_alpha 90.000000
_cell_angle_beta 48.894535
_cell_angle_gamma 90.000000
_cell_volume 3433.123283
_symmetry_space_group_name_H-M "C 2/M"
_symmetry_group_IT_number 12
_symmetry_cell_setting 'monoclinic'
loop_
_space_group_symop_operation_xyz
x,y,z
-x,y,-z
-x,-y,-z
x,-y,z
1/2+x,1/2+y,z
1/2-x,1/2+y,-z
1/2-x,1/2-y,-z
1/2+x,1/2-y,z
loop_
_atom_site_type_symbol
_atom_site_label
_atom_site_fract_x
_atom_site_fract_y
_atom_site_fract_z
Si Si1 0.157177 0.683924 0.591362
Si Si2 0.733437 0.316128 0.639099
Si Si3 0.723424 0.683350 0.261120
Si Si4 0.908069 0.316573 0.570122
Si Si5 0.424228 0.184622 0.723797
Si Si6 0.784495 0.685957 0.890365
Si Si7 0.044211 0.818852 0.635680
O O1 0.160927 0.500000 0.596920
O O2 0.204947 0.726200 0.473081
O O3 0.180659 0.766445 0.640646
O O4 0.091230 0.732614 0.637917
O O5 0.733484 0.500000 0.650462
O O6 0.732565 0.230181 0.719604
O O7 0.713096 0.500000 0.272116
O O8 0.661847 0.773705 0.347240
O O9 0.740582 0.740462 0.159228
O O10 0.915085 0.500000 0.548788
O O11 0.933825 0.280359 0.624508
O O12 0.935716 0.225036 0.470930
O O13 0.355489 0.226979 0.816892
O O14 0.475406 0.265432 0.716106
O O15 0.430002 0.000000 0.725463
O O16 0.780625 0.500000 0.890209
O O17 0.750000 0.750000 0.000000
O O18 0.049748 0.000000 0.641682
#
# Coordination Sequence:
#
# PCOD9180268 Si02
#       7
#     8   8   8   8   8   8   8
#     4  10  20  32  48  67  98 138 174 212 251 293
#     4  10  19  32  49  70  99 134 173 213 252 294
#     4  11  20  31  51  76 103 134 170 208 251 302
#     4  10  19  32  47  66  96 135 172 207 247 293
#     4   9  20  35  50  68  96 132 167 203 249 302
#     4  10  21  38  58  79 103 130 164 209 259 305
#     4  12  22  30  45  70 100 134 172 209 246 293
#
# _framework density 16.311678000000001
#
# number of rings (size 3 to 8) (size 9 to 14) (size 15 to 20)
#    0.000    1.714    1.429    5.571    0.000    6.286 
#    0.000    0.000    0.000    0.000    0.000    1.000 
#    0.000    8.000    0.000    0.000    0.000    0.000 
#
# Total GULP energy -156330.279169 kJ/mol
# GULP energy per Si atom -5583.224256 kJ/mol
# Density = 1.627455 g / cm^3
# Si number density = 16.311678 Si / 1000 Ang^3
#
#
#
# Elastic Constant Matrix: (Units=GPa)
#
#
# Indices 1 2 3 4 5 6 
#
# 1 91.2288 18.4408 28.0422 0.0001 12.3969 -0.0001
# 2 18.4408 30.6139 8.6835 -0.0018 5.1022 0.0010
# 3 28.0422 8.6835 64.7300 -0.0002 11.3389 0.0002
# 4 0.0001 -0.0018 -0.0002 22.6448 0.0004 3.3902
# 5 12.3969 5.1022 11.3389 0.0004 15.9275 -0.0001
# 6 -0.0001 0.0010 0.0002 3.3902 -0.0001 28.1901
#
#
#
# Elastic Compliance Matrix: (Units=1/GPa)
#
#
# Indices 1 2 3 4 5 6 
#
# 1 0.014418 -0.006447 -0.004315 -0.000001 -0.006085 0.000000
# 2 -0.006447 0.037934 -0.001195 0.000003 -0.006283 -0.000002
# 3 -0.004315 -0.001195 0.019220 0.000000 -0.009941 0.000000
# 4 -0.000001 0.000003 0.000000 0.044970 -0.000002 -0.005408
# 5 -0.006085 -0.006283 -0.009941 -0.000002 0.076610 0.000001
# 6 0.000000 -0.000002 0.000000 -0.005408 0.000001 0.036124
#
#
# Mechanical properties :
#
#
# Convention : Reuss Voigt Hill
#
# Bulk Modulus (GPa) = 20.98312 32.98952 26.98632
# Shear Modulus (GPa) = 18.58204 22.11291 20.34748
#
# Velocity S-wave (km/s) = 3.37884 3.68591 3.53571
# Velocity P-wave (km/s) = 5.30226 6.19540 5.76615
#
# Compressibility (1/GPa) = 0.04765735
#
# Stress axis : x y z
#
# Youngs Moduli (GPa) = 69.35825 26.36126 52.02890
#
# Poissons Ratio (x) = 0.16994 0.22453
# Poissons Ratio (y) = 0.44714 0.06219
# Poissons Ratio (z) = 0.29931 0.03151
#
# Static dielectric constant tensor:
#      x y z
#    x 1.571770 0.000000 0.000000 
#    y 0.000000 1.537060 0.000000 
#    z 0.000000 0.000000 1.533790 
# 
# From -- ./inp_files/243654.got.cif
#   From: 2010.05.17/outbox.cif.g08.bks.cpg/sg12_122_cif.got.tgz:243654.got - 2010.06.03 13:09:07.
