data_PCOD9180267
_publ_section_title
;
Structure prediction by ZEFSAII (Michael W. Deem and Ramdas Pophale) SiO2 
 PCOD9180267
Probable space group: C 2/M
;
_chemical_formula_sum "Si O2"
_cell_formula_units_Z 56
_cell_length_a 27.724957
_cell_length_b 9.018897
_cell_length_c 14.705812
_cell_angle_alpha 90.000000
_cell_angle_beta 103.320310
_cell_angle_gamma 90.000000
_cell_volume 3578.240852
_symmetry_space_group_name_H-M "C 2/M"
_symmetry_group_IT_number 12
_symmetry_cell_setting 'monoclinic'
loop_
_space_group_symop_operation_xyz
x,y,z
-x,y,-z
-x,-y,-z
x,-y,z
1/2+x,1/2+y,z
1/2-x,1/2+y,-z
1/2-x,1/2-y,-z
1/2+x,1/2-y,z
loop_
_atom_site_type_symbol
_atom_site_label
_atom_site_fract_x
_atom_site_fract_y
_atom_site_fract_z
Si Si1 0.057052 0.821790 0.041805
Si Si2 0.206571 0.825690 0.118408
Si Si3 0.680525 0.174789 0.774970
Si Si4 0.815899 0.824136 0.609880
Si Si5 0.872482 0.324141 0.786741
Si Si6 0.637265 0.324414 0.924057
Si Si7 0.210433 0.824066 0.606776
O O1 0.091204 0.783561 0.969252
O O2 0.061055 0.000000 0.055472
O O3 0.080647 0.743382 0.139755
O O4 0.000000 0.783739 0.000000
O O5 0.264284 0.801175 0.159499
O O6 0.174171 0.725022 0.171002
O O7 0.195817 0.000000 0.134061
O O8 0.185709 0.798552 0.008492
O O9 0.642728 0.236544 0.833273
O O10 0.681005 0.259264 0.679397
O O11 0.673977 0.000000 0.757946
O O12 0.860057 0.747614 0.684141
O O13 0.816299 0.799218 0.501677
O O14 0.763683 0.756725 0.622126
O O15 0.815811 0.000000 0.627090
O O16 0.875786 0.500000 0.782070
O O17 0.634465 0.500000 0.903942
O O18 0.218530 0.000000 0.621076
#
# Coordination Sequence:
#
# PCOD9180267 Si02
#       7
#     8   8   8   8   8   8   8
#     4   9  19  37  57  74  95 125 159 198 245 292
#     4   9  18  31  44  62  92 131 167 197 229 274
#     4  11  20  29  44  66  96 133 165 195 235 282
#     4  10  19  32  47  66  95 129 166 203 239 282
#     4  11  20  29  48  74  99 128 161 199 242 286
#     4   9  18  31  47  67  93 123 160 199 234 283
#     4  10  20  31  46  67  93 129 169 206 238 272
#
# _framework density 15.650149000000001
#
# number of rings (size 3 to 8) (size 9 to 14) (size 15 to 20)
#    0.000    2.143    1.429    3.857    0.000    4.857 
#    0.000    0.000    0.000    0.000    0.000    1.000 
#    0.000    8.000    0.000    0.000    0.000    0.000 
#
# Total GULP energy -156193.537522 kJ/mol
# GULP energy per Si atom -5578.340626 kJ/mol
# Density = 1.561453 g / cm^3
# Si number density = 15.650149 Si / 1000 Ang^3
#
#
#
# Elastic Constant Matrix: (Units=GPa)
#
#
# Indices 1 2 3 4 5 6 
#
# 1 54.3198 39.4857 54.8271 0.0000 2.4751 0.0000
# 2 39.4857 78.7687 71.1932 0.0000 -0.9919 0.0000
# 3 54.8271 71.1932 124.7414 0.0000 -6.1875 0.0000
# 4 0.0000 0.0000 0.0000 25.4280 0.0000 -3.5210
# 5 2.4751 -0.9919 -6.1875 0.0000 22.7971 0.0000
# 6 0.0000 0.0000 0.0000 -3.5210 0.0000 17.3232
#
#
#
# Elastic Compliance Matrix: (Units=1/GPa)
#
#
# Indices 1 2 3 4 5 6 
#
# 1 0.036373 -0.007311 -0.012190 0.000000 -0.007576 0.000000
# 2 -0.007311 0.027890 -0.012776 0.000000 -0.001460 0.000000
# 3 -0.012190 -0.012776 0.020987 0.000000 0.006464 0.000000
# 4 0.000000 0.000000 0.000000 0.040466 0.000000 0.008225
# 5 -0.007576 -0.001460 0.006464 0.000000 0.046379 0.000000
# 6 0.000000 0.000000 0.000000 0.008225 0.000000 0.059398
#
#
# Mechanical properties :
#
#
# Convention : Reuss Voigt Hill
#
# Bulk Modulus (GPa) = 48.32190 65.42688 56.87439
# Shear Modulus (GPa) = 16.50469 19.26461 17.88465
#
# Velocity S-wave (km/s) = 3.25099 3.51230 3.38417
# Velocity P-wave (km/s) = 6.71083 7.63839 7.18958
#
# Compressibility (1/GPa) = 0.02069455
#
# Stress axis : x y z
#
# Youngs Moduli (GPa) = 27.49288 35.85576 47.64882
#
# Poissons Ratio (x) = 0.26214 0.58084
# Poissons Ratio (y) = 0.20100 0.60878
# Poissons Ratio (z) = 0.33514 0.45811
#
# Static dielectric constant tensor:
#      x y z
#    x 1.501300 0.000000 -0.006790 
#    y 0.000000 1.521670 0.000000 
#    z -0.006790 0.000000 1.541010 
# 
# From -- ./inp_files/243014.got.cif
#   From: 2010.05.17/outbox.cif.g08.bks.cpg/sg12_122_cif.got.tgz:243014.got - 2010.06.03 13:09:07.
