data_PCOD9180568
_publ_section_title
;
Structure prediction by ZEFSAII (Michael W. Deem and Ramdas Pophale) SiO2 
 PCOD9180568
Probable space group: C 2/M
;
_chemical_formula_sum "Si O2"
_cell_formula_units_Z 40
_cell_length_a 29.357503
_cell_length_b 18.611548
_cell_length_c 12.823265
_cell_angle_alpha 90.000000
_cell_angle_beta 17.934512
_cell_angle_gamma 90.000000
_cell_volume 2157.505351
_symmetry_space_group_name_H-M "C 2/M"
_symmetry_group_IT_number 12
_symmetry_cell_setting 'monoclinic'
loop_
_space_group_symop_operation_xyz
x,y,z
-x,y,-z
-x,-y,-z
x,-y,z
1/2+x,1/2+y,z
1/2-x,1/2+y,-z
1/2-x,1/2-y,-z
1/2+x,1/2-y,z
loop_
_atom_site_type_symbol
_atom_site_label
_atom_site_fract_x
_atom_site_fract_y
_atom_site_fract_z
Si Si1 0.240589 0.803531 0.759810
Si Si2 0.339693 0.419356 0.606129
Si Si3 0.337305 0.199770 0.893125
Si Si4 0.980898 0.802828 0.164750
Si Si5 0.390624 0.419746 0.827888
O O1 0.396590 0.768698 0.389491
O O2 0.155915 0.746032 0.016349
O O3 0.240147 0.871987 0.839091
O O4 0.137377 0.812715 0.883124
O O5 0.284912 0.500000 0.703790
O O6 0.374039 0.368783 0.432463
O O7 0.497564 0.425929 0.319104
O O8 0.242725 0.373692 0.899238
O O9 0.500000 0.185103 0.500000
O O10 0.250000 0.250000 0.000000
O O11 0.000000 0.800057 0.000000
O O12 0.500000 0.388107 0.500000
O O13 0.345664 0.500000 0.890913
#
# Coordination Sequence:
#
# PCOD9180568 Si02
#       5
#     8   8   8   8   8
#     4  10  19  32  50  74 100 125 165 208 247 296
#     4   9  19  32  47  72 101 128 165 207 246 294
#     4  11  20  32  52  77 106 136 164 198 246 301
#     4  10  20  34  53  72  94 129 170 214 256 292
#     4   9  16  28  48  72  99 130 161 195 241 300
#
# _framework density 18.539930999999999
#
# number of rings (size 3 to 8) (size 9 to 14) (size 15 to 20)
#    0.000    2.200    0.000    6.000    0.000    0.800 
#    0.000    0.000    0.000   10.200    0.000    0.000 
#    0.000    0.000    0.000    0.000    0.000    0.000 
#
# Total GULP energy -111370.805803 kJ/mol
# GULP energy per Si atom -5568.540290 kJ/mol
# Density = 1.849773 g / cm^3
# Si number density = 18.539931 Si / 1000 Ang^3
#
#
#
# Elastic Constant Matrix: (Units=GPa)
#
#
# Indices 1 2 3 4 5 6 
#
# 1 64.8677 9.2891 14.6704 0.0000 20.9136 -0.0001
# 2 9.2891 100.5235 36.7991 -0.0003 10.1987 0.0000
# 3 14.6704 36.7991 77.4206 -0.0004 17.9122 -0.0001
# 4 0.0000 -0.0003 -0.0004 16.9880 -0.0001 0.7719
# 5 20.9136 10.1987 17.9122 -0.0001 29.8259 0.0001
# 6 -0.0001 0.0000 -0.0001 0.7719 0.0001 16.0633
#
#
#
# Elastic Compliance Matrix: (Units=1/GPa)
#
#
# Indices 1 2 3 4 5 6 
#
# 1 0.019952 -0.000281 -0.000503 0.000000 -0.013592 0.000000
# 2 -0.000281 0.012063 -0.005542 0.000000 -0.000600 0.000000
# 3 -0.000503 -0.005542 0.017567 0.000000 -0.008302 0.000000
# 4 0.000000 0.000000 0.000000 0.058994 0.000000 -0.002835
# 5 -0.013592 -0.000600 -0.008302 0.000000 0.048250 0.000000
# 6 0.000000 0.000000 0.000000 -0.002835 0.000000 0.062390
#
#
# Mechanical properties :
#
#
# Convention : Reuss Voigt Hill
#
# Bulk Modulus (GPa) = 27.07683 40.48100 33.77891
# Shear Modulus (GPa) = 20.47691 24.71230 22.59461
#
# Velocity S-wave (km/s) = 3.32697 3.65488 3.49478
# Velocity P-wave (km/s) = 5.42168 6.30022 5.87739
#
# Compressibility (1/GPa) = 0.03693195
#
# Stress axis : x y z
#
# Youngs Moduli (GPa) = 50.11998 82.89475 56.92580
#
# Poissons Ratio (x) = 0.02327 0.02861
# Poissons Ratio (y) = 0.01407 0.31548
# Poissons Ratio (z) = 0.02519 0.45940
#
# Static dielectric constant tensor:
#      x y z
#    x 1.669320 0.000000 -0.020290 
#    y 0.000000 1.745460 0.000000 
#    z -0.020290 0.000000 1.630280 
# 
# From -- ./inp_files/118941.got.cif
#   From: 2010.05.17/outbox.cif.g08.bks.cpg/sg12_60_cif.got.tgz:118941.got - 2010.06.03 13:09:07.
