data_PCOD9180513
_publ_section_title
;
Structure prediction by ZEFSAII (Michael W. Deem and Ramdas Pophale) SiO2 
 PCOD9180513
Probable space group: C 2/M
;
_chemical_formula_sum "Si O2"
_cell_formula_units_Z 56
_cell_length_a 21.111438
_cell_length_b 11.677104
_cell_length_c 9.835487
_cell_angle_alpha 90.000000
_cell_angle_beta 92.515362
_cell_angle_gamma 90.000000
_cell_volume 2422.312579
_symmetry_space_group_name_H-M "C 2/M"
_symmetry_group_IT_number 12
_symmetry_cell_setting 'monoclinic'
loop_
_space_group_symop_operation_xyz
x,y,z
-x,y,-z
-x,-y,-z
x,-y,z
1/2+x,1/2+y,z
1/2-x,1/2+y,-z
1/2-x,1/2-y,-z
1/2+x,1/2-y,z
loop_
_atom_site_type_symbol
_atom_site_label
_atom_site_fract_x
_atom_site_fract_y
_atom_site_fract_z
Si Si1 0.424837 0.370325 0.210077
Si Si2 0.814279 0.376182 0.882916
Si Si3 0.749105 0.117002 0.571900
Si Si4 0.615406 0.873883 0.401232
Si Si5 0.702595 0.680681 0.702851
Si Si6 0.936003 0.868853 0.655131
Si Si7 0.362182 0.629278 0.930899
O O1 0.404306 0.500000 0.245416
O O2 0.368206 0.293067 0.261844
O O3 0.492861 0.352934 0.281040
O O4 0.419514 0.363991 0.046929
O O5 0.827388 0.500000 0.955637
O O6 0.859425 0.376161 0.752363
O O7 0.742231 0.382900 0.820783
O O8 0.825754 0.250910 0.949821
O O9 0.679265 0.123316 0.498459
O O10 0.749247 0.213310 0.681590
O O11 0.795111 0.126320 0.447603
O O12 0.760359 0.000000 0.645113
O O13 0.581048 0.751444 0.421447
O O14 0.583634 0.000000 0.421346
O O15 0.890367 0.870979 0.781933
O O16 0.932777 0.000000 0.593572
O O17 0.334122 0.500000 0.947933
#
# Coordination Sequence:
#
# PCOD9180513 Si02
#       7
#     8   8   8   8   8   8   8
#     4  10  19  32  50  72 101 132 163 201 244 290
#     4   9  17  31  50  72  99 129 162 201 245 294
#     4   9  18  34  54  73  95 126 165 206 248 296
#     4   8  15  31  53  73  95 127 164 202 247 295
#     4  10  19  32  51  73  98 129 163 200 249 298
#     4   9  17  31  51  75 101 130 166 204 239 283
#     4   9  18  32  51  74  99 132 169 202 239 284
#
# _framework density 23.118404000000002
#
# number of rings (size 3 to 8) (size 9 to 14) (size 15 to 20)
#    0.000    2.857    0.000    2.571    0.000    2.857 
#    0.000   11.429    0.000    6.857    0.000    0.000 
#    0.000    0.000    0.000    0.000    0.000    0.000 
#
# Total GULP energy -155924.518222 kJ/mol
# GULP energy per Si atom -5568.732794 kJ/mol
# Density = 2.306579 g / cm^3
# Si number density = 23.118404 Si / 1000 Ang^3
#
#
#
# Elastic Constant Matrix: (Units=GPa)
#
#
# Indices 1 2 3 4 5 6 
#
# 1 76.5095 49.5570 9.1921 0.0000 14.1464 0.0000
# 2 49.5570 217.6432 31.4338 0.0000 8.5817 0.0000
# 3 9.1921 31.4338 41.4052 0.0000 6.6606 0.0000
# 4 0.0000 0.0000 0.0000 -7.6867 0.0000 16.9083
# 5 14.1464 8.5817 6.6606 0.0000 26.4652 0.0000
# 6 0.0000 0.0000 0.0000 16.9083 0.0000 12.6553
#
#
#
# Elastic Compliance Matrix: (Units=1/GPa)
#
#
# Indices 1 2 3 4 5 6 
#
# 1 0.016799 -0.003548 0.000233 0.000000 -0.007888 0.000000
# 2 -0.003548 0.005923 -0.003861 0.000000 0.000948 0.000000
# 3 0.000233 -0.003861 0.027983 0.000000 -0.005915 0.000000
# 4 0.000000 0.000000 0.000000 -0.033028 0.000000 0.044128
# 5 -0.007888 0.000948 -0.005915 0.000000 0.043183 0.000000
# 6 0.000000 0.000000 0.000000 0.044128 0.000000 0.020061
#
#
# Mechanical properties :
#
#
# Convention : Reuss Voigt Hill
#
# Bulk Modulus (GPa) = 27.50895 57.32484 42.41690
# Shear Modulus (GPa) = 46.55955 22.64510 34.60233
#
# Velocity S-wave (km/s) = 4.49259 3.13313 3.87297
# Velocity P-wave (km/s) = 6.23186 6.15944 6.19576
#
# Compressibility (1/GPa) = 0.03635181
#
# Stress axis : x y z
#
# Youngs Moduli (GPa) = 59.52890 168.83984 35.73634
#
# Poissons Ratio (x) = 0.59898 -0.00832
# Poissons Ratio (y) = 0.21119 0.13799
# Poissons Ratio (z) = -0.01386 0.65193
#
# Static dielectric constant tensor:
#      x y z
#    x 1.832630 0.000000 -0.001400 
#    y 0.000000 2.023340 0.000000 
#    z -0.001400 0.000000 1.863730 
# 
# From -- ./inp_files/164964.got.cif
#   From: 2010.05.17/outbox.cif.g08.bks.cpg/sg12_83_cif.got.tgz:164964.got - 2010.06.03 13:09:07.
