data_PCOD9180491
_publ_section_title
;
Structure prediction by ZEFSAII (Michael W. Deem and Ramdas Pophale) SiO2 
 PCOD9180491
Probable space group: C 2/M
;
_chemical_formula_sum "Si O2"
_cell_formula_units_Z 48
_cell_length_a 20.429150
_cell_length_b 7.467528
_cell_length_c 21.300325
_cell_angle_alpha 90.000000
_cell_angle_beta 131.775097
_cell_angle_gamma 90.000000
_cell_volume 2423.347815
_symmetry_space_group_name_H-M "C 2/M"
_symmetry_group_IT_number 12
_symmetry_cell_setting 'monoclinic'
loop_
_space_group_symop_operation_xyz
x,y,z
-x,y,-z
-x,-y,-z
x,-y,z
1/2+x,1/2+y,z
1/2-x,1/2+y,-z
1/2-x,1/2-y,-z
1/2+x,1/2-y,z
loop_
_atom_site_type_symbol
_atom_site_label
_atom_site_fract_x
_atom_site_fract_y
_atom_site_fract_z
Si Si1 0.012955 0.281491 0.219072
Si Si2 0.401874 0.708149 0.932438
Si Si3 0.724207 0.219591 0.577257
Si Si4 0.103981 0.293673 0.396265
Si Si5 0.683696 0.707286 0.244695
Si Si6 0.845528 0.712275 0.034249
O O1 0.016185 0.500000 0.221887
O O2 0.031599 0.217893 0.302232
O O3 0.092713 0.218255 0.225845
O O4 0.922173 0.222971 0.129911
O O5 0.414588 0.500000 0.921893
O O6 0.340735 0.787172 0.838528
O O7 0.500000 0.787635 0.000000
O O8 0.359198 0.713709 0.973344
O O9 0.807687 0.285101 0.590032
O O10 0.637399 0.280230 0.484332
O O11 0.743142 0.280421 0.660405
O O12 0.726531 0.000000 0.577128
O O13 0.079983 0.500000 0.392375
O O14 0.708716 0.500000 0.251113
O O15 0.857003 0.500000 0.036149
O O16 0.750000 0.750000 0.000000
#
# Coordination Sequence:
#
# PCOD9180491 Si02
#       6
#     8   8   8   8   8   8
#     4   9  17  28  43  64  89 119 152 188 229 272
#     4  10  19  32  50  71  96 126 157 191 232 276
#     4   8  13  21  35  58  87 116 144 176 216 264
#     4   8  13  22  36  56  85 116 144 177 220 266
#     4   9  16  26  43  67  93 121 151 183 222 269
#     4  11  23  36  50  68  93 124 160 199 237 278
#
# _framework density 19.807309
#
# number of rings (size 3 to 8) (size 9 to 14) (size 15 to 20)
#    0.000    2.833    1.667    0.500    0.000    1.667 
#    0.000    0.000    0.000    0.000    0.000    1.167 
#    0.000    9.333    0.000    0.000    0.000    0.000 
#
# Total GULP energy -133608.792893 kJ/mol
# GULP energy per Si atom -5567.033037 kJ/mol
# Density = 1.976223 g / cm^3
# Si number density = 19.807309 Si / 1000 Ang^3
#
#
#
# Elastic Constant Matrix: (Units=GPa)
#
#
# Indices 1 2 3 4 5 6 
#
# 1 45.6620 -12.5616 43.7054 0.0000 -9.3104 0.0000
# 2 -12.5616 63.9204 -0.5340 0.0000 -2.7110 0.0000
# 3 43.7054 -0.5340 249.4645 0.0000 -32.3365 0.0000
# 4 0.0000 0.0000 0.0000 -12.7704 0.0000 -5.7486
# 5 -9.3104 -2.7110 -32.3365 0.0000 16.3824 0.0000
# 6 0.0000 0.0000 0.0000 -5.7486 0.0000 11.1709
#
#
#
# Elastic Compliance Matrix: (Units=1/GPa)
#
#
# Indices 1 2 3 4 5 6 
#
# 1 0.029308 0.006159 -0.003803 0.000000 0.010168 0.000000
# 2 0.006159 0.017096 -0.000298 0.000000 0.005740 0.000000
# 3 -0.003803 -0.000298 0.005896 0.000000 0.009428 0.000000
# 4 0.000000 0.000000 0.000000 -0.063578 0.000000 -0.032718
# 5 0.010168 0.005740 0.009428 0.000000 0.086378 0.000000
# 6 0.000000 0.000000 0.000000 -0.032718 0.000000 0.072681
#
#
# Mechanical properties :
#
#
# Convention : Reuss Voigt Hill
#
# Bulk Modulus (GPa) = 17.72585 46.69627 32.21106
# Shear Modulus (GPa) = 30.77449 24.85240 27.81344
#
# Velocity S-wave (km/s) = 3.94597 3.54603 3.75133
# Velocity P-wave (km/s) = 5.45247 6.35549 5.92122
#
# Compressibility (1/GPa) = 0.05641478
#
# Stress axis : x y z
#
# Youngs Moduli (GPa) = 34.12021 58.49387 169.59668
#
# Poissons Ratio (x) = -0.36027 0.64506
# Poissons Ratio (y) = -0.21015 0.05060
# Poissons Ratio (z) = 0.12978 0.01745
#
# Static dielectric constant tensor:
#      x y z
#    x 1.162740 0.000000 0.048710 
#    y 0.000000 1.641710 0.000000 
#    z 0.048710 0.000000 1.806880 
# 
# From -- ./inp_files/248786.got.cif
#   From: 2010.05.17/outbox.cif.g08.bks.cpg/sg12_125_cif.got.tgz:248786.got - 2010.06.03 13:09:07.
