data_PCOD9180360
_publ_section_title
;
Structure prediction by ZEFSAII (Michael W. Deem and Ramdas Pophale) SiO2 
 PCOD9180360
Probable space group: C 2/M
;
_chemical_formula_sum "Si O2"
_cell_formula_units_Z 56
_cell_length_a 19.852321
_cell_length_b 7.484951
_cell_length_c 23.288470
_cell_angle_alpha 90.000000
_cell_angle_beta 125.583735
_cell_angle_gamma 90.000000
_cell_volume 2814.322180
_symmetry_space_group_name_H-M "C 2/M"
_symmetry_group_IT_number 12
_symmetry_cell_setting 'monoclinic'
loop_
_space_group_symop_operation_xyz
x,y,z
-x,y,-z
-x,-y,-z
x,-y,z
1/2+x,1/2+y,z
1/2-x,1/2+y,-z
1/2-x,1/2-y,-z
1/2+x,1/2-y,z
loop_
_atom_site_type_symbol
_atom_site_label
_atom_site_fract_x
_atom_site_fract_y
_atom_site_fract_z
Si Si1 0.559068 0.293245 0.353853
Si Si2 0.791313 0.287675 0.082146
Si Si3 0.523494 0.706267 0.797039
Si Si4 0.426506 0.281155 0.507423
Si Si5 0.242767 0.711678 0.428472
Si Si6 0.870491 0.782374 0.943523
Si Si7 0.985693 0.218562 0.899526
O O1 0.536368 0.500000 0.351513
O O2 0.498436 0.213516 0.275595
O O3 0.558901 0.219643 0.419017
O O4 0.651139 0.285817 0.371235
O O5 0.801423 0.500000 0.091858
O O6 0.880104 0.207139 0.138730
O O7 0.722363 0.223273 0.092747
O O8 0.750000 0.250000 0.000000
O O9 0.496110 0.500000 0.779858
O O10 0.480826 0.785770 0.832504
O O11 0.500000 0.226942 0.500000
O O12 0.425378 0.500000 0.506711
O O13 0.330918 0.225813 0.445701
O O14 0.238142 0.500000 0.416795
O O15 0.250000 0.750000 0.500000
O O16 0.912439 0.726025 0.905337
O O17 0.871118 0.000000 0.944810
O O18 0.929985 0.726994 0.025758
O O19 0.987006 0.000000 0.898721
#
# Coordination Sequence:
#
# PCOD9180360 Si02
#       7
#     8   8   8   8   8   8   8
#     4   9  18  31  48  70  96 127 161 196 234 279
#     4  11  20  31  48  70  94 122 159 199 240 287
#     4  10  19  32  49  69  94 124 159 199 243 283
#     4   8  14  27  48  72  95 124 160 189 221 275
#     4   9  16  28  49  72  94 122 157 193 226 270
#     4   8  14  25  44  66  84 110 153 194 228 275
#     4   8  13  25  45  65  84 112 152 192 228 275
#
# _framework density 19.898219000000001
#
# number of rings (size 3 to 8) (size 9 to 14) (size 15 to 20)
#    0.000    3.000    1.429    2.571    0.000    0.571 
#    0.000    1.429    0.000   13.286    0.000    0.000 
#    0.000    0.000    0.000    0.000    0.000    0.000 
#
# Total GULP energy -155892.777824 kJ/mol
# GULP energy per Si atom -5567.599208 kJ/mol
# Density = 1.985293 g / cm^3
# Si number density = 19.898219 Si / 1000 Ang^3
#
#
#
# Elastic Constant Matrix: (Units=GPa)
#
#
# Indices 1 2 3 4 5 6 
#
# 1 132.8521 -7.0368 48.8496 0.0000 -7.5428 0.0000
# 2 -7.0368 57.5270 -1.3159 0.0000 -6.2960 0.0000
# 3 48.8496 -1.3159 104.2705 0.0000 -6.6097 0.0000
# 4 0.0000 0.0000 0.0000 5.7665 0.0000 7.2295
# 5 -7.5428 -6.2960 -6.6097 0.0000 22.6303 0.0000
# 6 0.0000 0.0000 0.0000 7.2295 0.0000 13.3105
#
#
#
# Elastic Compliance Matrix: (Units=1/GPa)
#
#
# Indices 1 2 3 4 5 6 
#
# 1 0.009258 0.001280 -0.004180 0.000000 0.002221 0.000000
# 2 0.001280 0.018137 -0.000024 0.000000 0.005466 0.000000
# 3 -0.004180 -0.000024 0.011676 0.000000 0.002010 0.000000
# 4 0.000000 0.000000 0.000000 0.543509 0.000000 -0.295203
# 5 0.002221 0.005466 0.002010 0.000000 0.047037 0.000000
# 6 0.000000 0.000000 0.000000 -0.295203 0.000000 0.235466
#
#
# Mechanical properties :
#
#
# Convention : Reuss Voigt Hill
#
# Bulk Modulus (GPa) = 30.10053 41.73816 35.91934
# Shear Modulus (GPa) = 5.66889 25.28497 15.47693
#
# Velocity S-wave (km/s) = 1.68971 3.56858 2.79194
# Velocity P-wave (km/s) = 4.35510 6.16450 5.33704
#
# Compressibility (1/GPa) = 0.03322201
#
# Stress axis : x y z
#
# Youngs Moduli (GPa) = 108.01239 55.13490 85.64540
#
# Poissons Ratio (x) = -0.07057 0.35803
# Poissons Ratio (y) = -0.13825 0.00208
# Poissons Ratio (z) = 0.45154 0.00134
#
# Static dielectric constant tensor:
#      x y z
#    x 1.736600 0.000000 0.007390 
#    y 0.000000 1.740830 0.000000 
#    z 0.007390 0.000000 1.730570 
# 
# From -- ./inp_files/345642.got.cif
#   From: 2010.05.17/outbox.cif.g08.bks.cpg/sg12_173_cif.got.tgz:345642.got - 2010.06.03 13:09:07.
