data_PCOD9180548
_publ_section_title
;
Structure prediction by ZEFSAII (Michael W. Deem and Ramdas Pophale) SiO2 
 PCOD9180548
Probable space group: C 2/M
;
_chemical_formula_sum "Si O2"
_cell_formula_units_Z 56
_cell_length_a 19.700674
_cell_length_b 7.562797
_cell_length_c 25.743616
_cell_angle_alpha 90.000000
_cell_angle_beta 40.818504
_cell_angle_gamma 90.000000
_cell_volume 2507.196302
_symmetry_space_group_name_H-M "C 2/M"
_symmetry_group_IT_number 12
_symmetry_cell_setting 'monoclinic'
loop_
_space_group_symop_operation_xyz
x,y,z
-x,y,-z
-x,-y,-z
x,-y,z
1/2+x,1/2+y,z
1/2-x,1/2+y,-z
1/2-x,1/2-y,-z
1/2+x,1/2-y,z
loop_
_atom_site_type_symbol
_atom_site_label
_atom_site_fract_x
_atom_site_fract_y
_atom_site_fract_z
Si Si1 0.980446 0.792761 0.689040
Si Si2 0.248286 0.799519 0.838693
Si Si3 0.381510 0.215362 0.576188
Si Si4 0.339995 0.209380 0.488463
Si Si5 0.706966 0.717743 0.752759
Si Si6 0.689231 0.788482 0.087650
Si Si7 0.046950 0.796428 0.759485
O O1 0.870177 0.698238 0.751878
O O2 0.051790 0.776129 0.597662
O O3 0.044409 0.722908 0.702305
O O4 0.958315 0.000000 0.710998
O O5 0.194336 0.718697 0.819204
O O6 0.251674 0.721036 0.894648
O O7 0.208795 0.000000 0.867057
O O8 0.500000 0.273720 0.500000
O O9 0.322688 0.270668 0.557342
O O10 0.316588 0.273126 0.663718
O O11 0.383493 0.000000 0.577754
O O12 0.250000 0.250000 0.500000
O O13 0.349448 0.000000 0.486018
O O14 0.705533 0.500000 0.756056
O O15 0.619414 0.777595 0.762715
O O16 0.573282 0.711545 0.153927
O O17 0.677906 0.000000 0.100276
O O18 0.750000 0.750000 0.000000
O O19 0.081905 0.000000 0.733437
#
# Coordination Sequence:
#
# PCOD9180548 Si02
#       7
#     8   8   8   8   8   8   8
#     4  10  19  32  50  72  99 132 170 209 252 303
#     4   9  18  33  55  79  99 126 166 207 245 291
#     4   9  17  29  48  73  99 132 174 216 256 296
#     4  11  21  32  48  70  97 130 170 216 261 303
#     4   9  16  30  52  76 101 130 171 218 256 294
#     4  10  20  35  56  81 106 131 162 200 247 304
#     4   9  18  33  54  77 102 135 172 210 252 298
#
# _framework density 22.335706999999999
#
# number of rings (size 3 to 8) (size 9 to 14) (size 15 to 20)
#    0.000    2.429    0.000    3.000    0.000    5.714 
#    0.000    1.429    0.000   13.714    0.000    0.000 
#    0.000    0.000    0.000    0.000    0.000    0.000 
#
# Total GULP energy -156291.544683 kJ/mol
# GULP energy per Si atom -5581.840882 kJ/mol
# Density = 2.228487 g / cm^3
# Si number density = 22.335707 Si / 1000 Ang^3
#
#
#
# Elastic Constant Matrix: (Units=GPa)
#
#
# Indices 1 2 3 4 5 6 
#
# 1 116.1683 -2.0596 16.4432 -0.0001 32.4541 0.0010
# 2 -2.0596 61.2218 -10.3751 0.0005 2.4632 0.0036
# 3 16.4432 -10.3751 85.7709 0.0000 34.6409 -0.0004
# 4 -0.0001 0.0005 0.0000 13.5271 -0.0002 -4.1020
# 5 32.4541 2.4632 34.6409 -0.0002 33.8183 -0.0001
# 6 0.0010 0.0036 -0.0004 -4.1020 -0.0001 12.2538
#
#
#
# Elastic Compliance Matrix: (Units=1/GPa)
#
#
# Indices 1 2 3 4 5 6 
#
# 1 0.012806 0.001937 0.004775 -0.000001 -0.017321 -0.000002
# 2 0.001937 0.017614 0.005165 -0.000003 -0.008432 -0.000006
# 3 0.004775 0.005165 0.022806 -0.000001 -0.028319 -0.000002
# 4 -0.000001 -0.000003 -0.000001 0.082278 0.000003 0.027543
# 5 -0.017321 -0.008432 -0.028319 0.000003 0.075815 0.000004
# 6 -0.000002 -0.000006 -0.000002 0.027543 0.000004 0.090827
#
#
# Mechanical properties :
#
#
# Convention : Reuss Voigt Hill
#
# Bulk Modulus (GPa) = 12.99060 30.13089 21.56075
# Shear Modulus (GPa) = 16.44461 29.19668 22.82065
#
# Velocity S-wave (km/s) = 2.71633 3.61941 3.19989
# Velocity P-wave (km/s) = 3.95811 5.56652 4.82974
#
# Compressibility (1/GPa) = 0.07697875
#
# Stress axis : x y z
#
# Youngs Moduli (GPa) = 78.08981 56.77384 43.84873
#
# Poissons Ratio (x) = -0.10997 -0.20938
# Poissons Ratio (y) = -0.15125 -0.22647
# Poissons Ratio (z) = -0.37288 -0.29323
#
# Static dielectric constant tensor:
#      x y z
#    x 1.877160 0.000000 0.035880 
#    y 0.000000 1.878970 0.000000 
#    z 0.035880 0.000000 1.767020 
# 
# From -- ./inp_files/342202.got.cif
#   From: 2010.05.17/outbox.cif.g08.bks.cpg/sg12_172_cif.got.tgz:342202.got - 2010.06.03 13:09:07.
