data_PCOD9180632
_publ_section_title
;
Structure prediction by ZEFSAII (Michael W. Deem and Ramdas Pophale) SiO2 
 PCOD9180632
Probable space group: C 2/M
;
_chemical_formula_sum "Si O2"
_cell_formula_units_Z 64
_cell_length_a 18.088933
_cell_length_b 11.768536
_cell_length_c 17.233666
_cell_angle_alpha 90.000000
_cell_angle_beta 52.983095
_cell_angle_gamma 90.000000
_cell_volume 2929.308355
_symmetry_space_group_name_H-M "C 2/M"
_symmetry_group_IT_number 12
_symmetry_cell_setting 'monoclinic'
loop_
_space_group_symop_operation_xyz
x,y,z
-x,y,-z
-x,-y,-z
x,-y,z
1/2+x,1/2+y,z
1/2-x,1/2+y,-z
1/2-x,1/2-y,-z
1/2+x,1/2-y,z
loop_
_atom_site_type_symbol
_atom_site_label
_atom_site_fract_x
_atom_site_fract_y
_atom_site_fract_z
Si Si1 0.438430 0.870946 0.910543
Si Si2 0.441611 0.757640 0.748641
Si Si3 0.368727 0.301740 0.340212
Si Si4 0.164953 0.371989 0.504247
Si Si5 0.911251 0.870061 0.983036
Si Si6 0.780593 0.876639 0.918123
Si Si7 0.888113 0.631617 0.631393
Si Si8 0.827193 0.128230 0.206336
O O1 0.466515 0.747311 0.929600
O O2 0.328832 0.869086 0.001149
O O3 0.471944 0.000000 0.910993
O O4 0.453044 0.852443 0.809041
O O5 0.523791 0.666391 0.713145
O O6 0.339235 0.709649 0.829984
O O7 0.446186 0.802021 0.658509
O O8 0.276926 0.371694 0.421610
O O9 0.357844 0.194163 0.403410
O O10 0.356363 0.286858 0.256137
O O11 0.133194 0.500000 0.531424
O O12 0.121525 0.324874 0.451019
O O13 0.871770 0.859352 0.094277
O O14 0.951979 0.000000 0.950632
O O15 0.828666 0.871172 0.972227
O O16 0.799505 0.000000 0.871704
O O17 0.916765 0.500000 0.610485
O O18 0.783180 0.633151 0.729606
O O19 0.848947 0.000000 0.221893
#
# Coordination Sequence:
#
# PCOD9180632 Si02
#       8
#     8   8   8   8   8   8   8   8
#     4  10  19  32  50  76 117 160 191 228 289 354
#     4  11  20  31  53  85 116 143 185 242 289 339
#     4  10  21  35  55  83 111 141 180 232 296 353
#     4   9  20  40  60  78 106 146 187 231 290 359
#     4   9  16  29  51  76 102 140 193 240 273 319
#     4   9  18  31  48  74 112 156 191 225 280 345
#     4   9  17  31  55  83 107 135 178 233 288 341
#     4   9  17  33  58  83 108 144 192 238 280 335
#
# _framework density 21.848161999999999
#
# number of rings (size 3 to 8) (size 9 to 14) (size 15 to 20)
#    0.000    2.500    0.000    4.500    0.000    4.500 
#    0.000    4.375    0.000   16.500    0.000   14.875 
#    0.000    0.000    0.000    0.000    0.000    0.000 
#
# Total GULP energy -178279.381590 kJ/mol
# GULP energy per Si atom -5571.230675 kJ/mol
# Density = 2.179843 g / cm^3
# Si number density = 21.848162 Si / 1000 Ang^3
#
#
#
# Elastic Constant Matrix: (Units=GPa)
#
#
# Indices 1 2 3 4 5 6 
#
# 1 83.1401 15.7116 37.7669 0.0000 3.3152 0.0000
# 2 15.7116 105.7229 50.3706 0.0000 19.8751 0.0000
# 3 37.7669 50.3706 124.6032 0.0000 8.5004 0.0000
# 4 0.0000 0.0000 0.0000 13.2582 0.0000 17.0135
# 5 3.3152 19.8751 8.5004 0.0000 40.1771 0.0000
# 6 0.0000 0.0000 0.0000 17.0135 0.0000 -27.7513
#
#
#
# Elastic Compliance Matrix: (Units=1/GPa)
#
#
# Indices 1 2 3 4 5 6 
#
# 1 0.013951 -0.000024 -0.004202 0.000000 -0.000250 0.000000
# 2 -0.000024 0.012733 -0.004779 0.000000 -0.005286 0.000000
# 3 -0.004202 -0.004779 0.011208 0.000000 0.000340 0.000000
# 4 0.000000 0.000000 0.000000 0.042214 0.000000 0.025880
# 5 -0.000250 -0.005286 0.000340 0.000000 0.027453 0.000000
# 6 0.000000 0.000000 0.000000 0.025880 0.000000 -0.020168
#
#
# Mechanical properties :
#
#
# Convention : Reuss Voigt Hill
#
# Bulk Modulus (GPa) = 50.29864 57.90714 54.10289
# Shear Modulus (GPa) = 44.63114 19.11127 31.87120
#
# Velocity S-wave (km/s) = 4.52462 2.96079 3.82351
# Velocity P-wave (km/s) = 7.09705 6.18468 6.65652
#
# Compressibility (1/GPa) = 0.01988125
#
# Stress axis : x y z
#
# Youngs Moduli (GPa) = 71.67899 78.53582 89.22344
#
# Poissons Ratio (x) = 0.00192 0.37488
# Poissons Ratio (y) = 0.00175 0.42643
# Poissons Ratio (z) = 0.30117 0.37535
#
# Static dielectric constant tensor:
#      x y z
#    x 1.837990 0.000000 -0.042630 
#    y 0.000000 1.861060 0.000000 
#    z -0.042630 0.000000 1.810170 
# 
# From -- ./inp_files/282854.got.cif
#   From: 2010.05.17/outbox.cif.g08.bks.cpg/sg12_142_cif.got.tgz:282854.got - 2010.06.03 13:09:07.
