data_PCOD9180996
_publ_section_title
;
Structure prediction by ZEFSAII (Michael W. Deem and Ramdas Pophale) SiO2 
 PCOD9180996
Probable space group: C 2/M
;
_chemical_formula_sum "Si O2"
_cell_formula_units_Z 48
_cell_length_a 8.881516
_cell_length_b 22.284120
_cell_length_c 12.371586
_cell_angle_alpha 90.000000
_cell_angle_beta 104.245595
_cell_angle_gamma 90.000000
_cell_volume 2373.251170
_symmetry_space_group_name_H-M "C 2/M"
_symmetry_group_IT_number 12
_symmetry_cell_setting 'monoclinic'
loop_
_space_group_symop_operation_xyz
x,y,z
-x,y,-z
-x,-y,-z
x,-y,z
1/2+x,1/2+y,z
1/2-x,1/2+y,-z
1/2-x,1/2-y,-z
1/2+x,1/2-y,z
loop_
_atom_site_type_symbol
_atom_site_label
_atom_site_fract_x
_atom_site_fract_y
_atom_site_fract_z
Si Si1 0.887724 0.431563 0.180931
Si Si2 0.156603 0.782296 0.579414
Si Si3 0.004844 0.745314 0.119441
Si Si4 0.796977 0.633495 0.786559
Si Si5 0.722617 0.190215 0.762013
Si Si6 0.645107 0.429600 0.949440
O O1 0.860551 0.500000 0.210465
O O2 0.811230 0.379770 0.240692
O O3 0.070503 0.416527 0.209160
O O4 0.801349 0.424288 0.049844
O O5 0.250000 0.750000 0.500000
O O6 0.238607 0.833517 0.667084
O O7 0.128245 0.726208 0.655050
O O8 0.000000 0.806799 0.500000
O O9 0.110966 0.685938 0.134819
O O10 0.098043 0.791133 0.212636
O O11 0.845761 0.720548 0.140550
O O12 0.000000 0.771783 0.000000
O O13 0.668064 0.607716 0.844418
O O14 0.624090 0.500000 0.919425
O O15 0.500000 0.412180 0.000000
#
# Coordination Sequence:
#
# PCOD9180996 Si02
#       6
#     8   8   8   8   8   8
#     4  10  20  36  59  86 121 160 190 224 280 358
#     4  11  23  41  61  84 113 149 198 258 309 343
#     4  10  19  32  51  83 119 147 177 227 287 347
#     4  10  20  36  59  84 111 154 201 236 288 353
#     4  10  21  35  55  84 112 147 192 232 285 349
#     4  10  21  35  55  88 126 159 191 231 283 351
#
# _framework density 20.225418999999999
#
# number of rings (size 3 to 8) (size 9 to 14) (size 15 to 20)
#    0.000    1.833    0.000    6.500    0.000    7.333 
#    0.000    0.000    0.000    7.500    0.000    0.000 
#    0.000    0.000    0.000    0.000    0.000    0.000 
#
# Total GULP energy -133960.482647 kJ/mol
# GULP energy per Si atom -5581.686777 kJ/mol
# Density = 2.017939 g / cm^3
# Si number density = 20.225419 Si / 1000 Ang^3
#
#
#
# Elastic Constant Matrix: (Units=GPa)
#
#
# Indices 1 2 3 4 5 6 
#
# 1 85.9068 41.0924 35.7558 0.0000 4.5507 0.0000
# 2 41.0924 121.5024 31.3073 0.0000 -3.3418 0.0000
# 3 35.7558 31.3073 93.6812 0.0000 2.2559 0.0000
# 4 0.0000 0.0000 0.0000 29.1863 0.0000 -3.4517
# 5 4.5507 -3.3418 2.2559 0.0000 28.8353 0.0000
# 6 0.0000 0.0000 0.0000 -3.4517 0.0000 32.3293
#
#
#
# Elastic Compliance Matrix: (Units=1/GPa)
#
#
# Indices 1 2 3 4 5 6 
#
# 1 0.015670 -0.004209 -0.004511 0.000000 -0.002608 0.000000
# 2 -0.004209 0.010184 -0.001845 0.000000 0.001989 0.000000
# 3 -0.004511 -0.001845 0.013025 0.000000 -0.000521 0.000000
# 4 0.000000 0.000000 0.000000 0.034701 0.000000 0.003705
# 5 -0.002608 0.001989 -0.000521 0.000000 0.035363 0.000000
# 6 0.000000 0.000000 0.000000 0.003705 0.000000 0.031327
#
#
# Mechanical properties :
#
#
# Convention : Reuss Voigt Hill
#
# Bulk Modulus (GPa) = 56.34161 57.48903 56.91532
# Shear Modulus (GPa) = 29.88366 30.93250 30.40808
#
# Velocity S-wave (km/s) = 3.84803 3.91498 3.88165
# Velocity P-wave (km/s) = 6.90366 6.99442 6.94919
#
# Compressibility (1/GPa) = 0.01774887
#
# Stress axis : x y z
#
# Youngs Moduli (GPa) = 63.81792 98.19556 76.77284
#
# Poissons Ratio (x) = 0.41328 0.34635
# Poissons Ratio (y) = 0.26860 0.14163
# Poissons Ratio (z) = 0.28791 0.18115
#
# Static dielectric constant tensor:
#      x y z
#    x 1.847530 0.000000 -0.025240 
#    y 0.000000 1.723490 0.000000 
#    z -0.025240 0.000000 1.743530 
# 
# From -- ./inp_files/122025.got.cif
#   From: 2010.05.17/outbox.cif.g08.bks.cpg/sg12_62_cif.got.tgz:122025.got - 2010.06.03 13:09:07.
