data_PCOD9180272
_publ_section_title
;
Structure prediction by ZEFSAII (Michael W. Deem and Ramdas Pophale) SiO2 
 PCOD9180272
Probable space group: C 2/M
;
_chemical_formula_sum "Si O2"
_cell_formula_units_Z 48
_cell_length_a 23.127083
_cell_length_b 7.758910
_cell_length_c 18.026627
_cell_angle_alpha 90.000000
_cell_angle_beta 118.870031
_cell_angle_gamma 90.000000
_cell_volume 2832.695689
_symmetry_space_group_name_H-M "C 2/M"
_symmetry_group_IT_number 12
_symmetry_cell_setting 'monoclinic'
loop_
_space_group_symop_operation_xyz
x,y,z
-x,y,-z
-x,-y,-z
x,-y,z
1/2+x,1/2+y,z
1/2-x,1/2+y,-z
1/2-x,1/2-y,-z
1/2+x,1/2-y,z
loop_
_atom_site_type_symbol
_atom_site_label
_atom_site_fract_x
_atom_site_fract_y
_atom_site_fract_z
Si Si1 0.472259 0.198990 0.368995
Si Si2 0.399215 0.300621 0.467120
Si Si3 0.600304 0.500000 0.111587
Si Si4 0.255235 0.293311 0.416935
Si Si5 0.015735 0.296009 0.793163
Si Si6 0.633173 0.795725 0.239800
Si Si7 0.949472 0.000000 0.078496
O O1 0.425814 0.291810 0.399639
O O2 0.546308 0.210670 0.447756
O O3 0.471676 0.258509 0.283936
O O4 0.452177 0.000000 0.357114
O O5 0.398899 0.500000 0.490472
O O6 0.325739 0.228951 0.430579
O O7 0.631197 0.671079 0.167497
O O8 0.523918 0.500000 0.091375
O O9 0.598728 0.500000 0.021778
O O10 0.255444 0.500000 0.410092
O O11 0.250000 0.250000 0.500000
O O12 0.191974 0.236515 0.330501
O O13 0.031417 0.500000 0.811409
O O14 0.937569 0.277990 0.762892
O O15 0.053931 0.170457 0.872823
O O16 0.640826 0.000000 0.226664
#
# Coordination Sequence:
#
# PCOD9180272 Si02
#       7
#     8   8   4   8   8   8   4
#     4  10  19  32  47  67  98 130 164 202 244 290
#     4  10  20  31  46  69  96 130 169 201 241 284
#     4   9  18  32  48  76  96 131 160 192 249 303
#     4  10  21  33  47  70  99 131 169 202 236 283
#     4   9  18  30  49  73  98 129 161 197 251 293
#     4   9  18  33  48  69 102 131 162 200 240 292
#     4   9  18  30  50  73 104 120 158 203 243 305
#
# _framework density 16.944990000000001
#
# number of rings (size 3 to 8) (size 9 to 14) (size 15 to 20)
#    0.000    2.500    0.000    3.000    3.500    3.333 
#    0.000    3.333    0.000    0.000    0.000    1.167 
#    0.000    0.000    0.000    0.000    0.000    0.000 
#
# Total GULP energy -133772.671564 kJ/mol
# GULP energy per Si atom -5573.861315 kJ/mol
# Density = 1.690642 g / cm^3
# Si number density = 16.944990 Si / 1000 Ang^3
#
#
#
# Elastic Constant Matrix: (Units=GPa)
#
#
# Indices 1 2 3 4 5 6 
#
# 1 53.9443 20.4071 46.2716 0.0000 -0.8724 0.0000
# 2 20.4071 52.3626 47.2264 0.0000 -3.2765 0.0000
# 3 46.2716 47.2264 158.1949 0.0000 -10.3734 0.0000
# 4 0.0000 0.0000 0.0000 27.3266 0.0000 -1.8838
# 5 -0.8724 -3.2765 -10.3734 0.0000 20.2734 0.0000
# 6 0.0000 0.0000 0.0000 -1.8838 0.0000 11.1218
#
#
#
# Elastic Compliance Matrix: (Units=1/GPa)
#
#
# Indices 1 2 3 4 5 6 
#
# 1 0.025622 -0.004429 -0.006360 0.000000 -0.002868 0.000000
# 2 -0.004429 0.026901 -0.006687 0.000000 0.000735 0.000000
# 3 -0.006360 -0.006687 0.010440 0.000000 0.003987 0.000000
# 4 0.000000 0.000000 0.000000 0.037027 0.000000 0.006272
# 5 -0.002868 0.000735 0.003987 0.000000 0.051361 0.000000
# 6 0.000000 0.000000 0.000000 0.006272 0.000000 0.090976
#
#
# Mechanical properties :
#
#
# Convention : Reuss Voigt Hill
#
# Bulk Modulus (GPa) = 35.70123 54.70134 45.20128
# Shear Modulus (GPa) = 17.44496 21.78415 19.61455
#
# Velocity S-wave (km/s) = 3.21207 3.58939 3.40596
# Velocity P-wave (km/s) = 5.90518 7.03776 6.49620
#
# Compressibility (1/GPa) = 0.02801024
#
# Stress axis : x y z
#
# Youngs Moduli (GPa) = 39.02835 37.17350 95.78961
#
# Poissons Ratio (x) = 0.16463 0.60926
# Poissons Ratio (y) = 0.17284 0.64057
# Poissons Ratio (z) = 0.24824 0.24859
#
# Static dielectric constant tensor:
#      x y z
#    x 1.575170 0.000000 -0.001630 
#    y 0.000000 1.592420 0.000000 
#    z -0.001630 0.000000 1.558330 
# 
# From -- ./inp_files/230475.got.cif
#   From: 2010.05.17/outbox.cif.g08.bks.cpg/sg12_116_cif.got.tgz:230475.got - 2010.06.03 13:09:07.
