data_PCOD9180165
_publ_section_title
;
Structure prediction by ZEFSAII (Michael W. Deem and Ramdas Pophale) SiO2 
 PCOD9180165
Probable space group: C 2/M
;
_chemical_formula_sum "Si O2"
_cell_formula_units_Z 56
_cell_length_a 28.745730
_cell_length_b 9.101973
_cell_length_c 18.062406
_cell_angle_alpha 90.000000
_cell_angle_beta 43.431189
_cell_angle_gamma 90.000000
_cell_volume 3248.975213
_symmetry_space_group_name_H-M "C 2/M"
_symmetry_group_IT_number 12
_symmetry_cell_setting 'monoclinic'
loop_
_space_group_symop_operation_xyz
x,y,z
-x,y,-z
-x,-y,-z
x,-y,z
1/2+x,1/2+y,z
1/2-x,1/2+y,-z
1/2-x,1/2-y,-z
1/2+x,1/2-y,z
loop_
_atom_site_type_symbol
_atom_site_label
_atom_site_fract_x
_atom_site_fract_y
_atom_site_fract_z
Si Si1 0.644621 0.324331 0.406417
Si Si2 0.316602 0.175804 0.076893
Si Si3 0.789262 0.175431 0.258969
Si Si4 0.413625 0.175959 0.830181
Si Si5 0.339356 0.325210 0.779462
Si Si6 0.057739 0.823603 0.647101
Si Si7 0.317905 0.676252 0.390846
O O1 0.658085 0.500000 0.395937
O O2 0.713306 0.240930 0.348619
O O3 0.630040 0.292413 0.337247
O O4 0.585930 0.289319 0.532321
O O5 0.324091 0.255537 0.146664
O O6 0.240713 0.208167 0.134866
O O7 0.319419 0.000000 0.085162
O O8 0.371272 0.218320 0.952362
O O9 0.824196 0.211927 0.296683
O O10 0.785958 0.000000 0.255447
O O11 0.374328 0.236837 0.804096
O O12 0.488215 0.243257 0.744187
O O13 0.416314 0.000000 0.824215
O O14 0.346732 0.500000 0.784433
O O15 0.117166 0.781520 0.635664
O O16 0.048076 0.000000 0.662615
O O17 0.310378 0.500000 0.406305
O O18 0.250000 0.750000 0.500000
#
# Coordination Sequence:
#
# PCOD9180165 Si02
#       7
#     8   8   8   8   8   8   8
#     4   9  18  34  55  79 108 144 179 212 260 325
#     4   9  20  38  57  77 105 143 183 218 263 324
#     4  10  19  31  54  87 111 131 172 227 271 306
#     4  11  23  37  53  77 108 142 182 227 269 310
#     4   9  18  34  57  80 102 136 182 222 264 321
#     4  10  21  37  55  76 109 149 181 211 260 324
#     4  10  20  34  56  84 110 139 176 216 263 318
#
# _framework density 17.236204000000001
#
# number of rings (size 3 to 8) (size 9 to 14) (size 15 to 20)
#    0.000    2.286    1.429    2.143    0.000    5.714 
#    0.000    3.571    0.000    4.286    0.000    0.000 
#    0.000    0.000    0.000    0.000    0.000    0.000 
#
# Total GULP energy -156248.485591 kJ/mol
# GULP energy per Si atom -5580.303057 kJ/mol
# Density = 1.719697 g / cm^3
# Si number density = 17.236204 Si / 1000 Ang^3
#
#
#
# Elastic Constant Matrix: (Units=GPa)
#
#
# Indices 1 2 3 4 5 6 
#
# 1 73.0156 44.3099 125.7309 0.0308 25.3812 -0.0146
# 2 44.3099 33.1585 63.5296 0.0133 8.6051 -0.0069
# 3 125.7309 63.5296 155.4119 -0.0087 10.3247 0.0019
# 4 0.0308 0.0133 -0.0087 31.1328 -0.0099 -0.3990
# 5 25.3812 8.6051 10.3247 -0.0099 17.4412 0.0044
# 6 -0.0146 -0.0069 0.0019 -0.3990 0.0044 25.7952
#
#
#
# Elastic Compliance Matrix: (Units=1/GPa)
#
#
# Indices 1 2 3 4 5 6 
#
# 1 -0.014692 -0.028071 0.021882 0.000040 0.022278 -0.000021
# 2 -0.028071 0.111891 -0.022979 -0.000027 -0.000751 0.000016
# 3 0.021882 -0.022979 -0.000533 -0.000018 -0.020190 0.000009
# 4 0.000040 -0.000027 -0.000018 0.032127 -0.000015 0.000497
# 5 0.022278 -0.000751 -0.020190 -0.000015 0.037239 0.000007
# 6 -0.000021 0.000016 0.000009 0.000497 0.000007 0.038775
#
#
# Mechanical properties :
#
#
# Convention : Reuss Voigt Hill
#
# Bulk Modulus (GPa) = 26.09073 80.96964 53.53019
# Shear Modulus (GPa) = 18.12127 16.74155 17.43141
#
# Velocity S-wave (km/s) = 3.24597 3.11995 3.18358
# Velocity P-wave (km/s) = 5.40541 7.74966 6.68116
#
# Compressibility (1/GPa) = 0.03832778
#
# Stress axis : x y z
#
# Youngs Moduli (GPa) = -68.06201 8.93726 -1875.11397
#
# Poissons Ratio (x) = 0.25088 41.03033
# Poissons Ratio (y) = -1.91059 -43.08826
# Poissons Ratio (z) = 1.48930 0.20537
#
# Static dielectric constant tensor:
#      x y z
#    x 1.570230 0.000000 0.021180 
#    y 0.000000 1.572630 0.000000 
#    z 0.021180 0.000000 1.575170 
# 
# From -- ./inp_files/288262.got.cif
#   From: 2010.05.17/outbox.cif.g08.bks.cpg/sg12_145_cif.got.tgz:288262.got - 2010.06.03 13:09:07.
