data_PCOD9180759
_publ_section_title
;
Structure prediction by ZEFSAII (Michael W. Deem and Ramdas Pophale) SiO2 
 PCOD9180759
Probable space group: C 2/M
;
_chemical_formula_sum "Si O2"
_cell_formula_units_Z 60
_cell_length_a 25.463174
_cell_length_b 21.164042
_cell_length_c 7.986871
_cell_angle_alpha 90.000000
_cell_angle_beta 32.395608
_cell_angle_gamma 90.000000
_cell_volume 2306.002573
_symmetry_space_group_name_H-M "C 2/M"
_symmetry_group_IT_number 12
_symmetry_cell_setting 'monoclinic'
loop_
_space_group_symop_operation_xyz
x,y,z
-x,y,-z
-x,-y,-z
x,-y,z
1/2+x,1/2+y,z
1/2-x,1/2+y,-z
1/2-x,1/2-y,-z
1/2+x,1/2-y,z
loop_
_atom_site_type_symbol
_atom_site_label
_atom_site_fract_x
_atom_site_fract_y
_atom_site_fract_z
Si Si1 0.926203 0.382933 0.037244
Si Si2 0.239717 0.432655 0.148513
Si Si3 0.366652 0.742799 0.183238
Si Si4 0.000000 0.593406 0.500000
Si Si5 0.838096 0.319643 0.802720
Si Si6 0.381374 0.432102 0.456974
Si Si7 0.881802 0.797651 0.510021
Si Si8 0.188669 0.893813 0.724506
O O1 0.919323 0.308547 0.996381
O O2 0.809517 0.396193 0.379329
O O3 0.971259 0.427318 0.767585
O O4 0.000000 0.387337 0.000000
O O5 0.184829 0.500000 0.316197
O O6 0.189566 0.363002 0.283948
O O7 0.320985 0.430174 0.074821
O O8 0.289067 0.435177 0.832241
O O9 0.250000 0.750000 0.500000
O O10 0.400442 0.731305 0.281052
O O11 0.365694 0.673776 0.100035
O O12 0.096184 0.632971 0.275619
O O13 0.894962 0.254933 0.614608
O O14 0.736621 0.304871 0.165650
O O15 0.432260 0.500000 0.336180
O O16 0.429151 0.366497 0.388564
O O17 0.350580 0.420769 0.346626
#
# Coordination Sequence:
#
# PCOD9180759 Si02
#       8
#     8   8   8   4   8   8   8   8
#     4  11  22  33  49  74 105 137 170 211 255 300
#     4  10  19  32  51  74 102 134 169 212 254 294
#     4   9  16  29  47  71  97 126 164 205 249 296
#     4  12  22  34  51  74 105 138 170 212 256 296
#     4  10  19  32  51  75 102 133 171 207 249 302
#     4   9  18  31  50  78 105 129 164 209 255 301
#     4   9  17  31  52  74 100 132 165 206 252 299
#     4  10  19  33  53  72  97 134 173 209 250 300
#
# _framework density 26.01905
#
# number of rings (size 3 to 8) (size 9 to 14) (size 15 to 20)
#    0.000    2.133    0.000    6.800    0.000    2.133 
#    0.000    0.333    0.000   10.400    0.000    0.467 
#    0.000   54.933    0.000    5.067    0.000    0.000 
#
# Total GULP energy -167008.964769 kJ/mol
# GULP energy per Si atom -5566.965492 kJ/mol
# Density = 2.595983 g / cm^3
# Si number density = 26.019050 Si / 1000 Ang^3
#
#
#
# Elastic Constant Matrix: (Units=GPa)
#
#
# Indices 1 2 3 4 5 6 
#
# 1 80.0425 29.9948 36.3565 0.0000 13.1979 0.0000
# 2 29.9948 163.6274 21.2657 0.0000 15.3231 0.0000
# 3 36.3565 21.2657 70.0143 0.0000 -12.8011 0.0000
# 4 0.0000 0.0000 0.0000 192.9016 0.0000 30.2855
# 5 13.1979 15.3231 -12.8011 0.0000 45.5698 0.0000
# 6 0.0000 0.0000 0.0000 30.2855 0.0000 6.2728
#
#
#
# Elastic Compliance Matrix: (Units=1/GPa)
#
#
# Indices 1 2 3 4 5 6 
#
# 1 0.019469 -0.001327 -0.011233 0.000000 -0.008348 0.000000
# 2 -0.001327 0.006819 -0.001824 0.000000 -0.002421 0.000000
# 3 -0.011233 -0.001824 0.022534 0.000000 0.010197 0.000000
# 4 0.000000 0.000000 0.000000 0.021422 0.000000 -0.103426
# 5 -0.008348 -0.002421 0.010197 0.000000 0.028041 0.000000
# 6 0.000000 0.000000 0.000000 -0.103426 0.000000 0.658765
#
#
# Mechanical properties :
#
#
# Convention : Reuss Voigt Hill
#
# Bulk Modulus (GPa) = 49.86859 54.32425 52.09642
# Shear Modulus (GPa) = 6.30912 64.01997 35.16455
#
# Velocity S-wave (km/s) = 1.55887 4.96573 3.68025
# Velocity P-wave (km/s) = 4.73792 7.33498 6.17454
#
# Compressibility (1/GPa) = 0.02005270
#
# Stress axis : x y z
#
# Youngs Moduli (GPa) = 51.36247 146.65825 44.37676
#
# Poissons Ratio (x) = 0.19466 0.49849
# Poissons Ratio (y) = 0.06817 0.08096
# Poissons Ratio (z) = 0.57696 0.26756
#
# Static dielectric constant tensor:
#      x y z
#    x 2.161510 0.000000 -0.032330 
#    y 0.000000 2.260910 0.000000 
#    z -0.032330 0.000000 2.120900 
# 
# From -- ./inp_files/106782.got.cif
#   From: 2010.05.17/outbox.cif.g08.bks.cpg/sg12_54_cif.got.tgz:106782.got - 2010.06.03 13:09:07.
