data_PCOD9180319
_publ_section_title
;
Structure prediction by ZEFSAII (Michael W. Deem and Ramdas Pophale) SiO2 
 PCOD9180319
Probable space group: C 2/M
;
_chemical_formula_sum "Si O2"
_cell_formula_units_Z 56
_cell_length_a 32.464019
_cell_length_b 7.333644
_cell_length_c 12.448486
_cell_angle_alpha 90.000000
_cell_angle_beta 54.326850
_cell_angle_gamma 90.000000
_cell_volume 2407.606545
_symmetry_space_group_name_H-M "C 2/M"
_symmetry_group_IT_number 12
_symmetry_cell_setting 'monoclinic'
loop_
_space_group_symop_operation_xyz
x,y,z
-x,y,-z
-x,-y,-z
x,-y,z
1/2+x,1/2+y,z
1/2-x,1/2+y,-z
1/2-x,1/2-y,-z
1/2+x,1/2-y,z
loop_
_atom_site_type_symbol
_atom_site_label
_atom_site_fract_x
_atom_site_fract_y
_atom_site_fract_z
Si Si1 0.505101 0.222012 0.869629
Si Si2 0.604712 0.793718 0.345783
Si Si3 0.588611 0.776871 0.135993
Si Si4 0.814966 0.722568 0.148541
Si Si5 0.721358 0.715971 0.155756
Si Si6 0.896991 0.723142 0.413894
Si Si7 0.190593 0.716987 0.603531
O O1 0.457993 0.278436 0.867623
O O2 0.557490 0.275188 0.734015
O O3 0.504547 0.000000 0.872615
O O4 0.500000 0.283381 0.000000
O O5 0.585293 0.711983 0.263715
O O6 0.665870 0.800315 0.242277
O O7 0.594446 0.710949 0.477915
O O8 0.584212 0.000000 0.380351
O O9 0.589444 0.000000 0.137921
O O10 0.641197 0.720460 0.000161
O O11 0.814730 0.500000 0.148381
O O12 0.759878 0.780410 0.189648
O O13 0.825186 0.783938 0.254226
O O14 0.714104 0.500000 0.178882
O O15 0.750000 0.750000 0.000000
O O16 0.895801 0.500000 0.421778
O O17 0.844349 0.785135 0.440205
O O18 0.182932 0.500000 0.617390
O O19 0.250000 0.750000 0.500000
#
# Coordination Sequence:
#
# PCOD9180319 Si02
#       7
#     8   8   8   8   8   8   8
#     4   9  16  27  45  71 100 130 167 208 254 300
#     4  10  19  32  48  71 106 136 164 203 252 301
#     4   9  16  27  45  68  96 129 163 202 248 297
#     4   9  17  29  46  68  95 128 161 198 245 290
#     4  11  20  32  50  73 102 134 169 205 247 297
#     4   9  18  30  46  71 102 134 164 206 253 292
#     4  10  19  32  49  69  97 128 162 201 241 291
#
# _framework density 23.259613000000002
#
# number of rings (size 3 to 8) (size 9 to 14) (size 15 to 20)
#    0.000    2.429    1.429    2.143    0.000    4.000 
#    0.000    3.571    0.000    0.000    0.000    3.000 
#    0.000    4.000    0.000    0.000    0.000    0.000 
#
# Total GULP energy -156540.460652 kJ/mol
# GULP energy per Si atom -5590.730738 kJ/mol
# Density = 2.320667 g / cm^3
# Si number density = 23.259613 Si / 1000 Ang^3
#
#
#
# Elastic Constant Matrix: (Units=GPa)
#
#
# Indices 1 2 3 4 5 6 
#
# 1 170.9882 0.9360 77.6988 0.0000 33.9916 0.0000
# 2 0.9360 95.1420 -3.4980 0.0000 7.3896 0.0000
# 3 77.6988 -3.4980 167.9500 0.0000 40.0731 0.0000
# 4 0.0000 0.0000 0.0000 -3.3053 0.0000 -6.8163
# 5 33.9916 7.3896 40.0731 0.0000 46.7519 0.0000
# 6 0.0000 0.0000 0.0000 -6.8163 0.0000 3.6674
#
#
#
# Elastic Compliance Matrix: (Units=1/GPa)
#
#
# Indices 1 2 3 4 5 6 
#
# 1 0.007775 0.000072 -0.002821 0.000000 -0.003247 0.000000
# 2 0.000072 0.010724 0.000763 0.000000 -0.002401 0.000000
# 3 -0.002821 0.000763 0.008566 0.000000 -0.005412 0.000000
# 4 0.000000 0.000000 0.000000 -0.062601 0.000000 -0.116352
# 5 -0.003247 -0.002401 -0.005412 0.000000 0.028769 0.000000
# 6 0.000000 0.000000 0.000000 -0.116352 0.000000 0.056421
#
#
# Mechanical properties :
#
#
# Convention : Reuss Voigt Hill
#
# Bulk Modulus (GPa) = 43.30064 64.92820 54.11442
# Shear Modulus (GPa) = 81.53411 33.35235 57.44323
#
# Velocity S-wave (km/s) = 5.92706 3.79082 4.97495
# Velocity P-wave (km/s) = 8.09300 6.86553 7.50441
#
# Compressibility (1/GPa) = 0.02309435
#
# Stress axis : x y z
#
# Youngs Moduli (GPa) = 128.61389 93.24469 116.73404
#
# Poissons Ratio (x) = -0.00671 0.32930
# Poissons Ratio (y) = -0.00925 -0.08908
# Poissons Ratio (z) = 0.36281 -0.07115
#
# Static dielectric constant tensor:
#      x y z
#    x 1.865620 0.000000 0.020300 
#    y 0.000000 1.992360 0.000000 
#    z 0.020300 0.000000 1.829690 
# 
# From -- ./inp_files/173887.got.cif
#   From: 2010.05.17/outbox.cif.g08.bks.cpg/sg12_87_cif.got.tgz:173887.got - 2010.06.03 13:09:07.
