data_PCOD9180410
_publ_section_title
;
Structure prediction by ZEFSAII (Michael W. Deem and Ramdas Pophale) SiO2 
 PCOD9180410
Probable space group: C 2/M
;
_chemical_formula_sum "Si O2"
_cell_formula_units_Z 64
_cell_length_a 8.605442
_cell_length_b 33.666727
_cell_length_c 13.899755
_cell_angle_alpha 90.000000
_cell_angle_beta 112.549499
_cell_angle_gamma 90.000000
_cell_volume 3719.126662
_symmetry_space_group_name_H-M "C 2/M"
_symmetry_group_IT_number 12
_symmetry_cell_setting 'monoclinic'
loop_
_space_group_symop_operation_xyz
x,y,z
-x,y,-z
-x,-y,-z
x,-y,z
1/2+x,1/2+y,z
1/2-x,1/2+y,-z
1/2-x,1/2-y,-z
1/2+x,1/2-y,z
loop_
_atom_site_type_symbol
_atom_site_label
_atom_site_fract_x
_atom_site_fract_y
_atom_site_fract_z
Si Si1 0.591894 0.076137 0.380168
Si Si2 0.267570 0.708764 0.743108
Si Si3 0.662478 0.274453 0.592528
Si Si4 0.415799 0.670593 0.247836
Si Si5 0.182556 0.273016 0.076563
Si Si6 0.072232 0.910027 0.628408
Si Si7 0.258720 0.952866 0.380794
Si Si8 0.558491 0.830888 0.404223
O O1 0.747661 0.067739 0.344093
O O2 0.659904 0.059027 0.497229
O O3 0.396403 0.061749 0.333676
O O4 0.585451 0.123878 0.380240
O O5 0.272472 0.737723 0.652235
O O6 0.402425 0.674344 0.758741
O O7 0.313826 0.738380 0.840854
O O8 0.080517 0.690433 0.696405
O O9 0.500000 0.259459 0.500000
O O10 0.600610 0.297021 0.672059
O O11 0.770881 0.306199 0.561118
O O12 0.284990 0.688767 0.139194
O O13 0.395170 0.629388 0.299750
O O14 0.250000 0.250000 0.000000
O O15 0.000000 0.286503 0.000000
O O16 0.000000 0.902156 0.500000
O O17 0.926218 0.933346 0.652109
O O18 0.244006 0.000000 0.369453
O O19 0.500000 0.832266 0.500000
#
# Coordination Sequence:
#
# PCOD9180410 Si02
#       8
#     8   8   8   8   8   8   8   8
#     4  10  19  32  49  72 105 146 184 219 263 305
#     4  11  24  35  52  73  97 137 189 232 281 324
#     4  11  22  34  47  70 104 140 181 233 270 316
#     4  11  21  35  55  73 101 137 183 229 280 329
#     4  11  23  41  56  73  98 136 185 238 287 330
#     4  10  21  34  53  80 113 148 181 224 274 321
#     4  10  20  34  53  77 106 147 192 219 252 322
#     4  12  22  33  51  72 105 144 185 227 271 320
#
# _framework density 17.208341000000001
#
# number of rings (size 3 to 8) (size 9 to 14) (size 15 to 20)
#    0.000    1.250    3.750    4.500    5.250    4.250 
#    0.000    0.625    0.000    0.000    0.000    0.000 
#    0.000    0.500    0.000   14.500    0.000    1.250 
#
# Total GULP energy -178275.979056 kJ/mol
# GULP energy per Si atom -5571.124345 kJ/mol
# Density = 1.716917 g / cm^3
# Si number density = 17.208341 Si / 1000 Ang^3
#
#
#
# Elastic Constant Matrix: (Units=GPa)
#
#
# Indices 1 2 3 4 5 6 
#
# 1 133.8597 41.3991 28.7704 0.0000 11.1477 0.0000
# 2 41.3991 85.0221 21.4573 0.0000 3.8875 0.0000
# 3 28.7704 21.4573 59.8376 0.0000 6.5151 0.0000
# 4 0.0000 0.0000 0.0000 22.3510 0.0000 3.0191
# 5 11.1477 3.8875 6.5151 0.0000 14.0896 0.0000
# 6 0.0000 0.0000 0.0000 3.0191 0.0000 18.1040
#
#
#
# Elastic Compliance Matrix: (Units=1/GPa)
#
#
# Indices 1 2 3 4 5 6 
#
# 1 0.009667 -0.003778 -0.002710 0.000000 -0.005353 0.000000
# 2 -0.003778 0.014439 -0.003425 0.000000 0.000589 0.000000
# 3 -0.002710 -0.003425 0.019909 0.000000 -0.006117 0.000000
# 4 0.000000 0.000000 0.000000 0.045772 0.000000 -0.007633
# 5 -0.005353 0.000589 -0.006117 0.000000 0.077876 0.000000
# 6 0.000000 0.000000 0.000000 -0.007633 0.000000 0.056509
#
#
# Mechanical properties :
#
#
# Convention : Reuss Voigt Hill
#
# Bulk Modulus (GPa) = 41.34348 51.33033 46.33691
# Shear Modulus (GPa) = 19.83633 23.38176 21.60904
#
# Velocity S-wave (km/s) = 3.39885 3.69012 3.54747
# Velocity P-wave (km/s) = 6.28334 6.93177 6.61550
#
# Compressibility (1/GPa) = 0.02418761
#
# Stress axis : x y z
#
# Youngs Moduli (GPa) = 103.43998 69.25712 50.22783
#
# Poissons Ratio (x) = 0.26169 0.13614
# Poissons Ratio (y) = 0.39085 0.17204
# Poissons Ratio (z) = 0.28036 0.23721
#
# Static dielectric constant tensor:
#      x y z
#    x 1.622410 0.000000 -0.073270 
#    y 0.000000 1.571660 0.000000 
#    z -0.073270 0.000000 1.432700 
# 
# From -- ./inp_files/200944.got.cif
#   From: 2010.05.17/outbox.cif.g08.bks.cpg/sg12_101_cif.got.tgz:200944.got - 2010.06.03 13:09:07.
