data_PCOD9180592
_publ_section_title
;
Structure prediction by ZEFSAII (Michael W. Deem and Ramdas Pophale) SiO2 
 PCOD9180592
Probable space group: C 2/M
;
_chemical_formula_sum "Si O2"
_cell_formula_units_Z 40
_cell_length_a 24.882434
_cell_length_b 7.289732
_cell_length_c 8.287180
_cell_angle_alpha 90.000000
_cell_angle_beta 80.958006
_cell_angle_gamma 90.000000
_cell_volume 1484.501317
_symmetry_space_group_name_H-M "C 2/M"
_symmetry_group_IT_number 12
_symmetry_cell_setting 'monoclinic'
loop_
_space_group_symop_operation_xyz
x,y,z
-x,y,-z
-x,-y,-z
x,-y,z
1/2+x,1/2+y,z
1/2-x,1/2+y,-z
1/2-x,1/2-y,-z
1/2+x,1/2-y,z
loop_
_atom_site_type_symbol
_atom_site_label
_atom_site_fract_x
_atom_site_fract_y
_atom_site_fract_z
Si Si1 0.919543 0.778166 0.106370
Si Si2 0.684384 0.276704 0.673353
Si Si3 0.479749 0.723923 0.750820
Si Si4 0.283674 0.216986 0.820655
Si Si5 0.384411 0.291300 0.593627
O O1 0.857988 0.723465 0.165823
O O2 0.958655 0.721704 0.237142
O O3 0.920672 0.000000 0.103457
O O4 0.946956 0.720099 0.927711
O O5 0.687506 0.500000 0.666291
O O6 0.743911 0.212640 0.695658
O O7 0.653684 0.210394 0.527756
O O8 0.479566 0.500000 0.741759
O O9 0.442233 0.787593 0.621125
O O10 0.343624 0.297197 0.767056
O O11 0.290355 0.000000 0.803221
O O12 0.250000 0.250000 0.000000
O O13 0.395808 0.500000 0.535557
#
# Coordination Sequence:
#
# PCOD9180592 Si02
#       5
#     8   8   8   8   8
#     4   8  13  24  41  67 100 131 161 199 240 280
#     4   9  18  30  47  72 103 131 161 202 247 289
#     4   8  14  24  43  69  99 131 163 197 238 283
#     4  11  22  36  53  73  96 128 166 205 244 289
#     4  10  19  32  50  75 103 131 160 197 244 295
#
# _framework density 26.945077000000001
#
# number of rings (size 3 to 8) (size 9 to 14) (size 15 to 20)
#    0.000    2.800    0.000    3.600    0.000    4.000 
#    0.000    5.000    0.000    0.000    0.000   15.400 
#    0.000    0.000    0.000    0.000    0.000    0.000 
#
# Total GULP energy -111843.384924 kJ/mol
# GULP energy per Si atom -5592.169246 kJ/mol
# Density = 2.688375 g / cm^3
# Si number density = 26.945077 Si / 1000 Ang^3
#
#
#
# Elastic Constant Matrix: (Units=GPa)
#
#
# Indices 1 2 3 4 5 6 
#
# 1 163.5858 -3.3506 5.4571 0.0000 20.0751 0.0000
# 2 -3.3506 127.2763 -6.3760 0.0000 4.0165 0.0000
# 3 5.4571 -6.3760 76.7773 0.0000 15.2746 0.0000
# 4 0.0000 0.0000 0.0000 -3.6016 0.0000 -8.2221
# 5 20.0751 4.0165 15.2746 0.0000 55.7232 0.0000
# 6 0.0000 0.0000 0.0000 -8.2221 0.0000 -2.4089
#
#
#
# Elastic Compliance Matrix: (Units=1/GPa)
#
#
# Indices 1 2 3 4 5 6 
#
# 1 0.006403 0.000244 0.000029 0.000000 -0.002332 0.000000
# 2 0.000244 0.007932 0.000817 0.000000 -0.000884 0.000000
# 3 0.000029 0.000817 0.013860 0.000000 -0.003869 0.000000
# 4 0.000000 0.000000 0.000000 0.040879 0.000000 -0.139529
# 5 -0.002332 -0.000884 -0.003869 0.000000 0.019910 0.000000
# 6 0.000000 0.000000 0.000000 -0.139529 0.000000 0.061118
#
#
# Mechanical properties :
#
#
# Convention : Reuss Voigt Hill
#
# Bulk Modulus (GPa) = 32.92134 39.90005 36.41070
# Shear Modulus (GPa) = 31.63590 34.73647 33.18618
#
# Velocity S-wave (km/s) = 3.43021 3.59438 3.51326
# Velocity P-wave (km/s) = 5.28516 5.66270 5.47719
#
# Compressibility (1/GPa) = 0.03037543
#
# Stress axis : x y z
#
# Youngs Moduli (GPa) = 156.17068 126.06914 72.14937
#
# Poissons Ratio (x) = -0.03071 -0.00210
# Poissons Ratio (y) = -0.03805 -0.05896
# Poissons Ratio (z) = -0.00455 -0.10302
#
# Static dielectric constant tensor:
#      x y z
#    x 2.029540 0.000000 0.008850 
#    y 0.000000 2.069050 0.000000 
#    z 0.008850 0.000000 2.192250 
# 
# From -- ./inp_files/92826.got.cif
#   From: 2010.05.17/outbox.cif.g08.bks.cpg/sg12_47_cif.got.tgz:92826.got - 2010.06.03 13:09:07.
