data_PCOD9180204
_publ_section_title
;
Structure prediction by ZEFSAII (Michael W. Deem and Ramdas Pophale) SiO2 
 PCOD9180204
Probable space group: C 2/M
;
_chemical_formula_sum "Si O2"
_cell_formula_units_Z 64
_cell_length_a 15.856842
_cell_length_b 25.233326
_cell_length_c 11.438320
_cell_angle_alpha 90.000000
_cell_angle_beta 48.001109
_cell_angle_gamma 90.000000
_cell_volume 3401.217982
_symmetry_space_group_name_H-M "C 2/M"
_symmetry_group_IT_number 12
_symmetry_cell_setting 'monoclinic'
loop_
_space_group_symop_operation_xyz
x,y,z
-x,y,-z
-x,-y,-z
x,-y,z
1/2+x,1/2+y,z
1/2-x,1/2+y,-z
1/2-x,1/2-y,-z
1/2+x,1/2-y,z
loop_
_atom_site_type_symbol
_atom_site_label
_atom_site_fract_x
_atom_site_fract_y
_atom_site_fract_z
Si Si1 0.761480 0.091253 0.844002
Si Si2 0.113850 0.057319 0.049142
Si Si3 0.876262 0.899433 0.344379
Si Si4 0.536863 0.328196 0.343253
Si Si5 0.028218 0.360248 0.110828
Si Si6 0.364835 0.655919 0.125762
Si Si7 0.169841 0.559573 0.675432
Si Si8 0.873390 0.755089 0.940948
O O1 0.833203 0.057702 0.870163
O O2 0.844379 0.141334 0.745768
O O3 0.723217 0.066794 0.756225
O O4 0.645950 0.108552 0.014610
O O5 0.978876 0.067770 0.189163
O O6 0.133380 0.000000 0.975346
O O7 0.167364 0.107203 0.930284
O O8 0.829951 0.858279 0.289536
O O9 0.773517 0.932955 0.490157
O O10 0.939803 0.869192 0.391512
O O11 0.500000 0.302625 0.500000
O O12 0.555980 0.292003 0.212801
O O13 0.058462 0.299822 0.114951
O O14 0.924205 0.394567 0.258894
O O15 0.000000 0.358798 0.000000
O O16 0.500000 0.653589 0.000000
O O17 0.346117 0.713436 0.086712
O O18 0.121459 0.500000 0.712808
O O19 0.750000 0.750000 0.000000
#
# Coordination Sequence:
#
# PCOD9180204 Si02
#       8
#     8   8   8   8   8   8   8   8
#     4  10  19  38  57  87 115 154 204 250 300 362
#     4  10  19  31  56  86 111 147 200 251 294 354
#     4  10  21  36  57  85 123 153 198 242 304 367
#     4  11  20  37  60  89 126 151 197 256 308 361
#     4  10  23  38  60  88 118 156 212 246 299 373
#     4  10  19  35  57  84 116 155 194 244 306 364
#     4  11  23  39  59  85 127 168 198 254 312 363
#     4  12  21  40  65  85 118 161 204 254 305 364
#
# _framework density 18.816787999999999
#
# number of rings (size 3 to 8) (size 9 to 14) (size 15 to 20)
#    0.000    1.500    6.250    1.125    0.000    5.500 
#    2.250    2.500    0.000    0.000    0.000    4.375 
#    0.000    0.000    0.000    0.000    0.000    0.000 
#
# Total GULP energy -178225.557083 kJ/mol
# GULP energy per Si atom -5569.548659 kJ/mol
# Density = 1.877396 g / cm^3
# Si number density = 18.816788 Si / 1000 Ang^3
#
#
#
# Elastic Constant Matrix: (Units=GPa)
#
#
# Indices 1 2 3 4 5 6 
#
# 1 69.7163 25.6902 16.2777 0.0000 -7.5537 0.0000
# 2 25.6902 92.6728 13.3916 0.0000 -15.0241 0.0000
# 3 16.2777 13.3916 47.2058 0.0000 -10.5319 0.0000
# 4 0.0000 0.0000 0.0000 -49.4918 0.0000 104.6530
# 5 -7.5537 -15.0241 -10.5319 0.0000 23.6186 0.0000
# 6 0.0000 0.0000 0.0000 104.6530 0.0000 -149.6859
#
#
#
# Elastic Compliance Matrix: (Units=1/GPa)
#
#
# Indices 1 2 3 4 5 6 
#
# 1 0.016935 -0.003891 -0.004530 0.000000 0.000921 0.000000
# 2 -0.003891 0.013080 -0.000878 0.000000 0.006685 0.000000
# 3 -0.004530 -0.000878 0.025038 0.000000 0.009158 0.000000
# 4 0.000000 0.000000 0.000000 0.042236 0.000000 0.029529
# 5 0.000921 0.006685 0.009158 0.000000 0.050970 0.000000
# 6 0.000000 0.000000 0.000000 0.029529 0.000000 0.013965
#
#
# Mechanical properties :
#
#
# Convention : Reuss Voigt Hill
#
# Bulk Modulus (GPa) = 27.43059 35.59044 31.51052
# Shear Modulus (GPa) = 25.91038 -24.82945 0.54047
#
# Velocity S-wave (km/s) = 3.71480 -3.63648 0.53652
# Velocity P-wave (km/s) = 5.74535 1.15032 4.14320
#
# Compressibility (1/GPa) = 0.03645565
#
# Stress axis : x y z
#
# Youngs Moduli (GPa) = 59.04892 76.45431 39.93912
#
# Poissons Ratio (x) = 0.29746 0.18094
# Poissons Ratio (y) = 0.22974 0.03505
# Poissons Ratio (z) = 0.26752 0.06710
#
# Static dielectric constant tensor:
#      x y z
#    x 1.680440 0.000000 0.017060 
#    y 0.000000 1.782810 0.000000 
#    z 0.017060 0.000000 1.653210 
# 
# From -- ./inp_files/149760.got.cif
#   From: 2010.05.17/outbox.cif.g08.bks.cpg/sg12_75_cif.got.tgz:149760.got - 2010.06.03 13:09:07.
