data_PCOD9180690
_publ_section_title
;
Structure prediction by ZEFSAII (Michael W. Deem and Ramdas Pophale) SiO2 
 PCOD9180690
Probable space group: C 2/M
;
_chemical_formula_sum "Si O2"
_cell_formula_units_Z 64
_cell_length_a 16.660629
_cell_length_b 13.679158
_cell_length_c 29.686882
_cell_angle_alpha 90.000000
_cell_angle_beta 33.598963
_cell_angle_gamma 90.000000
_cell_volume 3744.001702
_symmetry_space_group_name_H-M "C 2/M"
_symmetry_group_IT_number 12
_symmetry_cell_setting 'monoclinic'
loop_
_space_group_symop_operation_xyz
x,y,z
-x,y,-z
-x,-y,-z
x,-y,z
1/2+x,1/2+y,z
1/2-x,1/2+y,-z
1/2-x,1/2-y,-z
1/2+x,1/2-y,z
loop_
_atom_site_type_symbol
_atom_site_label
_atom_site_fract_x
_atom_site_fract_y
_atom_site_fract_z
Si Si1 0.242541 0.201734 0.322680
Si Si2 0.006176 0.112698 0.612389
Si Si3 0.780997 0.611273 0.721209
Si Si4 0.629723 0.382231 0.973408
Si Si5 0.077151 0.268838 0.177033
Si Si6 0.435754 0.611689 0.893500
Si Si7 0.989662 0.720883 0.690440
Si Si8 0.285391 0.615161 0.569313
O O1 0.157775 0.133111 0.327442
O O2 0.203682 0.313008 0.327295
O O3 0.416969 0.189739 0.238952
O O4 0.186367 0.174361 0.398311
O O5 0.036482 0.188026 0.637949
O O6 0.108155 0.135382 0.521889
O O7 0.027218 0.000000 0.614970
O O8 0.831273 0.500000 0.689793
O O9 0.610289 0.608081 0.810920
O O10 0.863183 0.661752 0.724308
O O11 0.629535 0.500000 0.972067
O O12 0.787771 0.342364 0.886613
O O13 0.500000 0.349674 0.000000
O O14 0.604699 0.353422 0.037386
O O15 0.109044 0.182569 0.126397
O O16 0.055779 0.240469 0.239259
O O17 0.381996 0.500000 0.912440
O O18 0.123263 0.646433 0.632101
O O19 0.295381 0.500000 0.574908
#
# Coordination Sequence:
#
# PCOD9180690 Si02
#       8
#     8   8   8   8   8   8   8   8
#     4   9  19  32  50  76  98 125 166 204 246 297
#     4  10  20  34  51  70  97 132 166 205 251 297
#     4   9  17  32  52  73 101 133 164 203 248 290
#     4  10  20  33  52  77 100 125 160 200 242 290
#     4  10  20  33  51  74 100 130 159 200 247 286
#     4   9  18  33  52  73  99 131 163 196 240 293
#     4  10  20  32  49  74 100 128 168 208 245 294
#     4  10  19  32  51  72  96 129 166 208 254 293
#
# _framework density 17.094009
#
# number of rings (size 3 to 8) (size 9 to 14) (size 15 to 20)
#    0.000    2.375    0.000    2.625    0.000    5.500 
#    0.000    1.875    0.000    7.125    0.000    0.000 
#    0.000    0.000    0.000    0.000    0.000    0.000 
#
# Total GULP energy -178289.178028 kJ/mol
# GULP energy per Si atom -5571.536813 kJ/mol
# Density = 1.705510 g / cm^3
# Si number density = 17.094009 Si / 1000 Ang^3
#
#
#
# Elastic Constant Matrix: (Units=GPa)
#
#
# Indices 1 2 3 4 5 6 
#
# 1 81.4776 27.4652 34.2001 0.0000 11.5022 0.0000
# 2 27.4652 56.0653 41.2591 0.0000 16.3771 0.0000
# 3 34.2001 41.2591 81.3231 -0.0001 24.7910 0.0000
# 4 0.0000 0.0000 -0.0001 26.9730 0.0000 -0.3880
# 5 11.5022 16.3771 24.7910 0.0000 23.5522 0.0000
# 6 0.0000 0.0000 0.0000 -0.3880 0.0000 16.2226
#
#
#
# Elastic Compliance Matrix: (Units=1/GPa)
#
#
# Indices 1 2 3 4 5 6 
#
# 1 0.015580 -0.004487 -0.004281 0.000000 0.000017 0.000000
# 2 -0.004487 0.030506 -0.011473 0.000000 -0.006944 0.000000
# 3 -0.004281 -0.011473 0.024809 0.000000 -0.016046 0.000000
# 4 0.000000 0.000000 0.000000 0.037087 0.000000 0.000887
# 5 0.000017 -0.006944 -0.016046 0.000000 0.064169 0.000000
# 6 0.000000 0.000000 0.000000 0.000887 0.000000 0.061664
#
#
# Mechanical properties :
#
#
# Convention : Reuss Voigt Hill
#
# Bulk Modulus (GPa) = 32.88038 47.19054 40.03546
# Shear Modulus (GPa) = 17.57865 21.07901 19.32883
#
# Velocity S-wave (km/s) = 3.21027 3.51539 3.36629
# Velocity P-wave (km/s) = 5.74612 6.64408 6.21135
#
# Compressibility (1/GPa) = 0.03041327
#
# Stress axis : x y z
#
# Youngs Moduli (GPa) = 64.18334 32.78012 40.30730
#
# Poissons Ratio (x) = 0.14709 0.17256
# Poissons Ratio (y) = 0.28800 0.46246
# Poissons Ratio (z) = 0.27477 0.37610
#
# Static dielectric constant tensor:
#      x y z
#    x 1.595670 0.000000 -0.002580 
#    y 0.000000 1.572460 0.000000 
#    z -0.002580 0.000000 1.573820 
# 
# From -- ./inp_files/315714.got.cif
#   From: 2010.05.17/outbox.cif.g08.bks.cpg/sg12_158_cif.got.tgz:315714.got - 2010.06.03 13:09:07.
