data_PCOD9180869
_publ_section_title
;
Structure prediction by ZEFSAII (Michael W. Deem and Ramdas Pophale) SiO2 
 PCOD9180869
Probable space group: C 2/M
;
_chemical_formula_sum "Si O2"
_cell_formula_units_Z 40
_cell_length_a 20.863991
_cell_length_b 8.908294
_cell_length_c 18.441944
_cell_angle_alpha 90.000000
_cell_angle_beta 43.069273
_cell_angle_gamma 90.000000
_cell_volume 2340.692456
_symmetry_space_group_name_H-M "C 2/M"
_symmetry_group_IT_number 12
_symmetry_cell_setting 'monoclinic'
loop_
_space_group_symop_operation_xyz
x,y,z
-x,y,-z
-x,-y,-z
x,-y,z
1/2+x,1/2+y,z
1/2-x,1/2+y,-z
1/2-x,1/2-y,-z
1/2+x,1/2-y,z
loop_
_atom_site_type_symbol
_atom_site_label
_atom_site_fract_x
_atom_site_fract_y
_atom_site_fract_z
Si Si1 0.913136 0.172722 0.014653
Si Si2 0.561936 0.319211 0.779071
Si Si3 0.290402 0.822303 0.229853
Si Si4 0.604334 0.179401 0.438765
Si Si5 0.147824 0.679307 0.570566
O O1 0.833605 0.272595 0.116971
O O2 0.881108 0.000000 0.035258
O O3 0.000000 0.173708 0.000000
O O4 0.962965 0.220994 0.898945
O O5 0.568754 0.500000 0.772452
O O6 0.644847 0.256404 0.762177
O O7 0.578158 0.250936 0.686884
O O8 0.185362 0.764842 0.328530
O O9 0.296831 0.000000 0.233370
O O10 0.500000 0.219997 0.500000
O O11 0.617904 0.210246 0.512902
O O12 0.616836 0.000000 0.417774
O O13 0.152610 0.500000 0.576716
O O14 0.250000 0.750000 0.500000
#
# Coordination Sequence:
#
# PCOD9180869 Si02
#       5
#     8   8   8   8   8
#     4   8  16  30  48  71 102 139 173 210 260 314
#     4  10  19  32  51  76 107 140 174 214 261 314
#     4  11  20  30  50  78 107 137 172 220 266 308
#     4  10  22  39  56  74 103 145 183 213 257 320
#     4  11  21  33  54  80 107 138 173 219 268 312
#
# _framework density 17.08896
#
# number of rings (size 3 to 8) (size 9 to 14) (size 15 to 20)
#    0.000    2.000    2.000    4.200    0.000    5.600 
#    0.000    0.000    0.000    1.200    0.000    0.000 
#    0.000    0.000    0.000    0.000    0.000    0.000 
#
# Total GULP energy -111594.268650 kJ/mol
# GULP energy per Si atom -5579.713433 kJ/mol
# Density = 1.705006 g / cm^3
# Si number density = 17.088960 Si / 1000 Ang^3
#
#
#
# Elastic Constant Matrix: (Units=GPa)
#
#
# Indices 1 2 3 4 5 6 
#
# 1 68.6151 43.2568 51.4269 0.0000 -5.4958 0.0000
# 2 43.2568 81.0567 79.9365 0.0000 -2.6208 0.0001
# 3 51.4269 79.9365 173.2841 0.0000 4.7618 0.0000
# 4 0.0000 0.0000 0.0000 30.2241 0.0000 6.5851
# 5 -5.4958 -2.6208 4.7618 0.0000 17.6741 0.0000
# 6 0.0000 0.0001 0.0000 6.5851 0.0000 12.2180
#
#
#
# Elastic Compliance Matrix: (Units=1/GPa)
#
#
# Indices 1 2 3 4 5 6 
#
# 1 0.023055 -0.009487 -0.002644 0.000000 0.006474 0.000000
# 2 -0.009487 0.027236 -0.009852 0.000000 0.003743 0.000000
# 3 -0.002644 -0.009852 0.011246 0.000000 -0.005313 0.000000
# 4 0.000000 0.000000 0.000000 0.037488 0.000000 -0.020205
# 5 0.006474 0.003743 -0.005313 0.000000 0.060580 0.000000
# 6 0.000000 0.000000 0.000000 -0.020205 0.000000 0.092737
#
#
# Mechanical properties :
#
#
# Convention : Reuss Voigt Hill
#
# Bulk Modulus (GPa) = 56.90625 74.68848 65.79736
# Shear Modulus (GPa) = 16.54731 21.91228 19.22980
#
# Velocity S-wave (km/s) = 3.11513 3.58473 3.35815
# Velocity P-wave (km/s) = 6.80522 7.80604 7.32275
#
# Compressibility (1/GPa) = 0.01757276
#
# Stress axis : x y z
#
# Youngs Moduli (GPa) = 43.37460 36.71572 88.92042
#
# Poissons Ratio (x) = 0.34832 0.23508
# Poissons Ratio (y) = 0.41149 0.87600
# Poissons Ratio (z) = 0.11467 0.36171
#
# Static dielectric constant tensor:
#      x y z
#    x 1.550590 0.000000 0.014550 
#    y 0.000000 1.570000 0.000000 
#    z 0.014550 0.000000 1.605870 
# 
# From -- ./inp_files/162747.got.cif
#   From: 2010.05.17/outbox.cif.g08.bks.cpg/sg12_82_cif.got.tgz:162747.got - 2010.06.03 13:09:07.
