data_PCOD9180769
_publ_section_title
;
Structure prediction by ZEFSAII (Michael W. Deem and Ramdas Pophale) SiO2 
 PCOD9180769
Probable space group: C 2/M
;
_chemical_formula_sum "Si O2"
_cell_formula_units_Z 58
_cell_length_a 23.797864
_cell_length_b 7.641086
_cell_length_c 17.068801
_cell_angle_alpha 90.000000
_cell_angle_beta 101.793352
_cell_angle_gamma 90.000000
_cell_volume 3038.298683
_symmetry_space_group_name_H-M "C 2/M"
_symmetry_group_IT_number 12
_symmetry_cell_setting 'monoclinic'
loop_
_space_group_symop_operation_xyz
x,y,z
-x,y,-z
-x,-y,-z
x,-y,z
1/2+x,1/2+y,z
1/2-x,1/2+y,-z
1/2-x,1/2-y,-z
1/2+x,1/2-y,z
loop_
_atom_site_type_symbol
_atom_site_label
_atom_site_fract_x
_atom_site_fract_y
_atom_site_fract_z
Si Si1 0.934875 0.289123 0.768969
Si Si2 0.345507 0.202309 0.033817
Si Si3 0.694649 0.290568 0.432710
Si Si4 0.500000 0.500000 0.500000
Si Si5 0.304795 0.703483 0.743558
Si Si6 0.065744 0.703842 0.414774
Si Si7 0.974187 0.285971 0.076834
Si Si8 0.748385 0.202670 0.112489
O O1 0.932082 0.500000 0.772729
O O2 0.872731 0.222375 0.778441
O O3 0.943426 0.246720 0.679836
O O4 0.985120 0.226872 0.840668
O O5 0.408631 0.277517 0.062886
O O6 0.307034 0.209841 0.100943
O O7 0.354726 0.000000 0.013536
O O8 0.304536 0.278152 0.954061
O O9 0.686728 0.500000 0.426486
O O10 0.750000 0.250000 0.500000
O O11 0.704091 0.224738 0.346455
O O12 0.634733 0.214212 0.446656
O O13 0.534060 0.344545 0.459333
O O14 0.289466 0.500000 0.738722
O O15 0.268150 0.786533 0.802103
O O16 0.047806 0.500000 0.420640
O O17 0.974174 0.500000 0.080716
O O18 0.000000 0.237480 0.000000
O O19 0.754938 0.000000 0.092102
#
# Coordination Sequence:
#
# PCOD9180769 Si02
#       8
#     8   8   8   2   8   8   8   8
#     4   9  18  33  55  82 111 144 185 234 285 331
#     4   9  18  32  51  73 103 142 180 225 274 320
#     4  10  20  37  60  88 119 150 188 243 301 356
#     4  12  22  40  64  86 122 156 206 246 292 378
#     4  10  20  33  54  80 107 142 179 223 276 335
#     4  10  21  38  62  91 119 157 201 248 299 359
#     4   9  16  29  52  80 108 142 186 228 273 329
#     4  10  19  32  51  74 103 140 183 226 269 326
#
# _framework density 19.08963
#
# number of rings (size 3 to 8) (size 9 to 14) (size 15 to 20)
#    0.000    2.345    0.690    2.276    0.966    4.414 
#    0.000    2.069    3.034    6.621    0.000    0.000 
#    0.000    0.000    0.000    0.000    0.000    0.138 
#
# Total GULP energy -161510.620942 kJ/mol
# GULP energy per Si atom -5569.331757 kJ/mol
# Density = 1.904618 g / cm^3
# Si number density = 19.089630 Si / 1000 Ang^3
#
#
#
# Elastic Constant Matrix: (Units=GPa)
#
#
# Indices 1 2 3 4 5 6 
#
# 1 129.3699 10.8994 83.9233 0.0000 3.0364 0.0000
# 2 10.8994 66.9223 16.2331 0.0000 -7.4350 0.0000
# 3 83.9233 16.2331 90.5934 0.0000 -1.8089 0.0000
# 4 0.0000 0.0000 0.0000 30.1821 0.0000 -10.4228
# 5 3.0364 -7.4350 -1.8089 0.0000 35.3697 0.0000
# 6 0.0000 0.0000 0.0000 -10.4228 0.0000 27.8481
#
#
#
# Elastic Compliance Matrix: (Units=1/GPa)
#
#
# Indices 1 2 3 4 5 6 
#
# 1 0.019672 0.001003 -0.018451 0.000000 -0.002422 0.000000
# 2 0.001003 0.016030 -0.003740 0.000000 0.003092 0.000000
# 3 -0.018451 -0.003740 0.028847 0.000000 0.002273 0.000000
# 4 0.000000 0.000000 0.000000 0.038050 0.000000 0.014241
# 5 -0.002422 0.003092 0.002273 0.000000 0.029247 0.000000
# 6 0.000000 0.000000 0.000000 0.014241 0.000000 0.041239
#
#
# Mechanical properties :
#
#
# Convention : Reuss Voigt Hill
#
# Bulk Modulus (GPa) = 45.10177 56.55525 50.82851
# Shear Modulus (GPa) = 22.43649 30.40197 26.41923
#
# Velocity S-wave (km/s) = 3.43202 3.99506 3.72419
# Velocity P-wave (km/s) = 6.27556 7.13941 6.72137
#
# Compressibility (1/GPa) = 0.02217208
#
# Stress axis : x y z
#
# Youngs Moduli (GPa) = 50.83462 62.38291 34.66617
#
# Poissons Ratio (x) = -0.06255 0.63964
# Poissons Ratio (y) = -0.05097 0.12964
# Poissons Ratio (z) = 0.93796 0.23328
#
# Static dielectric constant tensor:
#      x y z
#    x 1.642830 0.000000 0.012440 
#    y 0.000000 1.709450 0.000000 
#    z 0.012440 0.000000 1.662850 
# 
# From -- ./inp_files/237743.got.cif
#   From: 2010.05.17/outbox.cif.g08.bks.cpg/sg12_119_cif.got.tgz:237743.got - 2010.06.03 13:09:07.
