data_PCOD9180736
_publ_section_title
;
Structure prediction by ZEFSAII (Michael W. Deem and Ramdas Pophale) SiO2 
 PCOD9180736
Probable space group: C 2/M
;
_chemical_formula_sum "Si O2"
_cell_formula_units_Z 56
_cell_length_a 27.971641
_cell_length_b 13.514171
_cell_length_c 11.342004
_cell_angle_alpha 90.000000
_cell_angle_beta 138.137424
_cell_angle_gamma 90.000000
_cell_volume 2861.201051
_symmetry_space_group_name_H-M "C 2/M"
_symmetry_group_IT_number 12
_symmetry_cell_setting 'monoclinic'
loop_
_space_group_symop_operation_xyz
x,y,z
-x,y,-z
-x,-y,-z
x,-y,z
1/2+x,1/2+y,z
1/2-x,1/2+y,-z
1/2-x,1/2-y,-z
1/2+x,1/2-y,z
loop_
_atom_site_type_symbol
_atom_site_label
_atom_site_fract_x
_atom_site_fract_y
_atom_site_fract_z
Si Si1 0.429250 0.261220 0.922765
Si Si2 0.715992 0.686387 0.243714
Si Si3 0.643265 0.889515 0.390648
Si Si4 0.053999 0.385614 0.835748
Si Si5 0.275351 0.887148 0.848619
Si Si6 0.577672 0.886483 0.534908
Si Si7 0.273437 0.880331 0.102980
O O1 0.364858 0.324213 0.860138
O O2 0.391206 0.192255 0.755500
O O3 0.500000 0.311833 0.000000
O O4 0.456741 0.186276 0.074278
O O5 0.773506 0.632834 0.431268
O O6 0.726273 0.649559 0.128423
O O7 0.736336 0.803495 0.270616
O O8 0.607268 0.886967 0.453930
O O9 0.633966 0.000000 0.323227
O O10 0.034083 0.500000 0.824874
O O11 0.138914 0.386704 0.971687
O O12 0.003876 0.351098 0.635344
O O13 0.244402 0.856332 0.919596
O O14 0.254582 0.000000 0.780293
O O15 0.645178 0.840792 0.727222
O O16 0.572327 0.000000 0.567546
O O17 0.278564 0.000000 0.114635
#
# Coordination Sequence:
#
# PCOD9180736 Si02
#       7
#     8   8   8   8   8   8   8
#     4  11  20  30  47  71 102 135 168 201 246 297
#     4  10  20  33  48  72 103 134 169 206 245 294
#     4  10  19  32  51  73  99 135 171 203 244 295
#     4   9  16  26  41  67 100 129 158 192 236 295
#     4   9  18  30  47  72 100 130 164 202 247 296
#     4   8  14  24  41  66  95 126 156 188 231 288
#     4   9  17  31  50  70  95 130 168 206 247 293
#
# _framework density 19.572201
#
# number of rings (size 3 to 8) (size 9 to 14) (size 15 to 20)
#    0.000    2.571    1.429    2.571    0.000    1.714 
#    0.000    2.857    0.000    1.714    0.000    0.000 
#    0.000    2.286    0.000    0.143    0.000    0.143 
#
# Total GULP energy -156068.786413 kJ/mol
# GULP energy per Si atom -5573.885229 kJ/mol
# Density = 1.952765 g / cm^3
# Si number density = 19.572201 Si / 1000 Ang^3
#
#
#
# Elastic Constant Matrix: (Units=GPa)
#
#
# Indices 1 2 3 4 5 6 
#
# 1 71.8624 0.8281 9.5398 0.0000 15.3568 0.0000
# 2 0.8281 17.1485 5.5635 0.0000 4.7714 0.0000
# 3 9.5398 5.5635 32.5876 0.0000 7.8453 0.0000
# 4 0.0000 0.0000 0.0000 23.5057 0.0000 0.8556
# 5 15.3568 4.7714 7.8453 0.0000 27.7230 0.0000
# 6 0.0000 0.0000 0.0000 0.8556 0.0000 21.0856
#
#
#
# Elastic Compliance Matrix: (Units=1/GPa)
#
#
# Indices 1 2 3 4 5 6 
#
# 1 0.016114 0.002595 -0.003116 0.000000 -0.008491 0.000000
# 2 0.002595 0.063939 -0.009315 0.000000 -0.009806 0.000000
# 3 -0.003116 -0.009315 0.034755 0.000000 -0.006506 0.000000
# 4 0.000000 0.000000 0.000000 0.042606 0.000000 -0.001729
# 5 -0.008491 -0.009806 -0.006506 0.000000 0.044303 0.000000
# 6 0.000000 0.000000 0.000000 -0.001729 0.000000 0.047496
#
#
# Mechanical properties :
#
#
# Convention : Reuss Voigt Hill
#
# Bulk Modulus (GPa) = 10.51120 17.05126 13.78123
# Shear Modulus (GPa) = 16.63355 21.50732 19.07044
#
# Velocity S-wave (km/s) = 2.91839 3.31852 3.12487
# Velocity P-wave (km/s) = 4.09123 4.83883 4.48065
#
# Compressibility (1/GPa) = 0.09513660
#
# Stress axis : x y z
#
# Youngs Moduli (GPa) = 62.05894 15.63988 28.77253
#
# Poissons Ratio (x) = -0.04059 0.08966
# Poissons Ratio (y) = -0.16106 0.26802
# Poissons Ratio (z) = 0.19338 0.14569
#
# Static dielectric constant tensor:
#      x y z
#    x 1.787340 0.000000 0.000740 
#    y 0.000000 1.701450 0.000000 
#    z 0.000740 0.000000 1.706520 
# 
# From -- ./inp_files/189239.got.cif
#   From: 2010.05.17/outbox.cif.g08.bks.cpg/sg12_95_cif.got.tgz:189239.got - 2010.06.03 13:09:07.
