data_PCOD9180363
_publ_section_title
;
Structure prediction by ZEFSAII (Michael W. Deem and Ramdas Pophale) SiO2 
 PCOD9180363
Probable space group: C 2/M
;
_chemical_formula_sum "Si O2"
_cell_formula_units_Z 64
_cell_length_a 29.279148
_cell_length_b 7.452451
_cell_length_c 14.939722
_cell_angle_alpha 90.000000
_cell_angle_beta 72.843845
_cell_angle_gamma 90.000000
_cell_volume 3114.818589
_symmetry_space_group_name_H-M "C 2/M"
_symmetry_group_IT_number 12
_symmetry_cell_setting 'monoclinic'
loop_
_space_group_symop_operation_xyz
x,y,z
-x,y,-z
-x,-y,-z
x,-y,z
1/2+x,1/2+y,z
1/2-x,1/2+y,-z
1/2-x,1/2-y,-z
1/2+x,1/2-y,z
loop_
_atom_site_type_symbol
_atom_site_label
_atom_site_fract_x
_atom_site_fract_y
_atom_site_fract_z
Si Si1 0.461853 0.210477 0.301468
Si Si2 0.891129 0.202927 0.197270
Si Si3 0.317105 0.289133 0.382423
Si Si4 0.445904 0.217427 0.505949
Si Si5 0.135638 0.794345 0.306755
Si Si6 0.446980 0.280181 0.998969
Si Si7 0.931331 0.783278 0.804597
Si Si8 0.707012 0.281811 0.409389
O O1 0.439326 0.303529 0.228800
O O2 0.438767 0.274681 0.407396
O O3 0.518675 0.234196 0.271184
O O4 0.451993 0.000000 0.298124
O O5 0.852461 0.287920 0.286837
O O6 0.874430 0.000000 0.187733
O O7 0.907744 0.282900 0.093686
O O8 0.329098 0.500000 0.382421
O O9 0.317794 0.216984 0.483745
O O10 0.262332 0.270300 0.382869
O O11 0.500000 0.267741 0.500000
O O12 0.407540 0.292851 0.596379
O O13 0.443059 0.000000 0.511414
O O14 0.112721 0.715085 0.229921
O O15 0.179720 0.715242 0.337056
O O16 0.148678 0.000000 0.278402
O O17 0.446961 0.500000 0.000604
O O18 0.435161 0.222978 0.904988
O O19 0.500000 0.224233 0.000000
O O20 0.928801 0.000000 0.806429
O O21 0.704805 0.500000 0.411519
#
# Coordination Sequence:
#
# PCOD9180363 Si02
#       8
#     8   8   8   8   8   8   8   8
#     4  11  21  31  45  68  99 132 164 196 240 290
#     4  10  19  33  53  73  97 126 163 209 246 285
#     4   9  18  32  52  75  95 122 160 199 243 293
#     4  10  20  32  43  62  98 135 161 191 236 289
#     4  10  20  32  50  73  95 128 169 205 241 284
#     4   9  16  29  50  73  96 127 165 204 247 285
#     4  10  19  32  49  69  95 129 168 201 238 286
#     4   9  18  33  50  72 101 124 153 200 249 294
#
# _framework density 20.546942999999999
#
# number of rings (size 3 to 8) (size 9 to 14) (size 15 to 20)
#    0.000    2.250    2.500    1.125    0.000    3.250 
#    0.000    3.750    0.000    0.750    0.000    0.000 
#    0.000    0.000    0.000    0.000    0.000    0.000 
#
# Total GULP energy -178636.183246 kJ/mol
# GULP energy per Si atom -5582.380726 kJ/mol
# Density = 2.050018 g / cm^3
# Si number density = 20.546943 Si / 1000 Ang^3
#
#
#
# Elastic Constant Matrix: (Units=GPa)
#
#
# Indices 1 2 3 4 5 6 
#
# 1 94.2194 -3.7934 46.7197 0.0000 20.2825 0.0000
# 2 -3.7934 68.6799 5.5337 0.0000 1.4920 0.0000
# 3 46.7197 5.5337 133.4441 0.0000 18.1203 0.0000
# 4 0.0000 0.0000 0.0000 -77.1736 0.0000 5.3765
# 5 20.2825 1.4920 18.1203 0.0000 37.5408 0.0000
# 6 0.0000 0.0000 0.0000 5.3765 0.0000 12.1172
#
#
#
# Elastic Compliance Matrix: (Units=1/GPa)
#
#
# Indices 1 2 3 4 5 6 
#
# 1 0.013929 0.001226 -0.004172 0.000000 -0.005560 0.000000
# 2 0.001226 0.014720 -0.000931 0.000000 -0.000798 0.000000
# 3 -0.004172 -0.000931 0.009291 0.000000 -0.002193 0.000000
# 4 0.000000 0.000000 0.000000 -0.012569 0.000000 0.005577
# 5 -0.005560 -0.000798 -0.002193 0.000000 0.030732 0.000000
# 6 0.000000 0.000000 0.000000 0.005577 0.000000 0.080053
#
#
# Mechanical properties :
#
#
# Convention : Reuss Voigt Hill
#
# Bulk Modulus (GPa) = 33.12880 43.69592 38.41236
# Shear Modulus (GPa) = 32.47334 11.02244 21.74789
#
# Velocity S-wave (km/s) = 3.97980 2.31866 3.25691
# Velocity P-wave (km/s) = 6.10548 5.33674 5.73400
#
# Compressibility (1/GPa) = 0.03018522
#
# Stress axis : x y z
#
# Youngs Moduli (GPa) = 71.79383 67.93286 107.63092
#
# Poissons Ratio (x) = -0.08331 0.44908
# Poissons Ratio (y) = -0.08804 0.10025
# Poissons Ratio (z) = 0.29955 0.06327
#
# Static dielectric constant tensor:
#      x y z
#    x 1.728390 0.000000 0.023750 
#    y 0.000000 1.789050 0.000000 
#    z 0.023750 0.000000 1.741250 
# 
# From -- ./inp_files/243754.got.cif
#   From: 2010.05.17/outbox.cif.g08.bks.cpg/sg12_122_cif.got.tgz:243754.got - 2010.06.03 13:09:07.
