data_PCOD9180004
_publ_section_title
;
Structure prediction by ZEFSAII (Michael W. Deem and Ramdas Pophale) SiO2 
 PCOD9180004
Probable space group: C 2/M
;
_chemical_formula_sum "Si O2"
_cell_formula_units_Z 64
_cell_length_a 15.558444
_cell_length_b 20.129998
_cell_length_c 18.144755
_cell_angle_alpha 90.000000
_cell_angle_beta 143.199793
_cell_angle_gamma 90.000000
_cell_volume 3404.137003
_symmetry_space_group_name_H-M "C 2/M"
_symmetry_group_IT_number 12
_symmetry_cell_setting 'monoclinic'
loop_
_space_group_symop_operation_xyz
x,y,z
-x,y,-z
-x,-y,-z
x,-y,z
1/2+x,1/2+y,z
1/2-x,1/2+y,-z
1/2-x,1/2-y,-z
1/2+x,1/2-y,z
loop_
_atom_site_type_symbol
_atom_site_label
_atom_site_fract_x
_atom_site_fract_y
_atom_site_fract_z
Si Si1 0.302745 0.927904 0.986803
Si Si2 0.710028 0.123424 0.175526
Si Si3 0.537119 0.179702 0.805990
Si Si4 0.210672 0.227055 0.123310
Si Si5 0.317134 0.079226 0.680445
Si Si6 0.525411 0.576906 0.405363
Si Si7 0.936006 0.198450 0.834820
Si Si8 0.456442 0.572825 0.750564
O O1 0.335847 0.923413 0.922895
O O2 0.130143 0.926550 0.871046
O O3 0.351265 0.000000 0.049593
O O4 0.360386 0.864752 0.070796
O O5 0.680112 0.195845 0.121415
O O6 0.648396 0.101237 0.211764
O O7 0.881435 0.119135 0.305683
O O8 0.639060 0.212850 0.814199
O O9 0.419837 0.125023 0.701150
O O10 0.455224 0.236933 0.795935
O O11 0.188361 0.197702 0.189289
O O12 0.085402 0.199474 0.983829
O O13 0.151580 0.094560 0.547692
O O14 0.333050 0.000000 0.682258
O O15 0.481139 0.500000 0.388854
O O16 0.586575 0.579641 0.364348
O O17 0.913326 0.134609 0.769351
O O18 0.409340 0.500000 0.744930
#
# Coordination Sequence:
#
# PCOD9180004 Si02
#       8
#     8   8   8   8   8   8   8   8
#     4  10  19  31  52  85 116 148 188 236 292 348
#     4  11  19  36  56  85 116 152 198 241 286 356
#     4  12  21  37  56  82 121 161 188 236 296 358
#     4  11  23  36  58  84 117 157 195 234 299 358
#     4  11  23  37  57  88 123 157 195 243 297 350
#     4   9  19  36  60  85 113 155 198 240 291 342
#     4  11  21  39  57  86 117 153 196 237 296 358
#     4   9  18  36  61  83 106 145 201 249 285 338
#
# _framework density 18.800653000000001
#
# number of rings (size 3 to 8) (size 9 to 14) (size 15 to 20)
#    0.000    1.500    3.750    4.500    0.000    1.500 
#    0.000    6.250    0.000    0.000    0.000    2.625 
#    0.000    0.000    0.000    0.000    0.000    0.000 
#
# Total GULP energy -178475.632584 kJ/mol
# GULP energy per Si atom -5577.363518 kJ/mol
# Density = 1.875786 g / cm^3
# Si number density = 18.800653 Si / 1000 Ang^3
#
#
#
# Elastic Constant Matrix: (Units=GPa)
#
#
# Indices 1 2 3 4 5 6 
#
# 1 78.9061 33.3532 8.3611 0.0002 -5.1183 -0.0009
# 2 33.3532 102.8008 6.5255 -0.0008 -20.9924 0.0045
# 3 8.3611 6.5255 49.9133 -0.0003 -3.3760 0.0049
# 4 0.0002 -0.0008 -0.0003 18.1885 -0.0005 12.6712
# 5 -5.1183 -20.9924 -3.3760 -0.0005 19.1170 0.0041
# 6 -0.0009 0.0045 0.0049 12.6712 0.0041 -80.2531
#
#
#
# Elastic Compliance Matrix: (Units=1/GPa)
#
#
# Indices 1 2 3 4 5 6 
#
# 1 0.014917 -0.005118 -0.001963 0.000000 -0.001973 -0.000001
# 2 -0.005118 0.014321 -0.000044 0.000000 0.014347 0.000002
# 3 -0.001963 -0.000044 0.020576 -0.000001 0.003059 0.000001
# 4 0.000000 0.000000 -0.000001 0.049532 0.000000 0.007821
# 5 -0.001973 0.014347 0.003059 0.000000 0.068076 0.000004
# 6 -0.000001 0.000002 0.000001 0.007821 0.000004 -0.011226
#
#
# Mechanical properties :
#
#
# Convention : Reuss Voigt Hill
#
# Bulk Modulus (GPa) = 28.11937 36.45555 32.28746
# Shear Modulus (GPa) = 27.42716 3.63584 15.53150
#
# Velocity S-wave (km/s) = 3.82362 1.39215 2.87734
# Velocity P-wave (km/s) = 5.87218 4.69220 5.31504
#
# Compressibility (1/GPa) = 0.03556267
#
# Stress axis : x y z
#
# Youngs Moduli (GPa) = 67.03923 69.82917 48.59956
#
# Poissons Ratio (x) = 0.35738 0.09540
# Poissons Ratio (y) = 0.34310 0.00216
# Poissons Ratio (z) = 0.13160 0.00311
#
# Static dielectric constant tensor:
#      x y z
#    x 1.703780 0.000000 0.016820 
#    y 0.000000 1.681780 0.000000 
#    z 0.016820 0.000000 1.651290 
# 
# From -- ./inp_files/271678.got.cif
#   From: 2010.05.17/outbox.cif.g08.bks.cpg/sg12_136_cif.got.tgz:271678.got - 2010.06.03 13:09:07.
