data_PCOD9180938
_publ_section_title
;
Structure prediction by ZEFSAII (Michael W. Deem and Ramdas Pophale) SiO2 
 PCOD9180938
Probable space group: C 2/M
;
_chemical_formula_sum "Si O2"
_cell_formula_units_Z 64
_cell_length_a 20.367145
_cell_length_b 8.244549
_cell_length_c 33.357430
_cell_angle_alpha 90.000000
_cell_angle_beta 144.951574
_cell_angle_gamma 90.000000
_cell_volume 3216.656546
_symmetry_space_group_name_H-M "C 2/M"
_symmetry_group_IT_number 12
_symmetry_cell_setting 'monoclinic'
loop_
_space_group_symop_operation_xyz
x,y,z
-x,y,-z
-x,-y,-z
x,-y,z
1/2+x,1/2+y,z
1/2-x,1/2+y,-z
1/2-x,1/2-y,-z
1/2+x,1/2-y,z
loop_
_atom_site_type_symbol
_atom_site_label
_atom_site_fract_x
_atom_site_fract_y
_atom_site_fract_z
Si Si1 0.999373 0.812369 0.238618
Si Si2 0.821733 0.195983 0.606931
Si Si3 0.058072 0.698356 0.486990
Si Si4 0.141645 0.688278 0.901773
Si Si5 0.579159 0.185461 0.075357
Si Si6 0.390509 0.683945 0.028554
Si Si7 0.173219 0.690874 0.784393
Si Si8 0.001131 0.305416 0.630387
O O1 0.959449 0.717045 0.179745
O O2 0.893927 0.795248 0.216509
O O3 0.105809 0.749960 0.317904
O O4 0.018766 0.000000 0.237806
O O5 0.690768 0.247279 0.547085
O O6 0.891302 0.250696 0.602062
O O7 0.823995 0.000000 0.607429
O O8 0.055818 0.500000 0.486943
O O9 0.998787 0.752063 0.415603
O O10 0.000000 0.752055 0.500000
O O11 0.145980 0.500000 0.916214
O O12 0.129032 0.800740 0.933901
O O13 0.268202 0.723175 0.947086
O O14 0.490711 0.195584 0.067523
O O15 0.693263 0.278494 0.143924
O O16 0.608772 0.000000 0.080061
O O17 0.500000 0.254255 0.000000
O O18 0.422694 0.500000 0.034177
O O19 0.149015 0.500000 0.779458
O O20 0.114656 0.735956 0.712659
O O21 0.994438 0.500000 0.625481
#
# Coordination Sequence:
#
# PCOD9180938 Si02
#       8
#     8   8   8   8   8   8   8   8
#     4  10  19  32  51  78 107 137 176 220 266 316
#     4   9  18  32  53  81 107 140 183 223 267 319
#     4   9  17  32  54  80 110 142 179 223 271 324
#     4  10  20  35  55  77 104 138 175 218 268 317
#     4  11  23  37  54  77 106 141 179 222 270 320
#     4  10  21  36  54  76 102 136 178 222 265 319
#     4  10  20  34  52  78 107 138 179 223 271 322
#     4   9  18  33  55  81 106 141 183 226 272 321
#
# _framework density 19.896436000000001
#
# number of rings (size 3 to 8) (size 9 to 14) (size 15 to 20)
#    0.000    2.250    0.000    3.000    0.000    5.500 
#    2.250    0.000    0.000    1.500    0.000    0.000 
#    0.000    0.000    0.000    0.000    0.000    0.000 
#
# Total GULP energy -178425.191019 kJ/mol
# GULP energy per Si atom -5575.787219 kJ/mol
# Density = 1.985115 g / cm^3
# Si number density = 19.896436 Si / 1000 Ang^3
#
#
#
# Elastic Constant Matrix: (Units=GPa)
#
#
# Indices 1 2 3 4 5 6 
#
# 1 66.8101 4.3118 54.9858 0.0001 -3.5210 -0.0001
# 2 4.3118 27.0342 16.3756 0.0002 -2.2254 -0.0003
# 3 54.9858 16.3756 126.3636 0.0000 -8.1404 -0.0001
# 4 0.0001 0.0002 0.0000 20.5673 0.0000 -3.2466
# 5 -3.5210 -2.2254 -8.1404 0.0000 28.2822 0.0000
# 6 -0.0001 -0.0003 -0.0001 -3.2466 0.0000 26.2649
#
#
#
# Elastic Compliance Matrix: (Units=1/GPa)
#
#
# Indices 1 2 3 4 5 6 
#
# 1 0.023493 0.002658 -0.010561 0.000000 0.000094 0.000000
# 2 0.002658 0.040522 -0.006298 0.000000 0.001707 0.000000
# 3 -0.010561 -0.006298 0.013458 0.000000 0.002063 0.000000
# 4 0.000000 0.000000 0.000000 0.049588 0.000000 0.006130
# 5 0.000094 0.001707 0.002063 0.000000 0.036098 0.000000
# 6 0.000000 0.000000 0.000000 0.006130 0.000000 0.038831
#
#
# Mechanical properties :
#
#
# Convention : Reuss Voigt Hill
#
# Bulk Modulus (GPa) = 20.37859 41.28379 30.83119
# Shear Modulus (GPa) = 20.26341 24.65853 22.46097
#
# Velocity S-wave (km/s) = 3.19477 3.52425 3.36355
# Velocity P-wave (km/s) = 4.88603 6.11186 5.53300
#
# Compressibility (1/GPa) = 0.04907110
#
# Stress axis : x y z
#
# Youngs Moduli (GPa) = 42.56537 24.67815 74.30323
#
# Poissons Ratio (x) = -0.06560 0.78474
# Poissons Ratio (y) = -0.11314 0.46796
# Poissons Ratio (z) = 0.44954 0.15542
#
# Static dielectric constant tensor:
#      x y z
#    x 1.726530 0.000000 -0.020520 
#    y 0.000000 1.680680 0.000000 
#    z -0.020520 0.000000 1.737810 
# 
# From -- ./inp_files/378504.got.cif
#   From: 2010.05.17/outbox.cif.g08.bks.cpg/sg12_190_cif.got.tgz:378504.got - 2010.06.03 13:09:07.
