data_PCOD9180073
_publ_section_title
;
Structure prediction by ZEFSAII (Michael W. Deem and Ramdas Pophale) SiO2 
 PCOD9180073
Probable space group: C 2/M
;
_chemical_formula_sum "Si O2"
_cell_formula_units_Z 64
_cell_length_a 14.935231
_cell_length_b 7.361963
_cell_length_c 23.544880
_cell_angle_alpha 90.000000
_cell_angle_beta 67.840150
_cell_angle_gamma 90.000000
_cell_volume 2397.598254
_symmetry_space_group_name_H-M "C 2/M"
_symmetry_group_IT_number 12
_symmetry_cell_setting 'monoclinic'
loop_
_space_group_symop_operation_xyz
x,y,z
-x,y,-z
-x,-y,-z
x,-y,z
1/2+x,1/2+y,z
1/2-x,1/2+y,-z
1/2-x,1/2-y,-z
1/2+x,1/2-y,z
loop_
_atom_site_type_symbol
_atom_site_label
_atom_site_fract_x
_atom_site_fract_y
_atom_site_fract_z
Si Si1 0.101692 0.791475 0.957053
Si Si2 0.322859 0.703388 0.766681
Si Si3 0.698940 0.779365 0.593381
Si Si4 0.044079 0.719936 0.725590
Si Si5 0.358282 0.720516 0.637960
Si Si6 0.445858 0.790192 0.459373
Si Si7 0.525224 0.780454 0.857259
Si Si8 0.192313 0.709013 0.099756
O O1 0.206388 0.710150 0.946343
O O2 0.090070 0.791363 0.892056
O O3 0.101827 0.000000 0.977669
O O4 0.000000 0.705086 0.000000
O O5 0.280911 0.500000 0.778993
O O6 0.439716 0.698258 0.737485
O O7 0.303854 0.781405 0.708467
O O8 0.302477 0.789892 0.832474
O O9 0.624823 0.728581 0.661410
O O10 0.801814 0.722922 0.594182
O O11 0.649870 0.711006 0.546994
O O12 0.699720 0.000000 0.589738
O O13 0.034277 0.500000 0.726039
O O14 0.064375 0.769174 0.786035
O O15 0.358612 0.500000 0.639783
O O16 0.467886 0.787101 0.607718
O O17 0.500000 0.702247 0.500000
O O18 0.425732 0.000000 0.477757
O O19 0.413371 0.715156 0.890001
O O20 0.523412 0.000000 0.860704
O O21 0.190827 0.500000 0.082033
#
# Coordination Sequence:
#
# PCOD9180073 Si02
#       8
#     8   8   8   8   8   8   8   8
#     4  10  22  39  57  79 110 147 185 224 271 324
#     4  10  19  31  53  83 112 136 177 228 268 317
#     4   9  18  34  55  78 109 147 179 214 272 331
#     4   9  17  33  57  78 108 150 180 211 273 338
#     4  10  21  35  54  81 110 144 180 220 274 328
#     4  10  21  38  59  80 106 145 191 230 265 319
#     4   9  19  34  55  81 107 140 184 222 264 327
#     4   9  20  38  56  77 109 148 180 214 274 334
#
# _framework density 26.693377000000002
#
# number of rings (size 3 to 8) (size 9 to 14) (size 15 to 20)
#    0.000    2.500    1.250    1.125    1.750    4.500 
#    0.000    1.250    0.000    0.000    0.000    0.000 
#    0.000    0.000    0.000    0.000    0.000    0.000 
#
# Total GULP energy -178928.453545 kJ/mol
# GULP energy per Si atom -5591.514173 kJ/mol
# Density = 2.663262 g / cm^3
# Si number density = 26.693377 Si / 1000 Ang^3
#
#
#
# Elastic Constant Matrix: (Units=GPa)
#
#
# Indices 1 2 3 4 5 6 
#
# 1 154.5071 1.2339 39.1017 0.0000 -5.9627 0.0001
# 2 1.2339 106.2122 10.0319 0.0000 0.0664 0.0002
# 3 39.1017 10.0319 62.3997 0.0000 8.4421 0.0000
# 4 0.0000 0.0000 0.0000 12.8474 0.0000 6.0172
# 5 -5.9627 0.0664 8.4421 0.0000 62.7979 0.0000
# 6 0.0001 0.0002 0.0000 6.0172 0.0000 -3.9612
#
#
#
# Elastic Compliance Matrix: (Units=1/GPa)
#
#
# Indices 1 2 3 4 5 6 
#
# 1 0.007832 0.000396 -0.005166 0.000000 0.001438 0.000000
# 2 0.000396 0.009583 -0.001826 0.000000 0.000273 0.000000
# 3 -0.005166 -0.001826 0.019986 0.000000 -0.003175 0.000000
# 4 0.000000 0.000000 0.000000 0.045480 0.000000 0.069085
# 5 0.001438 0.000273 -0.003175 0.000000 0.016487 0.000000
# 6 0.000000 0.000000 0.000000 0.069085 0.000000 -0.147505
#
#
# Mechanical properties :
#
#
# Convention : Reuss Voigt Hill
#
# Bulk Modulus (GPa) = 41.30612 47.09491 44.20051
# Shear Modulus (GPa) = -186.03374 32.52025 -76.75674
#
# Velocity S-wave (km/s) = -8.35728 3.49419 -5.36818
# Velocity P-wave (km/s) = 8.81009 5.82755 4.67211
#
# Compressibility (1/GPa) = 0.02420949
#
# Stress axis : x y z
#
# Youngs Moduli (GPa) = 127.68345 104.35383 50.03514
#
# Poissons Ratio (x) = -0.04133 0.25848
# Poissons Ratio (y) = -0.05057 0.09135
# Poissons Ratio (z) = 0.65960 0.19052
#
# Static dielectric constant tensor:
#      x y z
#    x 2.071320 0.000000 0.013190 
#    y 0.000000 2.014450 0.000000 
#    z 0.013190 0.000000 2.151060 
# 
# From -- ./inp_files/359748.got.cif
#   From: 2010.05.17/outbox.cif.g08.bks.cpg/sg12_180_cif.got.tgz:359748.got - 2010.06.03 13:09:07.
