data_PCOD9180333
_publ_section_title
;
Structure prediction by ZEFSAII (Michael W. Deem and Ramdas Pophale) SiO2 
 PCOD9180333
Probable space group: C 2/M
;
_chemical_formula_sum "Si O2"
_cell_formula_units_Z 64
_cell_length_a 29.400153
_cell_length_b 7.298637
_cell_length_c 29.217713
_cell_angle_alpha 90.000000
_cell_angle_beta 153.812150
_cell_angle_gamma 90.000000
_cell_volume 2766.857715
_symmetry_space_group_name_H-M "C 2/M"
_symmetry_group_IT_number 12
_symmetry_cell_setting 'monoclinic'
loop_
_space_group_symop_operation_xyz
x,y,z
-x,y,-z
-x,-y,-z
x,-y,z
1/2+x,1/2+y,z
1/2-x,1/2+y,-z
1/2-x,1/2-y,-z
1/2+x,1/2-y,z
loop_
_atom_site_type_symbol
_atom_site_label
_atom_site_fract_x
_atom_site_fract_y
_atom_site_fract_z
Si Si1 0.538382 0.719066 0.336365
Si Si2 0.824368 0.224541 0.455375
Si Si3 0.617090 0.722150 0.593376
Si Si4 0.891385 0.715699 0.698316
Si Si5 0.815106 0.223985 0.151073
Si Si6 0.208999 0.791716 0.769230
Si Si7 0.453070 0.208533 0.003129
Si Si8 0.582768 0.775795 0.928219
O O1 0.532609 0.500000 0.334591
O O2 0.590884 0.783234 0.430709
O O3 0.607903 0.761625 0.355403
O O4 0.420606 0.783380 0.222333
O O5 0.849640 0.285375 0.426757
O O6 0.711824 0.286126 0.370893
O O7 0.825144 0.000000 0.456203
O O8 0.500000 0.766941 0.500000
O O9 0.626442 0.500000 0.599837
O O10 0.681297 0.788465 0.695209
O O11 0.892190 0.500000 0.708984
O O12 0.999978 0.786375 0.816272
O O13 0.826762 0.285994 0.214551
O O14 0.811493 0.000000 0.147945
O O15 0.702400 0.282739 0.031304
O O16 0.331431 0.800598 0.884495
O O17 0.166252 0.000000 0.730121
O O18 0.496340 0.000000 0.044641
O O19 0.500000 0.295399 0.000000
O O20 0.460455 0.283952 0.060991
O O21 0.586229 0.000000 0.932285
#
# Coordination Sequence:
#
# PCOD9180333 Si02
#       8
#     8   8   8   8   8   8   8   8
#     4  10  19  32  49  64  84 118 157 189 219 260
#     4   9  18  29  42  62  89 120 148 180 224 266
#     4   9  15  22  35  57  85 116 144 170 208 262
#     4  10  20  32  46  65  92 119 146 185 228 265
#     4   8  14  26  42  61  86 117 149 181 218 262
#     4   8  13  20  32  53  81 111 139 166 204 257
#     4   8  13  19  31  51  78 113 141 160 196 259
#     4   8  15  26  39  59  88 119 145 175 221 266
#
# _framework density 23.130932999999999
#
# number of rings (size 3 to 8) (size 9 to 14) (size 15 to 20)
#    0.000    3.250    0.000    2.625    1.750    3.500 
#    0.000    0.000    0.000    0.000    0.000    0.000 
#    0.000    9.500    0.000    0.000    0.000    0.000 
#
# Total GULP energy -178503.029915 kJ/mol
# GULP energy per Si atom -5578.219685 kJ/mol
# Density = 2.307829 g / cm^3
# Si number density = 23.130933 Si / 1000 Ang^3
#
#
#
# Elastic Constant Matrix: (Units=GPa)
#
#
# Indices 1 2 3 4 5 6 
#
# 1 87.0449 -2.9846 16.3997 0.0000 25.2652 -0.0001
# 2 -2.9846 92.7011 4.3204 -0.0007 3.5737 -0.0007
# 3 16.3997 4.3204 79.8288 0.0000 -0.3948 -0.0001
# 4 0.0000 -0.0007 0.0000 -19.3522 0.0000 6.4018
# 5 25.2652 3.5737 -0.3948 0.0000 32.0198 0.0000
# 6 -0.0001 -0.0007 -0.0001 6.4018 0.0000 -16.1308
#
#
#
# Elastic Compliance Matrix: (Units=1/GPa)
#
#
# Indices 1 2 3 4 5 6 
#
# 1 0.015843 0.001156 -0.003380 0.000000 -0.012671 0.000000
# 2 0.001156 0.010946 -0.000841 -0.000001 -0.002144 -0.000001
# 3 -0.003380 -0.000841 0.013281 0.000000 0.002924 0.000000
# 4 0.000000 -0.000001 0.000000 -0.059483 0.000000 -0.023607
# 5 -0.012671 -0.002144 0.002924 0.000000 0.041504 0.000000
# 6 0.000000 -0.000001 0.000000 -0.023607 0.000000 -0.071362
#
#
# Mechanical properties :
#
#
# Convention : Reuss Voigt Hill
#
# Bulk Modulus (GPa) = 29.46244 32.78287 31.12266
# Shear Modulus (GPa) = -157.09554 15.42996 -70.83279
#
# Velocity S-wave (km/s) = -8.25004 2.58557 -5.53977
# Velocity P-wave (km/s) = 8.83097 4.80802 5.23779
#
# Compressibility (1/GPa) = 0.03394152
#
# Stress axis : x y z
#
# Youngs Moduli (GPa) = 63.12063 91.35406 75.29491
#
# Poissons Ratio (x) = -0.10561 0.25449
# Poissons Ratio (y) = -0.07297 0.06329
# Poissons Ratio (z) = 0.21334 0.07679
#
# Static dielectric constant tensor:
#      x y z
#    x 1.846030 0.000000 -0.011290 
#    y 0.000000 1.993570 0.000000 
#    z -0.011290 0.000000 1.867540 
# 
# From -- ./inp_files/369203.got.cif
#   From: 2010.05.17/outbox.cif.g08.bks.cpg/sg12_185_cif.got.tgz:369203.got - 2010.06.03 13:09:07.
