data_PCOD9180860
_publ_section_title
;
Structure prediction by ZEFSAII (Michael W. Deem and Ramdas Pophale) SiO2 
 PCOD9180860
Probable space group: C 2/M
;
_chemical_formula_sum "Si O2"
_cell_formula_units_Z 64
_cell_length_a 29.087477
_cell_length_b 8.655154
_cell_length_c 16.300092
_cell_angle_alpha 90.000000
_cell_angle_beta 116.600189
_cell_angle_gamma 90.000000
_cell_volume 3669.295003
_symmetry_space_group_name_H-M "C 2/M"
_symmetry_group_IT_number 12
_symmetry_cell_setting 'monoclinic'
loop_
_space_group_symop_operation_xyz
x,y,z
-x,y,-z
-x,-y,-z
x,-y,z
1/2+x,1/2+y,z
1/2-x,1/2+y,-z
1/2-x,1/2-y,-z
1/2+x,1/2-y,z
loop_
_atom_site_type_symbol
_atom_site_label
_atom_site_fract_x
_atom_site_fract_y
_atom_site_fract_z
Si Si1 0.851715 0.812928 0.394183
Si Si2 0.401087 0.313546 0.605522
Si Si3 0.634502 0.814636 0.251587
Si Si4 0.116615 0.316501 0.753203
Si Si5 0.514377 0.685688 0.751567
Si Si6 0.971913 0.186393 0.894447
Si Si7 0.260830 0.812432 0.749745
Si Si8 0.276334 0.314527 0.102179
O O1 0.876921 0.764608 0.499932
O O2 0.879952 0.745793 0.337143
O O3 0.791755 0.766857 0.338381
O O4 0.854087 0.000000 0.391102
O O5 0.398049 0.500000 0.608498
O O6 0.372012 0.245109 0.660851
O O7 0.461280 0.272387 0.662877
O O8 0.584559 0.756206 0.162577
O O9 0.687202 0.758187 0.251826
O O10 0.634522 0.000000 0.252138
O O11 0.121368 0.500000 0.757064
O O12 0.063830 0.265175 0.753070
O O13 0.165574 0.244570 0.839432
O O14 0.520644 0.500000 0.751179
O O15 0.504450 0.726327 0.838968
O O16 0.966960 0.000000 0.891477
O O17 0.000000 0.235808 0.000000
O O18 0.253971 0.765464 0.839171
O O19 0.262127 0.000000 0.750051
O O20 0.276854 0.500000 0.100092
O O21 0.250000 0.250000 0.000000
#
# Coordination Sequence:
#
# PCOD9180860 Si02
#       8
#     8   8   8   8   8   8   8   8
#     4   9  18  36  57  74 100 138 175 211 255 306
#     4   9  19  35  55  77 101 134 175 214 254 305
#     4  10  19  32  51  76 106 136 166 205 256 308
#     4  11  22  35  52  77 106 135 172 214 258 307
#     4   9  18  34  53  74 102 135 171 211 258 308
#     4   9  19  36  55  75 100 132 173 216 254 300
#     4   8  17  33  52  75 104 136 167 204 252 305
#     4  10  20  37  57  77 105 138 174 214 256 303
#
# _framework density 17.442042000000001
#
# number of rings (size 3 to 8) (size 9 to 14) (size 15 to 20)
#    0.000    2.625    0.000    3.375    0.000    4.750 
#    0.000   11.250    0.000    0.000    0.000    0.000 
#    0.000    0.000    0.000    0.000    0.000    0.000 
#
# Total GULP energy -178496.266663 kJ/mol
# GULP energy per Si atom -5578.008333 kJ/mol
# Density = 1.740234 g / cm^3
# Si number density = 17.442042 Si / 1000 Ang^3
#
#
#
# Elastic Constant Matrix: (Units=GPa)
#
#
# Indices 1 2 3 4 5 6 
#
# 1 178.2006 45.0191 101.6662 0.0000 -4.9486 0.0000
# 2 45.0191 36.7631 45.7061 0.0000 -0.0912 0.0000
# 3 101.6662 45.7061 198.2348 0.0000 3.9704 0.0000
# 4 0.0000 0.0000 0.0000 24.1767 0.0000 -0.5080
# 5 -4.9486 -0.0912 3.9704 0.0000 5.6989 0.0000
# 6 0.0000 0.0000 0.0000 -0.5080 0.0000 23.8365
#
#
#
# Elastic Compliance Matrix: (Units=1/GPa)
#
#
# Indices 1 2 3 4 5 6 
#
# 1 0.009851 -0.007688 -0.003497 0.000000 0.010867 0.000000
# 2 -0.007688 0.044396 -0.006261 0.000000 -0.001604 0.000000
# 3 -0.003497 -0.006261 0.008463 0.000000 -0.009033 0.000000
# 4 0.000000 0.000000 0.000000 0.041381 0.000000 0.000882
# 5 0.010867 -0.001604 -0.009033 0.000000 0.191175 0.000000
# 6 0.000000 0.000000 0.000000 0.000882 0.000000 0.041971
#
#
# Mechanical properties :
#
#
# Convention : Reuss Voigt Hill
#
# Bulk Modulus (GPa) = 35.94965 88.66458 62.30711
# Shear Modulus (GPa) = 13.10950 25.46290 19.28620
#
# Velocity S-wave (km/s) = 2.74451 3.82495 3.32886
# Velocity P-wave (km/s) = 5.54065 8.39352 7.11161
#
# Compressibility (1/GPa) = 0.02781669
#
# Stress axis : x y z
#
# Youngs Moduli (GPa) = 101.51328 22.52430 118.16785
#
# Poissons Ratio (x) = 0.17318 0.41324
# Poissons Ratio (y) = 0.78048 0.73986
# Poissons Ratio (z) = 0.35500 0.14103
#
# Static dielectric constant tensor:
#      x y z
#    x 1.572000 0.000000 0.000220 
#    y 0.000000 1.589930 0.000000 
#    z 0.000220 0.000000 1.579060 
# 
# From -- ./inp_files/244204.got.cif
#   From: 2010.05.17/outbox.cif.g08.bks.cpg/sg12_123_cif.got.tgz:244204.got - 2010.06.03 13:09:07.
