data_PCOD9180744
_publ_section_title
;
Structure prediction by ZEFSAII (Michael W. Deem and Ramdas Pophale) SiO2 
 PCOD9180744
Probable space group: C 2/M
;
_chemical_formula_sum "Si O2"
_cell_formula_units_Z 56
_cell_length_a 19.273275
_cell_length_b 9.240037
_cell_length_c 25.744872
_cell_angle_alpha 90.000000
_cell_angle_beta 40.102214
_cell_angle_gamma 90.000000
_cell_volume 2953.310607
_symmetry_space_group_name_H-M "C 2/M"
_symmetry_group_IT_number 12
_symmetry_cell_setting 'monoclinic'
loop_
_space_group_symop_operation_xyz
x,y,z
-x,y,-z
-x,-y,-z
x,-y,z
1/2+x,1/2+y,z
1/2-x,1/2+y,-z
1/2-x,1/2-y,-z
1/2+x,1/2-y,z
loop_
_atom_site_type_symbol
_atom_site_label
_atom_site_fract_x
_atom_site_fract_y
_atom_site_fract_z
Si Si1 0.430806 0.331419 0.663589
Si Si2 0.192571 0.828574 0.985287
Si Si3 0.648488 0.667610 0.172016
Si Si4 0.039275 0.827763 0.920214
Si Si5 0.560489 0.829928 0.739302
Si Si6 0.793072 0.326037 0.246362
Si Si7 0.139583 0.330311 0.575698
O O1 0.456481 0.500000 0.638242
O O2 0.381961 0.324131 0.749998
O O3 0.332216 0.282035 0.683737
O O4 0.539074 0.238790 0.602406
O O5 0.248997 0.762609 0.901952
O O6 0.210294 0.000000 0.977067
O O7 0.250000 0.750000 0.000000
O O8 0.065181 0.802364 0.056116
O O9 0.666339 0.500000 0.148005
O O10 0.546242 0.732752 0.199854
O O11 0.139771 0.744909 0.838721
O O12 0.061535 0.000000 0.909265
O O13 0.000000 0.783158 0.000000
O O14 0.644602 0.790890 0.736145
O O15 0.612736 0.814053 0.652383
O O16 0.530955 0.000000 0.762679
O O17 0.794197 0.500000 0.239252
O O18 0.148650 0.500000 0.559173
O O19 0.250000 0.250000 0.500000
#
# Coordination Sequence:
#
# PCOD9180744 Si02
#       7
#     8   8   8   8   8   8   8
#     4   9  19  35  55  79 105 134 169 208 252 306
#     4  11  22  34  49  70  98 133 174 221 268 311
#     4  10  19  32  51  74 100 132 172 216 260 308
#     4  10  22  37  51  71 102 140 179 219 264 310
#     4   9  19  35  55  79 106 138 174 212 258 310
#     4  10  20  35  55  78 104 135 174 218 261 307
#     4  10  20  36  59  84 109 138 171 208 252 304
#
# _framework density 18.961770999999999
#
# number of rings (size 3 to 8) (size 9 to 14) (size 15 to 20)
#    0.000    2.143    0.000    3.000    0.000    6.000 
#    0.000    0.714    0.000    4.286    0.000    0.000 
#    0.000    0.000    0.000    0.000    0.000    0.000 
#
# Total GULP energy -156375.280512 kJ/mol
# GULP energy per Si atom -5584.831447 kJ/mol
# Density = 1.891861 g / cm^3
# Si number density = 18.961771 Si / 1000 Ang^3
#
#
#
# Elastic Constant Matrix: (Units=GPa)
#
#
# Indices 1 2 3 4 5 6 
#
# 1 91.6631 31.1397 10.6881 0.0000 -23.4080 -0.0001
# 2 31.1397 63.2137 40.1135 0.0001 -23.4515 -0.0002
# 3 10.6881 40.1135 61.0219 0.0000 -32.3857 0.0000
# 4 0.0000 0.0001 0.0000 32.1213 0.0000 -2.7517
# 5 -23.4080 -23.4515 -32.3857 0.0000 29.2607 0.0000
# 6 -0.0001 -0.0002 0.0000 -2.7517 0.0000 23.0466
#
#
#
# Elastic Compliance Matrix: (Units=1/GPa)
#
#
# Indices 1 2 3 4 5 6 
#
# 1 0.019338 -0.011106 0.017935 0.000000 0.026419 0.000000
# 2 -0.011106 0.033807 -0.025723 0.000000 -0.010260 0.000000
# 3 0.017935 -0.025723 0.065025 0.000000 0.065700 0.000000
# 4 0.000000 0.000000 0.000000 0.031454 0.000000 0.003755
# 5 0.026419 -0.010260 0.065700 0.000000 0.119805 0.000000
# 6 0.000000 0.000000 0.000000 0.003755 0.000000 0.043839
#
#
# Mechanical properties :
#
#
# Convention : Reuss Voigt Hill
#
# Bulk Modulus (GPa) = 12.44080 42.19792 27.31936
# Shear Modulus (GPa) = 13.23280 25.81620 19.52450
#
# Velocity S-wave (km/s) = 2.64458 3.69384 3.21234
# Velocity P-wave (km/s) = 3.98752 6.36357 5.31015
#
# Compressibility (1/GPa) = 0.08038067
#
# Stress axis : x y z
#
# Youngs Moduli (GPa) = 51.71235 29.57945 15.37882
#
# Poissons Ratio (x) = 0.32850 -0.27581
# Poissons Ratio (y) = 0.57429 0.39560
# Poissons Ratio (z) = -0.92744 0.76089
#
# Static dielectric constant tensor:
#      x y z
#    x 1.691070 0.000000 0.013080 
#    y 0.000000 1.631990 0.000000 
#    z 0.013080 0.000000 1.644470 
# 
# From -- ./inp_files/363024.got.cif
#   From: 2010.05.17/outbox.cif.g08.bks.cpg/sg12_182_cif.got.tgz:363024.got - 2010.06.03 13:09:07.
