data_PCOD9180252
_publ_section_title
;
Structure prediction by ZEFSAII (Michael W. Deem and Ramdas Pophale) SiO2 
 PCOD9180252
Probable space group: C 2/M
;
_chemical_formula_sum "Si O2"
_cell_formula_units_Z 64
_cell_length_a 28.472312
_cell_length_b 14.153619
_cell_length_c 11.498477
_cell_angle_alpha 90.000000
_cell_angle_beta 64.131066
_cell_angle_gamma 90.000000
_cell_volume 4169.403065
_symmetry_space_group_name_H-M "C 2/M"
_symmetry_group_IT_number 12
_symmetry_cell_setting 'monoclinic'
loop_
_space_group_symop_operation_xyz
x,y,z
-x,y,-z
-x,-y,-z
x,-y,z
1/2+x,1/2+y,z
1/2-x,1/2+y,-z
1/2-x,1/2-y,-z
1/2+x,1/2-y,z
loop_
_atom_site_type_symbol
_atom_site_label
_atom_site_fract_x
_atom_site_fract_y
_atom_site_fract_z
Si Si1 0.189591 0.113377 0.584586
Si Si2 0.012090 0.107959 0.348063
Si Si3 0.770711 0.392376 0.688162
Si Si4 0.638640 0.107037 0.604086
Si Si5 0.728059 0.279618 0.147772
Si Si6 0.377080 0.613982 0.692359
Si Si7 0.590832 0.704637 0.590570
Si Si8 0.276374 0.886155 0.300491
O O1 0.218932 0.137004 0.672490
O O2 0.132675 0.155805 0.630625
O O3 0.227804 0.144102 0.436961
O O4 0.187080 0.000000 0.580806
O O5 0.968807 0.171976 0.334436
O O6 0.000000 0.110511 0.500000
O O7 0.073331 0.131143 0.276960
O O8 0.004040 0.000000 0.318648
O O9 0.764181 0.500000 0.738032
O O10 0.816104 0.393725 0.542651
O O11 0.783995 0.317154 0.770894
O O12 0.597863 0.184690 0.606346
O O13 0.670318 0.133596 0.687167
O O14 0.618575 0.000000 0.637071
O O15 0.676467 0.344771 0.200248
O O16 0.768641 0.336164 0.186114
O O17 0.750000 0.250000 0.000000
O O18 0.374118 0.500000 0.674133
O O19 0.389718 0.667670 0.557407
O O20 0.272869 0.000000 0.292801
#
# Coordination Sequence:
#
# PCOD9180252 Si02
#       8
#     8   8   8   8   8   8   8   8
#     4   9  15  24  46  71  90 114 144 185 242 287
#     4   8  16  27  42  67  94 119 149 186 229 275
#     4   9  18  31  41  61  94 121 148 188 232 276
#     4   9  17  28  46  69  94 123 147 183 241 286
#     4  12  22  30  45  66  88 127 168 186 218 269
#     4  10  19  32  46  64  94 126 156 192 226 264
#     4  11  15  24  48  71  95 119 150 184 229 282
#     4   9  17  30  45  66  94 120 151 190 234 281
#
# _framework density 15.349919999999999
#
# number of rings (size 3 to 8) (size 9 to 14) (size 15 to 20)
#    0.000    2.375    2.500    4.500    0.000    3.000 
#    0.000    0.000    0.000    4.125    0.000    3.500 
#    0.000   12.000    0.000    0.000    0.000    0.000 
#
# Total GULP energy -178280.725437 kJ/mol
# GULP energy per Si atom -5571.272670 kJ/mol
# Density = 1.531498 g / cm^3
# Si number density = 15.349920 Si / 1000 Ang^3
#
#
#
# Elastic Constant Matrix: (Units=GPa)
#
#
# Indices 1 2 3 4 5 6 
#
# 1 101.0313 67.4382 21.2731 0.0000 11.3583 0.0000
# 2 67.4382 95.3372 26.9685 0.0000 11.2950 0.0000
# 3 21.2731 26.9685 45.5646 0.0000 4.1530 0.0000
# 4 0.0000 0.0000 0.0000 11.4073 0.0000 5.2055
# 5 11.3583 11.2950 4.1530 0.0000 8.0223 0.0000
# 6 0.0000 0.0000 0.0000 5.2055 0.0000 29.0395
#
#
#
# Elastic Compliance Matrix: (Units=1/GPa)
#
#
# Indices 1 2 3 4 5 6 
#
# 1 0.019398 -0.012329 -0.000879 0.000000 -0.009650 0.000000
# 2 -0.012329 0.022296 -0.006476 0.000000 -0.010583 0.000000
# 3 -0.000879 -0.006476 0.026496 0.000000 -0.003354 0.000000
# 4 0.000000 0.000000 0.000000 0.095473 0.000000 -0.017114
# 5 -0.009650 -0.010583 -0.003354 0.000000 0.154951 0.000000
# 6 0.000000 0.000000 0.000000 -0.017114 0.000000 0.037504
#
#
# Mechanical properties :
#
#
# Convention : Reuss Voigt Hill
#
# Bulk Modulus (GPa) = 34.69685 52.58806 43.64246
# Shear Modulus (GPa) = 12.34286 18.11073 15.22680
#
# Velocity S-wave (km/s) = 2.83874 3.43863 3.15299
# Velocity P-wave (km/s) = 5.77907 7.07810 6.46131
#
# Compressibility (1/GPa) = 0.02882106
#
# Stress axis : x y z
#
# Youngs Moduli (GPa) = 51.55258 44.85130 37.74170
#
# Poissons Ratio (x) = 0.55298 0.03319
# Poissons Ratio (y) = 0.63560 0.24440
# Poissons Ratio (z) = 0.04534 0.29044
#
# Static dielectric constant tensor:
#      x y z
#    x 1.525980 0.000000 0.014140 
#    y 0.000000 1.547490 0.000000 
#    z 0.014140 0.000000 1.486410 
# 
# From -- ./inp_files/104580.got.cif
#   From: 2010.05.17/outbox.cif.g08.bks.cpg/sg12_53_cif.got.tgz:104580.got - 2010.06.03 13:09:07.
