data_PCOD9180796
_publ_section_title
;
Structure prediction by ZEFSAII (Michael W. Deem and Ramdas Pophale) SiO2 
 PCOD9180796
Probable space group: C 2/M
;
_chemical_formula_sum "Si O2"
_cell_formula_units_Z 64
_cell_length_a 29.871622
_cell_length_b 7.875001
_cell_length_c 14.568533
_cell_angle_alpha 90.000000
_cell_angle_beta 86.652315
_cell_angle_gamma 90.000000
_cell_volume 3421.239797
_symmetry_space_group_name_H-M "C 2/M"
_symmetry_group_IT_number 12
_symmetry_cell_setting 'monoclinic'
loop_
_space_group_symop_operation_xyz
x,y,z
-x,y,-z
-x,-y,-z
x,-y,z
1/2+x,1/2+y,z
1/2-x,1/2+y,-z
1/2-x,1/2-y,-z
1/2+x,1/2-y,z
loop_
_atom_site_type_symbol
_atom_site_label
_atom_site_fract_x
_atom_site_fract_y
_atom_site_fract_z
Si Si1 0.567602 0.708843 0.729848
Si Si2 0.643546 0.695813 0.848699
Si Si3 0.473249 0.704762 0.816670
Si Si4 0.834049 0.797985 0.814093
Si Si5 0.050106 0.792470 0.523924
Si Si6 0.595359 0.293508 0.336199
Si Si7 0.599405 0.193042 0.033317
Si Si8 0.760158 0.797226 0.103951
O O1 0.567715 0.500000 0.730913
O O2 0.613059 0.770731 0.771888
O O3 0.523943 0.761675 0.793706
O O4 0.561604 0.762692 0.625266
O O5 0.652007 0.500000 0.822184
O O6 0.691849 0.772744 0.868230
O O7 0.613333 0.698399 0.944147
O O8 0.472816 0.500000 0.818662
O O9 0.443486 0.756778 0.731563
O O10 0.446932 0.764079 0.909967
O O11 0.858112 0.742160 0.717114
O O12 0.861947 0.716749 0.894372
O O13 0.781972 0.759791 0.830586
O O14 0.840862 0.000000 0.822681
O O15 0.083571 0.734602 0.439440
O O16 0.000000 0.742225 0.500000
O O17 0.050427 0.000000 0.525323
O O18 0.594689 0.500000 0.339315
O O19 0.598725 0.000000 0.002206
O O20 0.762438 0.000000 0.105828
O O21 0.750000 0.750000 0.000000
#
# Coordination Sequence:
#
# PCOD9180796 Si02
#       8
#     8   8   8   8   8   8   8   8
#     4   9  17  29  48  73 101 134 167 203 250 294
#     4  10  21  35  49  70 100 132 166 207 252 297
#     4   9  16  29  48  71 101 133 165 200 242 290
#     4  10  19  32  51  75 102 127 160 207 255 301
#     4   9  13  22  45  77 105 125 156 206 250 286
#     4   8  14  24  43  74 104 126 151 197 252 290
#     4  11  21  32  48  70  98 134 171 202 242 295
#     4  11  21  33  52  73  97 130 171 212 254 297
#
# _framework density 18.706668000000001
#
# number of rings (size 3 to 8) (size 9 to 14) (size 15 to 20)
#    0.000    2.375    2.500    2.625    0.000    1.000 
#    0.000    3.125    0.000    0.750    0.000   12.250 
#    0.000    0.000    0.000    0.000    0.000    0.625 
#
# Total GULP energy -178499.101271 kJ/mol
# GULP energy per Si atom -5578.096915 kJ/mol
# Density = 1.866409 g / cm^3
# Si number density = 18.706668 Si / 1000 Ang^3
#
#
#
# Elastic Constant Matrix: (Units=GPa)
#
#
# Indices 1 2 3 4 5 6 
#
# 1 141.9912 4.0120 73.4863 0.0000 -2.5481 0.0000
# 2 4.0120 27.1123 -7.8641 0.0000 -0.2900 0.0000
# 3 73.4863 -7.8641 98.8891 0.0000 -4.0364 0.0000
# 4 0.0000 0.0000 0.0000 -2.4880 0.0000 -1.4126
# 5 -2.5481 -0.2900 -4.0364 0.0000 26.1164 0.0000
# 6 0.0000 0.0000 0.0000 -1.4126 0.0000 13.7313
#
#
#
# Elastic Compliance Matrix: (Units=1/GPa)
#
#
# Indices 1 2 3 4 5 6 
#
# 1 0.011948 -0.004453 -0.009246 0.000000 -0.000313 0.000000
# 2 -0.004453 0.039435 0.006486 0.000000 0.001006 0.000000
# 3 -0.009246 0.006486 0.017576 0.000000 0.001886 0.000000
# 4 0.000000 0.000000 0.000000 -0.379752 0.000000 -0.039068
# 5 -0.000313 0.001006 0.001886 0.000000 0.038562 0.000000
# 6 0.000000 0.000000 0.000000 -0.039068 0.000000 0.068807
#
#
# Mechanical properties :
#
#
# Convention : Reuss Voigt Hill
#
# Bulk Modulus (GPa) = 18.33735 45.25122 31.79428
# Shear Modulus (GPa) = -29.27018 20.69584 -4.28717
#
# Velocity S-wave (km/s) = -3.95991 3.32977 -1.51551
# Velocity P-wave (km/s) = 3.32926 6.24704 3.73775
#
# Compressibility (1/GPa) = 0.05453351
#
# Stress axis : x y z
#
# Youngs Moduli (GPa) = 83.69696 25.35833 56.89673
#
# Poissons Ratio (x) = 0.11292 0.52604
# Poissons Ratio (y) = 0.37271 -0.36905
# Poissons Ratio (z) = 0.77383 -0.16448
#
# Static dielectric constant tensor:
#      x y z
#    x 1.658610 0.000000 -0.008800 
#    y 0.000000 1.693950 0.000000 
#    z -0.008800 0.000000 1.636630 
# 
# From -- ./inp_files/248306.got.cif
#   From: 2010.05.17/outbox.cif.g08.bks.cpg/sg12_125_cif.got.tgz:248306.got - 2010.06.03 13:09:07.
