data_PCOD9180334
_publ_section_title
;
Structure prediction by ZEFSAII (Michael W. Deem and Ramdas Pophale) SiO2 
 PCOD9180334
Probable space group: C 2/M
;
_chemical_formula_sum "Si O2"
_cell_formula_units_Z 64
_cell_length_a 32.263678
_cell_length_b 8.637762
_cell_length_c 14.746391
_cell_angle_alpha 90.000000
_cell_angle_beta 91.074862
_cell_angle_gamma 90.000000
_cell_volume 4108.889173
_symmetry_space_group_name_H-M "C 2/M"
_symmetry_group_IT_number 12
_symmetry_cell_setting 'monoclinic'
loop_
_space_group_symop_operation_xyz
x,y,z
-x,y,-z
-x,-y,-z
x,-y,z
1/2+x,1/2+y,z
1/2-x,1/2+y,-z
1/2-x,1/2-y,-z
1/2+x,1/2-y,z
loop_
_atom_site_type_symbol
_atom_site_label
_atom_site_fract_x
_atom_site_fract_y
_atom_site_fract_z
Si Si1 0.842389 0.313399 0.601707
Si Si2 0.000662 0.687233 0.605225
Si Si3 0.749185 0.185254 0.397683
Si Si4 0.451371 0.812931 0.894352
Si Si5 0.578588 0.683566 0.291071
Si Si6 0.548202 0.811898 0.902112
Si Si7 0.335636 0.813173 0.389181
Si Si8 0.916485 0.688982 0.284200
O O1 0.846253 0.500000 0.604336
O O2 0.796769 0.271666 0.638522
O O3 0.879924 0.241413 0.658217
O O4 0.843327 0.267715 0.494955
O O5 0.998739 0.500000 0.608711
O O6 0.961120 0.750530 0.656708
O O7 0.000000 0.734029 0.500000
O O8 0.043477 0.735098 0.655009
O O9 0.750000 0.250000 0.500000
O O10 0.791002 0.250712 0.355828
O O11 0.751365 0.000000 0.400250
O O12 0.425156 0.743201 0.812025
O O13 0.499982 0.769864 0.884070
O O14 0.449185 0.000000 0.889510
O O15 0.439524 0.763108 0.995943
O O16 0.577062 0.500000 0.292408
O O17 0.575684 0.759213 0.818704
O O18 0.548933 0.000000 0.902671
O O19 0.373926 0.760214 0.329119
O O20 0.333986 0.000000 0.388055
O O21 0.915882 0.500000 0.284201
#
# Coordination Sequence:
#
# PCOD9180334 Si02
#       8
#     8   8   8   8   8   8   8   8
#     4   9  18  32  47  64  89 125 163 190 217 267
#     4  10  19  32  49  64  87 127 165 191 216 258
#     4   9  17  30  48  68  91 119 153 191 230 270
#     4   9  16  30  50  67  86 117 158 199 233 270
#     4  12  23  31  43  67  96 124 152 191 240 278
#     4   8  14  26  49  72  86 112 158 203 231 258
#     4   9  17  29  48  72  96 121 151 188 229 273
#     4   9  15  26  46  71  93 117 155 192 221 266
#
# _framework density 15.575986
#
# number of rings (size 3 to 8) (size 9 to 14) (size 15 to 20)
#    0.000    2.625    1.250    3.750    0.000    4.750 
#    0.000    1.875    0.000    0.000    0.000    0.875 
#    0.000    0.000    0.000    0.000    0.000    0.000 
#
# Total GULP energy -178303.836021 kJ/mol
# GULP energy per Si atom -5571.994876 kJ/mol
# Density = 1.554053 g / cm^3
# Si number density = 15.575986 Si / 1000 Ang^3
#
#
#
# Elastic Constant Matrix: (Units=GPa)
#
#
# Indices 1 2 3 4 5 6 
#
# 1 147.6787 26.2288 71.6353 0.0000 -10.0426 0.0000
# 2 26.2288 13.6034 21.1489 0.0000 -1.5737 0.0000
# 3 71.6353 21.1489 107.6307 0.0000 -14.0978 0.0000
# 4 0.0000 0.0000 0.0000 5.9649 0.0000 0.5662
# 5 -10.0426 -1.5737 -14.0978 0.0000 9.6168 0.0000
# 6 0.0000 0.0000 0.0000 0.5662 0.0000 20.5220
#
#
#
# Elastic Compliance Matrix: (Units=1/GPa)
#
#
# Indices 1 2 3 4 5 6 
#
# 1 0.011943 -0.015798 -0.004393 0.000000 0.003446 0.000000
# 2 -0.015798 0.128849 -0.017578 0.000000 -0.021182 0.000000
# 3 -0.004393 -0.017578 0.018182 0.000000 0.019191 0.000000
# 4 0.000000 0.000000 0.000000 0.168088 0.000000 -0.004637
# 5 0.003446 -0.021182 0.019191 0.000000 0.132250 0.000000
# 6 0.000000 0.000000 0.000000 -0.004637 0.000000 0.048856
#
#
# Mechanical properties :
#
#
# Convention : Reuss Voigt Hill
#
# Bulk Modulus (GPa) = 11.98522 56.32654 34.15588
# Shear Modulus (GPa) = 8.17636 17.21405 12.69520
#
# Velocity S-wave (km/s) = 2.29363 3.32801 2.85800
# Velocity P-wave (km/s) = 3.83741 7.14202 5.73298
#
# Compressibility (1/GPa) = 0.08343608
#
# Stress axis : x y z
#
# Youngs Moduli (GPa) = 83.73381 7.76101 54.99836
#
# Poissons Ratio (x) = 0.12261 0.24160
# Poissons Ratio (y) = 1.32286 0.96675
# Poissons Ratio (z) = 0.36783 0.13642
#
# Static dielectric constant tensor:
#      x y z
#    x 1.523070 0.000000 -0.009940 
#    y 0.000000 1.527030 0.000000 
#    z -0.009940 0.000000 1.514580 
# 
# From -- ./inp_files/248521.got.cif
#   From: 2010.05.17/outbox.cif.g08.bks.cpg/sg12_125_cif.got.tgz:248521.got - 2010.06.03 13:09:07.
