data_PCOD9180481
_publ_section_title
;
Structure prediction by ZEFSAII (Michael W. Deem and Ramdas Pophale) SiO2 
 PCOD9180481
Probable space group: C 2/M
;
_chemical_formula_sum "Si O2"
_cell_formula_units_Z 64
_cell_length_a 31.943906
_cell_length_b 9.312824
_cell_length_c 15.937324
_cell_angle_alpha 90.000000
_cell_angle_beta 55.135361
_cell_angle_gamma 90.000000
_cell_volume 3890.146507
_symmetry_space_group_name_H-M "C 2/M"
_symmetry_group_IT_number 12
_symmetry_cell_setting 'monoclinic'
loop_
_space_group_symop_operation_xyz
x,y,z
-x,y,-z
-x,-y,-z
x,-y,z
1/2+x,1/2+y,z
1/2-x,1/2+y,-z
1/2-x,1/2-y,-z
1/2+x,1/2-y,z
loop_
_atom_site_type_symbol
_atom_site_label
_atom_site_fract_x
_atom_site_fract_y
_atom_site_fract_z
Si Si1 0.035701 0.328610 0.281839
Si Si2 0.677751 0.329811 0.530752
Si Si3 0.142636 0.671805 0.078026
Si Si4 0.228165 0.169865 0.653471
Si Si5 0.934226 0.828987 0.400547
Si Si6 0.690411 0.331052 0.177162
Si Si7 0.418570 0.668128 0.615096
Si Si8 0.294763 0.172470 0.152638
O O1 0.031328 0.500000 0.290435
O O2 0.084490 0.290318 0.168099
O O3 0.049642 0.265031 0.357400
O O4 0.983214 0.257089 0.313244
O O5 0.683153 0.500000 0.504854
O O6 0.717054 0.241715 0.428541
O O7 0.694901 0.308020 0.607213
O O8 0.619249 0.290008 0.581436
O O9 0.147855 0.500000 0.080553
O O10 0.178718 0.744595 0.106102
O O11 0.160725 0.709851 0.964130
O O12 0.203630 0.245593 0.761761
O O13 0.233668 0.000000 0.660548
O O14 0.928022 0.800773 0.507215
O O15 0.942164 0.000000 0.381055
O O16 0.694244 0.500000 0.152243
O O17 0.640964 0.312334 0.293340
O O18 0.741663 0.289801 0.166665
O O19 0.431367 0.500000 0.615697
O O20 0.294836 0.000000 0.166360
#
# Coordination Sequence:
#
# PCOD9180481 Si02
#       8
#     8   8   8   8   8   8   8   8
#     4  10  20  32  45  66  97 127 159 201 241 274
#     4   9  19  36  54  73 100 128 153 188 237 289
#     4   9  19  33  47  66  96 132 164 199 242 282
#     4  10  20  33  52  78 102 123 152 192 237 285
#     4  10  19  32  51  70  91 125 164 195 229 281
#     4   9  17  29  47  70  95 125 161 199 236 280
#     4   9  17  29  45  67  94 124 158 191 229 283
#     4  10  19  32  50  70  96 131 165 195 236 287
#
# _framework density 16.451823999999998
#
# number of rings (size 3 to 8) (size 9 to 14) (size 15 to 20)
#    0.000    2.500    0.000    2.250    0.000    6.500 
#    0.000    2.500    0.000    0.750    0.000    5.250 
#    0.000    0.000    0.000    0.000    0.000    0.000 
#
# Total GULP energy -178547.426666 kJ/mol
# GULP energy per Si atom -5579.607083 kJ/mol
# Density = 1.641438 g / cm^3
# Si number density = 16.451824 Si / 1000 Ang^3
#
#
#
# Elastic Constant Matrix: (Units=GPa)
#
#
# Indices 1 2 3 4 5 6 
#
# 1 90.3965 42.1766 42.3684 0.0000 -18.2162 0.0000
# 2 42.1766 40.5694 50.0665 0.0000 -2.3007 0.0000
# 3 42.3684 50.0665 97.4812 0.0000 2.1538 0.0000
# 4 0.0000 0.0000 0.0000 26.5603 0.0000 0.8583
# 5 -18.2162 -2.3007 2.1538 0.0000 14.4822 0.0000
# 6 0.0000 0.0000 0.0000 0.8583 0.0000 20.1143
#
#
#
# Elastic Compliance Matrix: (Units=1/GPa)
#
#
# Indices 1 2 3 4 5 6 
#
# 1 0.034981 -0.039573 0.004302 0.000000 0.037073 0.000000
# 2 -0.039573 0.115938 -0.041791 0.000000 -0.025143 0.000000
# 3 0.004302 -0.041791 0.029978 0.000000 -0.005686 0.000000
# 4 0.000000 0.000000 0.000000 0.037702 0.000000 -0.001609
# 5 0.037073 -0.025143 -0.005686 0.000000 0.112534 0.000000
# 6 0.000000 0.000000 0.000000 -0.001609 0.000000 0.049784
#
#
# Mechanical properties :
#
#
# Convention : Reuss Voigt Hill
#
# Bulk Modulus (GPa) = 37.35108 55.29669 46.32389
# Shear Modulus (GPa) = 9.19178 18.48706 13.83942
#
# Velocity S-wave (km/s) = 2.36627 3.35581 2.90351
# Velocity P-wave (km/s) = 5.49711 6.97851 6.28163
#
# Compressibility (1/GPa) = 0.02677298
#
# Stress axis : x y z
#
# Youngs Moduli (GPa) = 28.58735 8.62532 33.35782
#
# Poissons Ratio (x) = 0.34133 -0.14350
# Poissons Ratio (y) = 1.13129 1.39404
# Poissons Ratio (z) = -0.12298 0.36046
#
# Static dielectric constant tensor:
#      x y z
#    x 1.542310 0.000000 -0.018070 
#    y 0.000000 1.547380 0.000000 
#    z -0.018070 0.000000 1.554260 
# 
# From -- ./inp_files/248965.got.cif
#   From: 2010.05.17/outbox.cif.g08.bks.cpg/sg12_125_cif.got.tgz:248965.got - 2010.06.03 13:09:07.
