data_PCOD9180524
_publ_section_title
;
Structure prediction by ZEFSAII (Michael W. Deem and Ramdas Pophale) SiO2 
 PCOD9180524
Probable space group: C 2/M
;
_chemical_formula_sum "Si O2"
_cell_formula_units_Z 56
_cell_length_a 37.204865
_cell_length_b 14.230637
_cell_length_c 9.192942
_cell_angle_alpha 90.000000
_cell_angle_beta 139.433990
_cell_angle_gamma 90.000000
_cell_volume 3165.251026
_symmetry_space_group_name_H-M "C 2/M"
_symmetry_group_IT_number 12
_symmetry_cell_setting 'monoclinic'
loop_
_space_group_symop_operation_xyz
x,y,z
-x,y,-z
-x,-y,-z
x,-y,z
1/2+x,1/2+y,z
1/2-x,1/2+y,-z
1/2-x,1/2-y,-z
1/2+x,1/2-y,z
loop_
_atom_site_type_symbol
_atom_site_label
_atom_site_fract_x
_atom_site_fract_y
_atom_site_fract_z
Si Si1 0.243543 0.109005 0.263654
Si Si2 0.639708 0.610610 0.724025
Si Si3 0.994928 0.610368 0.155817
Si Si4 0.447022 0.756229 0.435964
Si Si5 0.261848 0.110500 0.635041
Si Si6 0.390992 0.891076 0.034124
Si Si7 0.787921 0.227641 0.255840
O O1 0.231540 0.138959 0.392480
O O2 0.292616 0.171428 0.347256
O O3 0.259670 0.000000 0.317132
O O4 0.188985 0.117546 0.996070
O O5 0.631510 0.500000 0.669372
O O6 0.586330 0.664733 0.618119
O O7 0.661203 0.668643 0.649831
O O8 0.009479 0.500000 0.226009
O O9 0.032547 0.680172 0.366324
O O10 0.932778 0.623197 0.027926
O O11 0.000000 0.628460 0.000000
O O12 0.500000 0.732416 0.500000
O O13 0.408712 0.822014 0.217432
O O14 0.243676 0.166452 0.720807
O O15 0.251619 0.000000 0.629720
O O16 0.326814 0.122950 0.803909
O O17 0.398245 0.000000 0.103035
O O18 0.750000 0.250000 0.000000
#
# Coordination Sequence:
#
# PCOD9180524 Si02
#       7
#     8   8   8   8   8   8   8
#     4   9  19  34  52  77 109 140 173 213 256 309
#     4  10  21  37  54  75 103 136 177 221 263 307
#     4   9  18  33  53  79 109 136 165 210 263 309
#     4  10  20  35  54  73  97 134 177 216 259 307
#     4  10  19  32  52  79 109 141 174 208 251 309
#     4   9  17  30  50  77 107 135 165 201 248 312
#     4  10  19  32  50  72 102 137 171 209 258 309
#
# _framework density 17.692119000000002
#
# number of rings (size 3 to 8) (size 9 to 14) (size 15 to 20)
#    0.000    2.429    0.000    3.000    0.000    3.714 
#    0.000    4.286    0.000    0.429    0.000    0.000 
#    0.000    0.000    0.000    0.000    0.000    0.000 
#
# Total GULP energy -156076.722962 kJ/mol
# GULP energy per Si atom -5574.168677 kJ/mol
# Density = 1.765185 g / cm^3
# Si number density = 17.692119 Si / 1000 Ang^3
#
#
#
# Elastic Constant Matrix: (Units=GPa)
#
#
# Indices 1 2 3 4 5 6 
#
# 1 94.3446 67.4823 35.0917 0.0000 -17.9207 0.0000
# 2 67.4823 105.6069 32.8737 0.0000 -4.5404 0.0000
# 3 35.0917 32.8737 34.7174 0.0000 -9.8038 0.0000
# 4 0.0000 0.0000 0.0000 20.2151 0.0000 -1.2161
# 5 -17.9207 -4.5404 -9.8038 0.0000 25.2903 0.0000
# 6 0.0000 0.0000 0.0000 -1.2161 0.0000 31.7193
#
#
#
# Elastic Compliance Matrix: (Units=1/GPa)
#
#
# Indices 1 2 3 4 5 6 
#
# 1 0.026011 -0.012723 -0.010875 0.000000 0.011932 0.000000
# 2 -0.012723 0.019832 -0.008376 0.000000 -0.008702 0.000000
# 3 -0.010875 -0.008376 0.050674 0.000000 0.010434 0.000000
# 4 0.000000 0.000000 0.000000 0.049582 0.000000 0.001901
# 5 0.011932 -0.008702 0.010434 0.000000 0.050478 0.000000
# 6 0.000000 0.000000 0.000000 0.001901 0.000000 0.031599
#
#
# Mechanical properties :
#
#
# Convention : Reuss Voigt Hill
#
# Bulk Modulus (GPa) = 30.70392 56.17381 43.43886
# Shear Modulus (GPa) = 16.50262 22.05969 19.28116
#
# Velocity S-wave (km/s) = 3.05744 3.53493 3.30482
# Velocity P-wave (km/s) = 5.46408 6.96280 6.25847
#
# Compressibility (1/GPa) = 0.03256913
#
# Stress axis : x y z
#
# Youngs Moduli (GPa) = 38.44508 50.42317 19.73387
#
# Poissons Ratio (x) = 0.64152 0.21461
# Poissons Ratio (y) = 0.48913 0.16530
# Poissons Ratio (z) = 0.41809 0.42236
#
# Static dielectric constant tensor:
#      x y z
#    x 1.597160 0.000000 -0.007060 
#    y 0.000000 1.620260 0.000000 
#    z -0.007060 0.000000 1.603880 
# 
# From -- ./inp_files/104423.got.cif
#   From: 2010.05.17/outbox.cif.g08.bks.cpg/sg12_53_cif.got.tgz:104423.got - 2010.06.03 13:09:07.
