data_PCOD9180808
_publ_section_title
;
Structure prediction by ZEFSAII (Michael W. Deem and Ramdas Pophale) SiO2 
 PCOD9180808
Probable space group: C 2/M
;
_chemical_formula_sum "Si O2"
_cell_formula_units_Z 64
_cell_length_a 25.841584
_cell_length_b 7.458447
_cell_length_c 19.773576
_cell_angle_alpha 90.000000
_cell_angle_beta 132.052926
_cell_angle_gamma 90.000000
_cell_volume 2829.858119
_symmetry_space_group_name_H-M "C 2/M"
_symmetry_group_IT_number 12
_symmetry_cell_setting 'monoclinic'
loop_
_space_group_symop_operation_xyz
x,y,z
-x,y,-z
-x,-y,-z
x,-y,z
1/2+x,1/2+y,z
1/2-x,1/2+y,-z
1/2-x,1/2-y,-z
1/2+x,1/2-y,z
loop_
_atom_site_type_symbol
_atom_site_label
_atom_site_fract_x
_atom_site_fract_y
_atom_site_fract_z
Si Si1 0.823348 0.782634 0.982162
Si Si2 0.810301 0.210040 0.227040
Si Si3 0.673678 0.285178 0.464714
Si Si4 0.545452 0.284006 0.261164
Si Si5 0.107118 0.219685 0.824224
Si Si6 0.936541 0.798821 0.983331
Si Si7 0.129133 0.709723 0.205179
Si Si8 0.783451 0.781282 0.355261
O O1 0.759375 0.721976 0.880044
O O2 0.894981 0.719818 0.008859
O O3 0.822801 0.000000 0.979238
O O4 0.833901 0.726811 0.069044
O O5 0.870206 0.283146 0.230034
O O6 0.801679 0.282884 0.295482
O O7 0.824955 0.000000 0.249328
O O8 0.666336 0.500000 0.459916
O O9 0.750000 0.250000 0.500000
O O10 0.609473 0.216619 0.363574
O O11 0.672790 0.220341 0.541685
O O12 0.544187 0.500000 0.263292
O O13 0.469605 0.222737 0.219338
O O14 0.566946 0.237246 0.203465
O O15 0.107151 0.000000 0.823970
O O16 0.881480 0.808971 0.874270
O O17 0.959794 0.000000 0.023653
O O18 0.000000 0.706213 0.000000
O O19 0.134277 0.500000 0.193416
O O20 0.203013 0.767050 0.300178
O O21 0.786613 0.000000 0.357116
#
# Coordination Sequence:
#
# PCOD9180808 Si02
#       8
#     8   8   8   8   8   8   8   8
#     4  10  19  32  51  75 103 133 174 221 253 295
#     4  10  19  35  56  74 102 141 174 211 258 308
#     4  10  19  33  54  78 105 134 169 212 258 314
#     4  10  20  35  55  78 104 137 177 215 258 316
#     4   9  19  35  54  76 102 136 176 215 258 303
#     4  10  20  33  49  71 105 144 177 213 258 308
#     4  11  20  32  51  75 108 139 167 212 264 314
#     4   9  18  32  50  76 106 130 161 210 261 302
#
# _framework density 22.615974000000001
#
# number of rings (size 3 to 8) (size 9 to 14) (size 15 to 20)
#    0.000    2.125    2.500    1.500    0.000    2.250 
#    0.000    3.750    0.000    3.750    0.000    0.000 
#    0.000    3.000    0.000    0.000    0.000    0.000 
#
# Total GULP energy -178665.842049 kJ/mol
# GULP energy per Si atom -5583.307564 kJ/mol
# Density = 2.256450 g / cm^3
# Si number density = 22.615974 Si / 1000 Ang^3
#
#
#
# Elastic Constant Matrix: (Units=GPa)
#
#
# Indices 1 2 3 4 5 6 
#
# 1 141.5397 -4.0592 40.1249 0.0000 -25.6328 0.0000
# 2 -4.0592 73.0755 -1.5177 0.0000 -0.9386 0.0000
# 3 40.1249 -1.5177 108.7815 0.0000 -19.9092 0.0000
# 4 0.0000 0.0000 0.0000 11.7189 0.0000 3.1268
# 5 -25.6328 -0.9386 -19.9092 0.0000 36.8448 0.0000
# 6 0.0000 0.0000 0.0000 3.1268 0.0000 5.2641
#
#
#
# Elastic Compliance Matrix: (Units=1/GPa)
#
#
# Indices 1 2 3 4 5 6 
#
# 1 0.008589 0.000490 -0.002292 0.000000 0.004749 0.000000
# 2 0.000490 0.013725 0.000152 0.000000 0.000773 0.000000
# 3 -0.002292 0.000152 0.010819 0.000000 0.004255 0.000000
# 4 0.000000 0.000000 0.000000 0.101403 0.000000 -0.060232
# 5 0.004749 0.000773 0.004255 0.000000 0.032764 0.000000
# 6 0.000000 0.000000 0.000000 -0.060232 0.000000 0.225743
#
#
# Mechanical properties :
#
#
# Convention : Reuss Voigt Hill
#
# Bulk Modulus (GPa) = 33.51883 43.61030 38.56456
# Shear Modulus (GPa) = 12.30657 30.02214 21.16436
#
# Velocity S-wave (km/s) = 2.33524 3.64741 3.06243
# Velocity P-wave (km/s) = 4.70363 6.08793 5.44000
#
# Compressibility (1/GPa) = 0.02983398
#
# Stress axis : x y z
#
# Youngs Moduli (GPa) = 116.42651 72.86073 92.42873
#
# Poissons Ratio (x) = -0.03574 0.21185
# Poissons Ratio (y) = -0.05711 -0.01405
# Poissons Ratio (z) = 0.26686 -0.01108
#
# Static dielectric constant tensor:
#      x y z
#    x 1.844250 0.000000 0.011540 
#    y 0.000000 1.871070 0.000000 
#    z 0.011540 0.000000 1.855420 
# 
# From -- ./inp_files/289155.got.cif
#   From: 2010.05.17/outbox.cif.g08.bks.cpg/sg12_145_cif.got.tgz:289155.got - 2010.06.03 13:09:07.
