data_PCOD9180089
_publ_section_title
;
Structure prediction by ZEFSAII (Michael W. Deem and Ramdas Pophale) SiO2 
 PCOD9180089
Probable space group: C 2/M
;
_chemical_formula_sum "Si O2"
_cell_formula_units_Z 48
_cell_length_a 22.933982
_cell_length_b 8.665466
_cell_length_c 12.697885
_cell_angle_alpha 90.000000
_cell_angle_beta 109.181997
_cell_angle_gamma 90.000000
_cell_volume 2383.391509
_symmetry_space_group_name_H-M "C 2/M"
_symmetry_group_IT_number 12
_symmetry_cell_setting 'monoclinic'
loop_
_space_group_symop_operation_xyz
x,y,z
-x,y,-z
-x,-y,-z
x,-y,z
1/2+x,1/2+y,z
1/2-x,1/2+y,-z
1/2-x,1/2-y,-z
1/2+x,1/2-y,z
loop_
_atom_site_type_symbol
_atom_site_label
_atom_site_fract_x
_atom_site_fract_y
_atom_site_fract_z
Si Si1 0.152086 0.814203 0.449133
Si Si2 0.754260 0.686296 0.667515
Si Si3 0.964225 0.182912 0.733747
Si Si4 0.097599 0.684901 0.858503
Si Si5 0.776378 0.816010 0.123594
Si Si6 0.072288 0.675016 0.075398
O O1 0.194130 0.753432 0.378450
O O2 0.188207 0.768731 0.576421
O O3 0.081823 0.764720 0.386400
O O4 0.151867 0.000000 0.444884
O O5 0.758333 0.500000 0.667076
O O6 0.757801 0.737357 0.790381
O O7 0.928206 0.221549 0.821467
O O8 0.029991 0.266324 0.778870
O O9 0.974865 0.000000 0.733702
O O10 0.102992 0.500000 0.858844
O O11 0.152444 0.764387 0.828406
O O12 0.103582 0.730679 0.986224
O O13 0.772148 0.000000 0.117482
O O14 0.750000 0.750000 0.000000
O O15 0.906282 0.500000 0.887080
O O16 0.000000 0.664512 0.000000
#
# Coordination Sequence:
#
# PCOD9180089 Si02
#       6
#     8   8   8   8   8   8
#     4   9  19  36  59  86 113 143 184 232 278 327
#     4   9  20  39  59  81 111 148 188 228 276 332
#     4  10  19  31  53  84 112 141 180 230 281 328
#     4  10  21  37  54  77 111 150 187 227 274 331
#     4  11  24  40  59  82 111 150 189 229 278 335
#     4   8  16  30  47  70 104 143 179 218 265 319
#
# _framework density 20.139368999999999
#
# number of rings (size 3 to 8) (size 9 to 14) (size 15 to 20)
#    0.000    2.500    0.000    2.500    2.333    6.333 
#    0.000    0.833    0.000    5.000    0.000    0.000 
#    0.000    0.000    0.000    0.000    0.000    0.000 
#
# Total GULP energy -133919.152061 kJ/mol
# GULP energy per Si atom -5579.964669 kJ/mol
# Density = 2.009353 g / cm^3
# Si number density = 20.139369 Si / 1000 Ang^3
#
#
#
# Elastic Constant Matrix: (Units=GPa)
#
#
# Indices 1 2 3 4 5 6 
#
# 1 45.0948 3.4342 28.0390 0.0000 8.2107 0.0000
# 2 3.4342 22.0681 17.8055 0.0000 3.0384 0.0000
# 3 28.0390 17.8055 102.5348 0.0000 15.4558 0.0000
# 4 0.0000 0.0000 0.0000 20.4726 0.0000 0.5280
# 5 8.2107 3.0384 15.4558 0.0000 33.7001 0.0000
# 6 0.0000 0.0000 0.0000 0.5280 0.0000 23.7348
#
#
#
# Elastic Compliance Matrix: (Units=1/GPa)
#
#
# Indices 1 2 3 4 5 6 
#
# 1 0.027170 0.002119 -0.007274 0.000000 -0.003475 0.000000
# 2 0.002119 0.052874 -0.009631 0.000000 -0.000867 0.000000
# 3 -0.007274 -0.009631 0.013983 0.000000 -0.003772 0.000000
# 4 0.000000 0.000000 0.000000 0.048874 0.000000 -0.001087
# 5 -0.003475 -0.000867 -0.003772 0.000000 0.032328 0.000000
# 6 0.000000 0.000000 0.000000 -0.001087 0.000000 0.042156
#
#
# Mechanical properties :
#
#
# Convention : Reuss Voigt Hill
#
# Bulk Modulus (GPa) = 15.51450 29.80612 22.66031
# Shear Modulus (GPa) = 18.62604 23.60942 21.11773
#
# Velocity S-wave (km/s) = 3.04445 3.42760 3.24169
# Velocity P-wave (km/s) = 4.48090 5.52238 5.02868
#
# Compressibility (1/GPa) = 0.06445585
#
# Stress axis : x y z
#
# Youngs Moduli (GPa) = 36.80583 18.91285 71.51557
#
# Poissons Ratio (x) = -0.04008 0.52021
# Poissons Ratio (y) = -0.07800 0.68874
# Poissons Ratio (z) = 0.26773 0.18214
#
# Static dielectric constant tensor:
#      x y z
#    x 1.739710 0.000000 0.027590 
#    y 0.000000 1.676660 0.000000 
#    z 0.027590 0.000000 1.749080 
# 
# From -- ./inp_files/173067.got.cif
#   From: 2010.05.17/outbox.cif.g08.bks.cpg/sg12_87_cif.got.tgz:173067.got - 2010.06.03 13:09:07.
