data_PCOD9180469
_publ_section_title
;
Structure prediction by ZEFSAII (Michael W. Deem and Ramdas Pophale) SiO2 
 PCOD9180469
Probable space group: C 2/M
;
_chemical_formula_sum "Si O2"
_cell_formula_units_Z 48
_cell_length_a 23.482632
_cell_length_b 8.840830
_cell_length_c 30.231181
_cell_angle_alpha 90.000000
_cell_angle_beta 27.642495
_cell_angle_gamma 90.000000
_cell_volume 2911.850582
_symmetry_space_group_name_H-M "C 2/M"
_symmetry_group_IT_number 12
_symmetry_cell_setting 'monoclinic'
loop_
_space_group_symop_operation_xyz
x,y,z
-x,y,-z
-x,-y,-z
x,-y,z
1/2+x,1/2+y,z
1/2-x,1/2+y,-z
1/2-x,1/2-y,-z
1/2+x,1/2-y,z
loop_
_atom_site_type_symbol
_atom_site_label
_atom_site_fract_x
_atom_site_fract_y
_atom_site_fract_z
Si Si1 0.945217 0.819505 0.852692
Si Si2 0.292439 0.820619 0.313118
Si Si3 0.359873 0.315650 0.089686
Si Si4 0.299150 0.816416 0.716265
Si Si5 0.557941 0.174064 0.509646
Si Si6 0.730585 0.317855 0.944550
O O1 0.853480 0.758490 0.878330
O O2 0.077941 0.744279 0.760309
O O3 0.956937 0.000000 0.841778
O O4 0.877522 0.783071 0.945918
O O5 0.261483 0.750923 0.286159
O O6 0.180788 0.770566 0.421893
O O7 0.296863 0.000000 0.306764
O O8 0.361504 0.500000 0.088283
O O9 0.275185 0.270306 0.189140
O O10 0.307384 0.268417 0.078338
O O11 0.500000 0.265103 0.000000
O O12 0.443285 0.773279 0.618170
O O13 0.295618 0.000000 0.714748
O O14 0.500000 0.174664 0.500000
O O15 0.588582 0.000000 0.499318
O O16 0.746502 0.500000 0.933804
#
# Coordination Sequence:
#
# PCOD9180469 Si02
#       6
#     8   8   8   8   8   8
#     4  10  19  32  50  69  94 126 157 193 235 278
#     4  11  20  29  46  71  96 122 157 199 237 274
#     4   9  16  28  49  74  98 125 155 185 222 275
#     4   9  17  30  48  70  97 128 157 187 230 282
#     4   8  15  28  45  66  93 123 155 191 233 280
#     4   9  18  32  50  72  96 123 157 193 228 271
#
# _framework density 16.484362999999998
#
# number of rings (size 3 to 8) (size 9 to 14) (size 15 to 20)
#    0.000    2.667    0.000    4.000    0.000    6.333 
#    0.000    0.833    0.000    3.000    0.000    0.000 
#    0.000    0.000    0.000    0.000    0.000    0.000 
#
# Total GULP energy -133789.482599 kJ/mol
# GULP energy per Si atom -5574.561775 kJ/mol
# Density = 1.644684 g / cm^3
# Si number density = 16.484363 Si / 1000 Ang^3
#
#
#
# Elastic Constant Matrix: (Units=GPa)
#
#
# Indices 1 2 3 4 5 6 
#
# 1 96.7608 31.0004 82.8458 0.0005 -3.0961 -0.0008
# 2 31.0004 40.2573 50.4181 0.0006 -11.4923 -0.0014
# 3 82.8458 50.4181 172.6214 -0.0001 -12.4923 -0.0001
# 4 0.0005 0.0006 -0.0001 16.6197 0.0000 -7.3493
# 5 -3.0961 -11.4923 -12.4923 0.0000 25.7621 0.0003
# 6 -0.0008 -0.0014 -0.0001 -7.3493 0.0003 20.1308
#
#
#
# Elastic Compliance Matrix: (Units=1/GPa)
#
#
# Indices 1 2 3 4 5 6 
#
# 1 0.018491 -0.006190 -0.007364 0.000000 -0.004110 0.000000
# 2 -0.006190 0.045444 -0.009212 0.000000 0.015061 0.000002
# 3 -0.007364 -0.009212 0.012080 0.000000 0.000863 -0.000001
# 4 0.000000 0.000000 0.000000 0.071754 0.000000 0.026196
# 5 -0.004110 0.015061 0.000863 0.000000 0.045460 0.000000
# 6 0.000000 0.000002 -0.000001 0.026196 0.000000 0.059239
#
#
# Mechanical properties :
#
#
# Convention : Reuss Voigt Hill
#
# Bulk Modulus (GPa) = 32.80512 70.90757 51.85635
# Shear Modulus (GPa) = 16.22525 22.19420 19.20973
#
# Velocity S-wave (km/s) = 3.14073 3.67328 3.41740
# Velocity P-wave (km/s) = 5.75293 7.81659 6.86277
#
# Compressibility (1/GPa) = 0.03048305
#
# Stress axis : x y z
#
# Youngs Moduli (GPa) = 54.07902 22.00519 82.77913
#
# Poissons Ratio (x) = 0.13621 0.60959
# Poissons Ratio (y) = 0.33475 0.76258
# Poissons Ratio (z) = 0.39824 0.20272
#
# Static dielectric constant tensor:
#      x y z
#    x 1.526510 0.000000 0.010160 
#    y 0.000000 1.550120 0.000000 
#    z 0.010160 0.000000 1.570190 
# 
# From -- ./inp_files/236859.got.cif
#   From: 2010.05.17/outbox.cif.g08.bks.cpg/sg12_119_cif.got.tgz:236859.got - 2010.06.03 13:09:07.
