data_PCOD9180579
_publ_section_title
;
Structure prediction by ZEFSAII (Michael W. Deem and Ramdas Pophale) SiO2 
 PCOD9180579
Probable space group: C 2/M
;
_chemical_formula_sum "Si O2"
_cell_formula_units_Z 56
_cell_length_a 25.128265
_cell_length_b 8.594529
_cell_length_c 19.455083
_cell_angle_alpha 90.000000
_cell_angle_beta 130.225837
_cell_angle_gamma 90.000000
_cell_volume 3207.964062
_symmetry_space_group_name_H-M "C 2/M"
_symmetry_group_IT_number 12
_symmetry_cell_setting 'monoclinic'
loop_
_space_group_symop_operation_xyz
x,y,z
-x,y,-z
-x,-y,-z
x,-y,z
1/2+x,1/2+y,z
1/2-x,1/2+y,-z
1/2-x,1/2-y,-z
1/2+x,1/2-y,z
loop_
_atom_site_type_symbol
_atom_site_label
_atom_site_fract_x
_atom_site_fract_y
_atom_site_fract_z
Si Si1 0.288909 0.313091 0.697679
Si Si2 0.791764 0.813398 0.249971
Si Si3 0.958207 0.813398 0.249970
Si Si4 0.309604 0.813207 0.500000
Si Si5 0.800085 0.186671 0.100171
Si Si6 0.552993 0.187301 0.605986
Si Si7 0.091231 0.686909 0.302321
O O1 0.292949 0.500000 0.701885
O O2 0.272530 0.246454 0.758336
O O3 0.218500 0.263513 0.597031
O O4 0.355759 0.250001 0.711518
O O5 0.780269 0.766118 0.161211
O O6 0.867242 0.746026 0.336170
O O7 0.796451 0.000000 0.257642
O O8 0.880941 0.766120 0.161210
O O9 0.968929 0.746029 0.336170
O O10 0.014194 0.753543 0.241664
O O11 0.961192 0.000000 0.257641
O O12 0.250000 0.750000 0.500000
O O13 0.378530 0.763513 0.597031
O O14 0.310162 0.000000 0.500000
O O15 0.797802 0.000000 0.095605
O O16 0.750000 0.250000 0.000000
O O17 0.500000 0.236222 0.500000
O O18 0.553260 0.000000 0.606523
O O19 0.091066 0.500000 0.298116
#
# Coordination Sequence:
#
# PCOD9180579 Si02
#       7
#     8   8   8   8   8   8   8
#     4  10  19  32  50  74 106 145 184 223 261 307
#     4  10  21  36  53  79 109 138 175 218 266 322
#     4  10  21  36  53  79 109 138 175 218 266 322
#     4   8  16  28  42  63  94 133 180 218 246 284
#     4   9  20  38  60  82 105 130 168 218 269 326
#     4  10  21  35  51  73 104 142 182 222 262 309
#     4  10  19  32  50  74 106 145 184 223 261 307
#
# _framework density 17.456555999999999
#
# number of rings (size 3 to 8) (size 9 to 14) (size 15 to 20)
#    0.000    2.429    0.000    3.000    2.000    5.714 
#    0.000    0.000    0.000    0.857    0.000    6.000 
#    0.000    0.000    0.000    0.000    0.000    0.000 
#
# Total GULP energy -155942.423508 kJ/mol
# GULP energy per Si atom -5569.372268 kJ/mol
# Density = 1.741682 g / cm^3
# Si number density = 17.456556 Si / 1000 Ang^3
#
#
#
# Elastic Constant Matrix: (Units=GPa)
#
#
# Indices 1 2 3 4 5 6 
#
# 1 150.4365 40.9444 67.1291 0.0000 -0.9043 0.0000
# 2 40.9444 47.8342 33.7472 0.0000 -0.1103 0.0000
# 3 67.1291 33.7472 123.6893 0.0000 0.4937 0.0000
# 4 0.0000 0.0000 0.0000 23.5223 0.0000 -0.0915
# 5 -0.9043 -0.1103 0.4937 0.0000 12.2497 0.0000
# 6 0.0000 0.0000 0.0000 -0.0915 0.0000 29.4794
#
#
#
# Elastic Compliance Matrix: (Units=1/GPa)
#
#
# Indices 1 2 3 4 5 6 
#
# 1 0.009934 -0.005815 -0.003808 0.000000 0.000835 0.000000
# 2 -0.005815 0.029295 -0.004837 0.000000 0.000029 0.000000
# 3 -0.003808 -0.004837 0.011475 0.000000 -0.000787 0.000000
# 4 0.000000 0.000000 0.000000 0.042513 0.000000 0.000132
# 5 0.000835 0.000029 -0.000787 0.000000 0.081729 0.000000
# 6 0.000000 0.000000 0.000000 0.000132 0.000000 0.033922
#
#
# Mechanical properties :
#
#
# Convention : Reuss Voigt Hill
#
# Bulk Modulus (GPa) = 45.90602 67.28907 56.59755
# Shear Modulus (GPa) = 20.40392 25.05956 22.73174
#
# Velocity S-wave (km/s) = 3.42254 3.79296 3.61250
# Velocity P-wave (km/s) = 6.47864 7.60344 7.06347
#
# Compressibility (1/GPa) = 0.02178363
#
# Stress axis : x y z
#
# Youngs Moduli (GPa) = 100.66058 34.13498 87.14844
#
# Poissons Ratio (x) = 0.19848 0.33190
# Poissons Ratio (y) = 0.58531 0.42156
# Poissons Ratio (z) = 0.38337 0.16512
#
# Static dielectric constant tensor:
#      x y z
#    x 1.596990 0.000000 0.000300 
#    y 0.000000 1.593220 0.000000 
#    z 0.000300 0.000000 1.616320 
# 
# From -- ./inp_files/288434.got.cif
#   From: 2010.05.17/outbox.cif.g08.bks.cpg/sg12_145_cif.got.tgz:288434.got - 2010.06.03 13:09:07.
