data_PCOD9180540
_publ_section_title
;
Structure prediction by ZEFSAII (Michael W. Deem and Ramdas Pophale) SiO2 
 PCOD9180540
Probable space group: C 2/M
;
_chemical_formula_sum "Si O2"
_cell_formula_units_Z 56
_cell_length_a 19.144382
_cell_length_b 7.358943
_cell_length_c 17.733956
_cell_angle_alpha 90.000000
_cell_angle_beta 100.577402
_cell_angle_gamma 90.000000
_cell_volume 2455.949271
_symmetry_space_group_name_H-M "C 2/M"
_symmetry_group_IT_number 12
_symmetry_cell_setting 'monoclinic'
loop_
_space_group_symop_operation_xyz
x,y,z
-x,y,-z
-x,-y,-z
x,-y,z
1/2+x,1/2+y,z
1/2-x,1/2+y,-z
1/2-x,1/2-y,-z
1/2+x,1/2-y,z
loop_
_atom_site_type_symbol
_atom_site_label
_atom_site_fract_x
_atom_site_fract_y
_atom_site_fract_z
Si Si1 0.946684 0.722739 0.161793
Si Si2 0.600204 0.221729 0.128837
Si Si3 0.081607 0.720754 0.524756
Si Si4 0.115001 0.710689 0.697368
Si Si5 0.165365 0.716928 0.983584
Si Si6 0.775794 0.719929 0.732528
Si Si7 0.188879 0.284001 0.427166
O O1 0.946820 0.500000 0.163268
O O2 0.933661 0.785262 0.245071
O O3 0.879914 0.781547 0.097231
O O4 0.021739 0.778550 0.140090
O O5 0.661343 0.276811 0.199667
O O6 0.598660 0.000000 0.127533
O O7 0.626188 0.282843 0.051700
O O8 0.090346 0.500000 0.526096
O O9 0.109850 0.787424 0.611489
O O10 0.121000 0.788165 0.457993
O O11 0.000000 0.763626 0.500000
O O12 0.094069 0.500000 0.685449
O O13 0.196905 0.719973 0.739081
O O14 0.157998 0.500000 0.982497
O O15 0.250000 0.750000 0.000000
O O16 0.774258 0.500000 0.732576
O O17 0.791970 0.787205 0.651134
O O18 0.180380 0.500000 0.414950
O O19 0.250000 0.250000 0.500000
#
# Coordination Sequence:
#
# PCOD9180540 Si02
#       7
#     8   8   8   8   8   8   8
#     4   9  18  31  51  77 100 126 166 208 242 282
#     4   9  18  32  51  76 102 129 163 204 246 285
#     4   9  18  30  47  71  96 123 160 205 247 283
#     4  10  19  32  51  73  98 128 163 206 247 287
#     4  10  19  33  54  77 102 132 163 200 243 291
#     4  10  20  32  50  73  99 130 163 200 243 295
#     4  10  19  32  50  72  97 127 163 203 245 290
#
# _framework density 22.801776
#
# number of rings (size 3 to 8) (size 9 to 14) (size 15 to 20)
#    0.000    2.429    1.429    1.286    2.000    1.714 
#    0.000    0.000    0.000    6.000    0.000    0.000 
#    0.000    0.000    0.000    0.000    0.000    0.000 
#
# Total GULP energy -156393.190983 kJ/mol
# GULP energy per Si atom -5585.471107 kJ/mol
# Density = 2.274988 g / cm^3
# Si number density = 22.801776 Si / 1000 Ang^3
#
#
#
# Elastic Constant Matrix: (Units=GPa)
#
#
# Indices 1 2 3 4 5 6 
#
# 1 120.9789 -11.4442 19.8913 0.0000 -26.5161 0.0000
# 2 -11.4442 84.0156 1.3654 0.0000 -6.1258 0.0000
# 3 19.8913 1.3654 92.9788 0.0000 -20.9695 0.0000
# 4 0.0000 0.0000 0.0000 0.4456 0.0000 9.1564
# 5 -26.5161 -6.1258 -20.9695 0.0000 45.9072 0.0000
# 6 0.0000 0.0000 0.0000 9.1564 0.0000 8.9507
#
#
#
# Elastic Compliance Matrix: (Units=1/GPa)
#
#
# Indices 1 2 3 4 5 6 
#
# 1 0.009776 0.001745 -0.000882 0.000000 0.005477 0.000000
# 2 0.001745 0.012335 0.000049 0.000000 0.002676 0.000000
# 3 -0.000882 0.000049 0.012073 0.000000 0.005012 0.000000
# 4 0.000000 0.000000 0.000000 -0.112093 0.000000 0.114668
# 5 0.005477 0.002676 0.005012 0.000000 0.027593 0.000000
# 6 0.000000 0.000000 0.000000 0.114668 0.000000 -0.005580
#
#
# Mechanical properties :
#
#
# Convention : Reuss Voigt Hill
#
# Bulk Modulus (GPa) = 27.77032 35.28870 31.52951
# Shear Modulus (GPa) = -109.36700 30.27143 -39.54779
#
# Velocity S-wave (km/s) = -6.93314 3.64756 -4.16915
# Velocity P-wave (km/s) = 7.20317 5.76624 3.05255
#
# Compressibility (1/GPa) = 0.03600967
#
# Stress axis : x y z
#
# Youngs Moduli (GPa) = 102.28659 81.07246 82.82627
#
# Poissons Ratio (x) = -0.14150 0.07305
# Poissons Ratio (y) = -0.17853 -0.00407
# Poissons Ratio (z) = 0.09021 -0.00398
#
# Static dielectric constant tensor:
#      x y z
#    x 1.918830 0.000000 -0.068230 
#    y 0.000000 1.891290 0.000000 
#    z -0.068230 0.000000 1.847100 
# 
# From -- ./inp_files/276059.got.cif
#   From: 2010.05.17/outbox.cif.g08.bks.cpg/sg12_139_cif.got.tgz:276059.got - 2010.06.03 13:09:07.
