data_PCOD9180589
_publ_section_title
;
Structure prediction by ZEFSAII (Michael W. Deem and Ramdas Pophale) SiO2 
 PCOD9180589
Probable space group: C 2/M
;
_chemical_formula_sum "Si O2"
_cell_formula_units_Z 56
_cell_length_a 26.322925
_cell_length_b 7.820799
_cell_length_c 15.239010
_cell_angle_alpha 90.000000
_cell_angle_beta 105.108453
_cell_angle_gamma 90.000000
_cell_volume 3028.758867
_symmetry_space_group_name_H-M "C 2/M"
_symmetry_group_IT_number 12
_symmetry_cell_setting 'monoclinic'
loop_
_space_group_symop_operation_xyz
x,y,z
-x,y,-z
-x,-y,-z
x,-y,z
1/2+x,1/2+y,z
1/2-x,1/2+y,-z
1/2-x,1/2-y,-z
1/2+x,1/2-y,z
loop_
_atom_site_type_symbol
_atom_site_label
_atom_site_fract_x
_atom_site_fract_y
_atom_site_fract_z
Si Si1 0.004223 0.709213 0.400078
Si Si2 0.892355 0.699944 0.280910
Si Si3 0.287354 0.206043 0.893457
Si Si4 0.672755 0.297100 0.906906
Si Si5 0.117462 0.699689 0.398113
Si Si6 0.819388 0.198616 0.404675
Si Si7 0.203434 0.710149 0.301467
O O1 0.005983 0.500000 0.400001
O O2 0.059047 0.772909 0.384280
O O3 0.000000 0.760579 0.500000
O O4 0.951256 0.762925 0.326590
O O5 0.891026 0.500000 0.303671
O O6 0.873335 0.721914 0.172998
O O7 0.850670 0.787685 0.327195
O O8 0.228856 0.268655 0.893997
O O9 0.301153 0.263651 0.801910
O O10 0.285332 0.000000 0.891609
O O11 0.325960 0.258322 0.989343
O O12 0.671607 0.500000 0.894310
O O13 0.110633 0.500000 0.373199
O O14 0.147654 0.711362 0.504450
O O15 0.155977 0.771864 0.341114
O O16 0.760215 0.265098 0.364526
O O17 0.815996 0.000000 0.428245
O O18 0.204244 0.500000 0.303066
#
# Coordination Sequence:
#
# PCOD9180589 Si02
#       7
#     8   8   8   8   8   8   8
#     4   9  17  31  50  73  97 125 169 215 240 274
#     4  11  20  32  52  74  99 133 168 203 247 292
#     4   9  17  32  50  72 102 130 159 197 245 299
#     4  10  19  32  50  75 103 127 158 204 251 294
#     4  10  19  34  53  71  96 135 173 203 244 290
#     4  11  20  32  47  73 107 133 161 202 247 295
#     4   9  18  32  51  73 101 133 163 202 246 291
#
# _framework density 18.489421
#
# number of rings (size 3 to 8) (size 9 to 14) (size 15 to 20)
#    0.000    2.143    2.857    1.714    0.000    0.571 
#    0.000    3.571    0.000    0.857    0.000    6.000 
#    0.000    0.000    0.000    0.000    0.000    0.000 
#
# Total GULP energy -156265.254993 kJ/mol
# GULP energy per Si atom -5580.901964 kJ/mol
# Density = 1.844734 g / cm^3
# Si number density = 18.489421 Si / 1000 Ang^3
#
#
#
# Elastic Constant Matrix: (Units=GPa)
#
#
# Indices 1 2 3 4 5 6 
#
# 1 144.2612 4.4462 58.4212 0.0000 14.7370 0.0000
# 2 4.4462 24.3575 -6.2782 0.0000 0.5627 0.0000
# 3 58.4212 -6.2782 103.4467 0.0000 23.2947 0.0000
# 4 0.0000 0.0000 0.0000 18.2391 0.0000 0.0019
# 5 14.7370 0.5627 23.2947 0.0000 22.1136 0.0000
# 6 0.0000 0.0000 0.0000 0.0019 0.0000 5.0632
#
#
#
# Elastic Compliance Matrix: (Units=1/GPa)
#
#
# Indices 1 2 3 4 5 6 
#
# 1 0.009212 -0.003029 -0.005272 0.000000 -0.000509 0.000000
# 2 -0.003029 0.043110 0.005400 0.000000 -0.004767 0.000000
# 3 -0.005272 0.005400 0.016009 0.000000 -0.013488 0.000000
# 4 0.000000 0.000000 0.000000 0.054827 0.000000 -0.000020
# 5 -0.000509 -0.004767 -0.013488 0.000000 0.059890 0.000000
# 6 0.000000 0.000000 0.000000 -0.000020 0.000000 0.197505
#
#
# Mechanical properties :
#
#
# Convention : Reuss Voigt Hill
#
# Bulk Modulus (GPa) = 15.99203 42.80487 29.39845
# Shear Modulus (GPa) = 12.27905 23.44824 17.86364
#
# Velocity S-wave (km/s) = 2.57983 3.56504 3.11168
# Velocity P-wave (km/s) = 4.18833 6.33619 5.37073
#
# Compressibility (1/GPa) = 0.06253114
#
# Stress axis : x y z
#
# Youngs Moduli (GPa) = 108.55319 23.19647 62.46417
#
# Poissons Ratio (x) = 0.07025 0.32929
# Poissons Ratio (y) = 0.32877 -0.33732
# Poissons Ratio (z) = 0.57226 -0.12527
#
# Static dielectric constant tensor:
#      x y z
#    x 1.636740 0.000000 0.002470 
#    y 0.000000 1.680400 0.000000 
#    z 0.002470 0.000000 1.619990 
# 
# From -- ./inp_files/237434.got.cif
#   From: 2010.05.17/outbox.cif.g08.bks.cpg/sg12_119_cif.got.tgz:237434.got - 2010.06.03 13:09:07.
