data_PCOD9180378
_publ_section_title
;
Structure prediction by ZEFSAII (Michael W. Deem and Ramdas Pophale) SiO2 
 PCOD9180378
Probable space group: C 2/M
;
_chemical_formula_sum "Si O2"
_cell_formula_units_Z 56
_cell_length_a 14.977021
_cell_length_b 7.356803
_cell_length_c 24.173099
_cell_angle_alpha 90.000000
_cell_angle_beta 113.788705
_cell_angle_gamma 90.000000
_cell_volume 2437.174340
_symmetry_space_group_name_H-M "C 2/M"
_symmetry_group_IT_number 12
_symmetry_cell_setting 'monoclinic'
loop_
_space_group_symop_operation_xyz
x,y,z
-x,y,-z
-x,-y,-z
x,-y,z
1/2+x,1/2+y,z
1/2-x,1/2+y,-z
1/2-x,1/2-y,-z
1/2+x,1/2-y,z
loop_
_atom_site_type_symbol
_atom_site_label
_atom_site_fract_x
_atom_site_fract_y
_atom_site_fract_z
Si Si1 0.592571 0.781502 0.450084
Si Si2 0.718650 0.719078 0.290979
Si Si3 0.047590 0.288622 0.322486
Si Si4 0.813830 0.719909 0.092719
Si Si5 0.101383 0.212402 0.001609
Si Si6 0.365812 0.780317 0.422502
Si Si7 0.846024 0.722411 0.225170
O O1 0.604773 0.713053 0.390440
O O2 0.477975 0.743120 0.433946
O O3 0.650157 0.713010 0.518534
O O4 0.606736 0.000000 0.454419
O O5 0.721509 0.500000 0.292402
O O6 0.613026 0.776107 0.284670
O O7 0.793247 0.785664 0.357179
O O8 0.754259 0.776875 0.239672
O O9 0.030866 0.500000 0.331923
O O10 0.941913 0.213092 0.281806
O O11 0.812136 0.500000 0.092016
O O12 0.886425 0.774217 0.061530
O O13 0.842649 0.781400 0.161071
O O14 0.704212 0.786350 0.050712
O O15 0.101615 0.000000 0.017222
O O16 0.000000 0.288971 0.000000
O O17 0.358418 0.000000 0.421270
O O18 0.848904 0.500000 0.224942
#
# Coordination Sequence:
#
# PCOD9180378 Si02
#       7
#     8   8   8   8   8   8   8
#     4   8  13  24  45  68  89 119 161 203 240 285
#     4  10  19  32  50  72  96 126 164 204 244 291
#     4  10  19  32  49  70  95 126 163 204 246 288
#     4   9  18  33  53  75  99 132 167 197 232 279
#     4   9  18  33  53  78 106 130 156 195 241 284
#     4   8  13  24  45  69  89 118 162 203 239 287
#     4   9  18  34  52  69  97 134 168 197 232 285
#
# _framework density 22.977428
#
# number of rings (size 3 to 8) (size 9 to 14) (size 15 to 20)
#    0.000    3.000    1.429    0.857    0.000    2.000 
#    0.000    3.571    0.000    0.000    0.000    2.000 
#    0.000    0.000    0.000    0.000    0.000    0.000 
#
# Total GULP energy -156273.222185 kJ/mol
# GULP energy per Si atom -5581.186507 kJ/mol
# Density = 2.292513 g / cm^3
# Si number density = 22.977428 Si / 1000 Ang^3
#
#
#
# Elastic Constant Matrix: (Units=GPa)
#
#
# Indices 1 2 3 4 5 6 
#
# 1 104.5879 -6.9992 33.3325 0.0000 -28.9103 0.0000
# 2 -6.9992 81.6067 -3.3518 0.0000 5.0474 0.0000
# 3 33.3325 -3.3518 109.4852 0.0000 -31.7193 0.0000
# 4 0.0000 0.0000 0.0000 -1.2209 0.0000 -2.5456
# 5 -28.9103 5.0474 -31.7193 0.0000 24.1676 0.0000
# 6 0.0000 0.0000 0.0000 -2.5456 0.0000 -1.7933
#
#
#
# Elastic Compliance Matrix: (Units=1/GPa)
#
#
# Indices 1 2 3 4 5 6 
#
# 1 0.014350 0.000132 0.000969 0.000000 0.018411 0.000000
# 2 0.000132 0.012440 -0.000591 0.000000 -0.003216 0.000000
# 3 0.000969 -0.000591 0.014832 0.000000 0.020749 0.000000
# 4 0.000000 0.000000 0.000000 0.417915 0.000000 -0.593258
# 5 0.018411 -0.003216 0.020749 0.000000 0.091305 0.000000
# 6 0.000000 0.000000 0.000000 -0.593258 0.000000 0.284525
#
#
# Mechanical properties :
#
#
# Convention : Reuss Voigt Hill
#
# Bulk Modulus (GPa) = 23.45131 37.96031 30.70581
# Shear Modulus (GPa) = 5.89233 22.41059 14.15146
#
# Velocity S-wave (km/s) = 1.60311 3.12642 2.48440
# Velocity P-wave (km/s) = 3.69527 5.43960 4.64996
#
# Compressibility (1/GPa) = 0.04264154
#
# Stress axis : x y z
#
# Youngs Moduli (GPa) = 69.68408 80.38685 67.42303
#
# Poissons Ratio (x) = -0.01060 -0.06533
# Poissons Ratio (y) = -0.00919 0.03985
# Poissons Ratio (z) = -0.06752 0.04751
#
# Static dielectric constant tensor:
#      x y z
#    x 1.843830 0.000000 -0.009810 
#    y 0.000000 1.896310 0.000000 
#    z -0.009810 0.000000 1.858350 
# 
# From -- ./inp_files/304260.got.cif
#   From: 2010.05.17/outbox.cif.g08.bks.cpg/sg12_153_cif.got.tgz:304260.got - 2010.06.03 13:09:07.
