data_PCOD9180271
_publ_section_title
;
Structure prediction by ZEFSAII (Michael W. Deem and Ramdas Pophale) SiO2 
 PCOD9180271
Probable space group: C 2/M
;
_chemical_formula_sum "Si O2"
_cell_formula_units_Z 64
_cell_length_a 29.167035
_cell_length_b 9.058296
_cell_length_c 15.983631
_cell_angle_alpha 90.000000
_cell_angle_beta 90.766308
_cell_angle_gamma 90.000000
_cell_volume 4222.555741
_symmetry_space_group_name_H-M "C 2/M"
_symmetry_group_IT_number 12
_symmetry_cell_setting 'monoclinic'
loop_
_space_group_symop_operation_xyz
x,y,z
-x,y,-z
-x,-y,-z
x,-y,z
1/2+x,1/2+y,z
1/2-x,1/2+y,-z
1/2-x,1/2-y,-z
1/2+x,1/2-y,z
loop_
_atom_site_type_symbol
_atom_site_label
_atom_site_fract_x
_atom_site_fract_y
_atom_site_fract_z
Si Si1 0.799777 0.677709 0.002408
Si Si2 0.199838 0.823629 0.501468
Si Si3 0.856700 0.676529 0.837135
Si Si4 0.639885 0.177741 0.835366
Si Si5 0.305782 0.822594 0.330467
Si Si6 0.948822 0.822764 0.098605
Si Si7 0.946692 0.822475 0.901961
Si Si8 0.802394 0.823701 0.685420
O O1 0.795033 0.500000 0.004213
O O2 0.827964 0.717921 0.919820
O O3 0.750000 0.750000 0.000000
O O4 0.828184 0.722872 0.085454
O O5 0.250000 0.750000 0.500000
O O6 0.177818 0.755443 0.583979
O O7 0.180046 0.792677 0.408632
O O8 0.203993 0.000000 0.509538
O O9 0.859236 0.500000 0.833567
O O10 0.907107 0.744417 0.849141
O O11 0.830443 0.739236 0.756278
O O12 0.664375 0.218993 0.749299
O O13 0.590136 0.247122 0.847767
O O14 0.636300 0.000000 0.837428
O O15 0.251999 0.785415 0.313254
O O16 0.307560 0.000000 0.341625
O O17 0.001248 0.781845 0.121152
O O18 0.945272 0.000000 0.104755
O O19 0.941286 0.784187 0.000383
O O20 0.942493 0.000000 0.895162
O O21 0.805626 0.000000 0.699616
#
# Coordination Sequence:
#
# PCOD9180271 Si02
#       8
#     8   8   8   8   8   8   8   8
#     4  10  21  33  43  61  92 128 162 190 221 265
#     4   9  17  30  48  68  92 122 157 197 239 278
#     4  11  21  31  46  70  94 121 160 198 231 273
#     4  10  19  32  47  67  97 127 155 193 237 277
#     4   9  18  31  48  69  95 128 161 192 233 280
#     4   9  18  32  50  70  89 118 160 198 234 279
#     4   9  18  33  50  67  91 121 155 197 240 280
#     4   9  18  32  48  66  93 129 159 189 234 279
#
# _framework density 15.156696999999999
#
# number of rings (size 3 to 8) (size 9 to 14) (size 15 to 20)
#    0.000    2.500    1.250    3.000    0.000    6.000 
#    0.000    1.250    0.000    0.000    0.000    0.875 
#    0.000    7.000    0.000    0.000    0.000    0.000 
#
# Total GULP energy -178375.049964 kJ/mol
# GULP energy per Si atom -5574.220311 kJ/mol
# Density = 1.512220 g / cm^3
# Si number density = 15.156697 Si / 1000 Ang^3
#
#
#
# Elastic Constant Matrix: (Units=GPa)
#
#
# Indices 1 2 3 4 5 6 
#
# 1 108.0777 37.6706 69.4837 0.0000 -7.0708 0.0000
# 2 37.6706 26.9265 48.7651 0.0000 -1.0004 0.0000
# 3 69.4837 48.7651 138.3276 0.0000 -9.7720 0.0000
# 4 0.0000 0.0000 0.0000 24.8786 0.0000 -0.9016
# 5 -7.0708 -1.0004 -9.7720 0.0000 9.0367 0.0000
# 6 0.0000 0.0000 0.0000 -0.9016 0.0000 26.7672
#
#
#
# Elastic Compliance Matrix: (Units=1/GPa)
#
#
# Indices 1 2 3 4 5 6 
#
# 1 0.019427 -0.029744 0.001698 0.000000 0.013744 0.000000
# 2 -0.029744 0.156413 -0.043981 0.000000 -0.053516 0.000000
# 3 0.001698 -0.043981 0.023420 0.000000 0.021785 0.000000
# 4 0.000000 0.000000 0.000000 0.040244 0.000000 0.001356
# 5 0.013744 -0.053516 0.021785 0.000000 0.139046 0.000000
# 6 0.000000 0.000000 0.000000 0.001356 0.000000 0.037405
#
#
# Mechanical properties :
#
#
# Convention : Reuss Voigt Hill
#
# Bulk Modulus (GPa) = 18.11353 65.01896 41.56624
# Shear Modulus (GPa) = 8.64437 19.96399 14.30418
#
# Velocity S-wave (km/s) = 2.39076 3.63323 3.07539
# Velocity P-wave (km/s) = 4.42693 7.78405 6.33203
#
# Compressibility (1/GPa) = 0.05520735
#
# Stress axis : x y z
#
# Youngs Moduli (GPa) = 51.47384 6.39334 42.69862
#
# Poissons Ratio (x) = 0.19016 -0.07250
# Poissons Ratio (y) = 1.53102 1.87792
# Poissons Ratio (z) = -0.08740 0.28118
#
# Static dielectric constant tensor:
#      x y z
#    x 1.481370 0.000000 -0.008570 
#    y 0.000000 1.504510 0.000000 
#    z -0.008570 0.000000 1.511940 
# 
# From -- ./inp_files/248379.got.cif
#   From: 2010.05.17/outbox.cif.g08.bks.cpg/sg12_125_cif.got.tgz:248379.got - 2010.06.03 13:09:07.
