data_PCOD9180114
_publ_section_title
;
Structure prediction by ZEFSAII (Michael W. Deem and Ramdas Pophale) SiO2 
 PCOD9180114
Probable space group: C 2/M
;
_chemical_formula_sum "Si O2"
_cell_formula_units_Z 56
_cell_length_a 25.708648
_cell_length_b 11.590829
_cell_length_c 12.620387
_cell_angle_alpha 90.000000
_cell_angle_beta 136.871865
_cell_angle_gamma 90.000000
_cell_volume 2570.922249
_symmetry_space_group_name_H-M "C 2/M"
_symmetry_group_IT_number 12
_symmetry_cell_setting 'monoclinic'
loop_
_space_group_symop_operation_xyz
x,y,z
-x,y,-z
-x,-y,-z
x,-y,z
1/2+x,1/2+y,z
1/2-x,1/2+y,-z
1/2-x,1/2-y,-z
1/2+x,1/2-y,z
loop_
_atom_site_type_symbol
_atom_site_label
_atom_site_fract_x
_atom_site_fract_y
_atom_site_fract_z
Si Si1 0.570186 0.123446 0.184420
Si Si2 0.325983 0.272795 0.976415
Si Si3 0.808016 0.803019 0.717740
Si Si4 0.816331 0.878708 0.502755
Si Si5 0.971844 0.634771 0.247776
Si Si6 0.957245 0.867393 0.569893
Si Si7 0.823638 0.129444 0.200249
O O1 0.627564 0.217357 0.229381
O O2 0.533738 0.134945 0.245723
O O3 0.610276 0.000000 0.239399
O O4 0.500000 0.123339 0.000000
O O5 0.329275 0.337592 0.868464
O O6 0.242416 0.217745 0.865070
O O7 0.389981 0.172347 0.078029
O O8 0.339550 0.350151 0.099886
O O9 0.803337 0.883897 0.609229
O O10 0.730170 0.730427 0.607009
O O11 0.903366 0.868751 0.594572
O O12 0.788820 0.000000 0.413875
O O13 0.968875 0.500000 0.284067
O O14 0.995998 0.746760 0.354627
O O15 0.898132 0.858342 0.384126
O O16 0.991292 0.000000 0.615511
O O17 0.794727 0.000000 0.171052
#
# Coordination Sequence:
#
# PCOD9180114 Si02
#       7
#     8   8   8   8   8   8   8
#     4  10  19  31  53  86 122 155 190 238 301 374
#     4  11  23  39  65  93 124 160 208 272 321 365
#     4  11  20  35  58  88 125 153 203 255 315 370
#     4  10  21  35  57  87 121 164 207 251 309 374
#     4  11  23  39  63  98 133 163 205 263 326 378
#     4  10  21  42  66  88 125 174 219 256 306 382
#     4  10  23  44  66  88 118 167 223 265 310 374
#
# _framework density 21.782067000000001
#
# number of rings (size 3 to 8) (size 9 to 14) (size 15 to 20)
#    0.000    1.571    4.286    0.857    0.000    2.857 
#    0.000    5.714    0.000    2.571    0.000    0.000 
#    0.000    0.000    0.000    0.000    0.000    0.000 
#
# Total GULP energy -156089.544662 kJ/mol
# GULP energy per Si atom -5574.626595 kJ/mol
# Density = 2.173249 g / cm^3
# Si number density = 21.782067 Si / 1000 Ang^3
#
#
#
# Elastic Constant Matrix: (Units=GPa)
#
#
# Indices 1 2 3 4 5 6 
#
# 1 63.1785 13.3841 15.4383 0.0000 -17.9166 0.0000
# 2 13.3841 110.4142 45.1835 0.0000 -5.3552 0.0000
# 3 15.4383 45.1835 96.7370 0.0000 -22.1906 0.0000
# 4 0.0000 0.0000 0.0000 35.9818 0.0000 12.6688
# 5 -17.9166 -5.3552 -22.1906 0.0000 38.7233 0.0000
# 6 0.0000 0.0000 0.0000 12.6688 0.0000 20.0998
#
#
#
# Elastic Compliance Matrix: (Units=1/GPa)
#
#
# Indices 1 2 3 4 5 6 
#
# 1 0.018591 -0.001745 -0.000269 0.000000 0.008206 0.000000
# 2 -0.001745 0.011455 -0.005634 0.000000 -0.002452 0.000000
# 3 -0.000269 -0.005634 0.014743 0.000000 0.007545 0.000000
# 4 0.000000 0.000000 0.000000 0.035719 0.000000 -0.022513
# 5 0.008206 -0.002452 0.007545 0.000000 0.033605 0.000000
# 6 0.000000 0.000000 0.000000 -0.022513 0.000000 0.063942
#
#
# Mechanical properties :
#
#
# Convention : Reuss Voigt Hill
#
# Bulk Modulus (GPa) = 33.90924 46.48237 40.19581
# Shear Modulus (GPa) = 24.60845 32.04924 28.32885
#
# Velocity S-wave (km/s) = 3.36483 3.83999 3.61024
# Velocity P-wave (km/s) = 5.54053 6.40678 5.98933
#
# Compressibility (1/GPa) = 0.02949049
#
# Stress axis : x y z
#
# Youngs Moduli (GPa) = 53.79001 87.29722 67.83054
#
# Poissons Ratio (x) = 0.15236 0.01827
# Poissons Ratio (y) = 0.09388 0.38218
# Poissons Ratio (z) = 0.01449 0.49187
#
# Static dielectric constant tensor:
#      x y z
#    x 1.809890 0.000000 -0.012400 
#    y 0.000000 1.805980 0.000000 
#    z -0.012400 0.000000 1.834800 
# 
# From -- ./inp_files/182582.got.cif
#   From: 2010.05.17/outbox.cif.g08.bks.cpg/sg12_92_cif.got.tgz:182582.got - 2010.06.03 13:09:07.
