data_PCOD9180825
_publ_section_title
;
Structure prediction by ZEFSAII (Michael W. Deem and Ramdas Pophale) SiO2 
 PCOD9180825
Probable space group: C 2/M
;
_chemical_formula_sum "Si O2"
_cell_formula_units_Z 56
_cell_length_a 18.442074
_cell_length_b 9.021724
_cell_length_c 30.006667
_cell_angle_alpha 90.000000
_cell_angle_beta 38.684022
_cell_angle_gamma 90.000000
_cell_volume 3120.429971
_symmetry_space_group_name_H-M "C 2/M"
_symmetry_group_IT_number 12
_symmetry_cell_setting 'monoclinic'
loop_
_space_group_symop_operation_xyz
x,y,z
-x,y,-z
-x,-y,-z
x,-y,z
1/2+x,1/2+y,z
1/2-x,1/2+y,-z
1/2-x,1/2-y,-z
1/2+x,1/2-y,z
loop_
_atom_site_type_symbol
_atom_site_label
_atom_site_fract_x
_atom_site_fract_y
_atom_site_fract_z
Si Si1 0.443563 0.328183 0.214725
Si Si2 0.549607 0.823943 0.929528
Si Si3 0.410466 0.177820 0.630016
Si Si4 0.266362 0.669892 0.215207
Si Si5 0.873398 0.676289 0.932107
Si Si6 0.814986 0.323053 0.510217
Si Si7 0.743970 0.822570 0.637175
O O1 0.462101 0.500000 0.217635
O O2 0.355185 0.325448 0.214746
O O3 0.559739 0.250768 0.141377
O O4 0.376844 0.239905 0.285187
O O5 0.670610 0.757567 0.854184
O O6 0.454527 0.798244 0.936540
O O7 0.565099 0.000000 0.926531
O O8 0.500000 0.764785 0.000000
O O9 0.353580 0.222397 0.704803
O O10 0.546970 0.201298 0.561314
O O11 0.342959 0.264435 0.623733
O O12 0.387599 0.000000 0.635664
O O13 0.252618 0.500000 0.207805
O O14 0.862940 0.500000 0.930657
O O15 0.750000 0.750000 0.000000
O O16 0.795417 0.500000 0.521284
O O17 0.750000 0.250000 0.500000
O O18 0.771264 0.247189 0.576359
O O19 0.742834 0.000000 0.636323
#
# Coordination Sequence:
#
# PCOD9180825 Si02
#       7
#     8   8   8   8   8   8   8
#     4   9  17  32  53  76 103 134 171 216 264 309
#     4   9  18  32  49  71 100 133 168 207 251 299
#     4   9  19  36  57  79 104 136 174 218 265 312
#     4   8  15  29  50  75  99 126 164 209 256 302
#     4  10  19  32  51  75 104 137 173 214 260 311
#     4  11  23  39  56  76 108 145 177 213 264 319
#     4  11  21  34  56  84 108 133 174 221 262 313
#
# _framework density 17.946244
#
# number of rings (size 3 to 8) (size 9 to 14) (size 15 to 20)
#    0.000    2.429    0.000    3.857    0.000    7.143 
#    0.000    1.429    0.000    3.429    0.000    0.000 
#    0.000    0.000    0.000    0.000    0.000    0.000 
#
# Total GULP energy -156182.689914 kJ/mol
# GULP energy per Si atom -5577.953211 kJ/mol
# Density = 1.790540 g / cm^3
# Si number density = 17.946244 Si / 1000 Ang^3
#
#
#
# Elastic Constant Matrix: (Units=GPa)
#
#
# Indices 1 2 3 4 5 6 
#
# 1 42.7405 55.7155 66.6152 0.0000 3.5704 0.0003
# 2 55.7155 114.2052 104.5585 -0.0001 -1.4801 0.0003
# 3 66.6152 104.5585 218.3159 0.0000 5.4884 0.0000
# 4 0.0000 -0.0001 0.0000 35.6223 0.0000 3.3931
# 5 3.5704 -1.4801 5.4884 0.0000 26.9439 -0.0001
# 6 0.0003 0.0003 0.0000 3.3931 -0.0001 17.1477
#
#
#
# Elastic Compliance Matrix: (Units=1/GPa)
#
#
# Indices 1 2 3 4 5 6 
#
# 1 0.076151 -0.028904 -0.009146 0.000000 -0.009816 -0.000001
# 2 -0.028904 0.026719 -0.004131 0.000000 0.006139 0.000000
# 3 -0.009146 -0.004131 0.009373 0.000000 -0.000924 0.000000
# 4 0.000000 0.000000 0.000000 0.028612 0.000000 -0.005661
# 5 -0.009816 0.006139 -0.000924 0.000000 0.038940 0.000000
# 6 -0.000001 0.000000 0.000000 -0.005661 0.000000 0.059437
#
#
# Mechanical properties :
#
#
# Convention : Reuss Voigt Hill
#
# Bulk Modulus (GPa) = 35.86827 92.11556 63.99191
# Shear Modulus (GPa) = 15.02001 25.83427 20.42714
#
# Velocity S-wave (km/s) = 2.89614 3.79824 3.37744
# Velocity P-wave (km/s) = 5.58689 8.40687 7.13754
#
# Compressibility (1/GPa) = 0.02787980
#
# Stress axis : x y z
#
# Youngs Moduli (GPa) = 13.13182 37.42627 106.68655
#
# Poissons Ratio (x) = 1.08177 0.97578
# Poissons Ratio (y) = 0.37956 0.44077
# Poissons Ratio (z) = 0.12011 0.15462
#
# Static dielectric constant tensor:
#      x y z
#    x 1.601530 0.000000 -0.000270 
#    y 0.000000 1.602660 0.000000 
#    z -0.000270 0.000000 1.627020 
# 
# From -- ./inp_files/362929.got.cif
#   From: 2010.05.17/outbox.cif.g08.bks.cpg/sg12_182_cif.got.tgz:362929.got - 2010.06.03 13:09:07.
