data_PCOD9180972
_publ_section_title
;
Structure prediction by ZEFSAII (Michael W. Deem and Ramdas Pophale) SiO2 
 PCOD9180972
Probable space group: C 2/M
;
_chemical_formula_sum "Si O2"
_cell_formula_units_Z 64
_cell_length_a 25.357429
_cell_length_b 14.545062
_cell_length_c 10.205542
_cell_angle_alpha 90.000000
_cell_angle_beta 90.288649
_cell_angle_gamma 90.000000
_cell_volume 3764.015109
_symmetry_space_group_name_H-M "C 2/M"
_symmetry_group_IT_number 12
_symmetry_cell_setting 'monoclinic'
loop_
_space_group_symop_operation_xyz
x,y,z
-x,y,-z
-x,-y,-z
x,-y,z
1/2+x,1/2+y,z
1/2-x,1/2+y,-z
1/2-x,1/2-y,-z
1/2+x,1/2-y,z
loop_
_atom_site_type_symbol
_atom_site_label
_atom_site_fract_x
_atom_site_fract_y
_atom_site_fract_z
Si Si1 0.131301 0.275973 0.479586
Si Si2 0.254493 0.109925 0.141492
Si Si3 0.769265 0.604970 0.602976
Si Si4 0.320016 0.605046 0.622028
Si Si5 0.701475 0.391233 0.861032
Si Si6 0.962724 0.603410 0.625777
Si Si7 0.036159 0.390619 0.873348
Si Si8 0.138301 0.719459 0.794179
O O1 0.185246 0.325597 0.435942
O O2 0.135073 0.172892 0.426044
O O3 0.084144 0.329080 0.409671
O O4 0.128398 0.280209 0.637247
O O5 0.209373 0.135349 0.245777
O O6 0.308504 0.161894 0.174341
O O7 0.263409 0.000000 0.155524
O O8 0.232395 0.127772 0.996174
O O9 0.789877 0.500000 0.608653
O O10 0.724549 0.607757 0.491266
O O11 0.740873 0.626155 0.739709
O O12 0.337656 0.500000 0.638066
O O13 0.687450 0.500000 0.858111
O O14 0.652509 0.322405 0.842051
O O15 0.941939 0.500000 0.649948
O O16 0.000000 0.600168 0.500000
O O17 0.998967 0.629309 0.748552
O O18 0.050313 0.500000 0.869139
O O19 0.088627 0.329260 0.862951
O O20 0.000000 0.375135 0.000000
#
# Coordination Sequence:
#
# PCOD9180972 Si02
#       8
#     8   8   8   8   8   8   8   8
#     4  12  21  32  57  83 107 144 189 222 261 321
#     4  10  21  35  53  81 115 145 179 221 266 320
#     4  10  19  32  51  79 112 142 177 217 261 317
#     4  10  20  34  52  78 112 145 178 219 262 313
#     4  10  22  37  52  79 117 148 177 220 267 317
#     4  10  21  37  56  80 107 135 175 227 275 317
#     4  10  23  41  59  82 111 138 174 229 282 323
#     4  12  21  34  59  81 104 147 188 218 267 329
#
# _framework density 17.003119999999999
#
# number of rings (size 3 to 8) (size 9 to 14) (size 15 to 20)
#    0.000    1.500    3.750    2.250    0.000    3.000 
#    0.000    3.750    0.000    1.500    0.000    0.000 
#    0.000    0.000    0.000    0.000    0.000    0.000 
#
# Total GULP energy -178666.358431 kJ/mol
# GULP energy per Si atom -5583.323701 kJ/mol
# Density = 1.696442 g / cm^3
# Si number density = 17.003120 Si / 1000 Ang^3
#
#
#
# Elastic Constant Matrix: (Units=GPa)
#
#
# Indices 1 2 3 4 5 6 
#
# 1 75.1819 57.2681 23.8250 0.0000 -0.7403 0.0000
# 2 57.2681 88.3419 19.3866 0.0000 -0.8598 0.0000
# 3 23.8250 19.3866 108.9717 0.0000 -3.7467 0.0000
# 4 0.0000 0.0000 0.0000 11.6946 0.0000 -6.8453
# 5 -0.7403 -0.8598 -3.7467 0.0000 19.0062 0.0000
# 6 0.0000 0.0000 0.0000 -6.8453 0.0000 37.0292
#
#
#
# Elastic Compliance Matrix: (Units=1/GPa)
#
#
# Indices 1 2 3 4 5 6 
#
# 1 0.027141 -0.016954 -0.002927 0.000000 -0.000287 0.000000
# 2 -0.016954 0.022371 -0.000263 0.000000 0.000300 0.000000
# 3 -0.002927 -0.000263 0.009926 0.000000 0.001831 0.000000
# 4 0.000000 0.000000 0.000000 0.095885 0.000000 0.017726
# 5 -0.000287 0.000300 0.001831 0.000000 0.052978 0.000000
# 6 0.000000 0.000000 0.000000 0.017726 0.000000 0.030282
#
#
# Mechanical properties :
#
#
# Convention : Reuss Voigt Hill
#
# Bulk Modulus (GPa) = 52.22273 52.60610 52.41441
# Shear Modulus (GPa) = 17.52813 25.01371 21.27092
#
# Velocity S-wave (km/s) = 3.21421 3.83969 3.54079
# Velocity P-wave (km/s) = 6.67497 7.11785 6.89996
#
# Compressibility (1/GPa) = 0.01914875
#
# Stress axis : x y z
#
# Youngs Moduli (GPa) = 36.84518 44.70066 100.74105
#
# Poissons Ratio (x) = 0.75787 0.29492
# Poissons Ratio (y) = 0.62469 0.02647
# Poissons Ratio (z) = 0.10786 0.01175
#
# Static dielectric constant tensor:
#      x y z
#    x 1.532670 0.000000 -0.015070 
#    y 0.000000 1.622210 0.000000 
#    z -0.015070 0.000000 1.572520 
# 
# From -- ./inp_files/96895.got.cif
#   From: 2010.05.17/outbox.cif.g08.bks.cpg/sg12_49_cif.got.tgz:96895.got - 2010.06.03 13:09:07.
