data_PCOD9180356
_publ_section_title
;
Structure prediction by ZEFSAII (Michael W. Deem and Ramdas Pophale) SiO2 
 PCOD9180356
Probable space group: C 2/M
;
_chemical_formula_sum "Si O2"
_cell_formula_units_Z 64
_cell_length_a 15.127559
_cell_length_b 17.593532
_cell_length_c 27.813207
_cell_angle_alpha 90.000000
_cell_angle_beta 30.145776
_cell_angle_gamma 90.000000
_cell_volume 3717.501983
_symmetry_space_group_name_H-M "C 2/M"
_symmetry_group_IT_number 12
_symmetry_cell_setting 'monoclinic'
loop_
_space_group_symop_operation_xyz
x,y,z
-x,y,-z
-x,-y,-z
x,-y,z
1/2+x,1/2+y,z
1/2-x,1/2+y,-z
1/2-x,1/2-y,-z
1/2+x,1/2-y,z
loop_
_atom_site_type_symbol
_atom_site_label
_atom_site_fract_x
_atom_site_fract_y
_atom_site_fract_z
Si Si1 0.326727 0.086328 0.684078
Si Si2 0.622382 0.718151 0.602671
Si Si3 0.853936 0.370405 0.285837
Si Si4 0.875755 0.385679 0.381978
Si Si5 0.231976 0.408053 0.096921
Si Si6 0.313126 0.788812 0.607394
Si Si7 0.902207 0.907857 0.118251
Si Si8 0.992111 0.914527 0.605976
O O1 0.506271 0.081466 0.630926
O O2 0.338979 0.146073 0.634920
O O3 0.183233 0.113916 0.790919
O O4 0.285375 0.000000 0.687238
O O5 0.750000 0.750000 0.500000
O O6 0.553818 0.798728 0.652992
O O7 0.722390 0.682416 0.601030
O O8 0.493369 0.655472 0.642560
O O9 0.889327 0.410636 0.320716
O O10 0.792757 0.283204 0.322469
O O11 0.687470 0.409234 0.339167
O O12 0.042424 0.375966 0.171762
O O13 0.670435 0.397327 0.491706
O O14 0.222249 0.500000 0.100665
O O15 0.289340 0.384761 0.124323
O O16 0.396389 0.385128 0.986017
O O17 0.500000 0.758599 0.500000
O O18 0.896804 0.000000 0.120443
O O19 0.010134 0.000000 0.617311
#
# Coordination Sequence:
#
# PCOD9180356 Si02
#       8
#     8   8   8   8   8   8   8   8
#     4  11  21  34  55  81 106 135 175 224 270 313
#     4   9  19  36  51  63  91 139 180 209 250 296
#     4  11  20  32  50  75 105 139 174 208 254 316
#     4  10  19  32  49  69 101 139 172 209 253 310
#     4   9  16  30  53  79 107 135 171 214 262 319
#     4  11  22  36  53  73 104 143 182 214 258 315
#     4   8  16  31  52  79 107 134 164 215 276 313
#     4  11  21  30  45  71 103 134 170 213 253 302
#
# _framework density 17.215861
#
# number of rings (size 3 to 8) (size 9 to 14) (size 15 to 20)
#    0.000    2.000    1.250    6.375    0.000    2.750 
#    0.000    0.625    0.000    0.000    0.000    0.000 
#    0.000    4.000    0.000    0.000    0.000    0.000 
#
# Total GULP energy -178166.614645 kJ/mol
# GULP energy per Si atom -5567.706708 kJ/mol
# Density = 1.717668 g / cm^3
# Si number density = 17.215861 Si / 1000 Ang^3
#
#
#
# Elastic Constant Matrix: (Units=GPa)
#
#
# Indices 1 2 3 4 5 6 
#
# 1 90.4935 34.5735 33.7862 -0.0040 -8.5213 0.0142
# 2 34.5735 85.4685 19.9752 -0.0212 -7.9280 0.0756
# 3 33.7862 19.9752 115.2679 -0.0817 -20.4924 0.2863
# 4 -0.0040 -0.0212 -0.0817 -35.0035 -0.0097 202.8778
# 5 -8.5213 -7.9280 -20.4924 -0.0097 17.7747 0.0345
# 6 0.0142 0.0756 0.2863 202.8778 0.0345 -761.7119
#
#
#
# Elastic Compliance Matrix: (Units=1/GPa)
#
#
# Indices 1 2 3 4 5 6 
#
# 1 0.014192 -0.004916 -0.003129 -0.000001 0.001003 -0.000002
# 2 -0.004916 0.014102 -0.000382 0.000001 0.003493 0.000002
# 3 -0.003129 -0.000382 0.011775 0.000004 0.011905 0.000006
# 4 -0.000001 0.000001 0.000004 0.052543 0.000006 0.013995
# 5 0.001003 0.003493 0.011905 0.000006 0.072024 0.000010
# 6 -0.000002 0.000002 0.000006 0.013995 0.000010 0.002415
#
#
# Mechanical properties :
#
#
# Convention : Reuss Voigt Hill
#
# Bulk Modulus (GPa) = 43.07757 51.98886 47.53322
# Shear Modulus (GPa) = 26.09002 -142.26181 -58.08590
#
# Velocity S-wave (km/s) = 3.89712 -9.10019 -5.81489
# Velocity P-wave (km/s) = 6.73249 8.95289 4.17300
#
# Compressibility (1/GPa) = 0.02321394
#
# Stress axis : x y z
#
# Youngs Moduli (GPa) = 70.46390 70.91090 84.92282
#
# Poissons Ratio (x) = 0.34862 0.26576
# Poissons Ratio (y) = 0.34643 0.03243
# Poissons Ratio (z) = 0.22052 0.02708
#
# Static dielectric constant tensor:
#      x y z
#    x 1.632030 0.000000 0.007830 
#    y 0.000000 1.625520 0.000000 
#    z 0.007830 0.000000 1.632070 
# 
# From -- ./inp_files/376774.got.cif
#   From: 2010.05.17/outbox.cif.g08.bks.cpg/sg12_189_cif.got.tgz:376774.got - 2010.06.03 13:09:07.
