data_PCOD9180919
_publ_section_title
;
Structure prediction by ZEFSAII (Michael W. Deem and Ramdas Pophale) SiO2 
 PCOD9180919
Probable space group: C 2/M
;
_chemical_formula_sum "Si O2"
_cell_formula_units_Z 56
_cell_length_a 14.122351
_cell_length_b 14.365938
_cell_length_c 20.483904
_cell_angle_alpha 90.000000
_cell_angle_beta 48.245011
_cell_angle_gamma 90.000000
_cell_volume 3100.217717
_symmetry_space_group_name_H-M "C 2/M"
_symmetry_group_IT_number 12
_symmetry_cell_setting 'monoclinic'
loop_
_space_group_symop_operation_xyz
x,y,z
-x,y,-z
-x,-y,-z
x,-y,z
1/2+x,1/2+y,z
1/2-x,1/2+y,-z
1/2-x,1/2-y,-z
1/2+x,1/2-y,z
loop_
_atom_site_type_symbol
_atom_site_label
_atom_site_fract_x
_atom_site_fract_y
_atom_site_fract_z
Si Si1 0.280536 0.602653 0.969302
Si Si2 0.598016 0.217116 0.139984
Si Si3 0.377763 0.896678 0.088985
Si Si4 0.354862 0.606927 0.542842
Si Si5 0.185609 0.227989 0.240971
Si Si6 0.314143 0.740570 0.307103
Si Si7 0.928273 0.109122 0.361890
O O1 0.331034 0.500000 0.964014
O O2 0.375408 0.689503 0.915878
O O3 0.220803 0.594792 0.924866
O O4 0.167006 0.634881 0.069097
O O5 0.664584 0.223072 0.180784
O O6 0.449378 0.217005 0.222651
O O7 0.304509 0.840777 0.176686
O O8 0.416054 0.000000 0.094005
O O9 0.500000 0.849702 0.000000
O O10 0.500000 0.620979 0.500000
O O11 0.320866 0.500000 0.575464
O O12 0.263801 0.681004 0.618137
O O13 0.355737 0.616308 0.464069
O O14 0.226726 0.286705 0.285138
O O15 0.059572 0.166325 0.309264
O O16 0.350782 0.656279 0.338652
O O17 0.955283 0.000000 0.337100
#
# Coordination Sequence:
#
# PCOD9180919 Si02
#       7
#     8   8   8   8   8   8   8
#     4   9  17  33  51  69 104 145 181 229 277 320
#     4   9  20  33  50  79 106 140 187 226 275 332
#     4   9  16  25  43  71 100 133 174 222 276 323
#     4  10  20  36  59  87 113 142 182 231 282 334
#     4  10  19  32  51  77 109 143 182 232 276 322
#     4  11  21  34  57  85 113 147 184 233 283 332
#     4  10  21  38  58  82 112 148 189 229 276 334
#
# _framework density 18.063248000000002
#
# number of rings (size 3 to 8) (size 9 to 14) (size 15 to 20)
#    0.000    2.286    1.429    1.714    0.000    4.571 
#    0.000    0.714    0.000    2.143    0.000    0.000 
#    0.000    0.000    0.000    0.000    0.000    0.000 
#
# Total GULP energy -155973.635949 kJ/mol
# GULP energy per Si atom -5570.486998 kJ/mol
# Density = 1.802213 g / cm^3
# Si number density = 18.063248 Si / 1000 Ang^3
#
#
#
# Elastic Constant Matrix: (Units=GPa)
#
#
# Indices 1 2 3 4 5 6 
#
# 1 87.8603 32.1996 11.8984 0.0000 19.2563 0.0000
# 2 32.1996 48.9983 23.5483 0.0000 4.9785 0.0000
# 3 11.8984 23.5483 57.9578 0.0000 2.4217 0.0000
# 4 0.0000 0.0000 0.0000 95.7837 0.0000 61.9960
# 5 19.2563 4.9785 2.4217 0.0000 28.6916 0.0000
# 6 0.0000 0.0000 0.0000 61.9960 0.0000 67.4959
#
#
#
# Elastic Compliance Matrix: (Units=1/GPa)
#
#
# Indices 1 2 3 4 5 6 
#
# 1 0.017434 -0.011098 0.001343 0.000000 -0.009889 0.000000
# 2 -0.011098 0.032789 -0.011157 0.000000 0.002700 0.000000
# 3 0.001343 -0.011157 0.021544 0.000000 -0.000784 0.000000
# 4 0.000000 0.000000 0.000000 0.025747 0.000000 -0.023649
# 5 -0.009889 0.002700 -0.000784 0.000000 0.041088 0.000000
# 6 0.000000 0.000000 0.000000 -0.023649 0.000000 0.036538
#
#
# Mechanical properties :
#
#
# Convention : Reuss Voigt Hill
#
# Bulk Modulus (GPa) = 33.39510 36.67876 35.03693
# Shear Modulus (GPa) = 22.03179 46.87223 34.45201
#
# Velocity S-wave (km/s) = 3.49621 5.09954 4.37200
# Velocity P-wave (km/s) = 5.90136 7.41779 6.70259
#
# Compressibility (1/GPa) = 0.02994452
#
# Stress axis : x y z
#
# Youngs Moduli (GPa) = 57.35821 30.49769 46.41661
#
# Poissons Ratio (x) = 0.33846 -0.06234
# Poissons Ratio (y) = 0.63655 0.51786
# Poissons Ratio (z) = -0.07704 0.34026
#
# Static dielectric constant tensor:
#      x y z
#    x 1.644850 0.000000 0.017690 
#    y 0.000000 1.662660 0.000000 
#    z 0.017690 0.000000 1.624370 
# 
# From -- ./inp_files/310777.got.cif
#   From: 2010.05.17/outbox.cif.g08.bks.cpg/sg12_156_cif.got.tgz:310777.got - 2010.06.03 13:09:07.
