data_PCOD9180465
_publ_section_title
;
Structure prediction by ZEFSAII (Michael W. Deem and Ramdas Pophale) SiO2 
 PCOD9180465
Probable space group: C 2/M
;
_chemical_formula_sum "Si O2"
_cell_formula_units_Z 64
_cell_length_a 12.695833
_cell_length_b 14.417804
_cell_length_c 19.934516
_cell_angle_alpha 90.000000
_cell_angle_beta 81.578535
_cell_angle_gamma 90.000000
_cell_volume 3609.589549
_symmetry_space_group_name_H-M "C 2/M"
_symmetry_group_IT_number 12
_symmetry_cell_setting 'monoclinic'
loop_
_space_group_symop_operation_xyz
x,y,z
-x,y,-z
-x,-y,-z
x,-y,z
1/2+x,1/2+y,z
1/2-x,1/2+y,-z
1/2-x,1/2-y,-z
1/2+x,1/2-y,z
loop_
_atom_site_type_symbol
_atom_site_label
_atom_site_fract_x
_atom_site_fract_y
_atom_site_fract_z
Si Si1 0.390159 0.773111 0.549114
Si Si2 0.038730 0.352785 0.926334
Si Si3 0.075050 0.394465 0.196403
Si Si4 0.277402 0.389425 0.104040
Si Si5 0.758182 0.107646 0.951125
Si Si6 0.497684 0.888944 0.347081
Si Si7 0.777630 0.611252 0.443503
Si Si8 0.488884 0.356551 0.924994
O O1 0.500000 0.749676 0.500000
O O2 0.427119 0.827976 0.611906
O O3 0.320085 0.680033 0.565600
O O4 0.324330 0.845698 0.508594
O O5 0.165141 0.341279 0.920445
O O6 0.002044 0.397225 0.860801
O O7 0.982802 0.253385 0.930572
O O8 0.000000 0.397364 0.000000
O O9 0.102852 0.500000 0.211694
O O10 0.184832 0.349537 0.159620
O O11 0.019438 0.358145 0.268477
O O12 0.259980 0.500000 0.100551
O O13 0.397756 0.377174 0.118552
O O14 0.266427 0.356950 0.027469
O O15 0.875820 0.111200 0.908991
O O16 0.725391 0.000000 0.955687
O O17 0.375279 0.876954 0.381868
O O18 0.518680 0.000000 0.353770
O O19 0.754185 0.500000 0.450574
O O20 0.500000 0.395102 0.000000
#
# Coordination Sequence:
#
# PCOD9180465 Si02
#       8
#     8   8   8   8   8   8   8   8
#     4   9  17  31  54  83 112 140 175 211 247 299
#     4  11  21  31  50  71  98 124 165 221 273 314
#     4  10  20  33  50  73  99 131 173 217 261 311
#     4   9  17  31  50  68  91 122 162 208 257 313
#     4  10  19  32  50  69  91 122 160 206 264 322
#     4   9  18  34  52  73 104 142 179 213 254 306
#     4   9  17  31  54  83 113 142 173 211 251 295
#     4   9  20  31  47  67  94 119 155 206 265 320
#
# _framework density 17.730547999999999
#
# number of rings (size 3 to 8) (size 9 to 14) (size 15 to 20)
#    0.000    2.500    1.250    1.125    1.750    5.250 
#    2.250    0.000    0.000    0.000    0.000    0.875 
#    0.000    0.000    0.000    0.000    0.000    0.000 
#
# Total GULP energy -178147.092887 kJ/mol
# GULP energy per Si atom -5567.096653 kJ/mol
# Density = 1.769019 g / cm^3
# Si number density = 17.730548 Si / 1000 Ang^3
#
#
#
# Elastic Constant Matrix: (Units=GPa)
#
#
# Indices 1 2 3 4 5 6 
#
# 1 133.1867 35.7758 51.7113 0.0000 -3.5043 0.0000
# 2 35.7758 88.6281 26.7910 0.0000 -4.8567 0.0000
# 3 51.7113 26.7910 103.3892 0.0000 -8.9063 0.0000
# 4 0.0000 0.0000 0.0000 13.6801 0.0000 0.9148
# 5 -3.5043 -4.8567 -8.9063 0.0000 14.2332 0.0000
# 6 0.0000 0.0000 0.0000 0.9148 0.0000 29.5021
#
#
#
# Elastic Compliance Matrix: (Units=1/GPa)
#
#
# Indices 1 2 3 4 5 6 
#
# 1 0.009902 -0.002750 -0.004345 0.000000 -0.001219 0.000000
# 2 -0.002750 0.013079 -0.001783 0.000000 0.002670 0.000000
# 3 -0.004345 -0.001783 0.012856 0.000000 0.006366 0.000000
# 4 0.000000 0.000000 0.000000 0.073251 0.000000 -0.002271
# 5 -0.001219 0.002670 0.006366 0.000000 0.074853 0.000000
# 6 0.000000 0.000000 0.000000 -0.002271 0.000000 0.033966
#
#
# Mechanical properties :
#
#
# Convention : Reuss Voigt Hill
#
# Bulk Modulus (GPa) = 55.31271 61.52890 58.42081
# Shear Modulus (GPa) = 20.68764 25.54480 23.11622
#
# Velocity S-wave (km/s) = 3.41952 3.79980 3.61467
# Velocity P-wave (km/s) = 6.84506 7.35043 7.10224
#
# Compressibility (1/GPa) = 0.01807903
#
# Stress axis : x y z
#
# Youngs Moduli (GPa) = 100.99029 76.45985 77.78546
#
# Poissons Ratio (x) = 0.21030 0.33797
# Poissons Ratio (y) = 0.27777 0.13872
# Poissons Ratio (z) = 0.43879 0.13636
#
# Static dielectric constant tensor:
#      x y z
#    x 1.641120 0.000000 -0.021930 
#    y 0.000000 1.639460 0.000000 
#    z -0.021930 0.000000 1.607770 
# 
# From -- ./inp_files/263341.got.cif
#   From: 2010.05.17/outbox.cif.g08.bks.cpg/sg12_132_cif.got.tgz:263341.got - 2010.06.03 13:09:07.
