data_PCOD9180605
_publ_section_title
;
Structure prediction by ZEFSAII (Michael W. Deem and Ramdas Pophale) SiO2 
 PCOD9180605
Probable space group: C 2/M
;
_chemical_formula_sum "Si O2"
_cell_formula_units_Z 64
_cell_length_a 22.792314
_cell_length_b 8.990815
_cell_length_c 22.396338
_cell_angle_alpha 90.000000
_cell_angle_beta 51.230527
_cell_angle_gamma 90.000000
_cell_volume 3578.296046
_symmetry_space_group_name_H-M "C 2/M"
_symmetry_group_IT_number 12
_symmetry_cell_setting 'monoclinic'
loop_
_space_group_symop_operation_xyz
x,y,z
-x,y,-z
-x,-y,-z
x,-y,z
1/2+x,1/2+y,z
1/2-x,1/2+y,-z
1/2-x,1/2-y,-z
1/2+x,1/2-y,z
loop_
_atom_site_type_symbol
_atom_site_label
_atom_site_fract_x
_atom_site_fract_y
_atom_site_fract_z
Si Si1 0.763323 0.322466 0.662894
Si Si2 0.800654 0.677239 0.415535
Si Si3 0.240347 0.822629 0.810815
Si Si4 0.186310 0.329406 0.960175
Si Si5 0.560947 0.326730 0.616964
Si Si6 0.409575 0.823697 0.747071
Si Si7 0.639747 0.329308 0.104971
Si Si8 0.915329 0.174146 0.537518
O O1 0.758777 0.500000 0.657590
O O2 0.725674 0.239441 0.631378
O O3 0.727937 0.283805 0.749675
O O4 0.850548 0.272433 0.607665
O O5 0.792814 0.500000 0.422645
O O6 0.750000 0.750000 0.500000
O O7 0.885302 0.729100 0.375738
O O8 0.190515 0.739387 0.891615
O O9 0.328121 0.790772 0.770133
O O10 0.230579 0.000000 0.824496
O O11 0.161467 0.500000 0.975240
O O12 0.272959 0.327349 0.928772
O O13 0.140096 0.235370 0.038080
O O14 0.563558 0.500000 0.632659
O O15 0.476358 0.266245 0.673675
O O16 0.590695 0.315773 0.530238
O O17 0.403939 0.770863 0.819423
O O18 0.422576 0.000000 0.734683
O O19 0.613956 0.500000 0.123468
O O20 0.000000 0.219521 0.500000
O O21 0.906059 0.000000 0.560559
#
# Coordination Sequence:
#
# PCOD9180605 Si02
#       8
#     8   8   8   8   8   8   8   8
#     4  11  22  36  55  77 102 135 174 216 262 310
#     4  12  24  40  59  77  98 129 172 222 267 310
#     4   9  19  33  49  74 108 142 173 210 257 309
#     4   9  16  26  44  70 100 137 176 212 252 302
#     4  11  22  36  54  76 103 135 172 214 261 310
#     4  10  19  32  50  75 108 141 174 213 256 307
#     4   9  16  27  44  68 101 139 175 211 253 304
#     4  10  21  35  52  75 104 137 171 209 255 310
#
# _framework density 17.885608000000001
#
# number of rings (size 3 to 8) (size 9 to 14) (size 15 to 20)
#    0.000    1.875    1.250    3.750    0.000    5.250 
#    0.000    0.000    0.000    0.000    0.000    0.875 
#    0.000    7.000    0.000    0.000    0.000    0.000 
#
# Total GULP energy -178650.906220 kJ/mol
# GULP energy per Si atom -5582.840819 kJ/mol
# Density = 1.784490 g / cm^3
# Si number density = 17.885608 Si / 1000 Ang^3
#
#
#
# Elastic Constant Matrix: (Units=GPa)
#
#
# Indices 1 2 3 4 5 6 
#
# 1 51.0343 23.0515 3.4912 0.0001 23.2259 0.0000
# 2 23.0515 83.9836 30.4355 0.0002 22.1709 -0.0001
# 3 3.4912 30.4355 63.4955 0.0000 31.0117 -0.0001
# 4 0.0001 0.0002 0.0000 29.6687 0.0000 0.4617
# 5 23.2259 22.1709 31.0117 0.0000 26.1288 0.0001
# 6 0.0000 -0.0001 -0.0001 0.4617 0.0001 22.8719
#
#
#
# Elastic Compliance Matrix: (Units=1/GPa)
#
#
# Indices 1 2 3 4 5 6 
#
# 1 0.126613 -0.013854 0.116355 -0.000001 -0.238891 0.000002
# 2 -0.013854 0.017012 -0.015125 0.000000 0.015832 0.000000
# 3 0.116355 -0.015125 0.144768 -0.000001 -0.262417 0.000002
# 4 -0.000001 0.000000 -0.000001 0.033716 0.000001 -0.000681
# 5 -0.238891 0.015832 -0.262417 0.000001 0.548646 -0.000004
# 6 0.000002 0.000000 0.000002 -0.000681 -0.000004 0.043736
#
#
# Mechanical properties :
#
#
# Convention : Reuss Voigt Hill
#
# Bulk Modulus (GPa) = 2.15915 34.71887 18.43901
# Shear Modulus (GPa) = 5.59210 25.16954 15.38082
#
# Velocity S-wave (km/s) = 1.77013 3.75540 2.93568
# Velocity P-wave (km/s) = 2.32113 6.18529 4.67148
#
# Compressibility (1/GPa) = 0.46314458
#
# Stress axis : x y z
#
# Youngs Moduli (GPa) = 7.89809 58.78362 6.90761
#
# Poissons Ratio (x) = 0.81441 -0.80374
# Poissons Ratio (y) = 0.10942 0.10448
# Poissons Ratio (z) = -0.91898 0.88909
#
# Static dielectric constant tensor:
#      x y z
#    x 1.616720 0.000000 0.009260 
#    y 0.000000 1.595440 0.000000 
#    z 0.009260 0.000000 1.604080 
# 
# From -- ./inp_files/324125.got.cif
#   From: 2010.05.17/outbox.cif.g08.bks.cpg/sg12_163_cif.got.tgz:324125.got - 2010.06.03 13:09:07.
