data_PCOD9180171
_publ_section_title
;
Structure prediction by ZEFSAII (Michael W. Deem and Ramdas Pophale) SiO2 
 PCOD9180171
Probable space group: C 2/M
;
_chemical_formula_sum "Si O2"
_cell_formula_units_Z 64
_cell_length_a 11.710414
_cell_length_b 20.382107
_cell_length_c 25.383380
_cell_angle_alpha 90.000000
_cell_angle_beta 30.043493
_cell_angle_gamma 90.000000
_cell_volume 3033.271532
_symmetry_space_group_name_H-M "C 2/M"
_symmetry_group_IT_number 12
_symmetry_cell_setting 'monoclinic'
loop_
_space_group_symop_operation_xyz
x,y,z
-x,y,-z
-x,-y,-z
x,-y,z
1/2+x,1/2+y,z
1/2-x,1/2+y,-z
1/2-x,1/2-y,-z
1/2+x,1/2-y,z
loop_
_atom_site_type_symbol
_atom_site_label
_atom_site_fract_x
_atom_site_fract_y
_atom_site_fract_z
Si Si1 0.771811 0.424951 0.294529
Si Si2 0.352848 0.073884 0.661688
Si Si3 0.164392 0.920315 0.583057
Si Si4 0.569720 0.927790 0.890867
Si Si5 0.169699 0.423610 0.207922
Si Si6 0.981085 0.155389 0.757588
Si Si7 0.355774 0.353935 0.963545
Si Si8 0.266547 0.751299 0.908207
O O1 0.756003 0.500000 0.319768
O O2 0.511680 0.401647 0.393409
O O3 0.853077 0.425693 0.201248
O O4 0.966811 0.395671 0.253146
O O5 0.575698 0.087453 0.538022
O O6 0.414138 0.074880 0.698418
O O7 0.150796 0.124141 0.732156
O O8 0.272536 0.000000 0.680445
O O9 0.097183 0.872011 0.657665
O O10 0.131588 0.000000 0.607706
O O11 0.731235 0.877768 0.856780
O O12 0.612649 0.000000 0.894468
O O13 0.305246 0.910269 0.995455
O O14 0.222030 0.500000 0.171318
O O15 0.400772 0.381417 0.116164
O O16 0.922978 0.230429 0.795977
O O17 0.351641 0.297937 0.920475
O O18 0.233114 0.321375 0.063248
O O19 0.000000 0.741292 0.000000
#
# Coordination Sequence:
#
# PCOD9180171 Si02
#       8
#     8   8   8   8   8   8   8   8
#     4   8  17  32  49  79 119 158 191 227 286 356
#     4  10  19  31  54  90 124 157 196 243 305 367
#     4   9  18  33  56  86 123 160 194 242 305 367
#     4  10  20  35  58  86 120 156 192 244 311 367
#     4  10  20  34  55  87 125 160 198 244 299 357
#     4  11  19  36  56  84 121 154 195 244 296 359
#     4  11  23  39  56  81 119 155 205 252 292 359
#     4  11  24  41  56  80 114 157 212 246 293 353
#
# _framework density 21.099332
#
# number of rings (size 3 to 8) (size 9 to 14) (size 15 to 20)
#    0.000    2.000    2.500    2.625    1.750    1.500 
#    0.000    5.000    0.000    0.000    0.000   15.750 
#    0.000    0.000    0.000    0.000    0.000    1.500 
#
# Total GULP energy -178421.159495 kJ/mol
# GULP energy per Si atom -5575.661234 kJ/mol
# Density = 2.105131 g / cm^3
# Si number density = 21.099332 Si / 1000 Ang^3
#
#
#
# Elastic Constant Matrix: (Units=GPa)
#
#
# Indices 1 2 3 4 5 6 
#
# 1 103.7835 15.0696 19.8480 0.0071 -18.1340 -0.0382
# 2 15.0696 52.4384 26.9063 0.0707 5.7504 -0.0672
# 3 19.8480 26.9063 70.5945 0.0346 -1.4768 -0.0214
# 4 0.0071 0.0707 0.0346 26.2173 -0.0049 11.1133
# 5 -18.1340 5.7504 -1.4768 -0.0049 26.1238 0.0326
# 6 -0.0382 -0.0672 -0.0214 11.1133 0.0326 -10.6570
#
#
#
# Elastic Compliance Matrix: (Units=1/GPa)
#
#
# Indices 1 2 3 4 5 6 
#
# 1 0.012084 -0.003505 -0.001872 0.000004 0.009054 0.000015
# 2 -0.003505 0.025613 -0.008956 0.000006 -0.008577 -0.000151
# 3 -0.001872 -0.008956 0.018141 -0.000009 0.001697 0.000023
# 4 0.000004 0.000006 -0.000009 0.026451 -0.000028 0.027583
# 5 0.009054 -0.008577 0.001697 -0.000028 0.046548 0.000131
# 6 0.000015 -0.000151 0.000023 0.027583 0.000131 -0.065070
#
#
# Mechanical properties :
#
#
# Convention : Reuss Voigt Hill
#
# Bulk Modulus (GPa) = 36.80328 38.94046 37.87187
# Shear Modulus (GPa) = 49.26552 19.33634 34.30093
#
# Velocity S-wave (km/s) = 4.83736 3.03057 4.03636
# Velocity P-wave (km/s) = 6.97716 5.54451 6.30168
#
# Compressibility (1/GPa) = 0.02717149
#
# Stress axis : x y z
#
# Youngs Moduli (GPa) = 82.75087 39.04268 55.12410
#
# Poissons Ratio (x) = 0.13684 0.10321
# Poissons Ratio (y) = 0.29004 0.49370
# Poissons Ratio (z) = 0.15494 0.34967
#
# Static dielectric constant tensor:
#      x y z
#    x 1.805220 0.000000 0.026370 
#    y 0.000000 1.767650 0.000000 
#    z 0.026370 0.000000 1.764490 
# 
# From -- ./inp_files/358976.got.cif
#   From: 2010.05.17/outbox.cif.g08.bks.cpg/sg12_180_cif.got.tgz:358976.got - 2010.06.03 13:09:07.
