data_PCOD9180564
_publ_section_title
;
Structure prediction by ZEFSAII (Michael W. Deem and Ramdas Pophale) SiO2 
 PCOD9180564
Probable space group: C 2/M
;
_chemical_formula_sum "Si O2"
_cell_formula_units_Z 52
_cell_length_a 27.481878
_cell_length_b 10.056096
_cell_length_c 11.466794
_cell_angle_alpha 90.000000
_cell_angle_beta 72.096977
_cell_angle_gamma 90.000000
_cell_volume 3015.520646
_symmetry_space_group_name_H-M "C 2/M"
_symmetry_group_IT_number 12
_symmetry_cell_setting 'monoclinic'
loop_
_space_group_symop_operation_xyz
x,y,z
-x,y,-z
-x,-y,-z
x,-y,z
1/2+x,1/2+y,z
1/2-x,1/2+y,-z
1/2-x,1/2-y,-z
1/2+x,1/2-y,z
loop_
_atom_site_type_symbol
_atom_site_label
_atom_site_fract_x
_atom_site_fract_y
_atom_site_fract_z
Si Si1 0.238577 0.657918 0.619754
Si Si2 0.000000 0.746547 0.500000
Si Si3 0.050503 0.660547 0.029991
Si Si4 0.121275 0.342917 0.768845
Si Si5 0.084533 0.148006 0.602445
Si Si6 0.916722 0.345754 0.739292
Si Si7 0.840385 0.153507 0.671242
O O1 0.242610 0.500000 0.586330
O O2 0.250000 0.750000 0.500000
O O3 0.181401 0.682406 0.707973
O O4 0.281568 0.683859 0.685954
O O5 0.966578 0.832334 0.434993
O O6 0.959755 0.664889 0.607071
O O7 0.045129 0.500000 0.040515
O O8 0.059505 0.703803 0.155915
O O9 0.098972 0.689690 0.912227
O O10 0.000000 0.710855 0.000000
O O11 0.112234 0.500000 0.755600
O O12 0.090970 0.258757 0.695318
O O13 0.130370 0.162068 0.474937
O O14 0.086679 0.000000 0.651318
O O15 0.901385 0.500000 0.763062
O O16 0.869608 0.254173 0.734105
O O17 0.845304 0.000000 0.707056
#
# Coordination Sequence:
#
# PCOD9180564 Si02
#       7
#     8   4   8   8   8   8   8
#     4  10  19  33  53  79 107 138 173 215 263 311
#     4  10  20  32  50  76 104 132 174 214 268 310
#     4   9  18  34  53  75 106 139 171 215 266 309
#     4  10  20  33  54  79 103 135 177 218 258 307
#     4  10  19  32  50  73 104 139 170 207 261 317
#     4  10  20  34  54  77 102 134 177 222 260 307
#     4   9  19  34  50  72 107 139 164 208 269 317
#
# _framework density 17.244119000000001
#
# number of rings (size 3 to 8) (size 9 to 14) (size 15 to 20)
#    0.000    2.308    1.538    1.385    0.000    5.538 
#    0.000    1.538    0.000    1.846    0.000    0.000 
#    0.000    0.000    0.000    0.000    0.000    0.000 
#
# Total GULP energy -144949.444863 kJ/mol
# GULP energy per Si atom -5574.978649 kJ/mol
# Density = 1.720487 g / cm^3
# Si number density = 17.244119 Si / 1000 Ang^3
#
#
#
# Elastic Constant Matrix: (Units=GPa)
#
#
# Indices 1 2 3 4 5 6 
#
# 1 113.5546 45.5077 52.1424 0.0000 12.0465 0.0000
# 2 45.5077 56.7220 42.1433 0.0000 9.7221 0.0000
# 3 52.1424 42.1433 89.1281 0.0000 12.4999 0.0000
# 4 0.0000 0.0000 0.0000 13.9866 0.0000 5.9936
# 5 12.0465 9.7221 12.4999 0.0000 25.1612 0.0000
# 6 0.0000 0.0000 0.0000 5.9936 0.0000 21.1045
#
#
#
# Elastic Compliance Matrix: (Units=1/GPa)
#
#
# Indices 1 2 3 4 5 6 
#
# 1 0.014096 -0.007825 -0.004325 0.000000 -0.001576 0.000000
# 2 -0.007825 0.031988 -0.010039 0.000000 -0.003626 0.000000
# 3 -0.004325 -0.010039 0.018985 0.000000 -0.003482 0.000000
# 4 0.000000 0.000000 0.000000 0.081404 0.000000 -0.023119
# 5 -0.001576 -0.003626 -0.003482 0.000000 0.043630 0.000000
# 6 0.000000 0.000000 0.000000 -0.023119 0.000000 0.053949
#
#
# Mechanical properties :
#
#
# Convention : Reuss Voigt Hill
#
# Bulk Modulus (GPa) = 48.33080 59.88794 54.10937
# Shear Modulus (GPa) = 16.93044 20.02454 18.47749
#
# Velocity S-wave (km/s) = 3.13678 3.41139 3.27697
# Velocity P-wave (km/s) = 6.41930 7.09378 6.76495
#
# Compressibility (1/GPa) = 0.02069074
#
# Stress axis : x y z
#
# Youngs Moduli (GPa) = 70.94425 31.26183 52.67260
#
# Poissons Ratio (x) = 0.24463 0.22782
# Poissons Ratio (y) = 0.55514 0.52876
# Poissons Ratio (z) = 0.30685 0.31383
#
# Static dielectric constant tensor:
#      x y z
#    x 1.599190 0.000000 -0.011070 
#    y 0.000000 1.583660 0.000000 
#    z -0.011070 0.000000 1.567060 
# 
# From -- ./inp_files/179944.got.cif
#   From: 2010.05.17/outbox.cif.g08.bks.cpg/sg12_90_cif.got.tgz:179944.got - 2010.06.03 13:09:07.
