data_PCOD9180032
_publ_section_title
;
Structure prediction by ZEFSAII (Michael W. Deem and Ramdas Pophale) SiO2 
 PCOD9180032
Probable space group: C 2/M
;
_chemical_formula_sum "Si O2"
_cell_formula_units_Z 48
_cell_length_a 20.119218
_cell_length_b 15.090651
_cell_length_c 11.656147
_cell_angle_alpha 90.000000
_cell_angle_beta 42.616304
_cell_angle_gamma 90.000000
_cell_volume 2396.169523
_symmetry_space_group_name_H-M "C 2/M"
_symmetry_group_IT_number 12
_symmetry_cell_setting 'monoclinic'
loop_
_space_group_symop_operation_xyz
x,y,z
-x,y,-z
-x,-y,-z
x,-y,z
1/2+x,1/2+y,z
1/2-x,1/2+y,-z
1/2-x,1/2-y,-z
1/2+x,1/2-y,z
loop_
_atom_site_type_symbol
_atom_site_label
_atom_site_fract_x
_atom_site_fract_y
_atom_site_fract_z
Si Si1 0.890592 0.285017 0.594635
Si Si2 0.295095 0.594131 0.764100
Si Si3 0.270192 0.657021 0.040242
Si Si4 0.611852 0.870081 0.848587
Si Si5 0.287815 0.842819 0.504891
Si Si6 0.109197 0.157383 0.886147
O O1 0.848315 0.184161 0.655158
O O2 0.826639 0.348531 0.758733
O O3 0.871575 0.319485 0.491047
O O4 0.000000 0.283954 0.500000
O O5 0.338590 0.500000 0.668930
O O6 0.184460 0.600291 0.856754
O O7 0.291237 0.595345 0.906504
O O8 0.356641 0.651941 0.024654
O O9 0.250000 0.750000 0.000000
O O10 0.664967 0.893834 0.661523
O O11 0.608344 0.762837 0.861214
O O12 0.500000 0.900705 0.000000
O O13 0.250000 0.750000 0.500000
O O14 0.194824 0.880653 0.694311
O O15 0.000000 0.122753 0.000000
#
# Coordination Sequence:
#
# PCOD9180032 Si02
#       6
#     8   8   8   8   8   8
#     4  10  20  33  58  83 104 137 185 234 270 311
#     4  11  22  36  51  77 118 147 174 217 277 345
#     4   9  17  34  51  80 104 139 184 220 266 319
#     4  10  19  31  53  80 109 139 180 222 277 321
#     4   9  16  31  50  82 106 130 175 233 270 307
#     4   9  16  29  55  83 103 131 178 241 271 304
#
# _framework density 20.031970999999999
#
# number of rings (size 3 to 8) (size 9 to 14) (size 15 to 20)
#    0.000    2.333    6.667    0.000    2.333    4.667 
#    0.000    0.000    0.000    5.000    0.000    0.000 
#    0.000    0.667    0.000    0.000    0.000    0.000 
#
# Total GULP energy -133651.735745 kJ/mol
# GULP energy per Si atom -5568.822323 kJ/mol
# Density = 1.998638 g / cm^3
# Si number density = 20.031971 Si / 1000 Ang^3
#
#
#
# Elastic Constant Matrix: (Units=GPa)
#
#
# Indices 1 2 3 4 5 6 
#
# 1 189.6446 -2.5329 82.4049 0.0000 -11.2449 0.0000
# 2 -2.5329 36.3508 11.5536 0.0000 -2.8470 0.0000
# 3 82.4049 11.5536 84.7593 0.0000 2.2798 0.0000
# 4 0.0000 0.0000 0.0000 -2.1185 0.0000 -1.8833
# 5 -11.2449 -2.8470 2.2798 0.0000 42.8761 0.0000
# 6 0.0000 0.0000 0.0000 -1.8833 0.0000 -23.8165
#
#
#
# Elastic Compliance Matrix: (Units=1/GPa)
#
#
# Indices 1 2 3 4 5 6 
#
# 1 0.010102 0.004316 -0.010504 0.000000 0.003494 0.000000
# 2 0.004316 0.030793 -0.008491 0.000000 0.003628 0.000000
# 3 -0.010504 -0.008491 0.023290 0.000000 -0.004557 0.000000
# 4 0.000000 0.000000 0.000000 -0.507714 0.000000 0.040148
# 5 0.003494 0.003628 -0.004557 0.000000 0.024723 0.000000
# 6 0.000000 0.000000 0.000000 0.040148 0.000000 -0.045162
#
#
# Mechanical properties :
#
#
# Convention : Reuss Voigt Hill
#
# Bulk Modulus (GPa) = 28.71277 54.84511 41.77894
# Shear Modulus (GPa) = -11.82029 18.01013 3.09492
#
# Velocity S-wave (km/s) = -2.43177 3.00170 1.24433
# Velocity P-wave (km/s) = 2.54556 6.28107 4.79227
#
# Compressibility (1/GPa) = 0.03482771
#
# Stress axis : x y z
#
# Youngs Moduli (GPa) = 98.99069 32.47449 42.93678
#
# Poissons Ratio (x) = -0.14016 0.45099
# Poissons Ratio (y) = -0.42725 0.36459
# Poissons Ratio (z) = 1.03977 0.27575
#
# Static dielectric constant tensor:
#      x y z
#    x 1.723350 0.000000 0.020580 
#    y 0.000000 0.205400 0.000000 
#    z 0.020580 0.000000 1.752020 
# 
# From -- ./inp_files/168325.got.cif
#   From: 2010.05.17/outbox.cif.g08.bks.cpg/sg12_85_cif.got.tgz:168325.got - 2010.06.03 13:09:07.
