data_PCOD9180894
_publ_section_title
;
Structure prediction by ZEFSAII (Michael W. Deem and Ramdas Pophale) SiO2 
 PCOD9180894
Probable space group: C 2/M
;
_chemical_formula_sum "Si O2"
_cell_formula_units_Z 56
_cell_length_a 31.134933
_cell_length_b 8.530809
_cell_length_c 17.350127
_cell_angle_alpha 90.000000
_cell_angle_beta 45.706721
_cell_angle_gamma 90.000000
_cell_volume 3298.504862
_symmetry_space_group_name_H-M "C 2/M"
_symmetry_group_IT_number 12
_symmetry_cell_setting 'monoclinic'
loop_
_space_group_symop_operation_xyz
x,y,z
-x,y,-z
-x,-y,-z
x,-y,z
1/2+x,1/2+y,z
1/2-x,1/2+y,-z
1/2-x,1/2-y,-z
1/2+x,1/2-y,z
loop_
_atom_site_type_symbol
_atom_site_label
_atom_site_fract_x
_atom_site_fract_y
_atom_site_fract_z
Si Si1 0.306049 0.310171 0.479439
Si Si2 0.557765 0.687613 0.101267
Si Si3 0.923325 0.810456 0.239691
Si Si4 0.279464 0.689307 0.847846
Si Si5 0.343713 0.812897 0.912041
Si Si6 0.120267 0.688126 0.868333
Si Si7 0.259719 0.309108 0.700905
O O1 0.304936 0.500000 0.479710
O O2 0.250000 0.250000 0.500000
O O3 0.368055 0.257984 0.362610
O O4 0.296374 0.258391 0.579831
O O5 0.559006 0.500000 0.097514
O O6 0.488457 0.739673 0.188319
O O7 0.596791 0.744805 0.124416
O O8 0.588765 0.751128 0.984831
O O9 0.912025 0.749601 0.167681
O O10 0.922525 0.000000 0.238505
O O11 0.282242 0.500000 0.846664
O O12 0.328181 0.755871 0.845792
O O13 0.283858 0.742049 0.753915
O O14 0.213862 0.735595 0.963381
O O15 0.346586 0.000000 0.910269
O O16 0.119073 0.500000 0.870353
O O17 0.190100 0.738851 0.779636
O O18 0.259951 0.500000 0.701512
#
# Coordination Sequence:
#
# PCOD9180894 Si02
#       7
#     8   8   8   8   8   8   8
#     4  10  19  34  54  75 100 134 173 216 255 294
#     4  11  22  35  50  72 106 143 173 207 254 306
#     4  10  22  36  50  73 105 140 177 211 251 305
#     4   9  17  32  51  74 103 131 161 205 261 309
#     4  10  19  32  51  77 104 130 167 209 253 308
#     4  11  20  33  52  77 104 136 174 211 254 303
#     4   9  17  31  52  76 103 130 164 210 255 299
#
# _framework density 16.977388999999999
#
# number of rings (size 3 to 8) (size 9 to 14) (size 15 to 20)
#    0.000    2.000    2.857    1.714    0.000    3.429 
#    0.000    0.714    0.000    0.857    0.000    6.000 
#    0.000    0.000    0.000    0.000    0.000    0.000 
#
# Total GULP energy -156267.008009 kJ/mol
# GULP energy per Si atom -5580.964572 kJ/mol
# Density = 1.693875 g / cm^3
# Si number density = 16.977389 Si / 1000 Ang^3
#
#
#
# Elastic Constant Matrix: (Units=GPa)
#
#
# Indices 1 2 3 4 5 6 
#
# 1 169.9972 23.3802 71.3147 -0.0002 0.5262 -0.0001
# 2 23.3802 12.0331 14.2696 0.0007 -3.6781 0.0000
# 3 71.3147 14.2696 75.3526 0.0001 -4.8629 0.0000
# 4 -0.0002 0.0007 0.0001 15.5127 0.0000 -1.2559
# 5 0.5262 -3.6781 -4.8629 0.0000 29.3068 0.0000
# 6 -0.0001 0.0000 0.0000 -1.2559 0.0000 24.8033
#
#
#
# Elastic Compliance Matrix: (Units=1/GPa)
#
#
# Indices 1 2 3 4 5 6 
#
# 1 0.011141 -0.012732 -0.008339 0.000001 -0.003182 0.000000
# 2 -0.012732 0.124818 -0.010676 -0.000006 0.014122 0.000000
# 3 -0.008339 -0.010676 0.023358 0.000000 0.002686 0.000000
# 4 0.000001 -0.000006 0.000000 0.064729 -0.000001 0.003278
# 5 -0.003182 0.014122 0.002686 -0.000001 0.036397 0.000000
# 6 0.000000 0.000000 0.000000 0.003278 0.000000 0.040483
#
#
# Mechanical properties :
#
#
# Convention : Reuss Voigt Hill
#
# Bulk Modulus (GPa) = 10.43575 52.81242 31.62408
# Shear Modulus (GPa) = 12.61476 23.81911 18.21694
#
# Velocity S-wave (km/s) = 2.72882 3.74971 3.27924
# Velocity P-wave (km/s) = 4.01109 7.06556 5.74504
#
# Compressibility (1/GPa) = 0.09582447
#
# Stress axis : x y z
#
# Youngs Moduli (GPa) = 89.75477 8.01166 42.81200
#
# Poissons Ratio (x) = 0.10200 0.35700
# Poissons Ratio (y) = 1.14272 0.45707
# Poissons Ratio (z) = 0.74844 0.08553
#
# Static dielectric constant tensor:
#      x y z
#    x 1.559740 0.000000 0.000330 
#    y 0.000000 1.576610 0.000000 
#    z 0.000330 0.000000 1.568460 
# 
# From -- ./inp_files/288481.got.cif
#   From: 2010.05.17/outbox.cif.g08.bks.cpg/sg12_145_cif.got.tgz:288481.got - 2010.06.03 13:09:07.
