data_PCOD9180324
_publ_section_title
;
Structure prediction by ZEFSAII (Michael W. Deem and Ramdas Pophale) SiO2 
 PCOD9180324
Probable space group: C 2/M
;
_chemical_formula_sum "Si O2"
_cell_formula_units_Z 60
_cell_length_a 17.442790
_cell_length_b 18.306355
_cell_length_c 11.821390
_cell_angle_alpha 90.000000
_cell_angle_beta 60.930868
_cell_angle_gamma 90.000000
_cell_volume 3299.246454
_symmetry_space_group_name_H-M "C 2/M"
_symmetry_group_IT_number 12
_symmetry_cell_setting 'monoclinic'
loop_
_space_group_symop_operation_xyz
x,y,z
-x,y,-z
-x,-y,-z
x,-y,z
1/2+x,1/2+y,z
1/2-x,1/2+y,-z
1/2-x,1/2-y,-z
1/2+x,1/2-y,z
loop_
_atom_site_type_symbol
_atom_site_label
_atom_site_fract_x
_atom_site_fract_y
_atom_site_fract_z
Si Si1 0.449385 0.917467 0.777757
Si Si2 0.735784 0.783433 0.784794
Si Si3 0.838542 0.265147 0.507574
Si Si4 0.000000 0.825369 0.000000
Si Si5 0.230635 0.419715 0.950499
Si Si6 0.310391 0.375513 0.116855
Si Si7 0.055313 0.276935 0.771192
Si Si8 0.348277 0.917851 0.617191
O O1 0.512251 0.854296 0.775264
O O2 0.416790 0.906313 0.671651
O O3 0.484906 0.000000 0.760990
O O4 0.362934 0.913965 0.918515
O O5 0.818016 0.773276 0.641340
O O6 0.742407 0.854099 0.856192
O O7 0.725654 0.708122 0.861857
O O8 0.645647 0.787196 0.776687
O O9 0.750000 0.250000 0.500000
O O10 0.917064 0.241917 0.368868
O O11 0.851487 0.351074 0.527535
O O12 0.088465 0.870889 0.922682
O O13 0.994422 0.773068 0.893765
O O14 0.236429 0.500000 0.893425
O O15 0.298587 0.412131 0.004594
O O16 0.247191 0.412954 0.254021
O O17 0.361631 0.000000 0.562666
#
# Coordination Sequence:
#
# PCOD9180324 Si02
#       8
#     8   8   8   4   8   8   8   8
#     4   9  18  30  47  74 107 134 159 196 246 299
#     4   9  18  32  51  71  98 135 170 203 241 288
#     4   9  19  34  51  70  97 131 170 206 241 287
#     4  10  20  32  52  76  96 122 164 214 258 292
#     4  10  19  32  50  74 102 134 166 197 243 303
#     4   9  17  32  52  74  98 126 165 212 250 288
#     4  10  19  32  48  74 102 127 162 204 244 293
#     4   9  18  34  53  74 100 133 168 204 246 295
#
# _framework density 18.185970999999999
#
# number of rings (size 3 to 8) (size 9 to 14) (size 15 to 20)
#    0.000    2.667    0.000    4.000    0.000    3.733 
#    0.000    6.333    0.000    0.000    0.000    0.933 
#    0.000    0.000    0.000    0.000    0.000    0.000 
#
# Total GULP energy -167255.373969 kJ/mol
# GULP energy per Si atom -5575.179132 kJ/mol
# Density = 1.814458 g / cm^3
# Si number density = 18.185971 Si / 1000 Ang^3
#
#
#
# Elastic Constant Matrix: (Units=GPa)
#
#
# Indices 1 2 3 4 5 6 
#
# 1 24.6407 15.7790 -0.0143 0.0000 -3.7496 0.0000
# 2 15.7790 88.4533 22.4028 0.0000 8.7631 0.0000
# 3 -0.0143 22.4028 68.2804 0.0000 0.6220 0.0000
# 4 0.0000 0.0000 0.0000 6.5340 0.0000 -6.3763
# 5 -3.7496 8.7631 0.6220 0.0000 12.2273 0.0000
# 6 0.0000 0.0000 0.0000 -6.3763 0.0000 17.6943
#
#
#
# Elastic Compliance Matrix: (Units=1/GPa)
#
#
# Indices 1 2 3 4 5 6 
#
# 1 0.052692 -0.012915 0.004019 0.000000 0.025210 0.000000
# 2 -0.012915 0.016480 -0.005268 0.000000 -0.015503 0.000000
# 3 0.004019 -0.005268 0.016337 0.000000 0.004177 0.000000
# 4 0.000000 0.000000 0.000000 0.236057 0.000000 0.085065
# 5 0.025210 -0.015503 0.004177 0.000000 0.100414 0.000000
# 6 0.000000 0.000000 0.000000 0.085065 0.000000 0.087169
#
#
# Mechanical properties :
#
#
# Convention : Reuss Voigt Hill
#
# Bulk Modulus (GPa) = 17.48887 28.63437 23.06162
# Shear Modulus (GPa) = 8.98413 16.83826 12.91120
#
# Velocity S-wave (km/s) = 2.22505 3.04615 2.66739
# Velocity P-wave (km/s) = 4.02973 5.30580 4.71117
#
# Compressibility (1/GPa) = 0.05717922
#
# Stress axis : x y z
#
# Youngs Moduli (GPa) = 18.97817 60.68141 61.21133
#
# Poissons Ratio (x) = 0.78370 -0.24600
# Poissons Ratio (y) = 0.24510 0.32249
# Poissons Ratio (z) = -0.07627 0.31969
#
# Static dielectric constant tensor:
#      x y z
#    x 1.626510 0.000000 -0.015390 
#    y 0.000000 1.618470 0.000000 
#    z -0.015390 0.000000 1.658310 
# 
# From -- ./inp_files/157780.got.cif
#   From: 2010.05.17/outbox.cif.g08.bks.cpg/sg12_79_cif.got.tgz:157780.got - 2010.06.03 13:09:07.
