data_PCOD9180241
_publ_section_title
;
Structure prediction by ZEFSAII (Michael W. Deem and Ramdas Pophale) SiO2 
 PCOD9180241
Probable space group: C 2/M
;
_chemical_formula_sum "Si O2"
_cell_formula_units_Z 52
_cell_length_a 19.748335
_cell_length_b 25.960999
_cell_length_c 14.050297
_cell_angle_alpha 90.000000
_cell_angle_beta 26.992957
_cell_angle_gamma 90.000000
_cell_volume 3269.485124
_symmetry_space_group_name_H-M "C 2/M"
_symmetry_group_IT_number 12
_symmetry_cell_setting 'monoclinic'
loop_
_space_group_symop_operation_xyz
x,y,z
-x,y,-z
-x,-y,-z
x,-y,z
1/2+x,1/2+y,z
1/2-x,1/2+y,-z
1/2-x,1/2-y,-z
1/2+x,1/2-y,z
loop_
_atom_site_type_symbol
_atom_site_label
_atom_site_fract_x
_atom_site_fract_y
_atom_site_fract_z
Si Si1 0.371031 0.940109 0.297810
Si Si2 0.500000 0.377090 0.500000
Si Si3 0.672828 0.173413 0.598580
Si Si4 0.124873 0.738216 0.019555
Si Si5 0.745219 0.752263 0.344247
Si Si6 0.212671 0.441443 0.819142
Si Si7 0.557793 0.709644 0.286753
O O1 0.313617 0.888209 0.420792
O O2 0.312352 0.936037 0.262822
O O3 0.340816 0.000000 0.367076
O O4 0.550296 0.933374 0.068294
O O5 0.345767 0.407269 0.689939
O O6 0.496796 0.342746 0.598801
O O7 0.756065 0.201634 0.406661
O O8 0.729938 0.200187 0.624779
O O9 0.500635 0.193968 0.812254
O O10 0.149191 0.752624 0.879389
O O11 0.283998 0.720679 0.862058
O O12 0.076295 0.784672 0.150168
O O13 0.573450 0.750107 0.524384
O O14 0.255950 0.500000 0.783566
#
# Coordination Sequence:
#
# PCOD9180241 Si02
#       7
#     8   4   8   8   8   8   8
#     4   9  18  32  45  65  91 119 155 189 229 277
#     4  12  17  28  46  66  92 116 153 188 226 274
#     4  10  20  29  49  70  88 126 155 187 235 271
#     4  10  19  32  43  63  97 123 152 185 224 273
#     4  10  19  32  44  67  96 120 157 188 226 278
#     4   9  19  29  43  65  91 118 148 188 233 276
#     4  10  20  28  44  66  88 125 154 179 224 277
#
# _framework density 15.904645
#
# number of rings (size 3 to 8) (size 9 to 14) (size 15 to 20)
#    0.000    2.154    1.538    3.462    4.308    0.000 
#    0.000    0.000    0.000    0.000    0.000    2.154 
#    0.000   36.923    0.000    0.000    0.000    1.231 
#
# Total GULP energy -144750.893502 kJ/mol
# GULP energy per Si atom -5567.342058 kJ/mol
# Density = 1.586845 g / cm^3
# Si number density = 15.904645 Si / 1000 Ang^3
#
#
#
# Elastic Constant Matrix: (Units=GPa)
#
#
# Indices 1 2 3 4 5 6 
#
# 1 66.3652 32.7660 24.7530 -0.0041 4.5824 0.0028
# 2 32.7660 112.2905 24.5087 -0.0139 12.8841 -0.0007
# 3 24.7530 24.5087 43.7146 -0.0135 15.7631 0.0022
# 4 -0.0041 -0.0139 -0.0135 21.6962 0.0054 -5.0900
# 5 4.5824 12.8841 15.7631 0.0054 33.6082 -0.0017
# 6 0.0028 -0.0007 0.0022 -5.0900 -0.0017 19.9346
#
#
#
# Elastic Compliance Matrix: (Units=1/GPa)
#
#
# Indices 1 2 3 4 5 6 
#
# 1 0.020927 -0.004169 -0.010904 -0.000007 0.003859 -0.000003
# 2 -0.004169 0.011039 -0.003017 0.000006 -0.002248 0.000003
# 3 -0.010904 -0.003017 0.035852 0.000022 -0.014172 0.000002
# 4 -0.000007 0.000006 0.000022 0.049028 -0.000019 0.012519
# 5 0.003859 -0.002248 -0.014172 -0.000019 0.036737 -0.000001
# 6 -0.000003 0.000003 0.000002 0.012519 -0.000001 0.053360
#
#
# Mechanical properties :
#
#
# Convention : Reuss Voigt Hill
#
# Bulk Modulus (GPa) = 31.60900 42.93618 37.27259
# Shear Modulus (GPa) = 19.71068 24.40398 22.05733
#
# Velocity S-wave (km/s) = 3.52419 3.92138 3.72808
# Velocity P-wave (km/s) = 6.03963 6.89620 6.48208
#
# Compressibility (1/GPa) = 0.03163656
#
# Stress axis : x y z
#
# Youngs Moduli (GPa) = 47.78499 90.59133 27.89260
#
# Poissons Ratio (x) = 0.37771 0.30413
# Poissons Ratio (y) = 0.19923 0.08416
# Poissons Ratio (z) = 0.52104 0.27334
#
# Static dielectric constant tensor:
#      x y z
#    x 1.555950 -0.000010 -0.022340 
#    y -0.000010 1.540490 0.000010 
#    z -0.022340 0.000010 1.569540 
# 
# From -- ./inp_files/235337.got.cif
#   From: 2010.05.17/outbox.cif.g08.bks.cpg/sg12_118_cif.got.tgz:235337.got - 2010.06.03 13:09:07.
