data_PCOD9180618
_publ_section_title
;
Structure prediction by ZEFSAII (Michael W. Deem and Ramdas Pophale) SiO2 
 PCOD9180618
Probable space group: C 2/M
;
_chemical_formula_sum "Si O2"
_cell_formula_units_Z 32
_cell_length_a 17.724525
_cell_length_b 12.439697
_cell_length_c 18.677186
_cell_angle_alpha 90.000000
_cell_angle_beta 23.754943
_cell_angle_gamma 90.000000
_cell_volume 1658.872363
_symmetry_space_group_name_H-M "C 2/M"
_symmetry_group_IT_number 12
_symmetry_cell_setting 'monoclinic'
loop_
_space_group_symop_operation_xyz
x,y,z
-x,y,-z
-x,-y,-z
x,-y,z
1/2+x,1/2+y,z
1/2-x,1/2+y,-z
1/2-x,1/2-y,-z
1/2+x,1/2-y,z
loop_
_atom_site_type_symbol
_atom_site_label
_atom_site_fract_x
_atom_site_fract_y
_atom_site_fract_z
Si Si1 0.182978 0.202964 0.672232
Si Si2 0.229014 0.000000 0.881012
Si Si3 0.223863 0.768681 0.938685
Si Si4 0.555264 0.373228 0.624304
Si Si5 0.272847 0.500000 0.284190
O O1 0.303964 0.306297 0.547648
O O2 0.116059 0.152116 0.654084
O O3 0.288045 0.108209 0.623010
O O4 0.999168 0.234371 0.877897
O O5 0.295731 0.111605 0.857333
O O6 0.273272 0.000000 0.758899
O O7 0.002224 0.000000 0.088885
O O8 0.350673 0.679389 0.791324
O O9 0.250000 0.750000 0.000000
O O10 0.558258 0.500000 0.610478
#
# Coordination Sequence:
#
# PCOD9180618 Si02
#       5
#     8   4   8   8   4
#     4   9  18  33  50  77 102 137 170 216 263 299
#     4   9  18  33  55  85 100 137 178 209 267 312
#     4   9  19  32  51  75 107 132 166 215 260 306
#     4  10  19  32  50  76 107 135 175 213 256 311
#     4   9  16  33  59  75 110 132 172 228 254 305
#
# _framework density 19.290213000000001
#
# number of rings (size 3 to 8) (size 9 to 14) (size 15 to 20)
#    0.000    2.750    1.250    0.000    5.250    2.000 
#   11.250    2.500    0.000    3.000    0.000    7.000 
#    0.000    0.000    0.000    0.000    0.000    0.000 
#
# Total GULP energy -89232.590316 kJ/mol
# GULP energy per Si atom -5577.036895 kJ/mol
# Density = 1.924631 g / cm^3
# Si number density = 19.290213 Si / 1000 Ang^3
#
#
#
# Elastic Constant Matrix: (Units=GPa)
#
#
# Indices 1 2 3 4 5 6 
#
# 1 37.9165 43.0586 4.6606 0.0014 12.3587 -0.0006
# 2 43.0586 230.7057 86.3964 0.0089 9.4346 -0.0027
# 3 4.6606 86.3964 91.8553 0.0046 0.8971 -0.0004
# 4 0.0014 0.0089 0.0046 32.6117 -0.0023 10.0539
# 5 12.3587 9.4346 0.8971 -0.0023 16.6729 0.0003
# 6 -0.0006 -0.0027 -0.0004 10.0539 0.0003 13.0720
#
#
#
# Elastic Compliance Matrix: (Units=1/GPa)
#
#
# Indices 1 2 3 4 5 6 
#
# 1 0.046783 -0.010429 0.007721 -0.000003 -0.029192 0.000003
# 2 -0.010429 0.009221 -0.008172 -0.000001 0.002952 0.000002
# 3 0.007721 -0.008172 0.018202 -0.000001 -0.002078 0.000000
# 4 -0.000003 -0.000001 -0.000001 0.040194 0.000009 -0.030914
# 5 -0.029192 0.002952 -0.002078 0.000009 0.080057 -0.000010
# 6 0.000003 0.000002 0.000000 -0.030914 -0.000010 0.100275
#
#
# Mechanical properties :
#
#
# Convention : Reuss Voigt Hill
#
# Bulk Modulus (GPa) = 19.06795 69.85651 44.46223
# Shear Modulus (GPa) = 14.97118 27.56212 21.26665
#
# Velocity S-wave (km/s) = 2.78888 3.78407 3.32393
# Velocity P-wave (km/s) = 4.50297 7.44206 6.15065
#
# Compressibility (1/GPa) = 0.05244402
#
# Stress axis : x y z
#
# Youngs Moduli (GPa) = 21.37532 108.45165 54.93912
#
# Poissons Ratio (x) = 1.13104 -0.42416
# Poissons Ratio (y) = 0.22292 0.44898
# Poissons Ratio (z) = -0.16503 0.88631
#
# Static dielectric constant tensor:
#      x y z
#    x 1.672730 0.000000 -0.045690 
#    y 0.000000 1.650490 0.000000 
#    z -0.045690 0.000000 1.760700 
# 
# From -- ./inp_files/70458.got.cif
#   From: 2010.05.17/outbox.cif.g08.bks.cpg/sg12_36_cif.got.tgz:70458.got - 2010.06.03 13:09:07.
