data_PCOD9180486
_publ_section_title
;
Structure prediction by ZEFSAII (Michael W. Deem and Ramdas Pophale) SiO2 
 PCOD9180486
Probable space group: C 2/M
;
_chemical_formula_sum "Si O2"
_cell_formula_units_Z 60
_cell_length_a 27.707436
_cell_length_b 9.402505
_cell_length_c 17.101091
_cell_angle_alpha 90.000000
_cell_angle_beta 50.520519
_cell_angle_gamma 90.000000
_cell_volume 3438.728980
_symmetry_space_group_name_H-M "C 2/M"
_symmetry_group_IT_number 12
_symmetry_cell_setting 'monoclinic'
loop_
_space_group_symop_operation_xyz
x,y,z
-x,y,-z
-x,-y,-z
x,-y,z
1/2+x,1/2+y,z
1/2-x,1/2+y,-z
1/2-x,1/2-y,-z
1/2+x,1/2-y,z
loop_
_atom_site_type_symbol
_atom_site_label
_atom_site_fract_x
_atom_site_fract_y
_atom_site_fract_z
Si Si1 0.250473 0.168818 0.265257
Si Si2 0.153877 0.332912 0.124967
Si Si3 0.500000 0.254089 0.500000
Si Si4 0.703908 0.169790 0.606413
Si Si5 0.631482 0.156640 0.417543
Si Si6 0.417790 0.165210 0.356026
Si Si7 0.214445 0.832942 0.921272
Si Si8 0.967105 0.838662 0.704542
O O1 0.278250 0.199521 0.322540
O O2 0.178880 0.223473 0.340703
O O3 0.285546 0.255552 0.161909
O O4 0.253108 0.000000 0.248123
O O5 0.142044 0.500000 0.123578
O O6 0.214755 0.321834 0.117698
O O7 0.094475 0.256674 0.223983
O O8 0.171512 0.250689 0.027249
O O9 0.563548 0.166903 0.448260
O O10 0.489441 0.337622 0.591260
O O11 0.750000 0.250000 0.500000
O O12 0.632542 0.205874 0.657632
O O13 0.710662 0.000000 0.586866
O O14 0.618939 0.171575 0.523103
O O15 0.658878 0.000000 0.373559
O O16 0.477413 0.265610 0.303289
O O17 0.437049 0.000000 0.325995
O O18 0.198686 0.000000 0.933304
O O19 0.954962 0.000000 0.741693
#
# Coordination Sequence:
#
# PCOD9180486 Si02
#       8
#     8   8   4   8   8   8   8   8
#     4  11  22  33  52  81 112 141 176 225 276 323
#     4  10  21  38  59  81 109 144 181 222 270 321
#     4  10  22  34  48  74 112 144 182 218 260 312
#     4  10  20  35  54  78 108 145 183 225 274 324
#     4  10  19  32  50  71 101 143 184 220 260 314
#     4   9  19  35  52  72 103 142 183 220 263 319
#     4  10  21  37  58  83 109 141 182 224 268 321
#     4  11  22  35  53  78 108 144 182 221 267 320
#
# _framework density 17.448307
#
# number of rings (size 3 to 8) (size 9 to 14) (size 15 to 20)
#    0.000    1.867    1.333    2.800    0.000    9.067 
#    0.000    0.000    0.000    0.800    0.000    5.600 
#    0.000    0.000    0.000    0.000    0.000    0.000 
#
# Total GULP energy -167471.305322 kJ/mol
# GULP energy per Si atom -5582.376844 kJ/mol
# Density = 1.740859 g / cm^3
# Si number density = 17.448307 Si / 1000 Ang^3
#
#
#
# Elastic Constant Matrix: (Units=GPa)
#
#
# Indices 1 2 3 4 5 6 
#
# 1 83.7829 41.7512 34.7589 0.0000 5.7639 0.0000
# 2 41.7512 120.6805 55.2696 -0.0001 4.7607 0.0000
# 3 34.7589 55.2696 78.0872 -0.0001 4.5308 0.0000
# 4 0.0000 -0.0001 -0.0001 26.7101 0.0000 -1.1396
# 5 5.7639 4.7607 4.5308 0.0000 24.4680 0.0000
# 6 0.0000 0.0000 0.0000 -1.1396 0.0000 16.9298
#
#
#
# Elastic Compliance Matrix: (Units=1/GPa)
#
#
# Indices 1 2 3 4 5 6 
#
# 1 0.015571 -0.003232 -0.004516 0.000000 -0.002203 0.000000
# 2 -0.003232 0.012947 -0.007706 0.000000 -0.000331 0.000000
# 3 -0.004516 -0.007706 0.020340 0.000000 -0.001203 0.000000
# 4 0.000000 0.000000 0.000000 0.037547 0.000000 0.002527
# 5 -0.002203 -0.000331 -0.001203 0.000000 0.041676 0.000000
# 6 0.000000 0.000000 0.000000 0.002527 0.000000 0.059237
#
#
# Mechanical properties :
#
#
# Convention : Reuss Voigt Hill
#
# Bulk Modulus (GPa) = 55.70708 60.67889 58.19298
# Shear Modulus (GPa) = 22.30065 23.67299 22.98682
#
# Velocity S-wave (km/s) = 3.57893 3.68740 3.63357
# Velocity P-wave (km/s) = 7.00532 7.27881 7.14338
#
# Compressibility (1/GPa) = 0.01795104
#
# Stress axis : x y z
#
# Youngs Moduli (GPa) = 64.22092 77.24023 49.16390
#
# Poissons Ratio (x) = 0.24964 0.22201
# Poissons Ratio (y) = 0.20757 0.37884
# Poissons Ratio (z) = 0.29001 0.59519
#
# Static dielectric constant tensor:
#      x y z
#    x 1.598000 0.000000 0.007530 
#    y 0.000000 1.591510 0.000000 
#    z 0.007530 0.000000 1.576880 
# 
# From -- ./inp_files/292208.got.cif
#   From: 2010.05.17/outbox.cif.g08.bks.cpg/sg12_147_cif.got.tgz:292208.got - 2010.06.03 13:09:07.
