data_PCOD9180801
_publ_section_title
;
Structure prediction by ZEFSAII (Michael W. Deem and Ramdas Pophale) SiO2 
 PCOD9180801
Probable space group: C 2/M
;
_chemical_formula_sum "Si O2"
_cell_formula_units_Z 40
_cell_length_a 27.030371
_cell_length_b 7.583495
_cell_length_c 19.033531
_cell_angle_alpha 90.000000
_cell_angle_beta 148.357627
_cell_angle_gamma 90.000000
_cell_volume 2046.831170
_symmetry_space_group_name_H-M "C 2/M"
_symmetry_group_IT_number 12
_symmetry_cell_setting 'monoclinic'
loop_
_space_group_symop_operation_xyz
x,y,z
-x,y,-z
-x,-y,-z
x,-y,z
1/2+x,1/2+y,z
1/2-x,1/2+y,-z
1/2-x,1/2-y,-z
1/2+x,1/2-y,z
loop_
_atom_site_type_symbol
_atom_site_label
_atom_site_fract_x
_atom_site_fract_y
_atom_site_fract_z
Si Si1 0.106107 0.292647 0.132796
Si Si2 0.164461 0.788493 0.842743
Si Si3 0.539202 0.714377 0.811887
Si Si4 0.650608 0.290421 0.344670
Si Si5 0.209619 0.292183 0.124486
O O1 0.097083 0.500000 0.104006
O O2 0.142585 0.278558 0.255826
O O3 0.177278 0.217335 0.160351
O O4 0.000000 0.216684 0.000000
O O5 0.202053 0.718026 0.813501
O O6 0.073124 0.725362 0.775473
O O7 0.155712 0.000000 0.825422
O O8 0.250000 0.750000 0.000000
O O9 0.540270 0.500000 0.812817
O O10 0.437528 0.775725 0.715408
O O11 0.617922 0.773056 0.963426
O O12 0.640292 0.500000 0.327491
O O13 0.750000 0.250000 0.500000
O O14 0.229872 0.500000 0.158100
#
# Coordination Sequence:
#
# PCOD9180801 Si02
#       5
#     8   8   8   8   8
#     4  10  19  32  51  75 103 131 161 200 243 290
#     4   8  14  25  42  67  96 123 154 192 237 284
#     4   9  17  29  46  69  97 126 159 201 241 283
#     4  11  23  36  51  71  98 133 169 205 246 292
#     4   9  16  27  47  73  99 127 156 192 239 289
#
# _framework density 19.542404000000001
#
# number of rings (size 3 to 8) (size 9 to 14) (size 15 to 20)
#    0.000    2.600    2.000    0.600    0.000    2.000 
#    0.000    0.000    0.000    1.200    0.000    8.400 
#    0.000    0.000    0.000    0.000    0.000    0.000 
#
# Total GULP energy -111406.458176 kJ/mol
# GULP energy per Si atom -5570.322909 kJ/mol
# Density = 1.949792 g / cm^3
# Si number density = 19.542404 Si / 1000 Ang^3
#
#
#
# Elastic Constant Matrix: (Units=GPa)
#
#
# Indices 1 2 3 4 5 6 
#
# 1 257.3289 0.6420 51.1403 0.0000 3.3773 0.0000
# 2 0.6420 43.8419 -19.4227 0.0000 -0.5960 0.0000
# 3 51.1403 -19.4227 48.5726 0.0000 -4.6700 0.0000
# 4 0.0000 0.0000 0.0000 14.4510 0.0000 -6.5944
# 5 3.3773 -0.5960 -4.6700 0.0000 17.1336 0.0000
# 6 0.0000 0.0000 0.0000 -6.5944 0.0000 1.8628
#
#
#
# Elastic Compliance Matrix: (Units=1/GPa)
#
#
# Indices 1 2 3 4 5 6 
#
# 1 0.005393 -0.003370 -0.007332 0.000000 -0.003179 0.000000
# 2 -0.003370 0.030108 0.016176 0.000000 0.006121 0.000000
# 3 -0.007332 0.016176 0.035909 0.000000 0.011795 0.000000
# 4 0.000000 0.000000 0.000000 -0.112448 0.000000 -0.398062
# 5 -0.003179 0.006121 0.011795 0.000000 0.062419 0.000000
# 6 0.000000 0.000000 0.000000 -0.398062 0.000000 -0.872315
#
#
# Mechanical properties :
#
#
# Convention : Reuss Voigt Hill
#
# Bulk Modulus (GPa) = 12.14195 46.05142 29.09668
# Shear Modulus (GPa) = -5.99213 27.84841 10.92814
#
# Velocity S-wave (km/s) = -1.75296 3.77905 2.36731
# Velocity P-wave (km/s) = 1.45926 6.53128 4.73218
#
# Compressibility (1/GPa) = 0.08235912
#
# Stress axis : x y z
#
# Youngs Moduli (GPa) = 185.41686 33.21372 27.84794
#
# Poissons Ratio (x) = 0.11194 0.20417
# Poissons Ratio (y) = 0.62489 -0.45047
# Poissons Ratio (z) = 1.35940 -0.53727
#
# Static dielectric constant tensor:
#      x y z
#    x 1.784730 0.000000 0.036460 
#    y 0.000000 1.634900 0.000000 
#    z 0.036460 0.000000 1.582660 
# 
# From -- ./inp_files/152888.got.cif
#   From: 2010.05.17/outbox.cif.g08.bks.cpg/sg12_77_cif.got.tgz:152888.got - 2010.06.03 13:09:07.
