data_PCOD9180403
_publ_section_title
;
Structure prediction by ZEFSAII (Michael W. Deem and Ramdas Pophale) SiO2 
 PCOD9180403
Probable space group: C 2/M
;
_chemical_formula_sum "Si O2"
_cell_formula_units_Z 52
_cell_length_a 5.233324
_cell_length_b 29.122021
_cell_length_c 17.939895
_cell_angle_alpha 90.000000
_cell_angle_beta 88.592913
_cell_angle_gamma 90.000000
_cell_volume 2733.304736
_symmetry_space_group_name_H-M "C 2/M"
_symmetry_group_IT_number 12
_symmetry_cell_setting 'monoclinic'
loop_
_space_group_symop_operation_xyz
x,y,z
-x,y,-z
-x,-y,-z
x,-y,z
1/2+x,1/2+y,z
1/2-x,1/2+y,-z
1/2-x,1/2-y,-z
1/2+x,1/2-y,z
loop_
_atom_site_type_symbol
_atom_site_label
_atom_site_fract_x
_atom_site_fract_y
_atom_site_fract_z
Si Si1 0.390519 0.052789 0.908610
Si Si2 0.754569 0.553537 0.449166
Si Si3 0.296338 0.450106 0.248316
Si Si4 0.478565 0.779048 0.911545
Si Si5 0.257269 0.133756 0.144004
Si Si6 0.000000 0.109644 0.000000
Si Si7 0.283697 0.905097 0.295470
O O1 0.192788 0.052514 0.840881
O O2 0.612970 0.084803 0.875124
O O3 0.238162 0.077177 0.976255
O O4 0.464579 0.000000 0.920831
O O5 0.500000 0.557703 0.500000
O O6 0.762643 0.500000 0.420942
O O7 0.759283 0.592338 0.384761
O O8 0.000000 0.558887 0.500000
O O9 0.193436 0.500000 0.270090
O O10 0.578351 0.444258 0.276371
O O11 0.082321 0.414767 0.277713
O O12 0.207952 0.756708 0.894570
O O13 0.538726 0.826059 0.869493
O O14 0.500000 0.788677 0.000000
O O15 0.192543 0.131954 0.232702
O O16 0.061403 0.138518 0.074905
#
# Coordination Sequence:
#
# PCOD9180403 Si02
#       7
#     8   8   8   8   8   4   8
#     4  10  22  35  49  72 109 155 200 237 276 328
#     4  10  20  34  54  79 108 145 191 238 282 336
#     4  10  19  32  49  72 101 143 190 229 269 319
#     4  10  23  40  64  87 112 147 197 250 307 354
#     4  11  25  38  57  81 115 151 199 245 297 349
#     4  12  21  36  52  74 114 154 200 244 281 334
#     4  11  21  36  54  78 108 145 184 236 290 339
#
# _framework density 19.02459
#
# number of rings (size 3 to 8) (size 9 to 14) (size 15 to 20)
#    0.000    1.538    1.538    3.923    5.385    4.308 
#    0.000    0.000    0.000    0.000    0.000    0.000 
#    0.000    3.692    0.000    0.000    0.000    0.000 
#
# Total GULP energy -144893.560714 kJ/mol
# GULP energy per Si atom -5572.829258 kJ/mol
# Density = 1.898129 g / cm^3
# Si number density = 19.024590 Si / 1000 Ang^3
#
#
#
# Elastic Constant Matrix: (Units=GPa)
#
#
# Indices 1 2 3 4 5 6 
#
# 1 72.7071 16.6013 28.7057 0.0000 -3.4386 0.0000
# 2 16.6013 42.0508 30.3581 0.0000 -2.8682 0.0000
# 3 28.7057 30.3581 110.3748 0.0000 1.2964 0.0000
# 4 0.0000 0.0000 0.0000 11.6594 0.0000 -10.9615
# 5 -3.4386 -2.8682 1.2964 0.0000 28.1833 0.0000
# 6 0.0000 0.0000 0.0000 -10.9615 0.0000 18.6257
#
#
#
# Elastic Compliance Matrix: (Units=1/GPa)
#
#
# Indices 1 2 3 4 5 6 
#
# 1 0.015954 -0.003960 -0.003080 0.000000 0.001685 0.000000
# 2 -0.003960 0.030984 -0.007528 0.000000 0.003016 0.000000
# 3 -0.003080 -0.007528 0.011951 0.000000 -0.001692 0.000000
# 4 0.000000 0.000000 0.000000 0.191999 0.000000 0.112994
# 5 0.001685 0.003016 -0.001692 0.000000 0.036072 0.000000
# 6 0.000000 0.000000 0.000000 0.112994 0.000000 0.120188
#
#
# Mechanical properties :
#
#
# Convention : Reuss Voigt Hill
#
# Bulk Modulus (GPa) = 33.60840 41.82923 37.71881
# Shear Modulus (GPa) = 11.20569 21.65819 16.43194
#
# Velocity S-wave (km/s) = 2.42959 3.37773 2.94210
# Velocity P-wave (km/s) = 5.05714 6.10301 5.60452
#
# Compressibility (1/GPa) = 0.02975447
#
# Stress axis : x y z
#
# Youngs Moduli (GPa) = 62.68160 32.27432 83.67274
#
# Poissons Ratio (x) = 0.12781 0.25769
# Poissons Ratio (y) = 0.24822 0.62986
# Poissons Ratio (z) = 0.19304 0.24295
#
# Static dielectric constant tensor:
#      x y z
#    x 1.714250 0.000000 0.042810 
#    y 0.000000 1.672060 0.000000 
#    z 0.042810 0.000000 1.739200 
# 
# From -- ./inp_files/253458.got.cif
#   From: 2010.05.17/outbox.cif.g08.bks.cpg/sg12_127_cif.got.tgz:253458.got - 2010.06.03 13:09:07.
