data_PCOD9180003
_publ_section_title
;
Structure prediction by ZEFSAII (Michael W. Deem and Ramdas Pophale) SiO2 
 PCOD9180003
Probable space group: C 2/M
;
_chemical_formula_sum "Si O2"
_cell_formula_units_Z 64
_cell_length_a 22.061746
_cell_length_b 14.714671
_cell_length_c 15.762392
_cell_angle_alpha 90.000000
_cell_angle_beta 148.049661
_cell_angle_gamma 90.000000
_cell_volume 2707.816826
_symmetry_space_group_name_H-M "C 2/M"
_symmetry_group_IT_number 12
_symmetry_cell_setting 'monoclinic'
loop_
_space_group_symop_operation_xyz
x,y,z
-x,y,-z
-x,-y,-z
x,-y,z
1/2+x,1/2+y,z
1/2-x,1/2+y,-z
1/2-x,1/2-y,-z
1/2+x,1/2-y,z
loop_
_atom_site_type_symbol
_atom_site_label
_atom_site_fract_x
_atom_site_fract_y
_atom_site_fract_z
Si Si1 0.102991 0.335501 0.551517
Si Si2 0.424229 0.284352 0.755092
Si Si3 0.251808 0.107817 0.996780
Si Si4 0.179631 0.190336 0.084458
Si Si5 0.980864 0.400878 0.722692
Si Si6 0.559700 0.400348 0.652111
Si Si7 0.629813 0.832847 0.155808
Si Si8 0.349606 0.352425 0.496680
O O1 0.223357 0.355983 0.741074
O O2 0.123507 0.240437 0.524570
O O3 0.000000 0.336895 0.500000
O O4 0.070190 0.397867 0.432938
O O5 0.443952 0.186177 0.733260
O O6 0.374981 0.255544 0.787172
O O7 0.346889 0.336117 0.594271
O O8 0.544526 0.335065 0.915596
O O9 0.168230 0.143295 0.823752
O O10 0.222630 0.000000 0.978210
O O11 0.226752 0.169178 0.047751
O O12 0.383181 0.109187 0.127823
O O13 0.165354 0.291420 0.107722
O O14 0.955811 0.500000 0.731852
O O15 0.500000 0.357339 0.500000
O O16 0.598047 0.500000 0.667819
O O17 0.463374 0.406535 0.609278
O O18 0.732798 0.889761 0.317981
O O19 0.500000 0.869689 0.000000
#
# Coordination Sequence:
#
# PCOD9180003 Si02
#       8
#     8   8   8   8   8   8   8   8
#     4  10  19  31  52  85 116 146 187 231 287 344
#     4  10  20  36  57  81 112 151 196 240 282 331
#     4  10  20  35  56  85 119 154 187 229 290 352
#     4  10  19  35  57  84 113 152 191 239 287 339
#     4  10  22  36  55  85 122 160 191 230 291 355
#     4  10  21  36  54  80 116 153 187 230 287 345
#     4   9  20  35  56  81 107 140 187 241 292 332
#     4  10  19  33  56  79 106 145 192 241 280 337
#
# _framework density 23.635276999999999
#
# number of rings (size 3 to 8) (size 9 to 14) (size 15 to 20)
#    0.000    2.125    2.500    0.750    0.000    5.250 
#    0.000    0.625    0.000    7.875    0.000    0.000 
#    0.000    0.000    0.000    0.000    0.000    0.000 
#
# Total GULP energy -178491.876328 kJ/mol
# GULP energy per Si atom -5577.871135 kJ/mol
# Density = 2.358148 g / cm^3
# Si number density = 23.635277 Si / 1000 Ang^3
#
#
#
# Elastic Constant Matrix: (Units=GPa)
#
#
# Indices 1 2 3 4 5 6 
#
# 1 97.9496 24.2905 41.1837 0.0000 -9.9681 0.0000
# 2 24.2905 56.2224 23.5966 0.0000 2.7077 0.0000
# 3 41.1837 23.5966 196.5683 0.0000 -16.3272 0.0000
# 4 0.0000 0.0000 0.0000 -28.1720 0.0000 6.0155
# 5 -9.9681 2.7077 -16.3272 0.0000 47.5987 0.0000
# 6 0.0000 0.0000 0.0000 6.0155 0.0000 4.7246
#
#
#
# Elastic Compliance Matrix: (Units=1/GPa)
#
#
# Indices 1 2 3 4 5 6 
#
# 1 0.012372 -0.004678 -0.001846 0.000000 0.002224 0.000000
# 2 -0.004678 0.020665 -0.001729 0.000000 -0.002748 0.000000
# 3 -0.001846 -0.001729 0.005824 0.000000 0.001709 0.000000
# 4 0.000000 0.000000 0.000000 -0.027909 0.000000 0.035534
# 5 0.002224 -0.002748 0.001709 0.000000 0.022217 0.000000
# 6 0.000000 0.000000 0.000000 0.035534 0.000000 0.166415
#
#
# Mechanical properties :
#
#
# Convention : Reuss Voigt Hill
#
# Bulk Modulus (GPa) = 44.73075 58.76467 51.74771
# Shear Modulus (GPa) = 22.36728 22.27490 22.32109
#
# Velocity S-wave (km/s) = 3.07962 3.07325 3.07644
# Velocity P-wave (km/s) = 5.62245 6.12456 5.87887
#
# Compressibility (1/GPa) = 0.02235599
#
# Stress axis : x y z
#
# Youngs Moduli (GPa) = 80.82948 48.39001 171.71650
#
# Poissons Ratio (x) = 0.22635 0.31696
# Poissons Ratio (y) = 0.37808 0.29690
# Poissons Ratio (z) = 0.14920 0.08367
#
# Static dielectric constant tensor:
#      x y z
#    x 1.916930 0.000000 -0.006300 
#    y 0.000000 1.913650 0.000000 
#    z -0.006300 0.000000 1.951460 
# 
# From -- ./inp_files/290476.got.cif
#   From: 2010.05.17/outbox.cif.g08.bks.cpg/sg12_146_cif.got.tgz:290476.got - 2010.06.03 13:09:07.
