data_PCOD9180534
_publ_section_title
;
Structure prediction by ZEFSAII (Michael W. Deem and Ramdas Pophale) SiO2 
 PCOD9180534
Probable space group: C 2/M
;
_chemical_formula_sum "Si O2"
_cell_formula_units_Z 48
_cell_length_a 28.288699
_cell_length_b 8.824615
_cell_length_c 21.333115
_cell_angle_alpha 90.000000
_cell_angle_beta 31.911470
_cell_angle_gamma 90.000000
_cell_volume 2815.120421
_symmetry_space_group_name_H-M "C 2/M"
_symmetry_group_IT_number 12
_symmetry_cell_setting 'monoclinic'
loop_
_space_group_symop_operation_xyz
x,y,z
-x,y,-z
-x,-y,-z
x,-y,z
1/2+x,1/2+y,z
1/2-x,1/2+y,-z
1/2-x,1/2-y,-z
1/2+x,1/2-y,z
loop_
_atom_site_type_symbol
_atom_site_label
_atom_site_fract_x
_atom_site_fract_y
_atom_site_fract_z
Si Si1 0.016514 0.820637 0.744052
Si Si2 0.687717 0.320848 0.751973
Si Si3 0.195587 0.681041 0.502296
Si Si4 0.679824 0.817312 0.030325
Si Si5 0.529090 0.823857 0.862169
Si Si6 0.682753 0.823057 0.884247
O O1 0.096189 0.749509 0.613993
O O2 0.043213 0.780213 0.785553
O O3 0.011047 0.000000 0.741663
O O4 0.919522 0.745346 0.844000
O O5 0.669901 0.500000 0.771980
O O6 0.754221 0.286328 0.619555
O O7 0.597248 0.230216 0.837913
O O8 0.720632 0.270003 0.783346
O O9 0.191783 0.500000 0.514723
O O10 0.250000 0.750000 0.500000
O O11 0.705208 0.773990 0.929951
O O12 0.677554 0.000000 0.035197
O O13 0.750000 0.750000 0.000000
O O14 0.545821 0.000000 0.827036
O O15 0.425349 0.810953 0.996643
O O16 0.706158 0.000000 0.850907
#
# Coordination Sequence:
#
# PCOD9180534 Si02
#       6
#     8   8   8   8   8   8
#     4  11  21  34  54  81 109 142 184 226 269 319
#     4  11  22  32  48  75 107 144 184 221 263 316
#     4  11  22  35  51  75 109 150 189 225 264 315
#     4  10  21  39  62  86 109 137 174 223 277 328
#     4  10  19  32  50  72 105 145 181 220 265 318
#     4   9  20  35  51  75 106 140 176 215 269 325
#
# _framework density 17.05078
#
# number of rings (size 3 to 8) (size 9 to 14) (size 15 to 20)
#    0.000    1.667    1.667    5.000    0.000    8.000 
#    0.000    0.000    0.000    1.000    0.000    7.000 
#    0.000    0.000    0.000    0.000    0.000    0.000 
#
# Total GULP energy -133984.094288 kJ/mol
# GULP energy per Si atom -5582.670595 kJ/mol
# Density = 1.701197 g / cm^3
# Si number density = 17.050780 Si / 1000 Ang^3
#
#
#
# Elastic Constant Matrix: (Units=GPa)
#
#
# Indices 1 2 3 4 5 6 
#
# 1 122.7344 46.9408 58.2938 -0.0001 7.2833 0.0000
# 2 46.9408 82.1577 43.5603 -0.0009 12.4305 0.0005
# 3 58.2938 43.5603 64.4835 0.0003 12.6018 0.0004
# 4 -0.0001 -0.0009 0.0003 26.6869 0.0005 -0.4616
# 5 7.2833 12.4305 12.6018 0.0005 21.7882 -0.0003
# 6 0.0000 0.0005 0.0004 -0.4616 -0.0003 27.9845
#
#
#
# Elastic Compliance Matrix: (Units=1/GPa)
#
#
# Indices 1 2 3 4 5 6 
#
# 1 0.014748 -0.002384 -0.012429 0.000000 0.003619 0.000000
# 2 -0.002384 0.019639 -0.010235 0.000001 -0.004488 0.000000
# 3 -0.012429 -0.010235 0.035745 -0.000001 -0.010680 0.000000
# 4 0.000000 0.000001 -0.000001 0.037482 -0.000001 0.000618
# 5 0.003619 -0.004488 -0.010680 -0.000001 0.053424 0.000001
# 6 0.000000 0.000000 0.000000 0.000618 0.000001 0.035744
#
#
# Mechanical properties :
#
#
# Convention : Reuss Voigt Hill
#
# Bulk Modulus (GPa) = 49.90840 62.99614 56.45227
# Shear Modulus (GPa) = 19.71937 23.33064 21.52500
#
# Velocity S-wave (km/s) = 3.40444 3.70307 3.55689
# Velocity P-wave (km/s) = 6.69235 7.43707 7.07452
#
# Compressibility (1/GPa) = 0.02003671
#
# Stress axis : x y z
#
# Youngs Moduli (GPa) = 67.80575 50.91851 27.97585
#
# Poissons Ratio (x) = 0.12138 0.34772
# Poissons Ratio (y) = 0.16163 0.28633
# Poissons Ratio (z) = 0.84278 0.52114
#
# Static dielectric constant tensor:
#      x y z
#    x 1.574210 0.000000 0.019920 
#    y 0.000000 1.571420 0.000000 
#    z 0.019920 0.000000 1.586080 
# 
# From -- ./inp_files/236837.got.cif
#   From: 2010.05.17/outbox.cif.g08.bks.cpg/sg12_119_cif.got.tgz:236837.got - 2010.06.03 13:09:07.
