data_PCOD9180229
_publ_section_title
;
Structure prediction by ZEFSAII (Michael W. Deem and Ramdas Pophale) SiO2 
 PCOD9180229
Probable space group: C 2/M
;
_chemical_formula_sum "Si O2"
_cell_formula_units_Z 64
_cell_length_a 8.869647
_cell_length_b 17.492702
_cell_length_c 22.753259
_cell_angle_alpha 90.000000
_cell_angle_beta 91.106412
_cell_angle_gamma 90.000000
_cell_volume 3529.603045
_symmetry_space_group_name_H-M "C 2/M"
_symmetry_group_IT_number 12
_symmetry_cell_setting 'monoclinic'
loop_
_space_group_symop_operation_xyz
x,y,z
-x,y,-z
-x,-y,-z
x,-y,z
1/2+x,1/2+y,z
1/2-x,1/2+y,-z
1/2-x,1/2-y,-z
1/2+x,1/2-y,z
loop_
_atom_site_type_symbol
_atom_site_label
_atom_site_fract_x
_atom_site_fract_y
_atom_site_fract_z
Si Si1 0.569193 0.192124 0.148694
Si Si2 0.226437 0.908438 0.416651
Si Si3 0.908984 0.807564 0.689318
Si Si4 0.667790 0.727669 0.768236
Si Si5 0.173213 0.820354 0.531551
Si Si6 0.356076 0.697982 0.959710
Si Si7 0.086595 0.410079 0.941251
Si Si8 0.476981 0.806680 0.594621
O O1 0.441436 0.223686 0.190930
O O2 0.718131 0.182690 0.188684
O O3 0.597032 0.254675 0.097587
O O4 0.510837 0.118362 0.114312
O O5 0.138252 0.868466 0.361217
O O6 0.158733 0.884486 0.480535
O O7 0.392271 0.868631 0.414510
O O8 0.230299 0.000000 0.411493
O O9 0.768782 0.785295 0.729632
O O10 0.952522 0.727030 0.658699
O O11 0.058404 0.825229 0.727898
O O12 0.250000 0.750000 0.500000
O O13 0.313844 0.840501 0.575179
O O14 0.038929 0.772246 0.562586
O O15 0.250005 0.628316 0.940534
O O16 0.500000 0.676345 0.000000
O O17 0.250000 0.750000 0.000000
O O18 0.099643 0.500000 0.942924
O O19 0.000000 0.384377 0.000000
#
# Coordination Sequence:
#
# PCOD9180229 Si02
#       8
#     8   8   8   8   8   8   8   8
#     4  11  19  37  60  91 114 150 200 251 278 335
#     4  11  23  36  57  88 122 144 176 240 303 347
#     4  11  20  38  59  86 107 152 198 244 276 346
#     4  10  22  34  64  87 105 146 220 244 269 324
#     4  10  19  31  58  86 108 146 185 223 279 359
#     4  12  19  34  63  92 120 159 195 237 285 353
#     4  11  23  38  58  91 129 158 186 238 305 354
#     4  11  19  36  62  82 112 150 194 226 281 353
#
# _framework density 18.132351
#
# number of rings (size 3 to 8) (size 9 to 14) (size 15 to 20)
#    0.000    1.125    7.500    1.500    0.000    1.250 
#    0.000    2.500    0.000    2.250    0.000    0.000 
#    0.000    0.000    0.000    0.000    0.000    0.000 
#
# Total GULP energy -178206.224808 kJ/mol
# GULP energy per Si atom -5568.944525 kJ/mol
# Density = 1.809108 g / cm^3
# Si number density = 18.132351 Si / 1000 Ang^3
#
#
#
# Elastic Constant Matrix: (Units=GPa)
#
#
# Indices 1 2 3 4 5 6 
#
# 1 117.6639 33.4674 51.0323 0.0000 18.4935 0.0000
# 2 33.4674 87.0892 29.3637 0.0000 6.2144 0.0000
# 3 51.0323 29.3637 100.8387 0.0000 7.3600 0.0000
# 4 0.0000 0.0000 0.0000 18.0710 0.0000 4.7921
# 5 18.4935 6.2144 7.3600 0.0000 53.0720 0.0000
# 6 0.0000 0.0000 0.0000 4.7921 0.0000 18.6796
#
#
#
# Elastic Compliance Matrix: (Units=1/GPa)
#
#
# Indices 1 2 3 4 5 6 
#
# 1 0.011935 -0.002664 -0.005034 0.000000 -0.003149 0.000000
# 2 -0.002664 0.013379 -0.002526 0.000000 -0.000288 0.000000
# 3 -0.005034 -0.002526 0.013184 0.000000 0.000222 0.000000
# 4 0.000000 0.000000 0.000000 0.059377 0.000000 -0.015233
# 5 -0.003149 -0.000288 0.000222 0.000000 0.019942 0.000000
# 6 0.000000 0.000000 0.000000 -0.015233 0.000000 0.057442
#
#
# Mechanical properties :
#
#
# Convention : Reuss Voigt Hill
#
# Bulk Modulus (GPa) = 55.40937 59.25763 57.33350
# Shear Modulus (GPa) = 24.78618 30.74641 27.76630
#
# Velocity S-wave (km/s) = 3.70125 4.12231 3.91744
# Velocity P-wave (km/s) = 6.99216 7.44376 7.22149
#
# Compressibility (1/GPa) = 0.01804749
#
# Stress axis : x y z
#
# Youngs Moduli (GPa) = 83.78738 74.74550 75.84885
#
# Poissons Ratio (x) = 0.19915 0.38185
# Poissons Ratio (y) = 0.22324 0.19163
# Poissons Ratio (z) = 0.42182 0.18884
#
# Static dielectric constant tensor:
#      x y z
#    x 1.748490 0.000000 0.037900 
#    y 0.000000 1.579100 0.000000 
#    z 0.037900 0.000000 1.697400 
# 
# From -- ./inp_files/300821.got.cif
#   From: 2010.05.17/outbox.cif.g08.bks.cpg/sg12_151_cif.got.tgz:300821.got - 2010.06.03 13:09:07.
