data_PCOD9180922
_publ_section_title
;
Structure prediction by ZEFSAII (Michael W. Deem and Ramdas Pophale) SiO2 
 PCOD9180922
Probable space group: C 2/M
;
_chemical_formula_sum "Si O2"
_cell_formula_units_Z 48
_cell_length_a 31.968242
_cell_length_b 8.437957
_cell_length_c 9.878141
_cell_angle_alpha 90.000000
_cell_angle_beta 78.684540
_cell_angle_gamma 90.000000
_cell_volume 2612.800387
_symmetry_space_group_name_H-M "C 2/M"
_symmetry_group_IT_number 12
_symmetry_cell_setting 'monoclinic'
loop_
_space_group_symop_operation_xyz
x,y,z
-x,y,-z
-x,-y,-z
x,-y,z
1/2+x,1/2+y,z
1/2-x,1/2+y,-z
1/2-x,1/2-y,-z
1/2+x,1/2-y,z
loop_
_atom_site_type_symbol
_atom_site_label
_atom_site_fract_x
_atom_site_fract_y
_atom_site_fract_z
Si Si1 0.637183 0.688697 0.889873
Si Si2 0.620796 0.188899 0.607952
Si Si3 0.265414 0.691889 0.136694
Si Si4 0.893110 0.688805 0.810959
Si Si5 0.548916 0.688823 0.452926
Si Si6 0.816584 0.307629 0.659804
O O1 0.636930 0.500000 0.907403
O O2 0.619303 0.732940 0.754978
O O3 0.686479 0.745526 0.865863
O O4 0.611842 0.763751 0.030789
O O5 0.579973 0.229793 0.542130
O O6 0.661927 0.245657 0.493982
O O7 0.623711 0.000000 0.621607
O O8 0.265175 0.500000 0.136419
O O9 0.230478 0.746758 0.269235
O O10 0.250000 0.750000 0.000000
O O11 0.896971 0.500000 0.795299
O O12 0.931828 0.768088 0.705728
O O13 0.849769 0.737384 0.758128
O O14 0.500000 0.739571 0.500000
O O15 0.551221 0.500000 0.471097
O O16 0.815950 0.500000 0.656356
#
# Coordination Sequence:
#
# PCOD9180922 Si02
#       6
#     8   8   8   8   8   8
#     4  11  22  34  52  81 116 151 187 233 281 323
#     4  10  21  37  57  80 111 149 186 228 275 329
#     4  10  19  32  51  77 109 146 192 235 271 319
#     4  10  19  34  58  82 110 147 186 227 269 328
#     4  10  21  39  63  88 113 139 172 221 277 335
#     4   8  16  32  52  75 105 142 187 230 269 313
#
# _framework density 18.371092999999998
#
# number of rings (size 3 to 8) (size 9 to 14) (size 15 to 20)
#    0.000    2.167    1.667    3.000    0.000    2.667 
#    0.000    1.667    0.000    5.000    0.000    0.000 
#    0.000    0.000    0.000    0.000    0.000    0.000 
#
# Total GULP energy -133950.118937 kJ/mol
# GULP energy per Si atom -5581.254956 kJ/mol
# Density = 1.832928 g / cm^3
# Si number density = 18.371093 Si / 1000 Ang^3
#
#
#
# Elastic Constant Matrix: (Units=GPa)
#
#
# Indices 1 2 3 4 5 6 
#
# 1 85.0393 -0.4615 28.3220 0.0000 -26.2799 0.0000
# 2 -0.4615 13.4690 -10.2561 0.0000 -3.5645 0.0000
# 3 28.3220 -10.2561 100.3780 0.0000 -12.2590 0.0000
# 4 0.0000 0.0000 0.0000 28.8145 0.0000 1.0317
# 5 -26.2799 -3.5645 -12.2590 0.0000 23.3462 0.0000
# 6 0.0000 0.0000 0.0000 1.0317 0.0000 19.6761
#
#
#
# Elastic Compliance Matrix: (Units=1/GPa)
#
#
# Indices 1 2 3 4 5 6 
#
# 1 0.019005 0.004348 -0.002377 0.000000 0.020809 0.000000
# 2 0.004348 0.089030 0.010822 0.000000 0.024170 0.000000
# 3 -0.002377 0.010822 0.012409 0.000000 0.005493 0.000000
# 4 0.000000 0.000000 0.000000 0.034770 0.000000 -0.001823
# 5 0.020809 0.024170 0.005493 0.000000 0.072832 0.000000
# 6 0.000000 0.000000 0.000000 -0.001823 0.000000 0.050919
#
#
# Mechanical properties :
#
#
# Convention : Reuss Voigt Hill
#
# Bulk Modulus (GPa) = 6.84784 26.01058 16.42921
# Shear Modulus (GPa) = 16.55322 26.45284 21.50303
#
# Velocity S-wave (km/s) = 3.00500 3.79874 3.42494
# Velocity P-wave (km/s) = 3.97186 5.78184 4.96011
#
# Compressibility (1/GPa) = 0.14603152
#
# Stress axis : x y z
#
# Youngs Moduli (GPa) = 52.61727 11.23215 80.58365
#
# Poissons Ratio (x) = -0.04884 0.19152
# Poissons Ratio (y) = -0.22881 -0.87204
# Poissons Ratio (z) = 0.12505 -0.12155
#
# Static dielectric constant tensor:
#      x y z
#    x 1.628500 0.000000 -0.021440 
#    y 0.000000 1.624170 0.000000 
#    z -0.021440 0.000000 1.613220 
# 
# From -- ./inp_files/108755.got.cif
#   From: 2010.05.17/outbox.cif.g08.bks.cpg/sg12_55_cif.got.tgz:108755.got - 2010.06.03 13:09:07.
