data_PCOD9180533
_publ_section_title
;
Structure prediction by ZEFSAII (Michael W. Deem and Ramdas Pophale) SiO2 
 PCOD9180533
Probable space group: C 2/M
;
_chemical_formula_sum "Si O2"
_cell_formula_units_Z 48
_cell_length_a 29.579631
_cell_length_b 9.641549
_cell_length_c 22.340410
_cell_angle_alpha 90.000000
_cell_angle_beta 26.384541
_cell_angle_gamma 90.000000
_cell_volume 2831.381517
_symmetry_space_group_name_H-M "C 2/M"
_symmetry_group_IT_number 12
_symmetry_cell_setting 'monoclinic'
loop_
_space_group_symop_operation_xyz
x,y,z
-x,y,-z
-x,-y,-z
x,-y,z
1/2+x,1/2+y,z
1/2-x,1/2+y,-z
1/2-x,1/2-y,-z
1/2+x,1/2-y,z
loop_
_atom_site_type_symbol
_atom_site_label
_atom_site_fract_x
_atom_site_fract_y
_atom_site_fract_z
Si Si1 0.390265 0.837926 0.609361
Si Si2 0.013024 0.658776 0.833413
Si Si3 0.820905 0.347258 0.556598
Si Si4 0.154981 0.166553 0.584295
Si Si5 0.603731 0.255744 0.849218
Si Si6 0.699668 0.843597 0.857243
O O1 0.500000 0.784719 0.500000
O O2 0.376696 0.829331 0.553760
O O3 0.293996 0.758552 0.750440
O O4 0.383924 0.000000 0.633325
O O5 0.027813 0.500000 0.794763
O O6 0.059937 0.772855 0.734010
O O7 0.068141 0.672847 0.832784
O O8 0.894198 0.683981 0.987171
O O9 0.846373 0.500000 0.501195
O O10 0.847693 0.223525 0.480134
O O11 0.699575 0.345499 0.713994
O O12 0.250000 0.250000 0.500000
O O13 0.164943 0.000000 0.576423
O O14 0.651103 0.169702 0.848141
O O15 0.500000 0.321767 0.000000
O O16 0.735000 0.000000 0.823956
#
# Coordination Sequence:
#
# PCOD9180533 Si02
#       6
#     8   8   8   8   8   8
#     4   9  19  36  57  80 106 135 167 212 267 314
#     4  10  19  32  50  72 105 142 174 209 252 305
#     4  10  20  34  52  75 104 136 174 214 254 304
#     4  12  24  35  50  72 104 143 181 215 250 298
#     4   9  17  28  47  73 104 138 169 203 250 305
#     4   9  18  31  50  78 105 134 170 212 260 307
#
# _framework density 16.952855
#
# number of rings (size 3 to 8) (size 9 to 14) (size 15 to 20)
#    0.000    2.167    1.667    2.000    0.000    6.000 
#    0.000    3.333    0.000    1.000    0.000    0.000 
#    0.000    0.000    0.000    0.000    0.000    0.000 
#
# Total GULP energy -133718.331159 kJ/mol
# GULP energy per Si atom -5571.597132 kJ/mol
# Density = 1.691427 g / cm^3
# Si number density = 16.952855 Si / 1000 Ang^3
#
#
#
# Elastic Constant Matrix: (Units=GPa)
#
#
# Indices 1 2 3 4 5 6 
#
# 1 44.7319 33.2145 42.5358 0.0001 -15.9499 -0.0001
# 2 33.2145 126.9065 68.4370 -0.0006 2.0287 0.0001
# 3 42.5358 68.4370 98.9764 -0.0001 -4.8409 -0.0001
# 4 0.0001 -0.0006 -0.0001 27.8050 0.0000 3.4263
# 5 -15.9499 2.0287 -4.8409 0.0000 29.3738 0.0000
# 6 -0.0001 0.0001 -0.0001 3.4263 0.0000 9.9299
#
#
#
# Elastic Compliance Matrix: (Units=1/GPa)
#
#
# Indices 1 2 3 4 5 6 
#
# 1 0.051720 -0.004187 -0.018090 0.000000 0.025392 0.000000
# 2 -0.004187 0.013063 -0.007448 0.000000 -0.004403 0.000000
# 3 -0.018090 -0.007448 0.022756 0.000000 -0.005558 0.000000
# 4 0.000000 0.000000 0.000000 0.037562 0.000000 -0.012961
# 5 0.025392 -0.004403 -0.005558 0.000000 0.047220 0.000000
# 6 0.000000 0.000000 0.000000 -0.012961 0.000000 0.105178
#
#
# Mechanical properties :
#
#
# Convention : Reuss Voigt Hill
#
# Bulk Modulus (GPa) = 35.60188 62.10993 48.85591
# Shear Modulus (GPa) = 14.43788 21.85024 18.14406
#
# Velocity S-wave (km/s) = 2.92147 3.59400 3.27504
# Velocity P-wave (km/s) = 5.69439 7.34430 6.57133
#
# Compressibility (1/GPa) = 0.02808841
#
# Stress axis : x y z
#
# Youngs Moduli (GPa) = 19.33479 76.55485 43.94447
#
# Poissons Ratio (x) = 0.32051 0.79497
# Poissons Ratio (y) = 0.08095 0.32730
# Poissons Ratio (z) = 0.34977 0.57019
#
# Static dielectric constant tensor:
#      x y z
#    x 1.562350 0.000000 0.015740 
#    y 0.000000 1.578100 0.000000 
#    z 0.015740 0.000000 1.593090 
# 
# From -- ./inp_files/327169.got.cif
#   From: 2010.05.17/outbox.cif.g08.bks.cpg/sg12_164_cif.got.tgz:327169.got - 2010.06.03 13:09:07.
