data_PCOD9180962
_publ_section_title
;
Structure prediction by ZEFSAII (Michael W. Deem and Ramdas Pophale) SiO2 
 PCOD9180962
Probable space group: C 2/M
;
_chemical_formula_sum "Si O2"
_cell_formula_units_Z 64
_cell_length_a 27.777037
_cell_length_b 21.703152
_cell_length_c 11.353476
_cell_angle_alpha 90.000000
_cell_angle_beta 152.301399
_cell_angle_gamma 90.000000
_cell_volume 3181.432994
_symmetry_space_group_name_H-M "C 2/M"
_symmetry_group_IT_number 12
_symmetry_cell_setting 'monoclinic'
loop_
_space_group_symop_operation_xyz
x,y,z
-x,y,-z
-x,-y,-z
x,-y,z
1/2+x,1/2+y,z
1/2-x,1/2+y,-z
1/2-x,1/2-y,-z
1/2+x,1/2-y,z
loop_
_atom_site_type_symbol
_atom_site_label
_atom_site_fract_x
_atom_site_fract_y
_atom_site_fract_z
Si Si1 0.291864 0.320153 0.609612
Si Si2 0.484161 0.839242 0.765674
Si Si3 0.605236 0.888818 0.671666
Si Si4 0.709964 0.565084 0.068143
Si Si5 0.918751 0.826177 0.129801
Si Si6 0.610104 0.706715 0.410873
Si Si7 0.347596 0.928630 0.604595
Si Si8 0.838244 0.699847 0.997001
O O1 0.250000 0.250000 0.500000
O O2 0.369334 0.327479 0.667510
O O3 0.209330 0.376364 0.439462
O O4 0.351854 0.320821 0.863803
O O5 0.429866 0.852110 0.521671
O O6 0.440498 0.774368 0.719470
O O7 0.451018 0.895722 0.776742
O O8 0.603463 0.830733 0.988891
O O9 0.500000 0.917219 0.500000
O O10 0.700101 0.929786 0.833980
O O11 0.649804 0.843831 0.866580
O O12 0.655159 0.500000 0.939394
O O13 0.772266 0.566971 0.327043
O O14 0.629070 0.620075 0.896727
O O15 0.035158 0.830008 0.336019
O O16 0.901175 0.762016 0.157255
O O17 0.721200 0.715082 0.711902
O O18 0.361094 0.000000 0.675952
#
# Coordination Sequence:
#
# PCOD9180962 Si02
#       8
#     8   8   8   8   8   8   8   8
#     4  11  18  33  55  82 106 137 176 226 264 314
#     4   9  18  32  51  78 108 135 171 216 265 318
#     4   9  18  32  53  81 108 132 168 216 267 317
#     4   9  18  34  55  77 104 138 179 221 258 311
#     4  10  21  34  53  80 106 135 177 220 268 313
#     4  11  20  33  52  79 105 139 177 217 269 312
#     4   9  17  32  55  80 107 138 176 221 267 313
#     4  10  19  32  51  79 108 134 167 220 270 315
#
# _framework density 20.116720999999998
#
# number of rings (size 3 to 8) (size 9 to 14) (size 15 to 20)
#    0.000    2.250    2.500    1.875    0.000    2.250 
#    0.000    5.000    0.000    7.500    0.000    0.000 
#    0.000    0.000    0.000    0.000    0.000    0.000 
#
# Total GULP energy -178504.742948 kJ/mol
# GULP energy per Si atom -5578.273217 kJ/mol
# Density = 2.007093 g / cm^3
# Si number density = 20.116721 Si / 1000 Ang^3
#
#
#
# Elastic Constant Matrix: (Units=GPa)
#
#
# Indices 1 2 3 4 5 6 
#
# 1 101.0299 64.9331 31.1292 0.0000 22.7430 0.0000
# 2 64.9331 123.9756 15.5178 0.0000 21.0525 0.0000
# 3 31.1292 15.5178 38.8097 0.0000 15.1538 0.0000
# 4 0.0000 0.0000 0.0000 9.4351 0.0000 3.1609
# 5 22.7430 21.0525 15.1538 0.0000 35.2453 0.0000
# 6 0.0000 0.0000 0.0000 3.1609 0.0000 13.0519
#
#
#
# Elastic Compliance Matrix: (Units=1/GPa)
#
#
# Indices 1 2 3 4 5 6 
#
# 1 0.019189 -0.008204 -0.011044 0.000000 -0.002734 0.000000
# 2 -0.008204 0.012590 0.002903 0.000000 -0.003474 0.000000
# 3 -0.011044 0.002903 0.037685 0.000000 -0.010811 0.000000
# 4 0.000000 0.000000 0.000000 0.115346 0.000000 -0.027934
# 5 -0.002734 -0.003474 -0.010811 0.000000 0.036860 0.000000
# 6 0.000000 0.000000 0.000000 -0.027934 0.000000 0.083382
#
#
# Mechanical properties :
#
#
# Convention : Reuss Voigt Hill
#
# Bulk Modulus (GPa) = 27.19261 54.10837 40.65049
# Shear Modulus (GPa) = 14.28574 21.69546 17.99060
#
# Velocity S-wave (km/s) = 2.66774 3.28758 2.99375
# Velocity P-wave (km/s) = 4.79957 6.43168 5.67461
#
# Compressibility (1/GPa) = 0.03677470
#
# Stress axis : x y z
#
# Youngs Moduli (GPa) = 52.11338 79.43114 26.53548
#
# Poissons Ratio (x) = 0.65164 0.29305
# Poissons Ratio (y) = 0.42753 -0.07703
# Poissons Ratio (z) = 0.57553 -0.23059
#
# Static dielectric constant tensor:
#      x y z
#    x 1.746980 0.000000 0.001080 
#    y 0.000000 1.699830 0.000000 
#    z 0.001080 0.000000 1.746440 
# 
# From -- ./inp_files/184710.got.cif
#   From: 2010.05.17/outbox.cif.g08.bks.cpg/sg12_93_cif.got.tgz:184710.got - 2010.06.03 13:09:07.
