data_PCOD9180881
_publ_section_title
;
Structure prediction by ZEFSAII (Michael W. Deem and Ramdas Pophale) SiO2 
 PCOD9180881
Probable space group: C 2/M
;
_chemical_formula_sum "Si O2"
_cell_formula_units_Z 56
_cell_length_a 25.720514
_cell_length_b 8.578307
_cell_length_c 26.255521
_cell_angle_alpha 90.000000
_cell_angle_beta 145.148915
_cell_angle_gamma 90.000000
_cell_volume 3310.371005
_symmetry_space_group_name_H-M "C 2/M"
_symmetry_group_IT_number 12
_symmetry_cell_setting 'monoclinic'
loop_
_space_group_symop_operation_xyz
x,y,z
-x,y,-z
-x,-y,-z
x,-y,z
1/2+x,1/2+y,z
1/2-x,1/2+y,-z
1/2-x,1/2-y,-z
1/2+x,1/2-y,z
loop_
_atom_site_type_symbol
_atom_site_label
_atom_site_fract_x
_atom_site_fract_y
_atom_site_fract_z
Si Si1 0.854328 0.688168 0.897754
Si Si2 0.965097 0.311777 0.588678
Si Si3 0.315696 0.811608 0.385202
Si Si4 0.148659 0.185153 0.408562
Si Si5 0.664116 0.812030 0.716248
Si Si6 0.371770 0.813100 0.718945
Si Si7 0.978825 0.689514 0.902274
O O1 0.850460 0.500000 0.894827
O O2 0.753351 0.753745 0.816979
O O3 0.904802 0.736090 0.885652
O O4 0.922471 0.738573 0.997726
O O5 0.964890 0.500000 0.592462
O O6 0.902613 0.271616 0.489699
O O7 0.917640 0.244328 0.600461
O O8 0.068433 0.258942 0.662790
O O9 0.328251 0.762443 0.336803
O O10 0.226306 0.736545 0.337822
O O11 0.305458 0.000000 0.378165
O O12 0.250000 0.250000 0.500000
O O13 0.117096 0.241825 0.327752
O O14 0.153480 0.000000 0.413355
O O15 0.663722 0.000000 0.716102
O O16 0.445773 0.759544 0.820322
O O17 0.375044 0.000000 0.717789
O O18 0.978925 0.500000 0.902379
#
# Coordination Sequence:
#
# PCOD9180881 Si02
#       7
#     8   8   8   8   8   8   8
#     4   9  16  31  52  75 105 140 174 211 257 315
#     4  10  21  37  54  73 105 146 181 214 257 311
#     4  10  19  32  51  76 108 143 174 208 257 314
#     4  12  24  38  55  77 104 137 177 221 262 304
#     4  10  20  33  51  79 111 142 174 213 263 312
#     4  11  20  33  55  80 106 137 174 218 261 307
#     4   8  16  30  51  77 105 137 173 212 261 313
#
# _framework density 16.916532
#
# number of rings (size 3 to 8) (size 9 to 14) (size 15 to 20)
#    0.000    2.000    2.857    3.000    0.000    2.286 
#    0.000    2.857    0.000    3.429    0.000    0.000 
#    0.000    0.000    0.000    0.000    0.000    0.000 
#
# Total GULP energy -156260.047845 kJ/mol
# GULP energy per Si atom -5580.715994 kJ/mol
# Density = 1.687803 g / cm^3
# Si number density = 16.916532 Si / 1000 Ang^3
#
#
#
# Elastic Constant Matrix: (Units=GPa)
#
#
# Indices 1 2 3 4 5 6 
#
# 1 97.5846 24.1698 72.0269 0.0000 13.0585 0.0000
# 2 24.1698 25.0252 31.1173 0.0000 3.4801 0.0000
# 3 72.0269 31.1173 165.7004 0.0000 4.8967 0.0000
# 4 0.0000 0.0000 0.0000 24.0331 0.0000 2.2984
# 5 13.0585 3.4801 4.8967 0.0000 24.0551 0.0000
# 6 0.0000 0.0000 0.0000 2.2984 0.0000 24.9275
#
#
#
# Elastic Compliance Matrix: (Units=1/GPa)
#
#
# Indices 1 2 3 4 5 6 
#
# 1 0.017689 -0.008863 -0.005814 0.000000 -0.007137 0.000000
# 2 -0.008863 0.057330 -0.006852 0.000000 -0.002088 0.000000
# 3 -0.005814 -0.006852 0.009785 0.000000 0.002155 0.000000
# 4 0.000000 0.000000 0.000000 0.041979 0.000000 -0.003871
# 5 -0.007137 -0.002088 0.002155 0.000000 0.045309 0.000000
# 6 0.000000 0.000000 0.000000 -0.003871 0.000000 0.040473
#
#
# Mechanical properties :
#
#
# Convention : Reuss Voigt Hill
#
# Bulk Modulus (GPa) = 23.95383 60.32647 42.14015
# Shear Modulus (GPa) = 18.55030 25.33622 21.94326
#
# Velocity S-wave (km/s) = 3.31505 3.87424 3.60550
# Velocity P-wave (km/s) = 5.37062 7.46670 6.50366
#
# Compressibility (1/GPa) = 0.04174698
#
# Stress axis : x y z
#
# Youngs Moduli (GPa) = 56.53318 17.44296 102.19543
#
# Poissons Ratio (x) = 0.15459 0.59414
# Poissons Ratio (y) = 0.50103 0.70024
# Poissons Ratio (z) = 0.32867 0.11952
#
# Static dielectric constant tensor:
#      x y z
#    x 1.542390 0.000000 -0.006270 
#    y 0.000000 1.579080 0.000000 
#    z -0.006270 0.000000 1.581790 
# 
# From -- ./inp_files/348640.got.cif
#   From: 2010.05.17/outbox.cif.g08.bks.cpg/sg12_175_cif.got.tgz:348640.got - 2010.06.03 13:09:07.
