data_PCOD9180649
_publ_section_title
;
Structure prediction by ZEFSAII (Michael W. Deem and Ramdas Pophale) SiO2 
 PCOD9180649
Probable space group: C 2/M
;
_chemical_formula_sum "Si O2"
_cell_formula_units_Z 64
_cell_length_a 29.773424
_cell_length_b 7.543680
_cell_length_c 15.565891
_cell_angle_alpha 90.000000
_cell_angle_beta 130.533735
_cell_angle_gamma 90.000000
_cell_volume 2657.131302
_symmetry_space_group_name_H-M "C 2/M"
_symmetry_group_IT_number 12
_symmetry_cell_setting 'monoclinic'
loop_
_space_group_symop_operation_xyz
x,y,z
-x,y,-z
-x,-y,-z
x,-y,z
1/2+x,1/2+y,z
1/2-x,1/2+y,-z
1/2-x,1/2-y,-z
1/2+x,1/2-y,z
loop_
_atom_site_type_symbol
_atom_site_label
_atom_site_fract_x
_atom_site_fract_y
_atom_site_fract_z
Si Si1 0.565365 0.704649 0.587183
Si Si2 0.716806 0.798210 0.073212
Si Si3 0.967483 0.290999 0.104810
Si Si4 0.137675 0.202751 0.133493
Si Si5 0.611560 0.784479 0.831791
Si Si6 0.605319 0.713644 0.275780
Si Si7 0.295808 0.288338 0.481440
Si Si8 0.688402 0.281418 0.685265
O O1 0.500000 0.785622 0.500000
O O2 0.559193 0.500000 0.551342
O O3 0.589501 0.712304 0.714252
O O4 0.620466 0.778158 0.602131
O O5 0.674318 0.799821 0.105018
O O6 0.775979 0.716367 0.186715
O O7 0.729396 0.000000 0.063490
O O8 0.675526 0.721060 0.946925
O O9 0.957544 0.500000 0.083016
O O10 0.936112 0.234297 0.154410
O O11 0.036756 0.258472 0.191575
O O12 0.930520 0.203941 0.982342
O O13 0.137073 0.279928 0.228236
O O14 0.158503 0.000000 0.159995
O O15 0.613202 0.000000 0.829195
O O16 0.609534 0.500000 0.277095
O O17 0.641275 0.775438 0.403468
O O18 0.298997 0.500000 0.477297
O O19 0.250000 0.250000 0.500000
O O20 0.283117 0.223694 0.369543
O O21 0.689721 0.500000 0.691802
#
# Coordination Sequence:
#
# PCOD9180649 Si02
#       8
#     8   8   8   8   8   8   8   8
#     4  10  22  38  60  87 112 146 192 232 274 341
#     4   9  18  35  58  80 109 148 188 230 279 340
#     4  10  21  35  53  78 108 146 191 231 276 341
#     4  10  19  32  50  78 114 146 182 232 286 333
#     4   9  20  37  55  80 111 143 181 230 287 333
#     4  10  21  33  50  77 110 147 186 236 288 334
#     4  10  21  37  57  81 113 149 188 234 284 334
#     4   9  19  37  59  84 113 149 191 236 282 330
#
# _framework density 24.086126
#
# number of rings (size 3 to 8) (size 9 to 14) (size 15 to 20)
#    0.000    2.375    0.000    2.625    1.750    6.250 
#    0.000    1.250    0.000    0.000    0.000    0.000 
#    0.000    0.000    0.000    0.000    0.000    0.000 
#
# Total GULP energy -178820.762532 kJ/mol
# GULP energy per Si atom -5588.148829 kJ/mol
# Density = 2.403130 g / cm^3
# Si number density = 24.086126 Si / 1000 Ang^3
#
#
#
# Elastic Constant Matrix: (Units=GPa)
#
#
# Indices 1 2 3 4 5 6 
#
# 1 96.9977 -0.9833 49.6676 0.0000 10.0443 0.0000
# 2 -0.9833 66.3378 -2.2661 0.0000 -0.1055 0.0000
# 3 49.6676 -2.2661 130.4037 0.0000 10.7032 0.0000
# 4 0.0000 0.0000 0.0000 4.2070 0.0000 -6.8577
# 5 10.0443 -0.1055 10.7032 0.0000 48.8842 0.0000
# 6 0.0000 0.0000 0.0000 -6.8577 0.0000 12.0693
#
#
#
# Elastic Compliance Matrix: (Units=1/GPa)
#
#
# Indices 1 2 3 4 5 6 
#
# 1 0.012930 0.000025 -0.004792 0.000000 -0.001607 0.000000
# 2 0.000025 0.015083 0.000255 0.000000 -0.000028 0.000000
# 3 -0.004792 0.000255 0.009590 0.000000 -0.001114 0.000000
# 4 0.000000 0.000000 0.000000 3.220405 0.000000 1.829812
# 5 -0.001607 -0.000028 -0.001114 0.000000 0.021031 0.000000
# 6 0.000000 0.000000 0.000000 1.829812 0.000000 1.122541
#
#
# Mechanical properties :
#
#
# Convention : Reuss Voigt Hill
#
# Bulk Modulus (GPa) = 34.99097 42.95282 38.97189
# Shear Modulus (GPa) = 1.13119 29.52019 15.32569
#
# Velocity S-wave (km/s) = 0.68605 3.50467 2.52521
# Velocity P-wave (km/s) = 3.89699 5.85224 4.97168
#
# Compressibility (1/GPa) = 0.02857881
#
# Stress axis : x y z
#
# Youngs Moduli (GPa) = 77.33841 66.29804 104.27848
#
# Poissons Ratio (x) = -0.00168 0.49975
# Poissons Ratio (y) = -0.00196 -0.02657
# Poissons Ratio (z) = 0.37064 -0.01689
#
# Static dielectric constant tensor:
#      x y z
#    x 1.944490 0.000000 0.009870 
#    y 0.000000 2.096230 0.000000 
#    z 0.009870 0.000000 1.925070 
# 
# From -- ./inp_files/250129.got.cif
#   From: 2010.05.17/outbox.cif.g08.bks.cpg/sg12_126_cif.got.tgz:250129.got - 2010.06.03 13:09:07.
