data_PCOD9180291
_publ_section_title
;
Structure prediction by ZEFSAII (Michael W. Deem and Ramdas Pophale) SiO2 
 PCOD9180291
Probable space group: C 2/M
;
_chemical_formula_sum "Si O2"
_cell_formula_units_Z 56
_cell_length_a 28.641195
_cell_length_b 8.710688
_cell_length_c 21.351996
_cell_angle_alpha 90.000000
_cell_angle_beta 138.210207
_cell_angle_gamma 90.000000
_cell_volume 3549.905862
_symmetry_space_group_name_H-M "C 2/M"
_symmetry_group_IT_number 12
_symmetry_cell_setting 'monoclinic'
loop_
_space_group_symop_operation_xyz
x,y,z
-x,y,-z
-x,-y,-z
x,-y,z
1/2+x,1/2+y,z
1/2-x,1/2+y,-z
1/2-x,1/2-y,-z
1/2+x,1/2-y,z
loop_
_atom_site_type_symbol
_atom_site_label
_atom_site_fract_x
_atom_site_fract_y
_atom_site_fract_z
Si Si1 0.788055 0.183598 0.476522
Si Si2 0.151998 0.315314 0.273913
Si Si3 0.216061 0.684390 0.902355
Si Si4 0.418550 0.316448 0.920081
Si Si5 0.080785 0.314858 0.335993
Si Si6 0.156068 0.684003 0.032570
Si Si7 0.078475 0.686393 0.826430
O O1 0.750000 0.250000 0.500000
O O2 0.733983 0.224214 0.367021
O O3 0.866112 0.248916 0.559161
O O4 0.790091 0.000000 0.482684
O O5 0.146739 0.500000 0.261788
O O6 0.118581 0.235847 0.180830
O O7 0.110375 0.274006 0.296315
O O8 0.220742 0.500000 0.906637
O O9 0.134436 0.728577 0.828486
O O10 0.250000 0.750000 0.000000
O O11 0.265302 0.751852 0.897781
O O12 0.415924 0.500000 0.923004
O O13 0.500000 0.268234 0.000000
O O14 0.380205 0.243019 0.941199
O O15 0.082849 0.500000 0.341822
O O16 0.000850 0.260569 0.262097
O O17 0.158553 0.500000 0.034557
O O18 0.110440 0.734100 0.925846
O O19 0.076380 0.500000 0.825936
#
# Coordination Sequence:
#
# PCOD9180291 Si02
#       7
#     8   8   8   8   8   8   8
#     4   9  17  29  44  64  88 115 148 184 223 264
#     4   9  18  31  46  63  88 123 156 183 214 263
#     4   9  16  28  45  66  92 120 152 188 225 266
#     4  11  23  34  45  66  93 119 151 190 226 262
#     4   9  16  28  46  68  92 118 149 182 220 265
#     4  10  19  32  48  64  88 124 159 188 222 265
#     4   8  15  27  45  68  92 119 148 180 220 266
#
# _framework density 15.775065
#
# number of rings (size 3 to 8) (size 9 to 14) (size 15 to 20)
#    0.000    2.714    0.000    4.286    0.000    5.143 
#    0.000    4.286    0.000    0.000    0.000    1.000 
#    0.000    8.000    0.000    0.000    0.000    0.000 
#
# Total GULP energy -155929.519682 kJ/mol
# GULP energy per Si atom -5568.911417 kJ/mol
# Density = 1.573916 g / cm^3
# Si number density = 15.775065 Si / 1000 Ang^3
#
#
#
# Elastic Constant Matrix: (Units=GPa)
#
#
# Indices 1 2 3 4 5 6 
#
# 1 123.9530 37.0146 65.1415 0.0000 24.9950 0.0000
# 2 37.0146 35.8916 33.8412 0.0000 5.9005 0.0000
# 3 65.1415 33.8412 117.4499 0.0000 26.2744 0.0000
# 4 0.0000 0.0000 0.0000 24.2172 0.0000 0.5295
# 5 24.9950 5.9005 26.2744 0.0000 27.1005 0.0000
# 6 0.0000 0.0000 0.0000 0.5295 0.0000 20.5880
#
#
#
# Elastic Compliance Matrix: (Units=1/GPa)
#
#
# Indices 1 2 3 4 5 6 
#
# 1 0.014550 -0.010665 -0.003211 0.000000 -0.007985 0.000000
# 2 -0.010665 0.046265 -0.009401 0.000000 0.008878 0.000000
# 3 -0.003211 -0.009401 0.015175 0.000000 -0.009704 0.000000
# 4 0.000000 0.000000 0.000000 0.041316 0.000000 -0.001063
# 5 -0.007985 0.008878 -0.009704 0.000000 0.051739 0.000000
# 6 0.000000 0.000000 0.000000 -0.001063 0.000000 0.048599
#
#
# Mechanical properties :
#
#
# Convention : Reuss Voigt Hill
#
# Bulk Modulus (GPa) = 33.97272 61.03212 47.50242
# Shear Modulus (GPa) = 18.24748 23.80096 21.02422
#
# Velocity S-wave (km/s) = 3.40476 3.88850 3.65465
# Velocity P-wave (km/s) = 6.08597 7.67682 6.92721
#
# Compressibility (1/GPa) = 0.02943538
#
# Stress axis : x y z
#
# Youngs Moduli (GPa) = 68.72979 21.61445 65.89930
#
# Poissons Ratio (x) = 0.23052 0.21157
# Poissons Ratio (y) = 0.73302 0.61955
# Poissons Ratio (z) = 0.22066 0.20321
#
# Static dielectric constant tensor:
#      x y z
#    x 1.536120 0.000000 0.023770 
#    y 0.000000 1.531390 0.000000 
#    z 0.023770 0.000000 1.534080 
# 
# From -- ./inp_files/291935.got.cif
#   From: 2010.05.17/outbox.cif.g08.bks.cpg/sg12_146_cif.got.tgz:291935.got - 2010.06.03 13:09:07.
