data_PCOD9180297
_publ_section_title
;
Structure prediction by ZEFSAII (Michael W. Deem and Ramdas Pophale) SiO2 
 PCOD9180297
Probable space group: C 2/M
;
_chemical_formula_sum "Si O2"
_cell_formula_units_Z 64
_cell_length_a 13.734463
_cell_length_b 23.725995
_cell_length_c 10.690252
_cell_angle_alpha 90.000000
_cell_angle_beta 64.818507
_cell_angle_gamma 90.000000
_cell_volume 3152.503818
_symmetry_space_group_name_H-M "C 2/M"
_symmetry_group_IT_number 12
_symmetry_cell_setting 'monoclinic'
loop_
_space_group_symop_operation_xyz
x,y,z
-x,y,-z
-x,-y,-z
x,-y,z
1/2+x,1/2+y,z
1/2-x,1/2+y,-z
1/2-x,1/2-y,-z
1/2+x,1/2-y,z
loop_
_atom_site_type_symbol
_atom_site_label
_atom_site_fract_x
_atom_site_fract_y
_atom_site_fract_z
Si Si1 0.129345 0.563779 0.935939
Si Si2 0.571975 0.065190 0.335795
Si Si3 0.984329 0.263895 0.870669
Si Si4 0.610511 0.871609 0.716547
Si Si5 0.246936 0.660969 0.254224
Si Si6 0.117744 0.777336 0.304963
Si Si7 0.697994 0.688244 0.518748
Si Si8 0.736684 0.831560 0.987084
O O1 0.154899 0.500000 0.950382
O O2 0.163744 0.583623 0.780016
O O3 0.185563 0.607226 0.996033
O O4 0.000000 0.570428 0.000000
O O5 0.500000 0.063037 0.500000
O O6 0.493463 0.098731 0.285124
O O7 0.677067 0.103748 0.297863
O O8 0.593068 0.000000 0.286150
O O9 0.982624 0.233524 0.735011
O O10 0.864184 0.289745 0.943790
O O11 0.068210 0.315830 0.812299
O O12 0.000000 0.237640 0.000000
O O13 0.700699 0.851436 0.572513
O O14 0.164915 0.714645 0.307143
O O15 0.327553 0.667850 0.326221
O O16 0.295476 0.666903 0.088586
O O17 0.120158 0.807864 0.439389
O O18 0.196175 0.812493 0.169761
O O19 0.750000 0.750000 0.500000
#
# Coordination Sequence:
#
# PCOD9180297 Si02
#       8
#     8   8   8   8   8   8   8   8
#     4  11  20  31  49  74 106 143 181 210 241 296
#     4  11  21  31  46  72 104 142 183 211 238 291
#     4  11  18  29  49  74  94 128 174 211 254 299
#     4  12  18  33  50  68 102 138 180 210 244 298
#     4  10  19  32  48  67  94 131 179 210 252 286
#     4  10  20  33  51  68  96 131 177 216 260 303
#     4  10  21  34  49  68  92 134 178 218 261 303
#     4  11  18  32  49  73  99 135 172 215 251 298
#
# _framework density 20.301324000000001
#
# number of rings (size 3 to 8) (size 9 to 14) (size 15 to 20)
#    0.000    1.250    7.500    1.875    0.000    2.500 
#    0.000    0.000    0.000    0.000    0.000    0.000 
#    0.000    0.500    0.000   12.875    0.500   22.625 
#
# Total GULP energy -178487.940073 kJ/mol
# GULP energy per Si atom -5577.748127 kJ/mol
# Density = 2.025512 g / cm^3
# Si number density = 20.301324 Si / 1000 Ang^3
#
#
#
# Elastic Constant Matrix: (Units=GPa)
#
#
# Indices 1 2 3 4 5 6 
#
# 1 81.6193 50.3026 45.3822 0.0000 33.3281 0.0000
# 2 50.3026 115.2187 26.1166 0.0000 9.7174 0.0000
# 3 45.3822 26.1166 111.0384 0.0000 47.1843 0.0000
# 4 0.0000 0.0000 0.0000 11.7040 0.0000 -6.8147
# 5 33.3281 9.7174 47.1843 0.0000 41.8795 0.0000
# 6 0.0000 0.0000 0.0000 -6.8147 0.0000 20.4313
#
#
#
# Elastic Compliance Matrix: (Units=1/GPa)
#
#
# Indices 1 2 3 4 5 6 
#
# 1 0.025658 -0.009538 -0.000972 0.000000 -0.017110 0.000000
# 2 -0.009538 0.012721 -0.002043 0.000000 0.006941 0.000000
# 3 -0.000972 -0.002043 0.017945 0.000000 -0.018970 0.000000
# 4 0.000000 0.000000 0.000000 0.106032 0.000000 0.035366
# 5 -0.017110 0.006941 -0.018970 0.000000 0.057257 0.000000
# 6 0.000000 0.000000 0.000000 0.035366 0.000000 0.060741
#
#
# Mechanical properties :
#
#
# Convention : Reuss Voigt Hill
#
# Bulk Modulus (GPa) = 32.03471 61.27546 46.65509
# Shear Modulus (GPa) = 15.82945 27.20796 21.51870
#
# Velocity S-wave (km/s) = 2.79538 3.66485 3.25924
# Velocity P-wave (km/s) = 5.12179 6.93950 6.09875
#
# Compressibility (1/GPa) = 0.03121614
#
# Stress axis : x y z
#
# Youngs Moduli (GPa) = 38.97441 78.60921 55.72592
#
# Poissons Ratio (x) = 0.74980 0.05419
# Poissons Ratio (y) = 0.37175 0.11385
# Poissons Ratio (z) = 0.03790 0.16061
#
# Static dielectric constant tensor:
#      x y z
#    x 1.784730 0.000000 0.033730 
#    y 0.000000 1.701270 0.000000 
#    z 0.033730 0.000000 1.836990 
# 
# From -- ./inp_files/148636.got.cif
#   From: 2010.05.17/outbox.cif.g08.bks.cpg/sg12_75_cif.got.tgz:148636.got - 2010.06.03 13:09:07.
