data_PCOD9180931
_publ_section_title
;
Structure prediction by ZEFSAII (Michael W. Deem and Ramdas Pophale) SiO2 
 PCOD9180931
Probable space group: C 2/M
;
_chemical_formula_sum "Si O2"
_cell_formula_units_Z 64
_cell_length_a 24.335221
_cell_length_b 11.233488
_cell_length_c 11.829965
_cell_angle_alpha 90.000000
_cell_angle_beta 90.384756
_cell_angle_gamma 90.000000
_cell_volume 3233.877672
_symmetry_space_group_name_H-M "C 2/M"
_symmetry_group_IT_number 12
_symmetry_cell_setting 'monoclinic'
loop_
_space_group_symop_operation_xyz
x,y,z
-x,y,-z
-x,-y,-z
x,-y,z
1/2+x,1/2+y,z
1/2-x,1/2+y,-z
1/2-x,1/2-y,-z
1/2+x,1/2-y,z
loop_
_atom_site_type_symbol
_atom_site_label
_atom_site_fract_x
_atom_site_fract_y
_atom_site_fract_z
Si Si1 0.646480 0.133097 0.292794
Si Si2 0.856066 0.363674 0.315989
Si Si3 0.249069 0.243846 0.205629
Si Si4 0.518397 0.631581 0.131853
Si Si5 0.563246 0.144524 0.484260
Si Si6 0.699578 0.370566 0.991355
Si Si7 0.606799 0.788923 0.063147
Si Si8 0.044014 0.368996 0.853841
O O1 0.698976 0.219589 0.286407
O O2 0.594436 0.172215 0.367691
O O3 0.627504 0.129641 0.162797
O O4 0.662171 0.000000 0.331545
O O5 0.839612 0.500000 0.342974
O O6 0.802386 0.292790 0.277007
O O7 0.893486 0.315475 0.419176
O O8 0.899503 0.368932 0.214546
O O9 0.230870 0.145345 0.111606
O O10 0.262982 0.351258 0.118358
O O11 0.509654 0.500000 0.181832
O O12 0.581150 0.672666 0.123820
O O13 0.488174 0.748785 0.180239
O O14 0.500000 0.623822 0.000000
O O15 0.500000 0.186602 0.500000
O O16 0.560140 0.000000 0.493330
O O17 0.673443 0.500000 0.985114
O O18 0.655729 0.264033 0.989549
O O19 0.562090 0.851912 0.984243
O O20 0.017985 0.500000 0.833479
#
# Coordination Sequence:
#
# PCOD9180931 Si02
#       8
#     8   8   8   8   8   8   8   8
#     4  10  21  35  54  84 117 147 191 245 292 341
#     4  10  20  36  57  82 113 147 195 245 289 350
#     4  10  20  34  52  82 112 152 190 233 292 337
#     4   9  19  33  48  73 112 152 192 236 285 351
#     4   9  20  38  59  81 109 148 189 241 304 353
#     4  10  19  32  51  77 115 155 189 222 281 357
#     4  10  19  32  52  79 113 151 187 234 288 350
#     4  10  20  33  52  82 114 149 192 241 295 350
#
# _framework density 19.790482000000001
#
# number of rings (size 3 to 8) (size 9 to 14) (size 15 to 20)
#    0.000    2.250    1.250    1.500    1.750    3.750 
#    0.000    0.000    0.000    0.000    0.000    8.750 
#    0.000    0.000    0.000    0.000    0.000    0.000 
#
# Total GULP energy -178208.641922 kJ/mol
# GULP energy per Si atom -5569.020060 kJ/mol
# Density = 1.974544 g / cm^3
# Si number density = 19.790482 Si / 1000 Ang^3
#
#
#
# Elastic Constant Matrix: (Units=GPa)
#
#
# Indices 1 2 3 4 5 6 
#
# 1 103.2884 28.7219 30.0615 0.0000 -12.2195 0.0000
# 2 28.7219 97.2235 14.1287 0.0000 -8.0820 0.0000
# 3 30.0615 14.1287 55.5460 0.0000 -2.7323 0.0000
# 4 0.0000 0.0000 0.0000 8.0364 0.0000 -5.8293
# 5 -12.2195 -8.0820 -2.7323 0.0000 29.1280 0.0000
# 6 0.0000 0.0000 0.0000 -5.8293 0.0000 23.1767
#
#
#
# Elastic Compliance Matrix: (Units=1/GPa)
#
#
# Indices 1 2 3 4 5 6 
#
# 1 0.012599 -0.002518 -0.005980 0.000000 0.004026 0.000000
# 2 -0.002518 0.011403 -0.001441 0.000000 0.001972 0.000000
# 3 -0.005980 -0.001441 0.021562 0.000000 -0.000886 0.000000
# 4 0.000000 0.000000 0.000000 0.152201 0.000000 0.038281
# 5 0.004026 0.001972 -0.000886 0.000000 0.036484 0.000000
# 6 0.000000 0.000000 0.000000 0.038281 0.000000 0.052775
#
#
# Mechanical properties :
#
#
# Convention : Reuss Voigt Hill
#
# Bulk Modulus (GPa) = 38.93103 44.65358 41.79231
# Shear Modulus (GPa) = 15.84971 24.27793 20.06382
#
# Velocity S-wave (km/s) = 2.83304 3.50630 3.18749
# Velocity P-wave (km/s) = 5.51505 6.24534 5.89152
#
# Compressibility (1/GPa) = 0.02568645
#
# Stress axis : x y z
#
# Youngs Moduli (GPa) = 79.37446 87.69761 46.37746
#
# Poissons Ratio (x) = 0.22084 0.27733
# Poissons Ratio (y) = 0.19988 0.06681
# Poissons Ratio (z) = 0.47464 0.12633
#
# Static dielectric constant tensor:
#      x y z
#    x 1.748910 0.000000 -0.013370 
#    y 0.000000 1.708340 0.000000 
#    z -0.013370 0.000000 1.724970 
# 
# From -- ./inp_files/174655.got.cif
#   From: 2010.05.17/outbox.cif.g08.bks.cpg/sg12_88_cif.got.tgz:174655.got - 2010.06.03 13:09:07.
