data_PCOD9180251
_publ_section_title
;
Structure prediction by ZEFSAII (Michael W. Deem and Ramdas Pophale) SiO2 
 PCOD9180251
Probable space group: C 2/M
;
_chemical_formula_sum "Si O2"
_cell_formula_units_Z 44
_cell_length_a 5.118370
_cell_length_b 31.704269
_cell_length_c 16.951046
_cell_angle_alpha 90.000000
_cell_angle_beta 89.576319
_cell_angle_gamma 90.000000
_cell_volume 2750.641873
_symmetry_space_group_name_H-M "C 2/M"
_symmetry_group_IT_number 12
_symmetry_cell_setting 'monoclinic'
loop_
_space_group_symop_operation_xyz
x,y,z
-x,y,-z
-x,-y,-z
x,-y,z
1/2+x,1/2+y,z
1/2-x,1/2+y,-z
1/2-x,1/2-y,-z
1/2+x,1/2-y,z
loop_
_atom_site_type_symbol
_atom_site_label
_atom_site_fract_x
_atom_site_fract_y
_atom_site_fract_z
Si Si1 0.397999 0.630531 0.910171
Si Si2 0.923448 0.448997 0.316375
Si Si3 0.885238 0.415600 0.850711
Si Si4 0.036241 0.772207 0.094535
Si Si5 0.077447 0.948924 0.586629
Si Si6 0.753556 0.500000 0.943997
O O1 0.633708 0.614413 0.854761
O O2 0.365392 0.680276 0.894877
O O3 0.129866 0.605158 0.896781
O O4 0.500000 0.624928 0.000000
O O5 0.927453 0.500000 0.304314
O O6 0.638580 0.436620 0.348264
O O7 0.009247 0.427055 0.235758
O O8 0.134888 0.438532 0.383516
O O9 0.779906 0.458459 0.891037
O O10 0.249945 0.739466 0.125852
O O11 0.000000 0.767098 0.000000
O O12 0.000000 0.933247 0.500000
O O13 0.066944 0.000000 0.582943
O O14 0.500000 0.500000 0.000000
O O15 0.000000 0.500000 0.000000
#
# Coordination Sequence:
#
# PCOD9180251 Si02
#       6
#     8   8   8   8   8   4
#     4  11  22  34  50  68  92 120 162 208 241 282
#     4  10  19  32  46  64  90 121 156 194 236 276
#     4  12  22  35  47  66  92 127 165 204 243 270
#     4   9  17  31  50  70  88 110 143 191 247 297
#     4   9  17  29  48  68  86 109 148 196 237 280
#     4  12  24  36  48  60  83 126 175 214 238 258
#
# _framework density 15.996268000000001
#
# number of rings (size 3 to 8) (size 9 to 14) (size 15 to 20)
#    0.000    1.636    0.909    6.000    0.000    5.091 
#    0.000    0.000    0.000    0.000    0.000    0.000 
#    0.000    0.000    0.000    0.000    0.000  229.091 
#
# Total GULP energy -122747.885635 kJ/mol
# GULP energy per Si atom -5579.449347 kJ/mol
# Density = 1.595986 g / cm^3
# Si number density = 15.996268 Si / 1000 Ang^3
#
#
#
# Elastic Constant Matrix: (Units=GPa)
#
#
# Indices 1 2 3 4 5 6 
#
# 1 82.3443 22.2024 -8.2403 0.0000 0.9328 0.0000
# 2 22.2024 52.7674 10.1707 0.0000 4.5435 0.0000
# 3 -8.2403 10.1707 34.2875 0.0000 -3.2684 0.0000
# 4 0.0000 0.0000 0.0000 3.6674 0.0000 -4.9929
# 5 0.9328 4.5435 -3.2684 0.0000 19.6439 0.0000
# 6 0.0000 0.0000 0.0000 -4.9929 0.0000 16.9389
#
#
#
# Elastic Compliance Matrix: (Units=1/GPa)
#
#
# Indices 1 2 3 4 5 6 
#
# 1 0.014750 -0.007533 0.005973 0.000000 0.002036 0.000000
# 2 -0.007533 0.024603 -0.009772 0.000000 -0.006959 0.000000
# 3 0.005973 -0.009772 0.034231 0.000000 0.007672 0.000000
# 4 0.000000 0.000000 0.000000 0.455428 0.000000 0.134241
# 5 0.002036 -0.006959 0.007672 0.000000 0.053696 0.000000
# 6 0.000000 0.000000 0.000000 0.134241 0.000000 0.098604
#
#
# Mechanical properties :
#
#
# Convention : Reuss Voigt Hill
#
# Bulk Modulus (GPa) = 19.63812 24.18497 21.91154
# Shear Modulus (GPa) = 6.93532 17.73447 12.33489
#
# Velocity S-wave (km/s) = 2.08447 3.33327 2.77990
# Velocity P-wave (km/s) = 4.25402 5.47414 4.90219
#
# Compressibility (1/GPa) = 0.05092136
#
# Stress axis : x y z
#
# Youngs Moduli (GPa) = 67.79713 40.64508 29.21364
#
# Poissons Ratio (x) = 0.30617 -0.17450
# Poissons Ratio (y) = 0.51070 0.28547
# Poissons Ratio (z) = -0.40498 0.39717
#
# Static dielectric constant tensor:
#      x y z
#    x 1.550260 0.000000 0.003330 
#    y 0.000000 1.610130 0.000000 
#    z 0.003330 0.000000 1.528480 
# 
# From -- ./inp_files/191946.got.cif
#   From: 2010.05.17/outbox.cif.g08.bks.cpg/sg12_96_cif.got.tgz:191946.got - 2010.06.03 13:09:07.
