data_PCOD9180889
_publ_section_title
;
Structure prediction by ZEFSAII (Michael W. Deem and Ramdas Pophale) SiO2 
 PCOD9180889
Probable space group: C 2/M
;
_chemical_formula_sum "Si O2"
_cell_formula_units_Z 60
_cell_length_a 26.530027
_cell_length_b 14.531157
_cell_length_c 12.016197
_cell_angle_alpha 90.000000
_cell_angle_beta 126.588228
_cell_angle_gamma 90.000000
_cell_volume 3719.529420
_symmetry_space_group_name_H-M "C 2/M"
_symmetry_group_IT_number 12
_symmetry_cell_setting 'monoclinic'
loop_
_space_group_symop_operation_xyz
x,y,z
-x,y,-z
-x,-y,-z
x,-y,z
1/2+x,1/2+y,z
1/2-x,1/2+y,-z
1/2-x,1/2-y,-z
1/2+x,1/2-y,z
loop_
_atom_site_type_symbol
_atom_site_label
_atom_site_fract_x
_atom_site_fract_y
_atom_site_fract_z
Si Si1 0.576080 0.196333 0.710968
Si Si2 0.797276 0.606149 0.706971
Si Si3 0.606638 0.896212 0.973968
Si Si4 0.500000 0.174503 0.000000
Si Si5 0.351119 0.604732 0.501936
Si Si6 0.107509 0.280035 0.310004
Si Si7 0.935878 0.611003 0.533718
Si Si8 0.073166 0.898945 0.628681
O O1 0.607373 0.166162 0.866585
O O2 0.504497 0.158944 0.625741
O O3 0.597417 0.149354 0.622426
O O4 0.581244 0.306021 0.708226
O O5 0.809194 0.500000 0.685115
O O6 0.723080 0.620405 0.612087
O O7 0.833267 0.678639 0.677676
O O8 0.830808 0.613736 0.870656
O O9 0.600569 0.000000 0.924712
O O10 0.547877 0.878974 0.980493
O O11 0.452010 0.224424 0.852079
O O12 0.359805 0.500000 0.554731
O O13 0.378517 0.681354 0.619143
O O14 0.386379 0.610828 0.430326
O O15 0.094883 0.351302 0.394201
O O16 0.940737 0.500000 0.537086
O O17 0.000000 0.899988 0.500000
O O18 0.087985 0.000000 0.698257
#
# Coordination Sequence:
#
# PCOD9180889 Si02
#       8
#     8   8   8   4   8   8   8   8
#     4  11  18  31  48  78 107 137 171 208 263 312
#     4   9  20  35  54  80 105 140 182 213 255 314
#     4  10  19  32  51  76 112 145 170 206 257 321
#     4  10  21  30  49  76 112 140 173 206 259 320
#     4  10  20  37  57  76 101 137 184 229 260 298
#     4  11  19  34  53  79 108 139 173 213 264 316
#     4  11  20  29  48  78 113 139 162 207 268 324
#     4  10  19  33  53  77 100 130 178 228 263 299
#
# _framework density 16.131074000000002
#
# number of rings (size 3 to 8) (size 9 to 14) (size 15 to 20)
#    0.000    1.733    4.000    2.600    0.000    1.067 
#    0.000    1.000    0.000    3.200    0.000    0.000 
#    0.000    0.000    0.000    0.000    0.000    0.000 
#
# Total GULP energy -167132.692484 kJ/mol
# GULP energy per Si atom -5571.089749 kJ/mol
# Density = 1.609436 g / cm^3
# Si number density = 16.131074 Si / 1000 Ang^3
#
#
#
# Elastic Constant Matrix: (Units=GPa)
#
#
# Indices 1 2 3 4 5 6 
#
# 1 67.7859 42.8727 33.3318 0.0000 -0.2202 0.0000
# 2 42.8727 163.3701 62.3962 0.0000 -10.3491 0.0000
# 3 33.3318 62.3962 65.2950 0.0000 -8.3980 0.0000
# 4 0.0000 0.0000 0.0000 22.4695 0.0000 -5.9244
# 5 -0.2202 -10.3491 -8.3980 0.0000 21.4009 0.0000
# 6 0.0000 0.0000 0.0000 -5.9244 0.0000 27.8877
#
#
#
# Elastic Compliance Matrix: (Units=1/GPa)
#
#
# Indices 1 2 3 4 5 6 
#
# 1 0.020542 -0.002280 -0.008870 0.000000 -0.004372 0.000000
# 2 -0.002280 0.009917 -0.008108 0.000000 0.001590 0.000000
# 3 -0.008870 -0.008108 0.028514 0.000000 0.007177 0.000000
# 4 0.000000 0.000000 0.000000 0.047145 0.000000 0.010015
# 5 -0.004372 0.001590 0.007177 0.000000 0.050268 0.000000
# 6 0.000000 0.000000 0.000000 0.010015 0.000000 0.037986
#
#
# Mechanical properties :
#
#
# Convention : Reuss Voigt Hill
#
# Bulk Modulus (GPa) = 48.88276 63.73917 56.31096
# Shear Modulus (GPa) = 20.85889 24.87496 22.86693
#
# Velocity S-wave (km/s) = 3.59985 3.93116 3.76915
# Velocity P-wave (km/s) = 6.90274 7.75915 7.34344
#
# Compressibility (1/GPa) = 0.02045711
#
# Stress axis : x y z
#
# Youngs Moduli (GPa) = 48.68183 100.83759 35.07034
#
# Poissons Ratio (x) = 0.22991 0.31106
# Poissons Ratio (y) = 0.11100 0.28436
# Poissons Ratio (z) = 0.43178 0.81761
#
# Static dielectric constant tensor:
#      x y z
#    x 1.546030 0.000000 -0.005640 
#    y 0.000000 1.553110 0.000000 
#    z -0.005640 0.000000 1.534760 
# 
# From -- ./inp_files/183246.got.cif
#   From: 2010.05.17/outbox.cif.g08.bks.cpg/sg12_92_cif.got.tgz:183246.got - 2010.06.03 13:09:07.
