data_PCOD9180803
_publ_section_title
;
Structure prediction by ZEFSAII (Michael W. Deem and Ramdas Pophale) SiO2 
 PCOD9180803
Probable space group: C 2/M
;
_chemical_formula_sum "Si O2"
_cell_formula_units_Z 64
_cell_length_a 16.086924
_cell_length_b 7.491664
_cell_length_c 24.988392
_cell_angle_alpha 90.000000
_cell_angle_beta 99.556173
_cell_angle_gamma 90.000000
_cell_volume 2969.756476
_symmetry_space_group_name_H-M "C 2/M"
_symmetry_group_IT_number 12
_symmetry_cell_setting 'monoclinic'
loop_
_space_group_symop_operation_xyz
x,y,z
-x,y,-z
-x,-y,-z
x,-y,z
1/2+x,1/2+y,z
1/2-x,1/2+y,-z
1/2-x,1/2-y,-z
1/2+x,1/2-y,z
loop_
_atom_site_type_symbol
_atom_site_label
_atom_site_fract_x
_atom_site_fract_y
_atom_site_fract_z
Si Si1 0.264252 0.786778 0.439301
Si Si2 0.668681 0.714146 0.326903
Si Si3 0.545619 0.218256 0.558731
Si Si4 0.309564 0.780655 0.257849
Si Si5 0.713231 0.210784 0.865296
Si Si6 0.984805 0.711998 0.327264
Si Si7 0.608065 0.785107 0.062963
Si Si8 0.579695 0.781784 0.938227
O O1 0.250000 0.750000 0.500000
O O2 0.197141 0.718120 0.388813
O O3 0.357186 0.725505 0.432673
O O4 0.264546 0.000000 0.434407
O O5 0.674594 0.500000 0.328229
O O6 0.735103 0.777250 0.289749
O O7 0.571758 0.757442 0.306122
O O8 0.500000 0.279802 0.500000
O O9 0.507280 0.279949 0.610851
O O10 0.542881 0.000000 0.557349
O O11 0.295426 0.718825 0.195763
O O12 0.400169 0.721162 0.290062
O O13 0.308756 0.000000 0.257972
O O14 0.807603 0.231125 0.897705
O O15 0.644334 0.282489 0.900032
O O16 0.695962 0.000000 0.859834
O O17 0.973197 0.500000 0.330478
O O18 0.518232 0.726939 0.078225
O O19 0.606533 0.000000 0.062335
O O20 0.608626 0.726409 0.000893
O O21 0.580771 0.000000 0.938089
#
# Coordination Sequence:
#
# PCOD9180803 Si02
#       8
#     8   8   8   8   8   8   8   8
#     4  10  19  32  51  75 103 132 163 204 253 306
#     4  10  20  36  54  74 103 135 163 206 268 309
#     4   9  16  28  49  74  98 125 163 204 241 293
#     4   9  19  36  54  72 101 140 175 209 253 310
#     4  10  19  32  52  76 101 134 178 217 250 298
#     4  10  19  35  57  77  97 132 178 211 244 304
#     4   9  17  32  52  75 106 139 169 209 261 308
#     4   8  16  31  51  74 104 141 173 205 255 311
#
# _framework density 21.550588999999999
#
# number of rings (size 3 to 8) (size 9 to 14) (size 15 to 20)
#    0.000    2.625    1.250    1.875    0.000    2.500 
#    0.000    5.625    0.000    2.250    0.000    0.000 
#    0.000    0.000    0.000    0.000    0.000    0.000 
#
# Total GULP energy -178667.703691 kJ/mol
# GULP energy per Si atom -5583.365740 kJ/mol
# Density = 2.150154 g / cm^3
# Si number density = 21.550589 Si / 1000 Ang^3
#
#
#
# Elastic Constant Matrix: (Units=GPa)
#
#
# Indices 1 2 3 4 5 6 
#
# 1 191.4762 -4.7097 113.4957 0.0000 -4.8345 0.0000
# 2 -4.7097 54.4398 3.9580 0.0000 -0.8212 0.0000
# 3 113.4957 3.9580 165.2613 0.0000 -1.4586 0.0000
# 4 0.0000 0.0000 0.0000 5.6087 0.0000 6.1577
# 5 -4.8345 -0.8212 -1.4586 0.0000 13.5323 0.0000
# 6 0.0000 0.0000 0.0000 6.1577 0.0000 7.9328
#
#
#
# Elastic Compliance Matrix: (Units=1/GPa)
#
#
# Indices 1 2 3 4 5 6 
#
# 1 0.008979 0.001265 -0.006174 0.000000 0.002619 0.000000
# 2 0.001265 0.018595 -0.001302 0.000000 0.001440 0.000000
# 3 -0.006174 -0.001302 0.010312 0.000000 -0.001173 0.000000
# 4 0.000000 0.000000 0.000000 1.206487 0.000000 -0.936515
# 5 0.002619 0.001440 -0.001173 0.000000 0.074794 0.000000
# 6 0.000000 0.000000 0.000000 -0.936515 0.000000 0.853012
#
#
# Mechanical properties :
#
#
# Convention : Reuss Voigt Hill
#
# Bulk Modulus (GPa) = 39.26880 70.74057 55.00469
# Shear Modulus (GPa) = 2.27989 25.31032 13.79511
#
# Velocity S-wave (km/s) = 1.02967 3.43076 2.53282
# Velocity P-wave (km/s) = 4.43564 6.97066 5.84230
#
# Compressibility (1/GPa) = 0.02546551
#
# Stress axis : x y z
#
# Youngs Moduli (GPa) = 111.36677 53.77869 96.97588
#
# Poissons Ratio (x) = -0.06804 0.59872
# Poissons Ratio (y) = -0.14090 0.12622
# Poissons Ratio (z) = 0.68756 0.06999
#
# Static dielectric constant tensor:
#      x y z
#    x 1.758360 0.000000 -0.010730 
#    y 0.000000 1.838930 0.000000 
#    z -0.010730 0.000000 1.747420 
# 
# From -- ./inp_files/338788.got.cif
#   From: 2010.05.17/outbox.cif.g08.bks.cpg/sg12_170_cif.got.tgz:338788.got - 2010.06.03 13:09:07.
