data_PCOD9180510
_publ_section_title
;
Structure prediction by ZEFSAII (Michael W. Deem and Ramdas Pophale) SiO2 
 PCOD9180510
Probable space group: C 2/M
;
_chemical_formula_sum "Si O2"
_cell_formula_units_Z 64
_cell_length_a 10.246620
_cell_length_b 28.217785
_cell_length_c 12.120554
_cell_angle_alpha 90.000000
_cell_angle_beta 83.275947
_cell_angle_gamma 90.000000
_cell_volume 3480.394245
_symmetry_space_group_name_H-M "C 2/M"
_symmetry_group_IT_number 12
_symmetry_cell_setting 'monoclinic'
loop_
_space_group_symop_operation_xyz
x,y,z
-x,y,-z
-x,-y,-z
x,-y,z
1/2+x,1/2+y,z
1/2-x,1/2+y,-z
1/2-x,1/2-y,-z
1/2+x,1/2-y,z
loop_
_atom_site_type_symbol
_atom_site_label
_atom_site_fract_x
_atom_site_fract_y
_atom_site_fract_z
Si Si1 0.227924 0.944202 0.620495
Si Si2 0.297356 0.221265 0.387554
Si Si3 0.013659 0.793032 0.364335
Si Si4 0.840446 0.055378 0.900889
Si Si5 0.532676 0.398083 0.317009
Si Si6 0.277725 0.942831 0.868531
Si Si7 0.934941 0.555123 0.201437
Si Si8 0.315089 0.111617 0.408617
O O1 0.250788 0.929683 0.745186
O O2 0.312839 0.914184 0.526128
O O3 0.074271 0.932435 0.618630
O O4 0.253671 0.000000 0.605169
O O5 0.250000 0.250000 0.500000
O O6 0.166921 0.217135 0.326112
O O7 0.418622 0.251831 0.331818
O O8 0.337592 0.167791 0.414198
O O9 0.977382 0.844769 0.323867
O O10 0.000000 0.795899 0.500000
O O11 0.931962 0.083641 0.808227
O O12 0.693992 0.057235 0.861936
O O13 0.882410 0.000000 0.897514
O O14 0.820579 0.074285 0.026688
O O15 0.668283 0.395869 0.372246
O O16 0.430815 0.931136 0.873017
O O17 0.266721 0.000000 0.876304
O O18 0.949355 0.500000 0.234772
O O19 0.910408 0.586922 0.311280
#
# Coordination Sequence:
#
# PCOD9180510 Si02
#       8
#     8   8   8   8   8   8   8   8
#     4  11  21  31  45  70 108 144 165 197 248 300
#     4   9  17  32  49  71 101 128 166 210 252 304
#     4   9  17  32  51  72 103 128 164 212 258 307
#     4   9  17  31  53  73  94 132 177 213 241 287
#     4  10  19  32  50  72 100 131 169 209 250 293
#     4   9  19  33  46  68 103 137 171 210 248 282
#     4   9  17  32  51  72  99 133 171 205 245 295
#     4  10  20  33  49  73 104 131 169 204 245 303
#
# _framework density 18.388722000000001
#
# number of rings (size 3 to 8) (size 9 to 14) (size 15 to 20)
#    0.000    2.500    0.000    3.750    0.000    4.500 
#    9.000    3.750    0.000    0.000    0.000    0.875 
#   18.750    0.125    0.000    0.000    0.000    0.000 
#
# Total GULP energy -178488.192601 kJ/mol
# GULP energy per Si atom -5577.756019 kJ/mol
# Density = 1.834687 g / cm^3
# Si number density = 18.388722 Si / 1000 Ang^3
#
#
#
# Elastic Constant Matrix: (Units=GPa)
#
#
# Indices 1 2 3 4 5 6 
#
# 1 37.6906 23.3805 9.5368 0.0000 -5.4145 0.0000
# 2 23.3805 97.2665 45.2752 0.0000 -5.9177 0.0000
# 3 9.5368 45.2752 97.9102 0.0000 -13.5028 0.0000
# 4 0.0000 0.0000 0.0000 1.4858 0.0000 -6.2792
# 5 -5.4145 -5.9177 -13.5028 0.0000 20.3556 0.0000
# 6 0.0000 0.0000 0.0000 -6.2792 0.0000 25.0681
#
#
#
# Elastic Compliance Matrix: (Units=1/GPa)
#
#
# Indices 1 2 3 4 5 6 
#
# 1 0.032152 -0.008022 0.001580 0.000000 0.007268 0.000000
# 2 -0.008022 0.015103 -0.006485 0.000000 -0.002045 0.000000
# 3 0.001580 -0.006485 0.014151 0.000000 0.007922 0.000000
# 4 0.000000 0.000000 0.000000-11.484943 0.000000 -2.876796
# 5 0.007268 -0.002045 0.007922 0.000000 0.055721 0.000000
# 6 0.000000 0.000000 0.000000 -2.876796 0.000000 -0.680701
#
#
# Mechanical properties :
#
#
# Convention : Reuss Voigt Hill
#
# Bulk Modulus (GPa) = 28.12665 43.25026 35.68846
# Shear Modulus (GPa) = -0.41629 19.69354 9.63862
#
# Velocity S-wave (km/s) = -0.47631 3.27610 2.29194
# Velocity P-wave (km/s) = 3.87638 6.15479 5.14333
#
# Compressibility (1/GPa) = 0.03555347
#
# Stress axis : x y z
#
# Youngs Moduli (GPa) = 31.10184 66.21040 70.66817
#
# Poissons Ratio (x) = 0.53114 -0.11166
# Poissons Ratio (y) = 0.24950 0.45826
# Poissons Ratio (z) = -0.04914 0.42935
#
# Static dielectric constant tensor:
#      x y z
#    x 1.722060 0.000000 0.021250 
#    y 0.000000 1.610450 0.000000 
#    z 0.021250 0.000000 1.640740 
# 
# From -- ./inp_files/135334.got.cif
#   From: 2010.05.17/outbox.cif.g08.bks.cpg/sg12_68_cif.got.tgz:135334.got - 2010.06.03 13:09:07.
