data_PCOD9180859
_publ_section_title
;
Structure prediction by ZEFSAII (Michael W. Deem and Ramdas Pophale) SiO2 
 PCOD9180859
Probable space group: C 2/M
;
_chemical_formula_sum "Si O2"
_cell_formula_units_Z 52
_cell_length_a 25.168559
_cell_length_b 13.963399
_cell_length_c 18.409230
_cell_angle_alpha 90.000000
_cell_angle_beta 22.466988
_cell_angle_gamma 90.000000
_cell_volume 2472.408285
_symmetry_space_group_name_H-M "C 2/M"
_symmetry_group_IT_number 12
_symmetry_cell_setting 'monoclinic'
loop_
_space_group_symop_operation_xyz
x,y,z
-x,y,-z
-x,-y,-z
x,-y,z
1/2+x,1/2+y,z
1/2-x,1/2+y,-z
1/2-x,1/2-y,-z
1/2+x,1/2-y,z
loop_
_atom_site_type_symbol
_atom_site_label
_atom_site_fract_x
_atom_site_fract_y
_atom_site_fract_z
Si Si1 0.504786 0.209021 0.580730
Si Si2 0.500000 0.762683 0.000000
Si Si3 0.793674 0.107343 0.437787
Si Si4 0.780860 0.106655 0.227000
Si Si5 0.806716 0.168397 0.028374
Si Si6 0.528107 0.794253 0.808607
Si Si7 0.454943 0.395610 0.378844
O O1 0.500000 0.223320 0.500000
O O2 0.620550 0.128590 0.448031
O O3 0.349346 0.182896 0.801458
O O4 0.550989 0.306639 0.560494
O O5 0.371556 0.690433 0.147937
O O6 0.492544 0.824789 0.082503
O O7 0.634325 0.138914 0.631312
O O8 0.892321 0.191103 0.283597
O O9 0.831217 0.109074 0.476143
O O10 0.821772 0.000000 0.375632
O O11 0.797901 0.116430 0.117960
O O12 0.821668 0.000000 0.197582
O O13 0.906081 0.115514 0.846078
O O14 0.886602 0.268117 0.946218
O O15 0.453664 0.500000 0.415757
#
# Coordination Sequence:
#
# PCOD9180859 Si02
#       7
#     8   4   8   8   8   8   8
#     4  10  21  35  51  74 102 131 166 207 251 296
#     4  10  19  32  51  76 106 132 161 200 251 298
#     4   9  18  33  53  75  98 131 171 204 244 296
#     4  10  20  33  52  77 104 132 162 202 250 297
#     4   9  19  34  52  73 100 133 169 204 243 295
#     4   9  18  33  52  74 104 134 161 205 250 290
#     4  10  19  33  54  74  96 132 172 208 245 291
#
# _framework density 21.032125000000001
#
# number of rings (size 3 to 8) (size 9 to 14) (size 15 to 20)
#    0.000    2.462    0.000    2.077    0.000    8.000 
#    0.000    1.154    0.000    5.538    0.000    0.000 
#    0.000    0.000    0.000    0.000    0.000    0.000 
#
# Total GULP energy -145138.833093 kJ/mol
# GULP energy per Si atom -5582.262811 kJ/mol
# Density = 2.098426 g / cm^3
# Si number density = 21.032125 Si / 1000 Ang^3
#
#
#
# Elastic Constant Matrix: (Units=GPa)
#
#
# Indices 1 2 3 4 5 6 
#
# 1 34.7267 -2.5327 -5.8887 0.0000 1.2794 0.0000
# 2 -2.5327 45.7058 -3.0752 0.0000 4.5614 0.0000
# 3 -5.8887 -3.0752 94.1759 -0.0001 -21.5330 0.0000
# 4 0.0000 0.0000 -0.0001 10.5410 0.0000 0.5161
# 5 1.2794 4.5614 -21.5330 0.0000 19.7778 0.0000
# 6 0.0000 0.0000 0.0000 0.5161 0.0000 10.2904
#
#
#
# Elastic Compliance Matrix: (Units=1/GPa)
#
#
# Indices 1 2 3 4 5 6 
#
# 1 0.029245 0.001775 0.001811 0.000000 -0.000329 0.000000
# 2 0.001775 0.022528 -0.000489 0.000000 -0.005843 0.000000
# 3 0.001811 -0.000489 0.014266 0.000000 0.015528 0.000000
# 4 0.000000 0.000000 0.000000 0.095101 0.000000 -0.004770
# 5 -0.000329 -0.005843 0.015528 0.000000 0.068836 0.000000
# 6 0.000000 0.000000 0.000000 -0.004770 0.000000 0.097417
#
#
# Mechanical properties :
#
#
# Convention : Reuss Voigt Hill
#
# Bulk Modulus (GPa) = 13.84403 16.84613 15.34508
# Shear Modulus (GPa) = 14.48113 20.52884 17.50499
#
# Velocity S-wave (km/s) = 2.62682 3.12760 2.88809
# Velocity P-wave (km/s) = 3.97453 4.59017 4.29340
#
# Compressibility (1/GPa) = 0.07223329
#
# Stress axis : x y z
#
# Youngs Moduli (GPa) = 34.19383 44.38984 70.09624
#
# Poissons Ratio (x) = -0.07880 -0.12697
# Poissons Ratio (y) = -0.06070 0.03431
# Poissons Ratio (z) = -0.06194 0.02173
#
# Static dielectric constant tensor:
#      x y z
#    x 1.778210 0.000000 0.001910 
#    y 0.000000 1.731840 0.000000 
#    z 0.001910 0.000000 1.787860 
# 
# From -- ./inp_files/316471.got.cif
#   From: 2010.05.17/outbox.cif.g08.bks.cpg/sg12_159_cif.got.tgz:316471.got - 2010.06.03 13:09:07.
