data_PCOD9180600
_publ_section_title
;
Structure prediction by ZEFSAII (Michael W. Deem and Ramdas Pophale) SiO2 
 PCOD9180600
Probable space group: C 2/M
;
_chemical_formula_sum "Si O2"
_cell_formula_units_Z 48
_cell_length_a 18.314035
_cell_length_b 8.065438
_cell_length_c 19.769792
_cell_angle_alpha 90.000000
_cell_angle_beta 46.259577
_cell_angle_gamma 90.000000
_cell_volume 2109.792037
_symmetry_space_group_name_H-M "C 2/M"
_symmetry_group_IT_number 12
_symmetry_cell_setting 'monoclinic'
loop_
_space_group_symop_operation_xyz
x,y,z
-x,y,-z
-x,-y,-z
x,-y,z
1/2+x,1/2+y,z
1/2-x,1/2+y,-z
1/2-x,1/2-y,-z
1/2+x,1/2-y,z
loop_
_atom_site_type_symbol
_atom_site_label
_atom_site_fract_x
_atom_site_fract_y
_atom_site_fract_z
Si Si1 0.812316 0.687620 0.854031
Si Si2 0.468021 0.798961 0.322674
Si Si3 0.315152 0.700753 0.300727
Si Si4 0.380029 0.181560 0.965546
Si Si5 0.937748 0.813350 0.101770
Si Si6 0.592990 0.797530 0.488007
O O1 0.798680 0.500000 0.836248
O O2 0.705662 0.781720 0.923346
O O3 0.915347 0.760372 0.757744
O O4 0.834540 0.675917 0.919821
O O5 0.394699 0.747855 0.308410
O O6 0.423944 0.747453 0.423383
O O7 0.474108 0.000000 0.316342
O O8 0.314810 0.500000 0.296502
O O9 0.350496 0.761898 0.203825
O O10 0.202632 0.757287 0.391617
O O11 0.425467 0.000000 0.946748
O O12 0.466972 0.317083 0.908023
O O13 0.909831 0.000000 0.098752
O O14 0.000000 0.733197 0.000000
O O15 0.500000 0.744226 0.500000
O O16 0.593333 0.000000 0.486848
#
# Coordination Sequence:
#
# PCOD9180600 Si02
#       6
#     8   8   8   8   8   8
#     4   9  18  31  50  76 104 138 175 214 263 316
#     4  10  19  34  58  84 110 144 182 224 273 324
#     4  10  20  35  57  83 109 141 183 230 273 320
#     4  10  19  32  50  75 106 139 176 219 266 313
#     4  10  21  35  52  76 108 146 184 222 268 323
#     4   9  19  35  56  83 111 141 181 226 272 325
#
# _framework density 22.751059000000001
#
# number of rings (size 3 to 8) (size 9 to 14) (size 15 to 20)
#    0.000    2.333    1.667    1.000    0.000    3.000 
#    0.000    5.000    0.000    2.000    0.000    0.000 
#    0.000    0.000    0.000    0.000    0.000    0.000 
#
# Total GULP energy -133778.597141 kJ/mol
# GULP energy per Si atom -5574.108214 kJ/mol
# Density = 2.269928 g / cm^3
# Si number density = 22.751059 Si / 1000 Ang^3
#
#
#
# Elastic Constant Matrix: (Units=GPa)
#
#
# Indices 1 2 3 4 5 6 
#
# 1 64.1553 0.2551 53.4395 0.0000 -6.9035 0.0001
# 2 0.2551 29.6933 6.1668 -0.0001 -1.5661 0.0002
# 3 53.4395 6.1668 245.1329 0.0000 -10.3706 0.0000
# 4 0.0000 -0.0001 0.0000 11.0430 0.0000 -2.9032
# 5 -6.9035 -1.5661 -10.3706 0.0000 43.6645 0.0000
# 6 0.0001 0.0002 0.0000 -2.9032 0.0000 24.6551
#
#
#
# Elastic Compliance Matrix: (Units=1/GPa)
#
#
# Indices 1 2 3 4 5 6 
#
# 1 0.019247 0.000802 -0.004128 0.000000 0.002091 0.000000
# 2 0.000802 0.033933 -0.000982 0.000000 0.001111 0.000000
# 3 -0.004128 -0.000982 0.005025 0.000000 0.000506 0.000000
# 4 0.000000 0.000000 0.000000 0.093448 0.000000 0.011004
# 5 0.002091 0.001111 0.000506 0.000000 0.023393 0.000000
# 6 0.000000 0.000000 0.000000 0.011004 0.000000 0.041855
#
#
# Mechanical properties :
#
#
# Convention : Reuss Voigt Hill
#
# Bulk Modulus (GPa) = 20.16463 50.96713 35.56588
# Shear Modulus (GPa) = 20.65723 34.48053 27.56888
#
# Velocity S-wave (km/s) = 3.01652 3.89724 3.48481
# Velocity P-wave (km/s) = 4.58420 6.53468 5.64433
#
# Compressibility (1/GPa) = 0.04959179
#
# Stress axis : x y z
#
# Youngs Moduli (GPa) = 51.95546 29.46969 198.99139
#
# Poissons Ratio (x) = -0.02364 0.82136
# Poissons Ratio (y) = -0.04168 0.19532
# Poissons Ratio (z) = 0.21445 0.02893
#
# Static dielectric constant tensor:
#      x y z
#    x 1.957120 0.000000 0.016070 
#    y 0.000000 1.866570 0.000000 
#    z 0.016070 0.000000 1.873560 
# 
# From -- ./inp_files/319577.got.cif
#   From: 2010.05.17/outbox.cif.g08.bks.cpg/sg12_160_cif.got.tgz:319577.got - 2010.06.03 13:09:07.
