data_PCOD9180946
_publ_section_title
;
Structure prediction by ZEFSAII (Michael W. Deem and Ramdas Pophale) SiO2 
 PCOD9180946
Probable space group: C 2/M
;
_chemical_formula_sum "Si O2"
_cell_formula_units_Z 56
_cell_length_a 21.080181
_cell_length_b 7.793061
_cell_length_c 15.673891
_cell_angle_alpha 90.000000
_cell_angle_beta 115.623313
_cell_angle_gamma 90.000000
_cell_volume 2321.669624
_symmetry_space_group_name_H-M "C 2/M"
_symmetry_group_IT_number 12
_symmetry_cell_setting 'monoclinic'
loop_
_space_group_symop_operation_xyz
x,y,z
-x,y,-z
-x,-y,-z
x,-y,z
1/2+x,1/2+y,z
1/2-x,1/2+y,-z
1/2-x,1/2-y,-z
1/2+x,1/2-y,z
loop_
_atom_site_type_symbol
_atom_site_label
_atom_site_fract_x
_atom_site_fract_y
_atom_site_fract_z
Si Si1 0.727322 0.707518 0.083071
Si Si2 0.827693 0.301311 0.492464
Si Si3 0.995338 0.695426 0.588100
Si Si4 0.996950 0.798519 0.225275
Si Si5 0.568535 0.290608 0.985174
Si Si6 0.781646 0.695238 0.284672
Si Si7 0.341779 0.798040 0.687389
O O1 0.727318 0.500000 0.090510
O O2 0.779665 0.772135 0.188682
O O3 0.750000 0.750000 0.000000
O O4 0.647085 0.769439 0.052935
O O5 0.805601 0.500000 0.475472
O O6 0.912035 0.307600 0.552901
O O7 0.814685 0.223441 0.390415
O O8 0.810273 0.232645 0.577724
O O9 0.021932 0.500000 0.594711
O O10 0.028389 0.767302 0.693164
O O11 0.000000 0.786464 0.500000
O O12 0.074798 0.721471 0.258797
O O13 0.946559 0.737338 0.121206
O O14 0.006563 0.000000 0.219722
O O15 0.569928 0.500000 0.991049
O O16 0.500000 0.235492 0.000000
O O17 0.808751 0.500000 0.295491
O O18 0.699370 0.697622 0.263977
O O19 0.325742 0.000000 0.683661
#
# Coordination Sequence:
#
# PCOD9180946 Si02
#       7
#     8   8   8   8   8   8   8
#     4  10  22  39  58  81 111 146 184 229 277 324
#     4   8  16  30  48  74 104 133 167 206 255 317
#     4   9  18  33  51  72 103 137 167 209 265 317
#     4  10  19  32  53  77 102 136 178 221 262 313
#     4   9  18  35  58  82 108 141 183 229 276 322
#     4  10  19  33  54  75  99 138 182 215 252 314
#     4  10  19  32  51  78 111 137 163 211 272 323
#
# _framework density 24.120571999999999
#
# number of rings (size 3 to 8) (size 9 to 14) (size 15 to 20)
#    0.000    2.571    0.000    3.000    0.000    4.286 
#    0.000    5.714    0.000    3.000    0.000    0.000 
#    0.000    0.000    0.000    0.000    0.000    0.000 
#
# Total GULP energy -156125.554273 kJ/mol
# GULP energy per Si atom -5575.912653 kJ/mol
# Density = 2.406567 g / cm^3
# Si number density = 24.120572 Si / 1000 Ang^3
#
#
#
# Elastic Constant Matrix: (Units=GPa)
#
#
# Indices 1 2 3 4 5 6 
#
# 1 39.5902 5.8818 29.1106 0.0000 -9.9005 0.0000
# 2 5.8818 48.3182 6.7951 0.0000 5.6117 0.0000
# 3 29.1106 6.7951 197.5146 0.0000 -15.2698 0.0000
# 4 0.0000 0.0000 0.0000 55.7027 0.0000 29.0625
# 5 -9.9005 5.6117 -15.2698 0.0000 39.6681 0.0000
# 6 0.0000 0.0000 0.0000 29.0625 0.0000 49.5602
#
#
#
# Elastic Compliance Matrix: (Units=1/GPa)
#
#
# Indices 1 2 3 4 5 6 
#
# 1 0.030313 -0.003925 -0.003818 0.000000 0.006651 0.000000
# 2 -0.003925 0.021737 -0.000498 0.000000 -0.004246 0.000000
# 3 -0.003818 -0.000498 0.005746 0.000000 0.001329 0.000000
# 4 0.000000 0.000000 0.000000 0.025866 0.000000 -0.015168
# 5 0.006651 -0.004246 0.001329 0.000000 0.027982 0.000000
# 6 0.000000 0.000000 0.000000 -0.015168 0.000000 0.029072
#
#
# Mechanical properties :
#
#
# Convention : Reuss Voigt Hill
#
# Bulk Modulus (GPa) = 24.20563 40.99979 32.60271
# Shear Modulus (GPa) = 29.24497 45.22857 37.23677
#
# Velocity S-wave (km/s) = 3.48580 4.33494 3.93335
# Velocity P-wave (km/s) = 5.12427 6.48771 5.84588
#
# Compressibility (1/GPa) = 0.04131270
#
# Stress axis : x y z
#
# Youngs Moduli (GPa) = 32.98923 46.00426 174.04741
#
# Poissons Ratio (x) = 0.18059 0.66459
# Poissons Ratio (y) = 0.12950 0.08660
# Poissons Ratio (z) = 0.12597 0.02289
#
# Static dielectric constant tensor:
#      x y z
#    x 2.012910 0.000000 -0.017370 
#    y 0.000000 1.926560 0.000000 
#    z -0.017370 0.000000 2.005560 
# 
# From -- ./inp_files/239021.got.cif
#   From: 2010.05.17/outbox.cif.g08.bks.cpg/sg12_120_cif.got.tgz:239021.got - 2010.06.03 13:09:07.
