data_PCOD9180958
_publ_section_title
;
Structure prediction by ZEFSAII (Michael W. Deem and Ramdas Pophale) SiO2 
 PCOD9180958
Probable space group: C 2/M
;
_chemical_formula_sum "Si O2"
_cell_formula_units_Z 48
_cell_length_a 14.332567
_cell_length_b 26.628088
_cell_length_c 10.978868
_cell_angle_alpha 90.000000
_cell_angle_beta 149.236042
_cell_angle_gamma 90.000000
_cell_volume 2143.232232
_symmetry_space_group_name_H-M "C 2/M"
_symmetry_group_IT_number 12
_symmetry_cell_setting 'monoclinic'
loop_
_space_group_symop_operation_xyz
x,y,z
-x,y,-z
-x,-y,-z
x,-y,z
1/2+x,1/2+y,z
1/2-x,1/2+y,-z
1/2-x,1/2-y,-z
1/2+x,1/2-y,z
loop_
_atom_site_type_symbol
_atom_site_label
_atom_site_fract_x
_atom_site_fract_y
_atom_site_fract_z
Si Si1 0.531538 0.076897 0.897828
Si Si2 0.406588 0.181551 0.131299
Si Si3 0.243159 0.341356 0.660682
Si Si4 0.059981 0.057661 0.697358
Si Si5 0.676458 0.442699 0.342145
Si Si6 0.063759 0.202331 0.887661
O O1 0.545502 0.137403 0.907470
O O2 0.364278 0.059166 0.628886
O O3 0.500000 0.060225 0.000000
O O4 0.722851 0.058602 0.059342
O O5 0.534329 0.168019 0.391015
O O6 0.191734 0.181871 0.922970
O O7 0.451234 0.237853 0.141392
O O8 0.292776 0.400371 0.725703
O O9 0.319488 0.311879 0.861500
O O10 0.364800 0.320844 0.683799
O O11 0.000000 0.081478 0.500000
O O12 0.974980 0.075270 0.729370
O O13 0.991550 0.000000 0.615985
O O14 0.642459 0.500000 0.264002
#
# Coordination Sequence:
#
# PCOD9180958 Si02
#       6
#     8   8   8   8   8   8
#     4  11  21  33  54  84 117 151 192 236 290 345
#     4  10  22  38  58  86 116 150 191 239 285 342
#     4  10  21  38  63  85 116 150 192 240 284 342
#     4  10  19  32  51  78 114 152 191 235 286 341
#     4  10  21  37  57  84 116 152 193 238 287 340
#     4  10  21  40  61  83 113 154 192 235 291 335
#
# _framework density 22.396080000000001
#
# number of rings (size 3 to 8) (size 9 to 14) (size 15 to 20)
#    0.000    1.833    1.667    2.500    2.333    0.667 
#    0.000    3.333    0.000    9.000    0.000    0.000 
#    0.000    0.000    0.000    0.000    0.000    0.000 
#
# Total GULP energy -134045.133261 kJ/mol
# GULP energy per Si atom -5585.213886 kJ/mol
# Density = 2.234511 g / cm^3
# Si number density = 22.396080 Si / 1000 Ang^3
#
#
#
# Elastic Constant Matrix: (Units=GPa)
#
#
# Indices 1 2 3 4 5 6 
#
# 1 47.5569 23.2275 16.2711 0.0000 15.4350 0.0000
# 2 23.2275 133.6854 -6.7005 0.0000 -3.8560 0.0000
# 3 16.2711 -6.7005 75.8503 0.0000 15.3091 0.0000
# 4 0.0000 0.0000 0.0000 5.0359 0.0000 25.6801
# 5 15.4350 -3.8560 15.3091 0.0000 44.6722 0.0000
# 6 0.0000 0.0000 0.0000 25.6801 0.0000 -11.5697
#
#
#
# Elastic Compliance Matrix: (Units=1/GPa)
#
#
# Indices 1 2 3 4 5 6 
#
# 1 0.028039 -0.005356 -0.004769 0.000000 -0.008516 0.000000
# 2 -0.005356 0.008545 0.001484 0.000000 0.002080 0.000000
# 3 -0.004769 0.001484 0.015018 0.000000 -0.003371 0.000000
# 4 0.000000 0.000000 0.000000 0.016120 0.000000 0.035780
# 5 -0.008516 0.002080 -0.003371 0.000000 0.026662 0.000000
# 6 0.000000 0.000000 0.000000 0.035780 0.000000 -0.007016
#
#
# Mechanical properties :
#
#
# Convention : Reuss Voigt Hill
#
# Bulk Modulus (GPa) = 29.13761 35.85432 32.49597
# Shear Modulus (GPa) = 43.06936 22.58064 32.82500
#
# Velocity S-wave (km/s) = 4.39005 3.17873 3.83254
# Velocity P-wave (km/s) = 6.22375 5.43289 5.84172
#
# Compressibility (1/GPa) = 0.03431991
#
# Stress axis : x y z
#
# Youngs Moduli (GPa) = 35.66424 117.02347 66.58504
#
# Poissons Ratio (x) = 0.62683 0.31756
# Poissons Ratio (y) = 0.19103 -0.09882
# Poissons Ratio (z) = 0.17009 -0.17368
#
# Static dielectric constant tensor:
#      x y z
#    x 1.853590 0.000000 0.006060 
#    y 0.000000 1.844390 0.000000 
#    z 0.006060 0.000000 1.782630 
# 
# From -- ./inp_files/149630.got.cif
#   From: 2010.05.17/outbox.cif.g08.bks.cpg/sg12_75_cif.got.tgz:149630.got - 2010.06.03 13:09:07.
