data_PCOD9180575
_publ_section_title
;
Structure prediction by ZEFSAII (Michael W. Deem and Ramdas Pophale) SiO2 
 PCOD9180575
Probable space group: C 2/M
;
_chemical_formula_sum "Si O2"
_cell_formula_units_Z 64
_cell_length_a 31.349690
_cell_length_b 8.975351
_cell_length_c 26.438449
_cell_angle_alpha 90.000000
_cell_angle_beta 149.922816
_cell_angle_gamma 90.000000
_cell_volume 3728.227655
_symmetry_space_group_name_H-M "C 2/M"
_symmetry_group_IT_number 12
_symmetry_cell_setting 'monoclinic'
loop_
_space_group_symop_operation_xyz
x,y,z
-x,y,-z
-x,-y,-z
x,-y,z
1/2+x,1/2+y,z
1/2-x,1/2+y,-z
1/2-x,1/2-y,-z
1/2+x,1/2-y,z
loop_
_atom_site_type_symbol
_atom_site_label
_atom_site_fract_x
_atom_site_fract_y
_atom_site_fract_z
Si Si1 0.209492 0.322703 0.580284
Si Si2 0.434918 0.178707 0.644819
Si Si3 0.617925 0.677489 0.841051
Si Si4 0.702831 0.176252 0.237480
Si Si5 0.028918 0.677251 0.120602
Si Si6 0.722057 0.322026 0.047194
Si Si7 0.381403 0.322682 0.694217
Si Si8 0.850689 0.177860 0.917074
O O1 0.209027 0.500000 0.590058
O O2 0.123293 0.280945 0.463037
O O3 0.230103 0.236294 0.652765
O O4 0.288346 0.295040 0.622761
O O5 0.529843 0.241807 0.739091
O O6 0.392869 0.246826 0.652026
O O7 0.435866 0.000000 0.649820
O O8 0.607771 0.500000 0.826416
O O9 0.693613 0.735061 0.882858
O O10 0.649989 0.711485 0.931150
O O11 0.609861 0.204093 0.167333
O O12 0.703869 0.260670 0.185487
O O13 0.711984 0.000000 0.239638
O O14 0.019773 0.500000 0.117671
O O15 0.051938 0.754254 0.197443
O O16 0.943227 0.746234 0.010689
O O17 0.738371 0.500000 0.061052
O O18 0.690597 0.285867 0.070981
O O19 0.394407 0.500000 0.703454
O O20 0.859710 0.000000 0.922769
#
# Coordination Sequence:
#
# PCOD9180575 Si02
#       8
#     8   8   8   8   8   8   8   8
#     4   9  20  36  52  72 101 139 178 214 254 300
#     4  11  21  33  52  77 105 137 172 210 255 306
#     4  10  20  35  56  80 105 133 166 205 251 304
#     4  10  21  35  51  73 103 138 176 218 258 297
#     4  10  20  33  49  73 106 140 174 212 255 302
#     4   9  20  37  54  76 105 134 165 203 251 306
#     4  10  19  32  50  74 105 138 175 214 251 299
#     4  11  21  33  53  77 103 137 174 211 254 307
#
# _framework density 17.166333000000002
#
# number of rings (size 3 to 8) (size 9 to 14) (size 15 to 20)
#    0.000    2.000    0.000    3.750    0.000    7.000 
#    0.000    0.000    0.000    0.750    0.000    5.250 
#    0.000    0.000    0.000    0.000    0.000    0.000 
#
# Total GULP energy -178743.299068 kJ/mol
# GULP energy per Si atom -5585.728096 kJ/mol
# Density = 1.712726 g / cm^3
# Si number density = 17.166333 Si / 1000 Ang^3
#
#
#
# Elastic Constant Matrix: (Units=GPa)
#
#
# Indices 1 2 3 4 5 6 
#
# 1 64.8801 49.0570 58.7403 0.0000 -16.3088 0.0000
# 2 49.0570 62.1434 60.2573 0.0000 -8.1735 0.0000
# 3 58.7403 60.2573 134.7289 0.0000 -14.4126 0.0000
# 4 0.0000 0.0000 0.0000 30.4894 0.0000 -1.5921
# 5 -16.3088 -8.1735 -14.4126 0.0000 19.6102 0.0000
# 6 0.0000 0.0000 0.0000 -1.5921 0.0000 27.3938
#
#
#
# Elastic Compliance Matrix: (Units=1/GPa)
#
#
# Indices 1 2 3 4 5 6 
#
# 1 0.049735 -0.030991 -0.005188 0.000000 0.024632 0.000000
# 2 -0.030991 0.047860 -0.009243 0.000000 -0.012619 0.000000
# 3 -0.005188 -0.009243 0.014049 0.000000 0.002158 0.000000
# 4 0.000000 0.000000 0.000000 0.032898 0.000000 0.001912
# 5 0.024632 -0.012619 0.002158 0.000000 0.067805 0.000000
# 6 0.000000 0.000000 0.000000 0.001912 0.000000 0.036616
#
#
# Mechanical properties :
#
#
# Convention : Reuss Voigt Hill
#
# Bulk Modulus (GPa) = 48.08006 66.42908 57.25457
# Shear Modulus (GPa) = 14.41996 21.74520 18.08258
#
# Velocity S-wave (km/s) = 2.90144 3.56298 3.24909
# Velocity P-wave (km/s) = 6.26846 7.46376 6.89208
#
# Compressibility (1/GPa) = 0.02079864
#
# Stress axis : x y z
#
# Youngs Moduli (GPa) = 20.10658 20.89434 71.17825
#
# Poissons Ratio (x) = 0.64754 0.36928
# Poissons Ratio (y) = 0.62313 0.65793
# Poissons Ratio (z) = 0.10432 0.19313
#
# Static dielectric constant tensor:
#      x y z
#    x 1.562860 0.000000 -0.005610 
#    y 0.000000 1.567260 0.000000 
#    z -0.005610 0.000000 1.570210 
# 
# From -- ./inp_files/353331.got.cif
#   From: 2010.05.17/outbox.cif.g08.bks.cpg/sg12_177_cif.got.tgz:353331.got - 2010.06.03 13:09:07.
