data_PCOD9180064
_publ_section_title
;
Structure prediction by ZEFSAII (Michael W. Deem and Ramdas Pophale) SiO2 
 PCOD9180064
Probable space group: C 2/M
;
_chemical_formula_sum "Si O2"
_cell_formula_units_Z 50
_cell_length_a 14.151134
_cell_length_b 9.714435
_cell_length_c 19.086816
_cell_angle_alpha 90.000000
_cell_angle_beta 63.012702
_cell_angle_gamma 90.000000
_cell_volume 2338.149113
_symmetry_space_group_name_H-M "C 2/M"
_symmetry_group_IT_number 12
_symmetry_cell_setting 'monoclinic'
loop_
_space_group_symop_operation_xyz
x,y,z
-x,y,-z
-x,-y,-z
x,-y,z
1/2+x,1/2+y,z
1/2-x,1/2+y,-z
1/2-x,1/2-y,-z
1/2+x,1/2-y,z
loop_
_atom_site_type_symbol
_atom_site_label
_atom_site_fract_x
_atom_site_fract_y
_atom_site_fract_z
Si Si1 0.548437 0.656624 0.806754
Si Si2 0.363164 0.842625 0.715116
Si Si3 0.811071 0.161287 0.865893
Si Si4 0.395998 0.840418 0.344211
Si Si5 0.284842 0.851737 0.584829
Si Si6 0.000000 0.500000 0.500000
Si Si7 0.882229 0.840519 0.060908
O O1 0.556813 0.500000 0.776132
O O2 0.423855 0.676468 0.866771
O O3 0.581210 0.765747 0.737601
O O4 0.614812 0.664158 0.855268
O O5 0.334387 0.729668 0.782090
O O6 0.489283 0.832854 0.657033
O O7 0.301361 0.831520 0.663291
O O8 0.347023 0.000000 0.748016
O O9 0.713509 0.245045 0.930553
O O10 0.786443 0.000000 0.868517
O O11 0.295484 0.765468 0.412163
O O12 0.371284 0.000000 0.343035
O O13 0.405248 0.882005 0.520754
O O14 0.229930 0.000000 0.591465
O O15 0.868403 0.000000 0.043594
O O16 0.000000 0.795495 0.000000
#
# Coordination Sequence:
#
# PCOD9180064 Si02
#       7
#     8   8   8   8   8   2   8
#     4   9  19  35  52  74 104 135 169 210 261 310
#     4   9  18  33  54  76 104 133 167 208 257 306
#     4  10  20  33  51  78 106 129 167 219 263 300
#     4  10  19  31  53  83 105 126 166 219 262 293
#     4   9  18  35  55  71 102 139 172 199 241 304
#     4   8  20  36  58  72 100 142 184 192 232 308
#     4  10  21  36  52  70  99 141 181 208 251 315
#
# _framework density 21.384436000000001
#
# number of rings (size 3 to 8) (size 9 to 14) (size 15 to 20)
#    0.480    2.080    0.000    1.920    0.000    7.360 
#    0.000    1.200    0.000    0.000    0.000    0.000 
#    0.000    0.000    0.000    0.000    0.000    0.000 
#
# Total GULP energy -139241.448299 kJ/mol
# GULP energy per Si atom -5569.657932 kJ/mol
# Density = 2.133576 g / cm^3
# Si number density = 21.384436 Si / 1000 Ang^3
#
#
#
# Elastic Constant Matrix: (Units=GPa)
#
#
# Indices 1 2 3 4 5 6 
#
# 1 96.5885 71.5506 26.7020 0.0000 -42.0359 0.0000
# 2 71.5506 124.5405 36.3372 0.0000 -32.9909 0.0000
# 3 26.7020 36.3372 70.0149 0.0000 -27.4464 0.0000
# 4 0.0000 0.0000 0.0000 10.4584 0.0000 -29.7313
# 5 -42.0359 -32.9909 -27.4464 0.0000 45.9990 0.0000
# 6 0.0000 0.0000 0.0000 -29.7313 0.0000 29.2344
#
#
#
# Elastic Compliance Matrix: (Units=1/GPa)
#
#
# Indices 1 2 3 4 5 6 
#
# 1 0.024601 -0.010513 0.002521 0.000000 0.016446 0.000000
# 2 -0.010513 0.014941 -0.004321 0.000000 -0.001470 0.000000
# 3 0.002521 -0.004321 0.019909 0.000000 0.011084 0.000000
# 4 0.000000 0.000000 0.000000 -0.050561 0.000000 -0.051420
# 5 0.016446 -0.001470 0.011084 0.000000 0.042328 0.000000
# 6 0.000000 0.000000 0.000000 -0.051420 0.000000 -0.018088
#
#
# Mechanical properties :
#
#
# Convention : Reuss Voigt Hill
#
# Bulk Modulus (GPa) = 28.71524 62.25813 45.48668
# Shear Modulus (GPa) = 72.08298 27.57529 49.82913
#
# Velocity S-wave (km/s) = 5.81217 3.59486 4.83241
# Velocity P-wave (km/s) = 7.64847 6.81232 7.24247
#
# Compressibility (1/GPa) = 0.03482472
#
# Stress axis : x y z
#
# Youngs Moduli (GPa) = 40.64814 66.93131 50.22929
#
# Poissons Ratio (x) = 0.70363 -0.12661
# Poissons Ratio (y) = 0.42733 0.21703
# Poissons Ratio (z) = -0.10246 0.28920
#
# Static dielectric constant tensor:
#      x y z
#    x 1.776740 0.000000 -0.019400 
#    y 0.000000 1.725010 0.000000 
#    z -0.019400 0.000000 1.878990 
# 
# From -- ./inp_files/338230.got.cif
#   From: 2010.05.17/outbox.cif.g08.bks.cpg/sg12_170_cif.got.tgz:338230.got - 2010.06.03 13:09:07.
