data_PCOD9180975
_publ_section_title
;
Structure prediction by ZEFSAII (Michael W. Deem and Ramdas Pophale) SiO2 
 PCOD9180975
Probable space group: C 2/M
;
_chemical_formula_sum "Si O2"
_cell_formula_units_Z 40
_cell_length_a 20.399888
_cell_length_b 7.461540
_cell_length_c 24.661273
_cell_angle_alpha 90.000000
_cell_angle_beta 32.871697
_cell_angle_gamma 90.000000
_cell_volume 2037.413978
_symmetry_space_group_name_H-M "C 2/M"
_symmetry_group_IT_number 12
_symmetry_cell_setting 'monoclinic'
loop_
_space_group_symop_operation_xyz
x,y,z
-x,y,-z
-x,-y,-z
x,-y,z
1/2+x,1/2+y,z
1/2-x,1/2+y,-z
1/2-x,1/2-y,-z
1/2+x,1/2-y,z
loop_
_atom_site_type_symbol
_atom_site_label
_atom_site_fract_x
_atom_site_fract_y
_atom_site_fract_z
Si Si1 0.544520 0.000000 0.880951
Si Si2 0.296693 0.793584 0.298610
Si Si3 0.657802 0.214108 0.613343
Si Si4 0.199998 0.500000 0.883675
Si Si5 0.064699 0.298713 0.403902
Si Si6 0.407537 0.781566 0.735716
O O1 0.577043 0.170525 0.820096
O O2 0.639848 0.000000 0.865096
O O3 0.412135 0.000000 0.997298
O O4 0.303484 0.716884 0.354295
O O5 0.204189 0.695742 0.323873
O O6 0.250238 0.000000 0.335123
O O7 0.750000 0.250000 0.500000
O O8 0.521455 0.269281 0.693600
O O9 0.652716 0.000000 0.622427
O O10 0.285818 0.672916 0.831990
O O11 0.013261 0.500000 0.435222
O O12 0.054156 0.222433 0.351710
O O13 0.000000 0.210814 0.500000
O O14 0.391455 0.000000 0.747503
#
# Coordination Sequence:
#
# PCOD9180975 Si02
#       6
#     4   8   8   4   8   8
#     4   9  20  38  62  84 106 145 194 253 289 337
#     4   9  18  36  54  76 109 147 181 235 283 330
#     4  10  21  35  55  81 119 154 185 227 286 352
#     4  11  20  40  64  84 112 149 198 243 301 339
#     4  10  19  32  51  79 114 146 184 230 282 346
#     4  10  21  37  56  84 116 151 190 239 283 342
#
# _framework density 19.632731
#
# number of rings (size 3 to 8) (size 9 to 14) (size 15 to 20)
#    0.600    1.600    2.000    1.200    1.400    2.800 
#    0.000    4.000    0.000    0.000    0.000    0.000 
#    0.000    0.000    0.000    0.000    0.000    0.000 
#
# Total GULP energy -111381.349111 kJ/mol
# GULP energy per Si atom -5569.067456 kJ/mol
# Density = 1.958805 g / cm^3
# Si number density = 19.632731 Si / 1000 Ang^3
#
#
#
# Elastic Constant Matrix: (Units=GPa)
#
#
# Indices 1 2 3 4 5 6 
#
# 1 56.7786 0.5695 -12.2856 -0.0003 4.6867 0.0000
# 2 0.5695 68.0207 9.5507 -0.0007 -6.5492 0.0006
# 3 -12.2856 9.5507 87.2227 0.0000 5.9870 0.0000
# 4 -0.0003 -0.0007 0.0000 20.7722 0.0003 -7.2706
# 5 4.6867 -6.5492 5.9870 0.0003 30.3318 -0.0004
# 6 0.0000 0.0006 0.0000 -7.2706 -0.0004 14.5815
#
#
#
# Elastic Compliance Matrix: (Units=1/GPa)
#
#
# Indices 1 2 3 4 5 6 
#
# 1 0.018565 -0.000924 0.002967 0.000000 -0.003654 0.000000
# 2 -0.000924 0.015374 -0.002079 0.000000 0.003873 0.000000
# 3 0.002967 -0.002079 0.012340 0.000000 -0.003343 0.000000
# 4 0.000000 0.000000 0.000000 0.058320 0.000000 0.029079
# 5 -0.003654 0.003873 -0.003343 0.000000 0.035029 0.000001
# 6 0.000000 0.000000 0.000000 0.029079 0.000001 0.083079
#
#
# Mechanical properties :
#
#
# Convention : Reuss Voigt Hill
#
# Bulk Modulus (GPa) = 21.64198 23.07680 22.35939
# Shear Modulus (GPa) = 20.99237 27.41627 24.20432
#
# Velocity S-wave (km/s) = 3.27349 3.74097 3.51501
# Velocity P-wave (km/s) = 5.03339 5.51721 5.28084
#
# Compressibility (1/GPa) = 0.04620649
#
# Stress axis : x y z
#
# Youngs Moduli (GPa) = 53.86459 65.04500 81.03752
#
# Poissons Ratio (x) = 0.06009 -0.24043
# Poissons Ratio (y) = 0.04976 0.16851
# Poissons Ratio (z) = -0.15981 0.13525
#
# Static dielectric constant tensor:
#      x y z
#    x 1.709310 0.000000 0.016810 
#    y 0.000000 1.746080 0.000000 
#    z 0.016810 0.000000 1.698630 
# 
# From -- ./inp_files/162540.got.cif
#   From: 2010.05.17/outbox.cif.g08.bks.cpg/sg12_82_cif.got.tgz:162540.got - 2010.06.03 13:09:07.
