data_PCOD9180455
_publ_section_title
;
Structure prediction by ZEFSAII (Michael W. Deem and Ramdas Pophale) SiO2 
 PCOD9180455
Probable space group: C 2/M
;
_chemical_formula_sum "Si O2"
_cell_formula_units_Z 44
_cell_length_a 9.442085
_cell_length_b 23.556520
_cell_length_c 12.311753
_cell_angle_alpha 90.000000
_cell_angle_beta 60.964731
_cell_angle_gamma 90.000000
_cell_volume 2394.252214
_symmetry_space_group_name_H-M "C 2/M"
_symmetry_group_IT_number 12
_symmetry_cell_setting 'monoclinic'
loop_
_space_group_symop_operation_xyz
x,y,z
-x,y,-z
-x,-y,-z
x,-y,z
1/2+x,1/2+y,z
1/2-x,1/2+y,-z
1/2-x,1/2-y,-z
1/2+x,1/2-y,z
loop_
_atom_site_type_symbol
_atom_site_label
_atom_site_fract_x
_atom_site_fract_y
_atom_site_fract_z
Si Si1 0.966216 0.735310 0.723109
Si Si2 0.249567 0.603703 0.692988
Si Si3 0.678557 0.000000 0.370522
Si Si4 0.500000 0.308591 0.500000
Si Si5 0.145215 0.295896 0.862776
Si Si6 0.523607 0.500000 0.362822
Si Si7 0.037886 0.390987 0.358047
O O1 0.025809 0.769116 0.595064
O O2 0.813771 0.767663 0.831727
O O3 0.923372 0.670468 0.706979
O O4 0.101623 0.733286 0.764366
O O5 0.354760 0.649471 0.585936
O O6 0.170216 0.638479 0.821250
O O7 0.366736 0.555618 0.696478
O O8 0.113397 0.585215 0.656767
O O9 0.500000 0.000000 0.500000
O O10 0.670323 0.940936 0.308168
O O11 0.845182 0.000000 0.376428
O O12 0.000000 0.288567 0.000000
O O13 0.500000 0.500000 0.500000
O O14 0.000000 0.380866 0.500000
#
# Coordination Sequence:
#
# PCOD9180455 Si02
#       7
#     8   8   4   4   8   4   8
#     4  10  21  33  59  79 114 149 183 234 286 332
#     4  10  22  33  57  80 115 149 183 229 279 337
#     4  10  22  32  50  76 115 147 174 219 270 344
#     4  10  20  33  52  89 112 144 180 230 286 344
#     4  10  22  39  55  82 113 153 197 231 271 327
#     4  12  20  36  55  80 114 149 185 221 287 345
#     4  10  19  32  49  80 112 144 179 221 279 335
#
# _framework density 18.377344000000001
#
# number of rings (size 3 to 8) (size 9 to 14) (size 15 to 20)
#    0.000    1.818    1.818    3.273    2.545    3.636 
#    0.000    0.455    0.000    0.000    0.000    5.727 
#    0.000    0.000    0.000    0.000    0.000    0.000 
#
# Total GULP energy -122619.350323 kJ/mol
# GULP energy per Si atom -5573.606833 kJ/mol
# Density = 1.833552 g / cm^3
# Si number density = 18.377344 Si / 1000 Ang^3
#
#
#
# Elastic Constant Matrix: (Units=GPa)
#
#
# Indices 1 2 3 4 5 6 
#
# 1 122.5633 39.8731 -0.9537 0.0000 -0.1028 0.0000
# 2 39.8731 80.1370 7.7267 0.0000 1.4334 0.0000
# 3 -0.9537 7.7267 47.7678 0.0000 -8.9132 0.0000
# 4 0.0000 0.0000 0.0000 14.4016 0.0000 -3.8752
# 5 -0.1028 1.4334 -8.9132 0.0000 15.5398 0.0000
# 6 0.0000 0.0000 0.0000 -3.8752 0.0000 35.6860
#
#
#
# Elastic Compliance Matrix: (Units=1/GPa)
#
#
# Indices 1 2 3 4 5 6 
#
# 1 0.009803 -0.005019 0.001239 0.000000 0.001238 0.000000
# 2 -0.005019 0.015343 -0.003194 0.000000 -0.003280 0.000000
# 3 0.001239 -0.003194 0.024113 0.000000 0.014134 0.000000
# 4 0.000000 0.000000 0.000000 0.071527 0.000000 0.007767
# 5 0.001238 -0.003280 0.014134 0.000000 0.072768 0.000000
# 6 0.000000 0.000000 0.000000 0.007767 0.000000 0.028866
#
#
# Mechanical properties :
#
#
# Convention : Reuss Voigt Hill
#
# Bulk Modulus (GPa) = 28.32103 38.19561 33.25832
# Shear Modulus (GPa) = 20.15011 26.71362 23.43186
#
# Velocity S-wave (km/s) = 3.31488 3.81677 3.57465
# Velocity P-wave (km/s) = 5.48594 6.34451 5.93078
#
# Compressibility (1/GPa) = 0.03530946
#
# Stress axis : x y z
#
# Youngs Moduli (GPa) = 102.01461 65.17841 41.47101
#
# Poissons Ratio (x) = 0.32713 -0.05137
# Poissons Ratio (y) = 0.51200 0.13246
# Poissons Ratio (z) = -0.12636 0.20818
#
# Static dielectric constant tensor:
#      x y z
#    x 1.648790 0.000000 -0.019140 
#    y 0.000000 1.975830 0.000000 
#    z -0.019140 0.000000 1.643760 
# 
# From -- ./inp_files/122389.got.cif
#   From: 2010.05.17/outbox.cif.g08.bks.cpg/sg12_62_cif.got.tgz:122389.got - 2010.06.03 13:09:07.
