data_PCOD9181017
_publ_section_title
;
Structure prediction by ZEFSAII (Michael W. Deem and Ramdas Pophale) SiO2 
 PCOD9181017
Probable space group: C 2/M
;
_chemical_formula_sum "Si O2"
_cell_formula_units_Z 40
_cell_length_a 18.542991
_cell_length_b 23.868779
_cell_length_c 6.357440
_cell_angle_alpha 90.000000
_cell_angle_beta 42.321581
_cell_angle_gamma 90.000000
_cell_volume 1894.502164
_symmetry_space_group_name_H-M "C 2/M"
_symmetry_group_IT_number 12
_symmetry_cell_setting 'monoclinic'
loop_
_space_group_symop_operation_xyz
x,y,z
-x,y,-z
-x,-y,-z
x,-y,z
1/2+x,1/2+y,z
1/2-x,1/2+y,-z
1/2-x,1/2-y,-z
1/2+x,1/2-y,z
loop_
_atom_site_type_symbol
_atom_site_label
_atom_site_fract_x
_atom_site_fract_y
_atom_site_fract_z
Si Si1 0.817398 0.671126 0.178970
Si Si2 0.416563 0.562382 0.352691
Si Si3 0.607962 0.709181 0.893697
Si Si4 0.199482 0.562971 0.550133
Si Si5 0.304713 0.627938 0.947140
O O1 0.706587 0.691231 0.529738
O O2 0.889788 0.725647 0.045668
O O3 0.859535 0.615846 0.211891
O O4 0.783701 0.656030 0.014504
O O5 0.453176 0.500000 0.333683
O O6 0.304298 0.558758 0.471998
O O7 0.389924 0.598045 0.612736
O O8 0.500000 0.583563 0.000000
O O9 0.500000 0.699624 0.000000
O O10 0.632771 0.672226 0.044770
O O11 0.151742 0.500000 0.643397
O O12 0.243817 0.583833 0.229589
#
# Coordination Sequence:
#
# PCOD9181017 Si02
#       5
#     8   8   8   8   8
#     4   9  20  36  53  78 108 135 173 220 263 314
#     4   9  18  30  44  69 106 143 178 214 254 307
#     4  10  21  36  54  77 105 139 177 219 266 312
#     4   9  18  31  50  75 102 135 172 212 261 313
#     4  10  19  32  52  74 103 139 177 217 259 310
#
# _framework density 21.113724000000001
#
# number of rings (size 3 to 8) (size 9 to 14) (size 15 to 20)
#    0.000    2.600    0.000    1.200    0.000   11.200 
#    0.000    3.000    0.000    6.000    0.000    1.400 
#    0.000    0.000    0.000    0.000    0.000    1.000 
#
# Total GULP energy -111646.447024 kJ/mol
# GULP energy per Si atom -5582.322351 kJ/mol
# Density = 2.106567 g / cm^3
# Si number density = 21.113724 Si / 1000 Ang^3
#
#
#
# Elastic Constant Matrix: (Units=GPa)
#
#
# Indices 1 2 3 4 5 6 
#
# 1 57.5730 48.9181 28.9020 0.0000 28.4092 0.0000
# 2 48.9181 198.3505 33.7986 0.0000 26.9144 0.0000
# 3 28.9020 33.7986 49.7394 0.0000 35.5871 0.0000
# 4 0.0000 0.0000 0.0000 -22.8310 0.0000 -30.0568
# 5 28.4092 26.9144 35.5871 0.0000 29.5865 0.0000
# 6 0.0000 0.0000 0.0000 -30.0568 0.0000 -19.0175
#
#
#
# Elastic Compliance Matrix: (Units=1/GPa)
#
#
# Indices 1 2 3 4 5 6 
#
# 1 0.043614 -0.006070 0.034386 0.000000 -0.077716 0.000000
# 2 -0.006070 0.006606 -0.005970 0.000000 0.007000 0.000000
# 3 0.034386 -0.005970 0.171556 0.000000 -0.233937 0.000000
# 4 0.000000 0.000000 0.000000 0.040529 0.000000 -0.064056
# 5 -0.077716 0.007000 -0.233937 0.000000 0.383438 0.000000
# 6 0.000000 0.000000 0.000000 -0.064056 0.000000 0.048657
#
#
# Mechanical properties :
#
#
# Convention : Reuss Voigt Hill
#
# Bulk Modulus (GPa) = 3.75281 58.76669 31.25975
# Shear Modulus (GPa) = 6.77019 10.48390 8.62705
#
# Velocity S-wave (km/s) = 1.79262 2.23074 2.02358
# Velocity P-wave (km/s) = 2.46291 5.87612 4.50526
#
# Compressibility (1/GPa) = 0.26646725
#
# Stress axis : x y z
#
# Youngs Moduli (GPa) = 22.92855 151.37609 5.82899
#
# Poissons Ratio (x) = 0.91887 -0.20043
# Poissons Ratio (y) = 0.13918 0.03480
# Poissons Ratio (z) = -0.78842 0.90373
#
# Static dielectric constant tensor:
#      x y z
#    x 1.743000 0.000000 -0.006340 
#    y 0.000000 1.873320 0.000000 
#    z -0.006340 0.000000 1.756820 
# 
# From -- ./inp_files/11332.got.cif
#   From: 2010.05.17/outbox.cif.g08.bks.cpg/sg12_6_cif.got.tgz:11332.got - 2010.06.03 13:09:07.
