data_PCOD9181459
_publ_section_title
;
Structure prediction by ZEFSAII (Michael W. Deem and Ramdas Pophale) SiO2 
 PCOD9181459
Probable space group: C 2/M
;
_chemical_formula_sum "Si O2"
_cell_formula_units_Z 64
_cell_length_a 15.947135
_cell_length_b 7.483103
_cell_length_c 26.035318
_cell_angle_alpha 90.000000
_cell_angle_beta 107.833862
_cell_angle_gamma 90.000000
_cell_volume 2957.609016
_symmetry_space_group_name_H-M "C 2/M"
_symmetry_group_IT_number 12
_symmetry_cell_setting 'monoclinic'
loop_
_space_group_symop_operation_xyz
x,y,z
-x,y,-z
-x,-y,-z
x,-y,z
1/2+x,1/2+y,z
1/2-x,1/2+y,-z
1/2-x,1/2-y,-z
1/2+x,1/2-y,z
loop_
_atom_site_type_symbol
_atom_site_label
_atom_site_fract_x
_atom_site_fract_y
_atom_site_fract_z
Si Si1 0.473063 0.217766 0.749558
Si Si2 0.277375 0.786511 0.865873
Si Si3 0.472438 0.213733 0.633268
Si Si4 0.160831 0.213733 0.633269
Si Si5 0.281640 0.785717 0.563279
Si Si6 0.088498 0.286511 0.865873
Si Si7 0.469005 0.218985 0.938009
Si Si8 0.276495 0.217766 0.749558
O O1 0.488079 0.281128 0.694331
O O2 0.543013 0.281417 0.804873
O O3 0.374700 0.265711 0.749399
O O4 0.476526 0.000000 0.749591
O O5 0.191938 0.750000 0.883877
O O6 0.370099 0.721650 0.905660
O O7 0.261860 0.718583 0.804873
O O8 0.286125 0.000000 0.863364
O O9 0.557487 0.250000 0.614973
O O10 0.380042 0.281950 0.593716
O O11 0.464318 0.000000 0.635779
O O12 0.213674 0.281950 0.593716
O O13 0.206252 0.281128 0.694331
O O14 0.171461 0.000000 0.635779
O O15 0.250000 0.750000 0.500000
O O16 0.284632 0.000000 0.569264
O O17 0.077238 0.500000 0.863364
O O18 0.035561 0.221650 0.905660
O O19 0.469060 0.000000 0.938120
O O20 0.500000 0.276334 0.000000
O O21 0.273065 0.000000 0.749591
#
# Coordination Sequence:
#
# PCOD9181459 Si02
#       8
#     8   8   8   8   8   8   8   8
#     4   9  15  29  54  78 101 133 171 207 249 306
#     4  10  19  32  53  78 103 134 171 212 257 304
#     4  10  20  35  56  80 105 134 169 210 256 305
#     4  10  20  35  56  80 105 134 169 210 256 305
#     4  10  22  39  57  76 102 138 175 211 251 299
#     4  10  19  32  53  78 103 134 171 212 257 304
#     4   9  18  33  52  73  99 137 182 215 245 301
#     4   9  15  29  54  78 101 133 171 207 249 306
#
# _framework density 21.639099999999999
#
# number of rings (size 3 to 8) (size 9 to 14) (size 15 to 20)
#    0.000    2.375    2.500    0.750    0.000    2.000 
#    0.000    3.125    0.000    2.250    0.000    0.000 
#    0.000    0.000    0.000    0.000    0.000    0.000 
#
# Total GULP energy -178789.451637 kJ/mol
# GULP energy per Si atom -5587.170364 kJ/mol
# Density = 2.158985 g / cm^3
# Si number density = 21.639100 Si / 1000 Ang^3
#
#
#
# Elastic Constant Matrix: (Units=GPa)
#
#
# Indices 1 2 3 4 5 6 
#
# 1 219.2456 -1.0921 117.5443 0.0000 3.2630 0.0000
# 2 -1.0921 60.5023 9.1625 0.0000 -0.3659 0.0000
# 3 117.5443 9.1625 189.5241 0.0000 -2.2011 0.0000
# 4 0.0000 0.0000 0.0000 1.2291 0.0000 0.4729
# 5 3.2630 -0.3659 -2.2011 0.0000 5.3241 0.0000
# 6 0.0000 0.0000 0.0000 0.4729 0.0000 14.4818
#
#
#
# Elastic Compliance Matrix: (Units=1/GPa)
#
#
# Indices 1 2 3 4 5 6 
#
# 1 0.007063 0.000770 -0.004489 0.000000 -0.006131 0.000000
# 2 0.000770 0.016738 -0.001285 0.000000 0.000147 0.000000
# 3 -0.004489 -0.001285 0.008193 0.000000 0.006050 0.000000
# 4 0.000000 0.000000 0.000000 0.823926 0.000000 -0.026905
# 5 -0.006131 0.000147 0.006050 0.000000 0.194094 0.000000
# 6 0.000000 0.000000 0.000000 -0.026905 0.000000 0.069931
#
#
# Mechanical properties :
#
#
# Convention : Reuss Voigt Hill
#
# Bulk Modulus (GPa) = 45.48416 80.05572 62.76994
# Shear Modulus (GPa) = 4.39645 27.11749 15.75697
#
# Velocity S-wave (km/s) = 1.42693 3.54386 2.70139
# Velocity P-wave (km/s) = 4.87646 7.33631 6.22902
#
# Compressibility (1/GPa) = 0.02198567
#
# Stress axis : x y z
#
# Youngs Moduli (GPa) = 141.58702 59.74536 122.05863
#
# Poissons Ratio (x) = -0.04602 0.54790
# Poissons Ratio (y) = -0.10905 0.15686
# Poissons Ratio (z) = 0.63556 0.07678
#
# Static dielectric constant tensor:
#      x y z
#    x 1.759390 0.000000 0.000080 
#    y 0.000000 1.976170 0.000000 
#    z 0.000080 0.000000 1.757180 
# 
# From -- ./inp_files/359943.got.cif
#   From: 2010.05.17/outbox.cif.g08.bks.cpg/sg12_180_cif.got.tgz:359943.got - 2010.06.03 13:09:07.
