data_PCOD9181989
_publ_section_title
;
Structure prediction by ZEFSAII (Michael W. Deem and Ramdas Pophale) SiO2 
 PCOD9181989
Probable space group: C 2/M
;
_chemical_formula_sum "Si O2"
_cell_formula_units_Z 56
_cell_length_a 19.732289
_cell_length_b 8.164434
_cell_length_c 27.985215
_cell_angle_alpha 90.000000
_cell_angle_beta 139.780404
_cell_angle_gamma 90.000000
_cell_volume 2911.224399
_symmetry_space_group_name_H-M "C 2/M"
_symmetry_group_IT_number 12
_symmetry_cell_setting 'monoclinic'
loop_
_space_group_symop_operation_xyz
x,y,z
-x,y,-z
-x,-y,-z
x,-y,z
1/2+x,1/2+y,z
1/2-x,1/2+y,-z
1/2-x,1/2-y,-z
1/2+x,1/2-y,z
loop_
_atom_site_type_symbol
_atom_site_label
_atom_site_fract_x
_atom_site_fract_y
_atom_site_fract_z
Si Si1 0.187502 0.699285 0.289225
Si Si2 0.069628 0.198574 0.582862
Si Si3 0.490025 0.196383 0.241630
Si Si4 0.194314 0.687881 0.187663
Si Si5 0.886429 0.812586 0.950109
Si Si6 0.286737 0.310273 0.071961
Si Si7 0.425416 0.804319 0.312894
O O1 0.190974 0.500000 0.293753
O O2 0.308639 0.753968 0.359333
O O3 0.149943 0.737952 0.215099
O O4 0.098841 0.760198 0.277700
O O5 0.024063 0.267895 0.608283
O O6 0.000000 0.246132 0.500000
O O7 0.069814 0.000000 0.586076
O O8 0.388773 0.235191 0.153771
O O9 0.475914 0.246229 0.289464
O O10 0.497234 0.000000 0.245967
O O11 0.164160 0.500000 0.160606
O O12 0.167033 0.806200 0.130138
O O13 0.318930 0.700679 0.259435
O O14 0.812437 0.719793 0.946817
O O15 0.898725 0.000000 0.973582
O O16 0.000000 0.739398 0.000000
O O17 0.310127 0.500000 0.080197
O O18 0.250000 0.250000 0.000000
O O19 0.404514 0.000000 0.299007
#
# Coordination Sequence:
#
# PCOD9181989 Si02
#       7
#     8   8   8   8   8   8   8
#     4   8  17  33  55  82 109 144 189 228 273 335
#     4   9  18  35  59  84 112 147 189 235 280 336
#     4  10  20  37  58  81 113 151 190 235 286 341
#     4  10  19  34  56  80 106 143 190 234 276 331
#     4  11  24  40  57  81 113 145 187 241 291 340
#     4  12  26  42  60  82 113 153 196 242 296 349
#     4  10  19  32  55  81 110 146 183 229 283 337
#
# _framework density 19.235893999999998
#
# number of rings (size 3 to 8) (size 9 to 14) (size 15 to 20)
#    0.000    2.000    1.429    3.429    2.000    2.000 
#    0.000    3.571    0.000    0.000    0.000    0.000 
#    0.000    0.000    0.000    0.000    0.000    0.000 
#
# Total GULP energy -156032.751897 kJ/mol
# GULP energy per Si atom -5572.598282 kJ/mol
# Density = 1.919211 g / cm^3
# Si number density = 19.235894 Si / 1000 Ang^3
#
#
#
# Elastic Constant Matrix: (Units=GPa)
#
#
# Indices 1 2 3 4 5 6 
#
# 1 148.6662 9.2977 64.0326 0.0000 -26.3010 0.0000
# 2 9.2977 22.2453 5.8947 0.0000 -7.5731 -0.0001
# 3 64.0326 5.8947 109.3924 0.0000 -27.1314 0.0000
# 4 0.0000 0.0000 0.0000 20.4963 0.0000 -8.4776
# 5 -26.3010 -7.5731 -27.1314 0.0000 27.0472 0.0000
# 6 0.0000 -0.0001 0.0000 -8.4776 0.0000 34.5393
#
#
#
# Elastic Compliance Matrix: (Units=1/GPa)
#
#
# Indices 1 2 3 4 5 6 
#
# 1 0.009481 -0.001280 -0.004370 0.000000 0.004477 0.000000
# 2 -0.001280 0.049950 0.001621 0.000000 0.014367 0.000000
# 3 -0.004370 0.001621 0.014205 0.000000 0.010453 0.000000
# 4 0.000000 0.000000 0.000000 0.054302 0.000000 0.013328
# 5 0.004477 0.014367 0.010453 0.000000 0.055834 0.000000
# 6 0.000000 0.000000 0.000000 0.013328 0.000000 0.032224
#
#
# Mechanical properties :
#
#
# Convention : Reuss Voigt Hill
#
# Bulk Modulus (GPa) = 15.24932 48.75043 31.99987
# Shear Modulus (GPa) = 20.33230 29.82182 25.07706
#
# Velocity S-wave (km/s) = 3.25468 3.94168 3.61454
# Velocity P-wave (km/s) = 4.69773 6.79075 5.83879
#
# Compressibility (1/GPa) = 0.06557670
#
# Stress axis : x y z
#
# Youngs Moduli (GPa) = 105.47493 20.02000 70.39886
#
# Poissons Ratio (x) = 0.02564 0.30766
# Poissons Ratio (y) = 0.13506 -0.11413
# Poissons Ratio (z) = 0.46095 -0.03246
#
# Static dielectric constant tensor:
#      x y z
#    x 1.721810 0.000000 0.107490 
#    y 0.000000 1.682490 0.000000 
#    z 0.107490 0.000000 2.163490 
# 
# From -- ./inp_files/342578.got.cif
#   From: 2010.05.17/outbox.cif.g08.bks.cpg/sg12_172_cif.got.tgz:342578.got - 2010.06.03 13:09:07.
