data_PCOD9181752
_publ_section_title
;
Structure prediction by ZEFSAII (Michael W. Deem and Ramdas Pophale) SiO2 
 PCOD9181752
Probable space group: C 2/M
;
_chemical_formula_sum "Si O2"
_cell_formula_units_Z 52
_cell_length_a 5.192711
_cell_length_b 15.007529
_cell_length_c 32.150499
_cell_angle_alpha 90.000000
_cell_angle_beta 99.361549
_cell_angle_gamma 90.000000
_cell_volume 2472.111573
_symmetry_space_group_name_H-M "C 2/M"
_symmetry_group_IT_number 12
_symmetry_cell_setting 'monoclinic'
loop_
_space_group_symop_operation_xyz
x,y,z
-x,y,-z
-x,-y,-z
x,-y,z
1/2+x,1/2+y,z
1/2-x,1/2+y,-z
1/2-x,1/2-y,-z
1/2+x,1/2-y,z
loop_
_atom_site_type_symbol
_atom_site_label
_atom_site_fract_x
_atom_site_fract_y
_atom_site_fract_z
Si Si1 0.211281 0.107239 0.638149
Si Si2 0.837284 0.607079 0.409541
Si Si3 0.126684 0.109161 0.046708
Si Si4 0.871273 0.691750 0.816885
Si Si5 0.830122 0.191628 0.273493
Si Si6 0.823985 0.392914 0.905024
Si Si7 0.500000 0.188862 0.500000
O O1 0.470965 0.140111 0.621879
O O2 0.188703 0.135694 0.685155
O O3 0.956229 0.139288 0.606364
O O4 0.215091 0.000000 0.636558
O O5 0.830609 0.500000 0.407016
O O6 0.948149 0.632841 0.457133
O O7 0.422418 0.137938 0.062503
O O8 0.940545 0.138119 0.079688
O O9 0.128952 0.000000 0.046051
O O10 0.000000 0.138146 0.000000
O O11 0.664056 0.772702 0.817618
O O12 0.770332 0.646024 0.771719
O O13 0.851669 0.636193 0.858321
O O14 0.622693 0.272478 0.274314
O O15 0.821902 0.500000 0.906571
O O16 0.750000 0.250000 0.500000
#
# Coordination Sequence:
#
# PCOD9181752 Si02
#       7
#     8   8   8   8   8   8   4
#     4  10  21  37  59  84 109 141 180 221 267 316
#     4  10  22  40  58  79 112 149 178 214 272 327
#     4   9  17  30  50  77 105 131 167 217 266 309
#     4  10  21  37  54  75 107 144 174 208 264 321
#     4  10  21  36  56  80 107 141 177 214 263 318
#     4  10  19  32  54  79 100 132 177 218 256 304
#     4  12  25  38  57  86 112 142 188 232 263 302
#
# _framework density 21.034649999999999
#
# number of rings (size 3 to 8) (size 9 to 14) (size 15 to 20)
#    0.000    2.000    0.000    3.462    0.000    6.154 
#    0.000    3.077    0.000   20.308    0.000    0.000 
#    0.000    0.000    0.000    0.000    0.000    0.000 
#
# Total GULP energy -145312.320220 kJ/mol
# GULP energy per Si atom -5588.935393 kJ/mol
# Density = 2.098677 g / cm^3
# Si number density = 21.034650 Si / 1000 Ang^3
#
#
#
# Elastic Constant Matrix: (Units=GPa)
#
#
# Indices 1 2 3 4 5 6 
#
# 1 84.0355 -1.2168 -17.6676 0.0000 0.2014 0.0000
# 2 -1.2168 21.6812 -4.4304 0.0000 3.4745 0.0000
# 3 -17.6676 -4.4304 86.4934 0.0000 -1.6943 0.0000
# 4 0.0000 0.0000 0.0000 40.6029 0.0000 -10.6427
# 5 0.2014 3.4745 -1.6943 0.0000 36.8553 0.0000
# 6 0.0000 0.0000 0.0000 -10.6427 0.0000 9.4859
#
#
#
# Elastic Compliance Matrix: (Units=1/GPa)
#
#
# Indices 1 2 3 4 5 6 
#
# 1 0.012466 0.001243 0.002609 0.000000 -0.000065 0.000000
# 2 0.001243 0.047422 0.002598 0.000000 -0.004358 0.000000
# 3 0.002609 0.002598 0.012233 0.000000 0.000303 0.000000
# 4 0.000000 0.000000 0.000000 0.034889 0.000000 0.039144
# 5 -0.000065 -0.004358 0.000303 0.000000 0.027558 0.000000
# 6 0.000000 0.000000 0.000000 0.039144 0.000000 0.149338
#
#
# Mechanical properties :
#
#
# Convention : Reuss Voigt Hill
#
# Bulk Modulus (GPa) = 11.76178 16.17561 13.96870
# Shear Modulus (GPa) = 16.70298 31.75714 24.23006
#
# Velocity S-wave (km/s) = 2.82098 3.88977 3.39766
# Velocity P-wave (km/s) = 4.02670 5.28019 4.69546
#
# Compressibility (1/GPa) = 0.08502111
#
# Stress axis : x y z
#
# Youngs Moduli (GPa) = 80.21573 21.08734 81.74298
#
# Poissons Ratio (x) = -0.02622 -0.21326
# Poissons Ratio (y) = -0.09973 -0.21234
# Poissons Ratio (z) = -0.20927 -0.05478
#
# Static dielectric constant tensor:
#      x y z
#    x 1.738320 0.000000 0.004510 
#    y 0.000000 1.752700 0.000000 
#    z 0.004510 0.000000 1.742840 
# 
# From -- ./inp_files/354899.got.cif
#   From: 2010.05.17/outbox.cif.g08.bks.cpg/sg12_178_cif.got.tgz:354899.got - 2010.06.03 13:09:07.
