data_PCOD9181641
_publ_section_title
;
Structure prediction by ZEFSAII (Michael W. Deem and Ramdas Pophale) SiO2 
 PCOD9181641
Probable space group: C 2/M
;
_chemical_formula_sum "Si O2"
_cell_formula_units_Z 64
_cell_length_a 23.090877
_cell_length_b 11.888889
_cell_length_c 12.546454
_cell_angle_alpha 90.000000
_cell_angle_beta 72.018946
_cell_angle_gamma 90.000000
_cell_volume 3276.088757
_symmetry_space_group_name_H-M "C 2/M"
_symmetry_group_IT_number 12
_symmetry_cell_setting 'monoclinic'
loop_
_space_group_symop_operation_xyz
x,y,z
-x,y,-z
-x,-y,-z
x,-y,z
1/2+x,1/2+y,z
1/2-x,1/2+y,-z
1/2-x,1/2-y,-z
1/2+x,1/2-y,z
loop_
_atom_site_type_symbol
_atom_site_label
_atom_site_fract_x
_atom_site_fract_y
_atom_site_fract_z
Si Si1 0.125046 0.622109 0.910776
Si Si2 0.930728 0.627521 0.834731
Si Si3 0.528191 0.701469 0.876955
Si Si4 0.284033 0.720756 0.214904
Si Si5 0.873656 0.872886 0.335141
Si Si6 0.352160 0.277794 0.748551
Si Si7 0.288143 0.369363 0.987474
Si Si8 0.931790 0.133049 0.516411
O O1 0.106963 0.500000 0.882671
O O2 0.077393 0.710649 0.894225
O O3 0.190953 0.656918 0.833890
O O4 0.118533 0.624140 0.041258
O O5 0.954969 0.500000 0.811270
O O6 0.894888 0.672892 0.754294
O O7 0.979387 0.721404 0.842535
O O8 0.566742 0.626822 0.774789
O O9 0.500000 0.647472 0.000000
O O10 0.319260 0.686707 0.301654
O O11 0.211737 0.730204 0.259255
O O12 0.305370 0.641159 0.103468
O O13 0.897423 0.819113 0.431688
O O14 0.853200 0.000000 0.367110
O O15 0.388637 0.349543 0.642067
O O16 0.337552 0.347675 0.865838
O O17 0.265049 0.500000 0.987011
O O18 0.250000 0.250000 0.000000
O O19 0.000000 0.178176 0.500000
O O20 0.939225 0.000000 0.490362
#
# Coordination Sequence:
#
# PCOD9181641 Si02
#       8
#     8   8   8   8   8   8   8   8
#     4   9  17  31  52  79 115 152 186 231 292 355
#     4  10  19  32  53  81 114 152 195 236 288 352
#     4   9  18  33  54  82 113 144 193 241 293 349
#     4  10  21  36  54  87 123 151 189 242 300 359
#     4  10  21  38  59  81 113 153 190 243 304 355
#     4  11  22  36  58  85 117 158 200 240 290 353
#     4  10  21  36  56  86 123 160 196 245 298 358
#     4  10  22  41  62  82 107 148 203 253 294 346
#
# _framework density 19.535491
#
# number of rings (size 3 to 8) (size 9 to 14) (size 15 to 20)
#    0.000    2.125    1.250    1.875    0.000    7.250 
#    0.000    0.625    0.000    6.375    0.000    0.000 
#    0.000    0.000    0.000    0.000    0.000    0.000 
#
# Total GULP energy -178174.055659 kJ/mol
# GULP energy per Si atom -5567.939239 kJ/mol
# Density = 1.949103 g / cm^3
# Si number density = 19.535491 Si / 1000 Ang^3
#
#
#
# Elastic Constant Matrix: (Units=GPa)
#
#
# Indices 1 2 3 4 5 6 
#
# 1 102.3213 5.6945 25.2206 0.0000 16.4149 0.0000
# 2 5.6945 61.8222 -2.5969 0.0000 10.3696 0.0000
# 3 25.2206 -2.5969 62.0300 0.0000 7.8594 0.0000
# 4 0.0000 0.0000 0.0000 16.4994 0.0000 -4.8402
# 5 16.4149 10.3696 7.8594 0.0000 28.5667 0.0000
# 6 0.0000 0.0000 0.0000 -4.8402 0.0000 9.5040
#
#
#
# Elastic Compliance Matrix: (Units=1/GPa)
#
#
# Indices 1 2 3 4 5 6 
#
# 1 0.011671 -0.000329 -0.004066 0.000000 -0.005468 0.000000
# 2 -0.000329 0.017382 0.001696 0.000000 -0.006587 0.000000
# 3 -0.004066 0.001696 0.018264 0.000000 -0.003304 0.000000
# 4 0.000000 0.000000 0.000000 0.071254 0.000000 0.036289
# 5 -0.005468 -0.006587 -0.003304 0.000000 0.041448 0.000000
# 6 0.000000 0.000000 0.000000 0.036289 0.000000 0.123700
#
#
# Mechanical properties :
#
#
# Convention : Reuss Voigt Hill
#
# Bulk Modulus (GPa) = 23.85541 31.42331 27.63936
# Shear Modulus (GPa) = 16.49678 24.10437 20.30058
#
# Velocity S-wave (km/s) = 2.90910 3.51647 3.22710
# Velocity P-wave (km/s) = 4.84991 5.71030 5.29760
#
# Compressibility (1/GPa) = 0.04191922
#
# Stress axis : x y z
#
# Youngs Moduli (GPa) = 85.68311 57.53135 54.75217
#
# Poissons Ratio (x) = 0.01890 0.22263
# Poissons Ratio (y) = 0.02816 -0.09286
# Poissons Ratio (z) = 0.34840 -0.09757
#
# Static dielectric constant tensor:
#      x y z
#    x 1.749720 0.000000 0.018860 
#    y 0.000000 1.706810 0.000000 
#    z 0.018860 0.000000 1.714480 
# 
# From -- ./inp_files/175257.got.cif
#   From: 2010.05.17/outbox.cif.g08.bks.cpg/sg12_88_cif.got.tgz:175257.got - 2010.06.03 13:09:07.
