data_PCOD9181570
_publ_section_title
;
Structure prediction by ZEFSAII (Michael W. Deem and Ramdas Pophale) SiO2 
 PCOD9181570
Probable space group: C 2/M
;
_chemical_formula_sum "Si O2"
_cell_formula_units_Z 56
_cell_length_a 14.971611
_cell_length_b 14.960154
_cell_length_c 14.300200
_cell_angle_alpha 90.000000
_cell_angle_beta 78.340123
_cell_angle_gamma 90.000000
_cell_volume 3136.830864
_symmetry_space_group_name_H-M "C 2/M"
_symmetry_group_IT_number 12
_symmetry_cell_setting 'monoclinic'
loop_
_space_group_symop_operation_xyz
x,y,z
-x,y,-z
-x,-y,-z
x,-y,z
1/2+x,1/2+y,z
1/2-x,1/2+y,-z
1/2-x,1/2-y,-z
1/2+x,1/2-y,z
loop_
_atom_site_type_symbol
_atom_site_label
_atom_site_fract_x
_atom_site_fract_y
_atom_site_fract_z
Si Si1 0.342402 0.755377 0.698344
Si Si2 0.473116 0.104275 0.899822
Si Si3 0.467206 0.261839 0.249288
Si Si4 0.699568 0.196781 0.594757
Si Si5 0.107858 0.404294 0.462619
Si Si6 0.073101 0.894685 0.908441
Si Si7 0.277151 0.103184 0.862184
O O1 0.434926 0.717923 0.723929
O O2 0.272704 0.687667 0.662862
O O3 0.371876 0.824801 0.611917
O O4 0.291518 0.818932 0.783470
O O5 0.517394 0.170790 0.814563
O O6 0.363611 0.111230 0.911895
O O7 0.497830 0.000000 0.876972
O O8 0.500000 0.127059 0.000000
O O9 0.387596 0.247350 0.342132
O O10 0.438864 0.338368 0.182932
O O11 0.750000 0.250000 0.500000
O O12 0.658369 0.111901 0.550147
O O13 0.135980 0.500000 0.416539
O O14 0.000000 0.404600 0.500000
O O15 0.176213 0.884981 0.924233
O O16 0.057606 0.000000 0.893729
O O17 0.000000 0.863824 0.000000
O O18 0.280335 0.000000 0.824425
#
# Coordination Sequence:
#
# PCOD9181570 Si02
#       7
#     8   8   8   8   8   8   8
#     4  10  19  34  54  79 105 141 177 221 266 327
#     4   9  19  35  55  82 112 141 172 218 279 334
#     4  11  20  36  56  81 110 143 182 224 274 319
#     4  10  21  35  52  78 109 140 177 215 268 319
#     4  10  19  32  53  80 109 138 172 219 272 322
#     4  10  21  38  57  79 107 143 190 232 265 312
#     4   9  17  32  56  79 102 136 181 225 267 317
#
# _framework density 17.852412999999999
#
# number of rings (size 3 to 8) (size 9 to 14) (size 15 to 20)
#    0.000    2.143    2.857    0.857    0.000    1.143 
#    2.571    2.857    0.000    0.000    0.000    4.000 
#    0.000    0.000    0.000    0.000    0.000    0.000 
#
# Total GULP energy -155968.963773 kJ/mol
# GULP energy per Si atom -5570.320135 kJ/mol
# Density = 1.781178 g / cm^3
# Si number density = 17.852413 Si / 1000 Ang^3
#
#
#
# Elastic Constant Matrix: (Units=GPa)
#
#
# Indices 1 2 3 4 5 6 
#
# 1 117.1387 25.2704 46.7752 0.0000 0.3880 0.0000
# 2 25.2704 39.3411 11.8616 0.0000 2.6519 0.0000
# 3 46.7752 11.8616 67.5346 0.0000 -5.8641 0.0000
# 4 0.0000 0.0000 0.0000 36.0267 0.0000 22.3252
# 5 0.3880 2.6519 -5.8641 0.0000 37.4478 0.0000
# 6 0.0000 0.0000 0.0000 22.3252 0.0000 25.7833
#
#
#
# Elastic Compliance Matrix: (Units=1/GPa)
#
#
# Indices 1 2 3 4 5 6 
#
# 1 0.013033 -0.005869 -0.008082 0.000000 -0.000985 0.000000
# 2 -0.005869 0.029750 -0.001356 0.000000 -0.002258 0.000000
# 3 -0.008082 -0.001356 0.020943 0.000000 0.003459 0.000000
# 4 0.000000 0.000000 0.000000 0.059895 0.000000 -0.051862
# 5 -0.000985 -0.002258 0.003459 0.000000 0.027416 0.000000
# 6 0.000000 0.000000 0.000000 -0.051862 0.000000 0.083691
#
#
# Mechanical properties :
#
#
# Convention : Reuss Voigt Hill
#
# Bulk Modulus (GPa) = 30.20022 43.53654 36.86838
# Shear Modulus (GPa) = 18.09103 29.19204 23.64154
#
# Velocity S-wave (km/s) = 3.18679 4.04813 3.64301
# Velocity P-wave (km/s) = 5.52216 6.80365 6.19612
#
# Compressibility (1/GPa) = 0.03311234
#
# Stress axis : x y z
#
# Youngs Moduli (GPa) = 76.72572 33.61384 47.74760
#
# Poissons Ratio (x) = 0.19727 0.38589
# Poissons Ratio (y) = 0.45029 0.06477
# Poissons Ratio (z) = 0.62009 0.04560
#
# Static dielectric constant tensor:
#      x y z
#    x 1.640500 0.000000 0.005540 
#    y 0.000000 1.615350 0.000000 
#    z 0.005540 0.000000 1.606550 
# 
# From -- ./inp_files/214196.got.cif
#   From: 2010.05.17/outbox.cif.g08.bks.cpg/sg12_108_cif.got.tgz:214196.got - 2010.06.03 13:09:07.
