data_PCOD9181658
_publ_section_title
;
Structure prediction by ZEFSAII (Michael W. Deem and Ramdas Pophale) SiO2 
 PCOD9181658
Probable space group: C 2/M
;
_chemical_formula_sum "Si O2"
_cell_formula_units_Z 64
_cell_length_a 20.735996
_cell_length_b 7.813301
_cell_length_c 19.511322
_cell_angle_alpha 90.000000
_cell_angle_beta 93.744304
_cell_angle_gamma 90.000000
_cell_volume 3154.409885
_symmetry_space_group_name_H-M "C 2/M"
_symmetry_group_IT_number 12
_symmetry_cell_setting 'monoclinic'
loop_
_space_group_symop_operation_xyz
x,y,z
-x,y,-z
-x,-y,-z
x,-y,z
1/2+x,1/2+y,z
1/2-x,1/2+y,-z
1/2-x,1/2-y,-z
1/2+x,1/2-y,z
loop_
_atom_site_type_symbol
_atom_site_label
_atom_site_fract_x
_atom_site_fract_y
_atom_site_fract_z
Si Si1 0.433762 0.791245 0.910606
Si Si2 0.977188 0.290892 0.297763
Si Si3 0.392470 0.796937 0.760977
Si Si4 0.296238 0.699461 0.440678
Si Si5 0.357872 0.209340 0.194136
Si Si6 0.251492 0.699371 0.711233
Si Si7 0.941939 0.707194 0.447469
Si Si8 0.916012 0.708500 0.060514
O O1 0.398702 0.730120 0.839374
O O2 0.509965 0.745637 0.914643
O O3 0.431673 0.000000 0.911572
O O4 0.405467 0.732999 0.981728
O O5 0.977922 0.500000 0.299946
O O6 0.922955 0.242338 0.239184
O O7 0.956082 0.232966 0.371331
O O8 0.047709 0.229716 0.279704
O O9 0.323085 0.772269 0.722646
O O10 0.403261 0.000000 0.766876
O O11 0.288281 0.500000 0.427990
O O12 0.250000 0.750000 0.500000
O O13 0.277924 0.784470 0.366856
O O14 0.370500 0.737811 0.463949
O O15 0.297456 0.272131 0.234782
O O16 0.367156 0.266132 0.116374
O O17 0.355624 0.000000 0.194072
O O18 0.258029 0.500000 0.726823
O O19 0.942210 0.500000 0.447790
O O20 0.000000 0.765922 0.500000
O O21 0.914362 0.500000 0.060064
#
# Coordination Sequence:
#
# PCOD9181658 Si02
#       8
#     8   8   8   8   8   8   8   8
#     4   8  13  22  41  74 111 137 174 235 287 323
#     4   9  16  30  53  79 107 142 184 228 274 327
#     4  10  19  32  53  82 113 147 186 234 284 332
#     4  12  26  44  64  86 115 151 189 231 282 339
#     4   9  15  28  51  75 102 140 187 229 273 328
#     4  11  23  39  57  79 111 150 188 230 278 340
#     4  10  21  38  61  89 119 150 186 228 278 339
#     4   8  12  21  42  74 106 138 179 231 283 328
#
# _framework density 20.289057
#
# number of rings (size 3 to 8) (size 9 to 14) (size 15 to 20)
#    0.000    2.375    2.500    2.250    1.750    0.250 
#    0.000    1.250    0.000    0.000    0.000    2.625 
#    0.000    0.000    0.000    0.000    0.000    0.000 
#
# Total GULP energy -178553.270060 kJ/mol
# GULP energy per Si atom -5579.789689 kJ/mol
# Density = 2.024288 g / cm^3
# Si number density = 20.289057 Si / 1000 Ang^3
#
#
#
# Elastic Constant Matrix: (Units=GPa)
#
#
# Indices 1 2 3 4 5 6 
#
# 1 132.4475 -4.3228 50.2750 0.0000 -23.0223 0.0000
# 2 -4.3228 19.3813 -1.8243 0.0000 -4.1658 0.0000
# 3 50.2750 -1.8243 97.3362 0.0000 -29.1027 0.0000
# 4 0.0000 0.0000 0.0000 2.8142 0.0000 -3.9433
# 5 -23.0223 -4.1658 -29.1027 0.0000 35.8135 0.0000
# 6 0.0000 0.0000 0.0000 -3.9433 0.0000 4.4131
#
#
#
# Elastic Compliance Matrix: (Units=1/GPa)
#
#
# Indices 1 2 3 4 5 6 
#
# 1 0.009718 0.002501 -0.003986 0.000000 0.003299 0.000000
# 2 0.002501 0.054615 0.002790 0.000000 0.010228 0.000000
# 3 -0.003986 0.002790 0.015476 0.000000 0.010338 0.000000
# 4 0.000000 0.000000 0.000000 -1.409805 0.000000 -1.259728
# 5 0.003299 0.010228 0.010338 0.000000 0.039634 0.000000
# 6 0.000000 0.000000 0.000000 -1.259728 0.000000 -0.899030
#
#
# Mechanical properties :
#
#
# Convention : Reuss Voigt Hill
#
# Bulk Modulus (GPa) = 12.13321 37.49118 24.81220
# Shear Modulus (GPa) = -2.30997 22.27730 9.98366
#
# Velocity S-wave (km/s) = -1.06818 3.31720 2.22067
# Velocity P-wave (km/s) = 2.11467 5.76111 4.33948
#
# Compressibility (1/GPa) = 0.08241839
#
# Stress axis : x y z
#
# Youngs Moduli (GPa) = 102.89754 18.31003 64.61652
#
# Poissons Ratio (x) = -0.04580 0.25759
# Poissons Ratio (y) = -0.25739 -0.18026
# Poissons Ratio (z) = 0.41019 -0.05108
#
# Static dielectric constant tensor:
#      x y z
#    x 1.692700 0.000000 -0.028520 
#    y 0.000000 1.770110 0.000000 
#    z -0.028520 0.000000 1.718950 
# 
# From -- ./inp_files/314151.got.cif
#   From: 2010.05.17/outbox.cif.g08.bks.cpg/sg12_158_cif.got.tgz:314151.got - 2010.06.03 13:09:07.
