data_PCOD9181520
_publ_section_title
;
Structure prediction by ZEFSAII (Michael W. Deem and Ramdas Pophale) SiO2 
 PCOD9181520
Probable space group: C 2/M
;
_chemical_formula_sum "Si O2"
_cell_formula_units_Z 48
_cell_length_a 28.052285
_cell_length_b 8.944322
_cell_length_c 11.945686
_cell_angle_alpha 90.000000
_cell_angle_beta 71.370473
_cell_angle_gamma 90.000000
_cell_volume 2840.230634
_symmetry_space_group_name_H-M "C 2/M"
_symmetry_group_IT_number 12
_symmetry_cell_setting 'monoclinic'
loop_
_space_group_symop_operation_xyz
x,y,z
-x,y,-z
-x,-y,-z
x,-y,z
1/2+x,1/2+y,z
1/2-x,1/2+y,-z
1/2-x,1/2-y,-z
1/2+x,1/2-y,z
loop_
_atom_site_type_symbol
_atom_site_label
_atom_site_fract_x
_atom_site_fract_y
_atom_site_fract_z
Si Si1 0.625637 0.824994 0.111426
Si Si2 0.697443 0.821934 0.496466
Si Si3 0.177163 0.824730 0.272436
Si Si4 0.709028 0.828703 0.862169
Si Si5 0.557738 0.679914 0.975614
Si Si6 0.857581 0.823777 0.264910
O O1 0.635919 0.742692 0.220125
O O2 0.616355 0.000000 0.136518
O O3 0.676354 0.810797 0.998103
O O4 0.582479 0.754655 0.065917
O O5 0.750000 0.750000 0.500000
O O6 0.683429 0.760270 0.384828
O O7 0.654743 0.769482 0.615719
O O8 0.702779 0.000000 0.491455
O O9 0.231648 0.810813 0.171426
O O10 0.168098 0.000000 0.299715
O O11 0.687346 0.714150 0.787887
O O12 0.700100 0.000000 0.827846
O O13 0.560576 0.500000 0.986464
O O14 0.592343 0.718177 0.842020
O O15 0.500000 0.722554 0.000000
O O16 0.858581 0.000000 0.289261
#
# Coordination Sequence:
#
# PCOD9181520 Si02
#       6
#     8   8   8   8   8   8
#     4  10  20  33  50  77 108 138 175 218 267 316
#     4  12  23  35  51  74 107 146 184 219 256 306
#     4  11  21  33  50  73 105 146 182 214 257 310
#     4   9  18  31  48  71 104 142 177 214 254 307
#     4   9  19  37  60  83 106 135 174 220 269 320
#     4  10  19  32  53  79 106 139 178 219 262 308
#
# _framework density 16.900036
#
# number of rings (size 3 to 8) (size 9 to 14) (size 15 to 20)
#    0.000    1.833    1.667    3.500    0.000    2.333 
#    0.000    0.000    0.000    1.000    0.000    7.000 
#    0.000    0.000    0.000    0.000    0.000    0.000 
#
# Total GULP energy -133941.138041 kJ/mol
# GULP energy per Si atom -5580.880752 kJ/mol
# Density = 1.686157 g / cm^3
# Si number density = 16.900036 Si / 1000 Ang^3
#
#
#
# Elastic Constant Matrix: (Units=GPa)
#
#
# Indices 1 2 3 4 5 6 
#
# 1 105.9711 62.6233 65.0620 0.0000 9.2610 0.0000
# 2 62.6233 106.1236 65.9657 0.0000 15.7951 0.0000
# 3 65.0620 65.9657 88.6851 0.0000 21.4352 0.0000
# 4 0.0000 0.0000 0.0000 30.0618 0.0000 5.1431
# 5 9.2610 15.7951 21.4352 0.0000 19.7219 0.0000
# 6 0.0000 0.0000 0.0000 5.1431 0.0000 22.0643
#
#
#
# Elastic Compliance Matrix: (Units=1/GPa)
#
#
# Indices 1 2 3 4 5 6 
#
# 1 0.019286 -0.004787 -0.012649 0.000000 0.008525 0.000000
# 2 -0.004787 0.018715 -0.009940 0.000000 -0.001937 0.000000
# 3 -0.012649 -0.009940 0.033350 0.000000 -0.022347 0.000000
# 4 0.000000 0.000000 0.000000 0.034646 0.000000 -0.008076
# 5 0.008525 -0.001937 -0.022347 0.000000 0.072541 0.000000
# 6 0.000000 0.000000 0.000000 -0.008076 0.000000 0.047205
#
#
# Mechanical properties :
#
#
# Convention : Reuss Voigt Hill
#
# Bulk Modulus (GPa) = 60.24438 76.45353 68.34896
# Shear Modulus (GPa) = 17.48071 21.51153 19.49612
#
# Velocity S-wave (km/s) = 3.21964 3.57160 3.40017
# Velocity P-wave (km/s) = 7.03891 7.89590 7.47969
#
# Compressibility (1/GPa) = 0.01659906
#
# Stress axis : x y z
#
# Youngs Moduli (GPa) = 51.85023 53.43265 29.98479
#
# Poissons Ratio (x) = 0.25580 0.37926
# Poissons Ratio (y) = 0.24823 0.29806
# Poissons Ratio (z) = 0.65583 0.53114
#
# Static dielectric constant tensor:
#      x y z
#    x 1.549870 0.000000 -0.013140 
#    y 0.000000 1.574310 0.000000 
#    z -0.013140 0.000000 1.579400 
# 
# From -- ./inp_files/172154.got.cif
#   From: 2010.05.17/outbox.cif.g08.bks.cpg/sg12_87_cif.got.tgz:172154.got - 2010.06.03 13:09:07.
