data_PCOD9181240
_publ_section_title
;
Structure prediction by ZEFSAII (Michael W. Deem and Ramdas Pophale) SiO2 
 PCOD9181240
Probable space group: C 2/M
;
_chemical_formula_sum "Si O2"
_cell_formula_units_Z 32
_cell_length_a 12.963366
_cell_length_b 21.951124
_cell_length_c 4.925628
_cell_angle_alpha 90.000000
_cell_angle_beta 79.978285
_cell_angle_gamma 90.000000
_cell_volume 1380.252553
_symmetry_space_group_name_H-M "C 2/M"
_symmetry_group_IT_number 12
_symmetry_cell_setting 'monoclinic'
loop_
_space_group_symop_operation_xyz
x,y,z
-x,y,-z
-x,-y,-z
x,-y,z
1/2+x,1/2+y,z
1/2-x,1/2+y,-z
1/2-x,1/2-y,-z
1/2+x,1/2-y,z
loop_
_atom_site_type_symbol
_atom_site_label
_atom_site_fract_x
_atom_site_fract_y
_atom_site_fract_z
Si Si1 0.672291 0.682268 0.785686
Si Si2 0.392583 0.247657 0.677961
Si Si3 0.749090 0.568738 0.000943
Si Si4 0.104718 0.568511 0.585369
O O1 0.630376 0.693634 0.504393
O O2 0.614850 0.730223 0.009637
O O3 0.795137 0.701104 0.703891
O O4 0.664217 0.617635 0.939295
O O5 0.500000 0.224054 0.500000
O O6 0.714154 0.500000 0.099053
O O7 0.817509 0.562460 0.700040
O O8 0.827202 0.594916 0.197910
O O9 0.074670 0.500000 0.697709
O O10 0.000000 0.595158 0.500000
#
# Coordination Sequence:
#
# PCOD9181240 Si02
#       4
#     8   8   8   8
#     4  10  21  37  59  87 112 144 193 233 282 349
#     4  10  21  39  61  82 110 147 189 243 288 327
#     4  10  19  32  52  78 113 149 179 227 285 336
#     4   9  17  29  45  70 107 150 188 218 264 334
#
# _framework density 23.184163999999999
#
# number of rings (size 3 to 8) (size 9 to 14) (size 15 to 20)
#    0.000    2.250    0.000    3.000    0.000    4.000 
#    0.000    7.500    0.000    4.500    0.000    0.000 
#    0.000    0.000    0.000    0.000    0.000    0.000 
#
# Total GULP energy -89194.685137 kJ/mol
# GULP energy per Si atom -5574.667821 kJ/mol
# Density = 2.313140 g / cm^3
# Si number density = 23.184164 Si / 1000 Ang^3
#
#
#
# Elastic Constant Matrix: (Units=GPa)
#
#
# Indices 1 2 3 4 5 6 
#
# 1 66.4646 17.5290 8.8880 0.0000 -15.3906 0.0000
# 2 17.5290 94.0613 -2.0616 0.0000 10.7972 0.0000
# 3 8.8880 -2.0616 127.7197 0.0000 3.7854 0.0000
# 4 0.0000 0.0000 0.0000 26.2697 0.0000 0.5799
# 5 -15.3906 10.7972 3.7854 0.0000 46.7234 0.0000
# 6 0.0000 0.0000 0.0000 0.5799 0.0000 -2.1357
#
#
#
# Elastic Compliance Matrix: (Units=1/GPa)
#
#
# Indices 1 2 3 4 5 6 
#
# 1 0.017979 -0.004189 -0.001527 0.000000 0.007014 0.000000
# 2 -0.004189 0.011905 0.000608 0.000000 -0.004180 0.000000
# 3 -0.001527 0.000608 0.007984 0.000000 -0.001290 0.000000
# 4 0.000000 0.000000 0.000000 0.037840 0.000000 0.010275
# 5 0.007014 -0.004180 -0.001290 0.000000 0.024783 0.000000
# 6 0.000000 0.000000 0.000000 0.010275 0.000000 -0.465444
#
#
# Mechanical properties :
#
#
# Convention : Reuss Voigt Hill
#
# Bulk Modulus (GPa) = 36.16426 37.43961 36.80193
# Shear Modulus (GPa) = -14.47098 31.76416 8.64659
#
# Velocity S-wave (km/s) = -2.50106 3.70547 1.93329
# Velocity P-wave (km/s) = 2.70040 5.87292 4.57074
#
# Compressibility (1/GPa) = 0.02765161
#
# Stress axis : x y z
#
# Youngs Moduli (GPa) = 55.62145 83.99699 125.25163
#
# Poissons Ratio (x) = 0.35187 0.19121
# Poissons Ratio (y) = 0.23300 -0.07610
# Poissons Ratio (z) = 0.08491 -0.05103
#
# Static dielectric constant tensor:
#      x y z
#    x 1.928640 0.000000 0.040160 
#    y 0.000000 1.971120 0.000000 
#    z 0.040160 0.000000 1.802560 
# 
# From -- ./inp_files/6662.got.cif
#   From: 2010.05.17/outbox.cif.g08.bks.cpg/sg12_4_cif.got.tgz:6662.got - 2010.06.03 13:09:07.
