data_PCOD9181103
_publ_section_title
;
Structure prediction by ZEFSAII (Michael W. Deem and Ramdas Pophale) SiO2 
 PCOD9181103
Probable space group: C 2/M
;
_chemical_formula_sum "Si O2"
_cell_formula_units_Z 56
_cell_length_a 26.632440
_cell_length_b 7.718137
_cell_length_c 18.813362
_cell_angle_alpha 90.000000
_cell_angle_beta 43.108460
_cell_angle_gamma 90.000000
_cell_volume 2642.731979
_symmetry_space_group_name_H-M "C 2/M"
_symmetry_group_IT_number 12
_symmetry_cell_setting 'monoclinic'
loop_
_space_group_symop_operation_xyz
x,y,z
-x,y,-z
-x,-y,-z
x,-y,z
1/2+x,1/2+y,z
1/2-x,1/2+y,-z
1/2-x,1/2-y,-z
1/2+x,1/2-y,z
loop_
_atom_site_type_symbol
_atom_site_label
_atom_site_fract_x
_atom_site_fract_y
_atom_site_fract_z
Si Si1 0.328163 0.294511 0.342470
Si Si2 0.968909 0.290463 0.108078
Si Si3 0.160333 0.203708 0.509778
Si Si4 0.458078 0.696119 0.475965
Si Si5 0.757798 0.793622 0.907936
Si Si6 0.084744 0.701131 0.248871
Si Si7 0.899771 0.711514 0.929642
O O1 0.318328 0.500000 0.360363
O O2 0.389329 0.261427 0.219633
O O3 0.247661 0.221289 0.407694
O O4 0.352511 0.226904 0.396198
O O5 0.968737 0.500000 0.106808
O O6 0.029930 0.229047 0.100724
O O7 0.000000 0.231336 0.000000
O O8 0.110690 0.275995 0.496418
O O9 0.140970 0.000000 0.531734
O O10 0.500000 0.781041 0.500000
O O11 0.436584 0.500000 0.521073
O O12 0.523213 0.692461 0.351564
O O13 0.833672 0.715022 0.802634
O O14 0.763563 0.000000 0.894464
O O15 0.750000 0.750000 0.000000
O O16 0.679541 0.733746 0.957947
O O17 0.062501 0.500000 0.271562
O O18 0.092734 0.763509 0.159809
O O19 0.898574 0.500000 0.931589
#
# Coordination Sequence:
#
# PCOD9181103 Si02
#       7
#     8   8   8   8   8   8   8
#     4  10  20  35  58  85 111 140 179 229 277 319
#     4  10  20  35  54  77 107 143 182 219 265 324
#     4   9  19  37  60  84 108 140 184 227 272 326
#     4  10  21  37  55  78 107 139 177 220 269 322
#     4   9  16  29  49  73 102 131 169 215 258 305
#     4  10  19  32  52  76 104 137 176 218 263 314
#     4   8  16  31  51  75 100 133 176 219 257 301
#
# _framework density 21.190193000000001
#
# number of rings (size 3 to 8) (size 9 to 14) (size 15 to 20)
#    0.000    2.571    0.000    3.000    0.000    1.714 
#    2.571    3.571    0.000    0.000    0.000    0.000 
#    0.000    0.000    0.000    0.000    0.000    0.000 
#
# Total GULP energy -156052.466552 kJ/mol
# GULP energy per Si atom -5573.302377 kJ/mol
# Density = 2.114196 g / cm^3
# Si number density = 21.190193 Si / 1000 Ang^3
#
#
#
# Elastic Constant Matrix: (Units=GPa)
#
#
# Indices 1 2 3 4 5 6 
#
# 1 131.8194 2.3504 64.4118 -0.0105 -6.9386 -0.0021
# 2 2.3504 43.4064 -6.6186 -0.0180 3.9032 0.0221
# 3 64.4118 -6.6186 95.2313 -0.0008 -12.0502 0.0136
# 4 -0.0105 -0.0180 -0.0008 18.5803 0.0037 -6.0102
# 5 -6.9386 3.9032 -12.0502 0.0037 22.1479 -0.0048
# 6 -0.0021 0.0221 0.0136 -6.0102 -0.0048 7.4467
#
#
#
# Elastic Compliance Matrix: (Units=1/GPa)
#
#
# Indices 1 2 3 4 5 6 
#
# 1 0.011476 -0.001795 -0.007938 0.000016 -0.000407 0.000036
# 2 -0.001795 0.023815 0.002435 -0.000003 -0.003435 -0.000080
# 3 -0.007938 0.002435 0.016829 -0.000019 0.006240 -0.000052
# 4 0.000016 -0.000003 -0.000019 0.072835 -0.000004 0.058785
# 5 -0.000407 -0.003435 0.006240 -0.000004 0.049024 0.000027
# 6 0.000036 -0.000080 -0.000052 0.058785 0.000027 0.181731
#
#
# Mechanical properties :
#
#
# Convention : Reuss Voigt Hill
#
# Bulk Modulus (GPa) = 26.65050 43.41603 35.03327
# Shear Modulus (GPa) = 13.06115 23.65589 18.35852
#
# Velocity S-wave (km/s) = 2.48539 3.34482 2.94661
# Velocity P-wave (km/s) = 4.56512 5.95402 5.30522
#
# Compressibility (1/GPa) = 0.03752274
#
# Stress axis : x y z
#
# Youngs Moduli (GPa) = 87.14200 41.98956 59.42248
#
# Poissons Ratio (x) = 0.07538 0.47170
# Poissons Ratio (y) = 0.15643 -0.14468
# Poissons Ratio (z) = 0.69174 -0.10223
#
# Static dielectric constant tensor:
#      x y z
#    x 1.831880 -0.000010 0.020690 
#    y -0.000010 1.826770 0.000010 
#    z 0.020690 0.000010 1.762370 
# 
# From -- ./inp_files/291862.got.cif
#   From: 2010.05.17/outbox.cif.g08.bks.cpg/sg12_146_cif.got.tgz:291862.got - 2010.06.03 13:09:07.
