data_PCOD9181360
_publ_section_title
;
Structure prediction by ZEFSAII (Michael W. Deem and Ramdas Pophale) SiO2 
 PCOD9181360
Probable space group: C 2/M
;
_chemical_formula_sum "Si O2"
_cell_formula_units_Z 48
_cell_length_a 35.775066
_cell_length_b 7.873027
_cell_length_c 16.452627
_cell_angle_alpha 90.000000
_cell_angle_beta 35.483447
_cell_angle_gamma 90.000000
_cell_volume 2689.896174
_symmetry_space_group_name_H-M "C 2/M"
_symmetry_group_IT_number 12
_symmetry_cell_setting 'monoclinic'
loop_
_space_group_symop_operation_xyz
x,y,z
-x,y,-z
-x,-y,-z
x,-y,z
1/2+x,1/2+y,z
1/2-x,1/2+y,-z
1/2-x,1/2-y,-z
1/2+x,1/2-y,z
loop_
_atom_site_type_symbol
_atom_site_label
_atom_site_fract_x
_atom_site_fract_y
_atom_site_fract_z
Si Si1 0.804824 0.796934 0.797389
Si Si2 0.313025 0.692681 0.438197
Si Si3 0.121489 0.196170 0.995993
Si Si4 0.659788 0.202052 0.096921
Si Si5 0.052005 0.500000 0.029154
Si Si6 0.229711 0.300943 0.313436
Si Si7 0.906676 0.500000 0.230749
O O1 0.850973 0.740430 0.789090
O O2 0.812662 0.731864 0.692103
O O3 0.804146 0.000000 0.796932
O O4 0.732796 0.734738 0.949307
O O5 0.330706 0.500000 0.383862
O O6 0.250000 0.750000 0.500000
O O7 0.294591 0.700577 0.565760
O O8 0.367253 0.831796 0.324320
O O9 0.076335 0.332774 0.033064
O O10 0.195685 0.240660 0.839885
O O11 0.109703 0.000000 0.994113
O O12 0.117748 0.215173 0.100543
O O13 0.657943 0.000000 0.088164
O O14 0.082543 0.500000 0.885133
O O15 0.975587 0.500000 0.152365
O O16 0.227537 0.500000 0.337469
#
# Coordination Sequence:
#
# PCOD9181360 Si02
#       7
#     8   8   8   8   4   8   4
#     4   9  16  24  40  71 113 151 183 226 280 337
#     4  12  23  39  62  87 115 146 184 233 285 340
#     4  10  20  33  56  84 113 151 192 232 277 334
#     4   9  15  26  43  70 109 152 187 225 277 330
#     4  11  24  42  62  79 115 151 189 233 277 339
#     4  10  19  32  52  83 117 151 189 231 286 342
#     4  11  26  44  60  87 113 148 187 233 287 336
#
# _framework density 17.844556000000001
#
# number of rings (size 3 to 8) (size 9 to 14) (size 15 to 20)
#    0.000    1.833    2.500    2.500    2.333    6.667 
#    0.000    1.667    0.000    0.000    0.000    2.333 
#    0.000    4.000    0.000    0.000    0.000    0.000 
#
# Total GULP energy -133875.133406 kJ/mol
# GULP energy per Si atom -5578.130559 kJ/mol
# Density = 1.780394 g / cm^3
# Si number density = 17.844556 Si / 1000 Ang^3
#
#
#
# Elastic Constant Matrix: (Units=GPa)
#
#
# Indices 1 2 3 4 5 6 
#
# 1 133.4024 60.5689 47.1549 -0.0005 10.6350 -0.0003
# 2 60.5689 122.6632 36.8482 0.0005 -5.6355 -0.0011
# 3 47.1549 36.8482 50.6184 0.0008 5.3795 -0.0010
# 4 -0.0005 0.0005 0.0008 19.3703 -0.0004 3.4437
# 5 10.6350 -5.6355 5.3795 -0.0004 17.3745 0.0003
# 6 -0.0003 -0.0011 -0.0010 3.4437 0.0003 30.5100
#
#
#
# Elastic Compliance Matrix: (Units=1/GPa)
#
#
# Indices 1 2 3 4 5 6 
#
# 1 0.012819 -0.004174 -0.008196 0.000001 -0.006663 0.000000
# 2 -0.004174 0.012420 -0.006051 0.000000 0.008457 0.000000
# 3 -0.008196 -0.006051 0.032542 -0.000002 -0.007022 0.000001
# 4 0.000001 0.000000 -0.000002 0.052683 0.000001 -0.005946
# 5 -0.006663 0.008457 -0.007022 0.000001 0.066552 -0.000001
# 6 0.000000 0.000000 0.000001 -0.005946 -0.000001 0.033447
#
#
# Mechanical properties :
#
#
# Convention : Reuss Voigt Hill
#
# Bulk Modulus (GPa) = 47.75778 66.20310 56.98044
# Shear Modulus (GPa) = 19.66298 24.25843 21.96070
#
# Velocity S-wave (km/s) = 3.32309 3.69104 3.51189
# Velocity P-wave (km/s) = 6.44556 7.43946 6.96027
#
# Compressibility (1/GPa) = 0.02093900
#
# Stress axis : x y z
#
# Youngs Moduli (GPa) = 78.00619 80.51548 30.72961
#
# Poissons Ratio (x) = 0.33609 0.25185
# Poissons Ratio (y) = 0.32562 0.18596
# Poissons Ratio (z) = 0.63930 0.48723
#
# Static dielectric constant tensor:
#      x y z
#    x 1.635100 0.000000 0.032580 
#    y 0.000000 1.621260 0.000000 
#    z 0.032580 0.000000 1.603190 
# 
# From -- ./inp_files/248841.got.cif
#   From: 2010.05.17/outbox.cif.g08.bks.cpg/sg12_125_cif.got.tgz:248841.got - 2010.06.03 13:09:07.
