data_PCOD9181733
_publ_section_title
;
Structure prediction by ZEFSAII (Michael W. Deem and Ramdas Pophale) SiO2 
 PCOD9181733
Probable space group: C 2/M
;
_chemical_formula_sum "Si O2"
_cell_formula_units_Z 48
_cell_length_a 23.463601
_cell_length_b 13.604710
_cell_length_c 12.122948
_cell_angle_alpha 90.000000
_cell_angle_beta 42.198045
_cell_angle_gamma 90.000000
_cell_volume 2599.348517
_symmetry_space_group_name_H-M "C 2/M"
_symmetry_group_IT_number 12
_symmetry_cell_setting 'monoclinic'
loop_
_space_group_symop_operation_xyz
x,y,z
-x,y,-z
-x,-y,-z
x,-y,z
1/2+x,1/2+y,z
1/2-x,1/2+y,-z
1/2-x,1/2-y,-z
1/2+x,1/2-y,z
loop_
_atom_site_type_symbol
_atom_site_label
_atom_site_fract_x
_atom_site_fract_y
_atom_site_fract_z
Si Si1 0.782627 0.889361 0.484962
Si Si2 0.772218 0.811005 0.137454
Si Si3 0.206969 0.388349 0.006217
Si Si4 0.489068 0.116673 0.644735
Si Si5 0.909380 0.114042 0.094309
Si Si6 0.653845 0.805242 0.506593
O O1 0.847989 0.885249 0.288333
O O2 0.692792 0.858930 0.558505
O O3 0.816301 0.807032 0.519586
O O4 0.779812 0.000000 0.532189
O O5 0.758156 0.871769 0.046363
O O6 0.862437 0.829743 0.064401
O O7 0.702840 0.843100 0.327379
O O8 0.763903 0.696796 0.117865
O O9 0.216412 0.500000 0.953318
O O10 0.108033 0.370378 0.178781
O O11 0.500000 0.144398 0.500000
O O12 0.555662 0.175718 0.624374
O O13 0.509248 0.000000 0.624361
O O14 0.920903 0.000000 0.044207
O O15 0.000000 0.154992 0.000000
#
# Coordination Sequence:
#
# PCOD9181733 Si02
#       6
#     8   8   8   8   8   8
#     4   9  19  33  51  75 101 132 169 207 251 299
#     4  10  20  34  53  75 101 135 168 208 251 301
#     4  10  21  35  52  77 104 135 170 207 255 303
#     4  10  19  32  54  78 101 129 169 217 255 296
#     4   9  18  32  51  74  98 129 167 208 249 292
#     4  10  19  33  54  77 101 134 169 210 253 299
#
# _framework density 18.466166000000001
#
# number of rings (size 3 to 8) (size 9 to 14) (size 15 to 20)
#    0.000    2.333    1.667    1.000    2.333    2.000 
#    0.000    0.000    0.000    1.000    0.000    0.000 
#    0.000    0.000    0.000    0.000    0.000    0.000 
#
# Total GULP energy -133862.331379 kJ/mol
# GULP energy per Si atom -5577.597141 kJ/mol
# Density = 1.842414 g / cm^3
# Si number density = 18.466166 Si / 1000 Ang^3
#
#
#
# Elastic Constant Matrix: (Units=GPa)
#
#
# Indices 1 2 3 4 5 6 
#
# 1 115.3033 15.1815 11.6273 0.0000 -20.8141 0.0000
# 2 15.1815 45.5776 -11.2805 0.0000 -0.1782 0.0000
# 3 11.6273 -11.2805 16.4535 0.0000 -6.9116 0.0000
# 4 0.0000 0.0000 0.0000 18.2465 0.0000 -4.5052
# 5 -20.8141 -0.1782 -6.9116 0.0000 24.4295 0.0000
# 6 0.0000 0.0000 0.0000 -4.5052 0.0000 14.8199
#
#
#
# Elastic Compliance Matrix: (Units=1/GPa)
#
#
# Indices 1 2 3 4 5 6 
#
# 1 0.011775 -0.006258 -0.009551 0.000000 0.007284 0.000000
# 2 -0.006258 0.030558 0.026359 0.000000 0.002349 0.000000
# 3 -0.009551 0.026359 0.093356 0.000000 0.018467 0.000000
# 4 0.000000 0.000000 0.000000 0.059252 0.000000 0.018012
# 5 0.007284 0.002349 0.018467 0.000000 0.052382 0.000000
# 6 0.000000 0.000000 0.000000 0.018012 0.000000 0.072953
#
#
# Mechanical properties :
#
#
# Convention : Reuss Voigt Hill
#
# Bulk Modulus (GPa) = 6.37795 23.15458 14.76626
# Shear Modulus (GPa) = 14.22725 22.28626 18.25675
#
# Velocity S-wave (km/s) = 2.77871 3.47777 3.14771
# Velocity P-wave (km/s) = 3.70895 5.35655 4.60700
#
# Compressibility (1/GPa) = 0.15679009
#
# Stress axis : x y z
#
# Youngs Moduli (GPa) = 84.92728 32.72459 10.71167
#
# Poissons Ratio (x) = 0.20478 0.10231
# Poissons Ratio (y) = 0.53144 -0.28235
# Poissons Ratio (z) = 0.81116 -0.86260
#
# Static dielectric constant tensor:
#      x y z
#    x 1.630950 0.000000 -0.010370 
#    y 0.000000 1.648960 0.000000 
#    z -0.010370 0.000000 1.626060 
# 
# From -- ./inp_files/154198.got.cif
#   From: 2010.05.17/outbox.cif.g08.bks.cpg/sg12_78_cif.got.tgz:154198.got - 2010.06.03 13:09:07.
