data_PCOD9181770
_publ_section_title
;
Structure prediction by ZEFSAII (Michael W. Deem and Ramdas Pophale) SiO2 
 PCOD9181770
Probable space group: C 2/M
;
_chemical_formula_sum "Si O2"
_cell_formula_units_Z 56
_cell_length_a 14.897908
_cell_length_b 7.764043
_cell_length_c 22.185741
_cell_angle_alpha 90.000000
_cell_angle_beta 97.062986
_cell_angle_gamma 90.000000
_cell_volume 2546.706998
_symmetry_space_group_name_H-M "C 2/M"
_symmetry_group_IT_number 12
_symmetry_cell_setting 'monoclinic'
loop_
_space_group_symop_operation_xyz
x,y,z
-x,y,-z
-x,-y,-z
x,-y,z
1/2+x,1/2+y,z
1/2-x,1/2+y,-z
1/2-x,1/2-y,-z
1/2+x,1/2-y,z
loop_
_atom_site_type_symbol
_atom_site_label
_atom_site_fract_x
_atom_site_fract_y
_atom_site_fract_z
Si Si1 0.871432 0.302015 0.952636
Si Si2 0.228391 0.711678 0.727034
Si Si3 0.339446 0.209873 0.078143
Si Si4 0.116613 0.195753 0.176307
Si Si5 0.399121 0.292725 0.505889
Si Si6 0.064469 0.291832 0.789624
Si Si7 0.764752 0.792424 0.595779
O O1 0.893163 0.500000 0.962217
O O2 0.763967 0.273510 0.932973
O O3 0.913834 0.256686 0.891988
O O4 0.887630 0.224504 0.020517
O O5 0.231908 0.500000 0.727188
O O6 0.296730 0.777200 0.784326
O O7 0.127619 0.758481 0.739235
O O8 0.257578 0.771052 0.663532
O O9 0.385814 0.260764 0.144129
O O10 0.336140 0.000000 0.077205
O O11 0.034381 0.213104 0.215590
O O12 0.142553 0.000000 0.167500
O O13 0.500000 0.227025 0.500000
O O14 0.405284 0.500000 0.511123
O O15 0.327090 0.251762 0.447540
O O16 0.349809 0.228901 0.563027
O O17 0.055907 0.500000 0.789766
O O18 0.771108 0.000000 0.598384
#
# Coordination Sequence:
#
# PCOD9181770 Si02
#       7
#     8   8   8   8   8   8   8
#     4  10  19  32  54  80 103 134 179 224 273 329
#     4   9  19  37  57  74 105 146 179 217 266 321
#     4   9  18  34  55  76 103 139 175 222 279 331
#     4  11  22  37  55  78 107 141 179 222 275 325
#     4   9  18  33  54  82 115 144 172 216 266 308
#     4  10  20  37  56  75 102 139 180 222 273 325
#     4   9  18  34  56  80 105 143 186 215 256 313
#
# _framework density 21.989180999999999
#
# number of rings (size 3 to 8) (size 9 to 14) (size 15 to 20)
#    0.000    2.429    1.429    0.857    0.000    3.143 
#    0.000    6.429    0.000    0.000    0.000    0.000 
#    0.000    0.000    0.000    0.000    0.000    0.000 
#
# Total GULP energy -156221.331623 kJ/mol
# GULP energy per Si atom -5579.333272 kJ/mol
# Density = 2.193913 g / cm^3
# Si number density = 21.989181 Si / 1000 Ang^3
#
#
#
# Elastic Constant Matrix: (Units=GPa)
#
#
# Indices 1 2 3 4 5 6 
#
# 1 94.5212 -5.0046 34.4238 0.0000 -27.1002 0.0000
# 2 -5.0046 23.7100 8.4326 0.0000 -3.7893 0.0000
# 3 34.4238 8.4326 113.5483 0.0000 -35.0454 0.0000
# 4 0.0000 0.0000 0.0000 13.4946 0.0000 -1.2205
# 5 -27.1002 -3.7893 -35.0454 0.0000 24.9443 0.0000
# 6 0.0000 0.0000 0.0000 -1.2205 0.0000 17.0870
#
#
#
# Elastic Compliance Matrix: (Units=1/GPa)
#
#
# Indices 1 2 3 4 5 6 
#
# 1 0.016289 0.006339 0.000618 0.000000 0.019529 0.000000
# 2 0.006339 0.045975 -0.001863 0.000000 0.011255 0.000000
# 3 0.000618 -0.001863 0.015674 0.000000 0.022410 0.000000
# 4 0.000000 0.000000 0.000000 0.074586 0.000000 0.005328
# 5 0.019529 0.011255 0.022410 0.000000 0.094501 0.000000
# 6 0.000000 0.000000 0.000000 0.005328 0.000000 0.058905
#
#
# Mechanical properties :
#
#
# Convention : Reuss Voigt Hill
#
# Bulk Modulus (GPa) = 11.34700 34.16480 22.75590
# Shear Modulus (GPa) = 15.37910 24.03369 19.70639
#
# Velocity S-wave (km/s) = 2.64747 3.30961 2.99688
# Velocity P-wave (km/s) = 3.81011 5.49322 4.72718
#
# Compressibility (1/GPa) = 0.08812904
#
# Stress axis : x y z
#
# Youngs Moduli (GPa) = 61.39029 21.75072 63.79806
#
# Poissons Ratio (x) = -0.13789 -0.03944
# Poissons Ratio (y) = -0.38918 0.11883
# Poissons Ratio (z) = -0.03795 0.04051
#
# Static dielectric constant tensor:
#      x y z
#    x 1.813480 0.000000 -0.034400 
#    y 0.000000 1.859770 0.000000 
#    z -0.034400 0.000000 1.837470 
# 
# From -- ./inp_files/308973.got.cif
#   From: 2010.05.17/outbox.cif.g08.bks.cpg/sg12_155_cif.got.tgz:308973.got - 2010.06.03 13:09:07.
