data_PCOD9181607
_publ_section_title
;
Structure prediction by ZEFSAII (Michael W. Deem and Ramdas Pophale) SiO2 
 PCOD9181607
Probable space group: C 2/M
;
_chemical_formula_sum "Si O2"
_cell_formula_units_Z 64
_cell_length_a 19.130033
_cell_length_b 9.414998
_cell_length_c 29.249990
_cell_angle_alpha 90.000000
_cell_angle_beta 137.132530
_cell_angle_gamma 90.000000
_cell_volume 3583.977239
_symmetry_space_group_name_H-M "C 2/M"
_symmetry_group_IT_number 12
_symmetry_cell_setting 'monoclinic'
loop_
_space_group_symop_operation_xyz
x,y,z
-x,y,-z
-x,-y,-z
x,-y,z
1/2+x,1/2+y,z
1/2-x,1/2+y,-z
1/2-x,1/2-y,-z
1/2+x,1/2-y,z
loop_
_atom_site_type_symbol
_atom_site_label
_atom_site_fract_x
_atom_site_fract_y
_atom_site_fract_z
Si Si1 0.604269 0.663683 0.778279
Si Si2 0.155391 0.830106 0.978205
Si Si3 0.310933 0.668261 0.899164
Si Si4 0.906069 0.665719 0.697445
Si Si5 0.649753 0.168271 0.435009
Si Si6 0.424559 0.670412 0.861668
Si Si7 0.949085 0.835154 0.355233
Si Si8 0.271955 0.169253 0.720658
O O1 0.611580 0.500000 0.795623
O O2 0.708225 0.745083 0.839392
O O3 0.505751 0.738474 0.753280
O O4 0.584157 0.670109 0.714087
O O5 0.156153 0.804165 0.033136
O O6 0.166342 0.000000 0.976396
O O7 0.250000 0.750000 0.000000
O O8 0.041692 0.786591 0.906832
O O9 0.288760 0.500000 0.884883
O O10 0.394953 0.700357 0.900381
O O11 0.936648 0.500000 0.715083
O O12 0.864195 0.689636 0.626287
O O13 0.820384 0.693068 0.694259
O O14 0.750000 0.250000 0.500000
O O15 0.547831 0.236631 0.408366
O O16 0.656645 0.000000 0.447047
O O17 0.417556 0.500000 0.852143
O O18 0.341658 0.748247 0.790459
O O19 0.847363 0.789512 0.333530
O O20 0.974075 0.000000 0.377863
O O21 0.276055 0.000000 0.732856
#
# Coordination Sequence:
#
# PCOD9181607 Si02
#       8
#     8   8   8   8   8   8   8   8
#     4  10  19  32  53  81 109 138 178 228 272 317
#     4  10  23  40  55  76 106 142 184 231 282 335
#     4  10  20  36  57  76 103 143 184 224 274 335
#     4   9  20  36  55  80 112 148 183 219 267 325
#     4  10  20  36  59  84 111 147 187 222 262 316
#     4  10  21  37  57  79 105 142 187 229 274 330
#     4   9  18  34  55  81 111 142 177 220 267 317
#     4  10  20  36  57  82 113 144 179 226 277 325
#
# _framework density 17.857256
#
# number of rings (size 3 to 8) (size 9 to 14) (size 15 to 20)
#    0.000    2.250    1.250    1.125    1.750    4.500 
#    0.000    0.625    0.000    6.000    0.000    0.000 
#    0.000    0.000    0.000    0.000    0.000    0.000 
#
# Total GULP energy -178581.358809 kJ/mol
# GULP energy per Si atom -5580.667463 kJ/mol
# Density = 1.781661 g / cm^3
# Si number density = 17.857256 Si / 1000 Ang^3
#
#
#
# Elastic Constant Matrix: (Units=GPa)
#
#
# Indices 1 2 3 4 5 6 
#
# 1 126.7131 53.7024 43.9914 0.0000 32.5639 0.0000
# 2 53.7024 55.9806 52.3747 0.0000 19.5079 0.0000
# 3 43.9914 52.3747 78.4231 0.0000 36.3815 0.0000
# 4 0.0000 0.0000 0.0000 30.8503 0.0000 6.5690
# 5 32.5639 19.5079 36.3815 0.0000 30.2396 0.0000
# 6 0.0000 0.0000 0.0000 6.5690 0.0000 25.2339
#
#
#
# Elastic Compliance Matrix: (Units=1/GPa)
#
#
# Indices 1 2 3 4 5 6 
#
# 1 0.020692 -0.030772 0.022793 0.000000 -0.029854 0.000000
# 2 -0.030772 0.097613 -0.077148 0.000000 0.062982 0.000000
# 3 0.022793 -0.077148 0.090043 0.000000 -0.083108 0.000000
# 4 0.000000 0.000000 0.000000 0.034317 0.000000 -0.008933
# 5 -0.029854 0.062982 -0.083108 0.000000 0.124575 0.000000
# 6 0.000000 0.000000 0.000000 -0.008933 0.000000 0.041955
#
#
# Mechanical properties :
#
#
# Convention : Reuss Voigt Hill
#
# Bulk Modulus (GPa) = 26.24928 62.36153 44.30541
# Shear Modulus (GPa) = 8.44388 24.66799 16.55594
#
# Velocity S-wave (km/s) = 2.17688 3.72075 3.04818
# Velocity P-wave (km/s) = 4.58801 7.31141 6.10354
#
# Compressibility (1/GPa) = 0.03809628
#
# Stress axis : x y z
#
# Youngs Moduli (GPa) = 48.32745 10.24454 11.10581
#
# Poissons Ratio (x) = 0.31524 -0.25314
# Poissons Ratio (y) = 1.48711 0.85679
# Poissons Ratio (z) = -1.10154 0.79034
#
# Static dielectric constant tensor:
#      x y z
#    x 1.618350 0.000000 -0.006000 
#    y 0.000000 1.596690 0.000000 
#    z -0.006000 0.000000 1.582970 
# 
# From -- ./inp_files/378264.got.cif
#   From: 2010.05.17/outbox.cif.g08.bks.cpg/sg12_190_cif.got.tgz:378264.got - 2010.06.03 13:09:07.
