data_PCOD9181430
_publ_section_title
;
Structure prediction by ZEFSAII (Michael W. Deem and Ramdas Pophale) SiO2 
 PCOD9181430
Probable space group: C 2/M
;
_chemical_formula_sum "Si O2"
_cell_formula_units_Z 64
_cell_length_a 14.903203
_cell_length_b 7.963634
_cell_length_c 31.276623
_cell_angle_alpha 90.000000
_cell_angle_beta 57.836149
_cell_angle_gamma 90.000000
_cell_volume 3142.336626
_symmetry_space_group_name_H-M "C 2/M"
_symmetry_group_IT_number 12
_symmetry_cell_setting 'monoclinic'
loop_
_space_group_symop_operation_xyz
x,y,z
-x,y,-z
-x,-y,-z
x,-y,z
1/2+x,1/2+y,z
1/2-x,1/2+y,-z
1/2-x,1/2-y,-z
1/2+x,1/2-y,z
loop_
_atom_site_type_symbol
_atom_site_label
_atom_site_fract_x
_atom_site_fract_y
_atom_site_fract_z
Si Si1 0.426550 0.197729 0.385675
Si Si2 0.912849 0.798509 0.079076
Si Si3 0.424072 0.701984 0.251839
Si Si4 0.526530 0.206110 0.445442
Si Si5 0.170532 0.698650 0.808067
Si Si6 0.598654 0.296018 0.275693
Si Si7 0.756963 0.803154 0.360980
Si Si8 0.648398 0.297751 0.998078
O O1 0.443431 0.256153 0.429882
O O2 0.537243 0.225689 0.332336
O O3 0.336012 0.287204 0.381218
O O4 0.402743 0.000000 0.391509
O O5 0.858106 0.754710 0.137279
O O6 0.853224 0.739064 0.051092
O O7 0.916574 0.000000 0.075463
O O8 0.035316 0.738826 0.045991
O O9 0.420447 0.500000 0.254057
O O10 0.417255 0.755906 0.204814
O O11 0.526901 0.751684 0.252860
O O12 0.322267 0.769724 0.304309
O O13 0.500000 0.261039 0.500000
O O14 0.642593 0.267470 0.401526
O O15 0.528026 0.000000 0.445327
O O16 0.181531 0.500000 0.806440
O O17 0.282826 0.766997 0.762192
O O18 0.597626 0.500000 0.279563
O O19 0.741043 0.000000 0.355909
O O20 0.645749 0.500000 0.998187
O O21 0.750000 0.250000 0.000000
#
# Coordination Sequence:
#
# PCOD9181430 Si02
#       8
#     8   8   8   8   8   8   8   8
#     4  10  19  32  53  77  98 127 171 214 249 296
#     4   9  20  38  55  76 109 144 173 204 253 312
#     4   9  18  34  53  72  99 138 174 202 248 312
#     4   9  18  32  50  73 101 133 167 203 251 312
#     4  11  22  34  52  80 109 135 169 216 257 291
#     4   9  20  37  53  72 103 139 170 204 254 309
#     4   9  18  34  54  73  98 134 170 205 252 307
#     4   9  19  37  60  81 103 137 178 215 253 298
#
# _framework density 20.367011000000002
#
# number of rings (size 3 to 8) (size 9 to 14) (size 15 to 20)
#    0.000    2.625    0.000    3.000    0.000    6.500 
#    0.000    6.250    0.000    2.625    0.000    0.000 
#    0.000    0.000    0.000    0.000    0.000    0.000 
#
# Total GULP energy -178553.582192 kJ/mol
# GULP energy per Si atom -5579.799443 kJ/mol
# Density = 2.032065 g / cm^3
# Si number density = 20.367011 Si / 1000 Ang^3
#
#
#
# Elastic Constant Matrix: (Units=GPa)
#
#
# Indices 1 2 3 4 5 6 
#
# 1 92.0007 -1.8548 38.9009 0.0000 21.3848 0.0000
# 2 -1.8548 15.0738 -3.4687 -0.0001 0.2739 0.0000
# 3 38.9009 -3.4687 49.0436 0.0000 29.8435 0.0000
# 4 0.0000 -0.0001 0.0000 17.2481 0.0000 2.1296
# 5 21.3848 0.2739 29.8435 0.0000 25.9818 0.0000
# 6 0.0000 0.0000 0.0000 2.1296 0.0000 22.7586
#
#
#
# Elastic Compliance Matrix: (Units=1/GPa)
#
#
# Indices 1 2 3 4 5 6 
#
# 1 0.016585 -0.001874 -0.016586 0.000000 0.005420 0.000000
# 2 -0.001874 0.071127 0.020046 0.000000 -0.022233 0.000000
# 3 -0.016586 0.020046 0.088973 0.000000 -0.088758 0.000000
# 4 0.000000 0.000000 0.000000 0.058655 0.000000 -0.005489
# 5 0.005420 -0.022233 -0.088758 0.000000 0.136211 0.000000
# 6 0.000000 0.000000 0.000000 -0.005489 0.000000 0.044453
#
#
# Mechanical properties :
#
#
# Convention : Reuss Voigt Hill
#
# Bulk Modulus (GPa) = 5.55998 24.80808 15.18403
# Shear Modulus (GPa) = 10.57564 21.36710 15.97137
#
# Velocity S-wave (km/s) = 2.28119 3.24250 2.80336
# Velocity P-wave (km/s) = 3.11034 5.12107 4.23672
#
# Compressibility (1/GPa) = 0.17985670
#
# Stress axis : x y z
#
# Youngs Moduli (GPa) = 60.29610 14.05944 11.23931
#
# Poissons Ratio (x) = 0.02635 0.18641
# Poissons Ratio (y) = 0.11302 -0.22530
# Poissons Ratio (z) = 1.00006 -0.28184
#
# Static dielectric constant tensor:
#      x y z
#    x 1.734930 0.000000 0.004150 
#    y 0.000000 1.727020 0.000000 
#    z 0.004150 0.000000 1.728790 
# 
# From -- ./inp_files/375030.got.cif
#   From: 2010.05.17/outbox.cif.g08.bks.cpg/sg12_188_cif.got.tgz:375030.got - 2010.06.03 13:09:07.
