data_PCOD9181380
_publ_section_title
;
Structure prediction by ZEFSAII (Michael W. Deem and Ramdas Pophale) SiO2 
 PCOD9181380
Probable space group: C 2/M
;
_chemical_formula_sum "Si O2"
_cell_formula_units_Z 56
_cell_length_a 19.504266
_cell_length_b 8.914254
_cell_length_c 18.582100
_cell_angle_alpha 90.000000
_cell_angle_beta 95.398880
_cell_angle_gamma 90.000000
_cell_volume 3216.462609
_symmetry_space_group_name_H-M "C 2/M"
_symmetry_group_IT_number 12
_symmetry_cell_setting 'monoclinic'
loop_
_space_group_symop_operation_xyz
x,y,z
-x,y,-z
-x,-y,-z
x,-y,z
1/2+x,1/2+y,z
1/2-x,1/2+y,-z
1/2-x,1/2-y,-z
1/2+x,1/2-y,z
loop_
_atom_site_type_symbol
_atom_site_label
_atom_site_fract_x
_atom_site_fract_y
_atom_site_fract_z
Si Si1 0.326913 0.681465 0.008326
Si Si2 0.048151 0.827961 0.076249
Si Si3 0.574568 0.179749 0.860360
Si Si4 0.988951 0.822303 0.580925
Si Si5 0.349008 0.825390 0.560896
Si Si6 0.714123 0.177522 0.601671
Si Si7 0.598675 0.819997 0.698268
O O1 0.323496 0.500000 0.010854
O O2 0.370798 0.743155 0.080381
O O3 0.250000 0.750000 0.000000
O O4 0.376118 0.720212 0.944114
O O5 0.003146 0.729213 0.126169
O O6 0.052441 0.000000 0.102685
O O7 0.000000 0.829080 0.000000
O O8 0.590999 0.224922 0.780205
O O9 0.580517 0.000000 0.868174
O O10 0.911459 0.777134 0.591378
O O11 0.000000 0.766772 0.500000
O O12 0.040462 0.749082 0.642102
O O13 0.998922 0.000000 0.582348
O O14 0.332693 0.801017 0.474442
O O15 0.280651 0.777730 0.596013
O O16 0.365350 0.000000 0.572569
O O17 0.671082 0.218191 0.667859
O O18 0.731997 0.000000 0.605058
O O19 0.592526 0.000000 0.694448
#
# Coordination Sequence:
#
# PCOD9181380 Si02
#       7
#     8   8   8   8   8   8   8
#     4  10  20  35  57  84 112 142 178 218 260 310
#     4   8  16  32  53  77 107 142 176 209 254 309
#     4  10  20  34  55  82 110 141 179 218 261 318
#     4  11  22  34  52  78 104 133 177 227 268 314
#     4  10  19  32  53  75  99 132 173 220 269 319
#     4   9  18  33  52  73 101 136 172 215 266 318
#     4  10  21  37  55  77 107 143 178 217 271 324
#
# _framework density 17.410430999999999
#
# number of rings (size 3 to 8) (size 9 to 14) (size 15 to 20)
#    0.000    2.286    1.429    2.571    0.000    6.000 
#    0.000    1.429    0.000    1.714    0.000    0.000 
#    0.000    0.000    0.000    0.000    0.000    0.000 
#
# Total GULP energy -156109.022480 kJ/mol
# GULP energy per Si atom -5575.322231 kJ/mol
# Density = 1.737080 g / cm^3
# Si number density = 17.410431 Si / 1000 Ang^3
#
#
#
# Elastic Constant Matrix: (Units=GPa)
#
#
# Indices 1 2 3 4 5 6 
#
# 1 107.0094 28.2040 51.5330 0.0000 -17.9276 0.0000
# 2 28.2040 22.2706 38.6497 0.0000 -9.7049 0.0000
# 3 51.5330 38.6497 104.5355 0.0000 -23.2856 0.0000
# 4 0.0000 0.0000 0.0000 21.9337 0.0000 -1.7153
# 5 -17.9276 -9.7049 -23.2856 0.0000 24.5929 0.0000
# 6 0.0000 0.0000 0.0000 -1.7153 0.0000 31.1323
#
#
#
# Elastic Compliance Matrix: (Units=1/GPa)
#
#
# Indices 1 2 3 4 5 6 
#
# 1 0.014345 -0.015917 -0.000325 0.000000 0.003868 0.000000
# 2 -0.015917 0.143941 -0.044741 0.000000 0.002837 0.000000
# 3 -0.000325 -0.044741 0.028238 0.000000 0.008845 0.000000
# 4 0.000000 0.000000 0.000000 0.045789 0.000000 0.002523
# 5 0.003868 0.002837 0.008845 0.000000 0.052976 0.000000
# 6 0.000000 0.000000 0.000000 0.002523 0.000000 0.032260
#
#
# Mechanical properties :
#
#
# Convention : Reuss Voigt Hill
#
# Bulk Modulus (GPa) = 15.48958 52.28766 33.88862
# Shear Modulus (GPa) = 10.84519 23.22704 17.03611
#
# Velocity S-wave (km/s) = 2.49853 3.65648 3.13149
# Velocity P-wave (km/s) = 4.15206 6.92272 5.70805
#
# Compressibility (1/GPa) = 0.06455955
#
# Stress axis : x y z
#
# Youngs Moduli (GPa) = 69.71245 6.94728 35.41283
#
# Poissons Ratio (x) = 0.11058 0.01151
# Poissons Ratio (y) = 1.10960 1.58439
# Poissons Ratio (z) = 0.02266 0.31083
#
# Static dielectric constant tensor:
#      x y z
#    x 1.601510 0.000000 -0.024400 
#    y 0.000000 1.582420 0.000000 
#    z -0.024400 0.000000 1.587940 
# 
# From -- ./inp_files/280293.got.cif
#   From: 2010.05.17/outbox.cif.g08.bks.cpg/sg12_141_cif.got.tgz:280293.got - 2010.06.03 13:09:07.
