data_PCOD9181856
_publ_section_title
;
Structure prediction by ZEFSAII (Michael W. Deem and Ramdas Pophale) SiO2 
 PCOD9181856
Probable space group: C 2/M
;
_chemical_formula_sum "Si O2"
_cell_formula_units_Z 58
_cell_length_a 18.724461
_cell_length_b 8.462556
_cell_length_c 15.341455
_cell_angle_alpha 90.000000
_cell_angle_beta 100.725647
_cell_angle_gamma 90.000000
_cell_volume 2388.488031
_symmetry_space_group_name_H-M "C 2/M"
_symmetry_group_IT_number 12
_symmetry_cell_setting 'monoclinic'
loop_
_space_group_symop_operation_xyz
x,y,z
-x,y,-z
-x,-y,-z
x,-y,z
1/2+x,1/2+y,z
1/2-x,1/2+y,-z
1/2-x,1/2-y,-z
1/2+x,1/2-y,z
loop_
_atom_site_type_symbol
_atom_site_label
_atom_site_fract_x
_atom_site_fract_y
_atom_site_fract_z
Si Si1 0.338500 0.182727 0.903097
Si Si2 0.896714 0.812293 0.737761
Si Si3 0.000000 0.500000 0.000000
Si Si4 0.105748 0.179643 0.524615
Si Si5 0.503784 0.819956 0.633320
Si Si6 0.102870 0.323045 0.906411
Si Si7 0.243886 0.682273 0.623864
Si Si8 0.183843 0.822561 0.779906
O O1 0.376953 0.267567 0.831595
O O2 0.352709 0.249042 0.001779
O O3 0.254170 0.177141 0.859634
O O4 0.369651 0.000000 0.915557
O O5 0.966574 0.726387 0.715093
O O6 0.825948 0.764828 0.663126
O O7 0.905034 0.000000 0.731309
O O8 0.026392 0.362969 0.934114
O O9 0.061925 0.294921 0.450991
O O10 0.190496 0.218000 0.550661
O O11 0.066512 0.208416 0.608956
O O12 0.093910 0.000000 0.493444
O O13 0.529138 0.000000 0.639742
O O14 0.366342 0.000000 0.107527
O O15 0.115614 0.222381 0.823592
O O16 0.243967 0.500000 0.597513
O O17 0.205076 0.700918 0.709530
O O18 0.179280 0.000000 0.741663
#
# Coordination Sequence:
#
# PCOD9181856 Si02
#       8
#     8   8   2   8   8   8   8   8
#     4   9  18  33  54  79 107 140 183 230 280 332
#     4  10  21  37  57  84 117 147 187 239 287 331
#     4   8  20  36  54  72 108 148 184 230 264 340
#     4  11  22  39  61  85 114 145 188 239 280 330
#     4  11  22  39  61  84 113 152 191 227 277 344
#     4   9  18  35  53  74 105 145 183 221 272 329
#     4  10  21  38  58  84 115 150 187 232 285 343
#     4  10  19  32  54  82 108 137 181 234 279 326
#
# _framework density 24.283145000000001
#
# number of rings (size 3 to 8) (size 9 to 14) (size 15 to 20)
#    0.414    1.655    0.000    4.966    0.000    3.310 
#    2.483    0.345    0.000    0.000    0.000    0.000 
#    0.000    0.000    0.000    0.000    0.000    0.000 
#
# Total GULP energy -161919.981094 kJ/mol
# GULP energy per Si atom -5583.447624 kJ/mol
# Density = 2.422788 g / cm^3
# Si number density = 24.283145 Si / 1000 Ang^3
#
#
#
# Elastic Constant Matrix: (Units=GPa)
#
#
# Indices 1 2 3 4 5 6 
#
# 1 98.9715 20.2846 28.1371 0.0000 -11.5172 0.0000
# 2 20.2846 64.1020 5.2992 0.0000 -7.2507 0.0000
# 3 28.1371 5.2992 54.2866 0.0000 -16.4102 0.0000
# 4 0.0000 0.0000 0.0000 29.4991 0.0000 -1.8876
# 5 -11.5172 -7.2507 -16.4102 0.0000 53.0268 0.0000
# 6 0.0000 0.0000 0.0000 -1.8876 0.0000 26.1072
#
#
#
# Elastic Compliance Matrix: (Units=1/GPa)
#
#
# Indices 1 2 3 4 5 6 
#
# 1 0.012578 -0.003435 -0.006068 0.000000 0.000384 0.000000
# 2 -0.003435 0.016831 0.000670 0.000000 0.001763 0.000000
# 3 -0.006068 0.000670 0.023310 0.000000 0.005988 0.000000
# 4 0.000000 0.000000 0.000000 0.034057 0.000000 0.002462
# 5 0.000384 0.001763 0.005988 0.000000 0.021036 0.000000
# 6 0.000000 0.000000 0.000000 0.002462 0.000000 0.038482
#
#
# Mechanical properties :
#
#
# Convention : Reuss Voigt Hill
#
# Bulk Modulus (GPa) = 28.52718 36.08911 32.30814
# Shear Modulus (GPa) = 28.46687 32.63590 30.55138
#
# Velocity S-wave (km/s) = 3.42759 3.67000 3.55086
# Velocity P-wave (km/s) = 5.23810 5.73172 5.49046
#
# Compressibility (1/GPa) = 0.03505429
#
# Stress axis : x y z
#
# Youngs Moduli (GPa) = 79.50607 59.41379 42.89971
#
# Poissons Ratio (x) = 0.20409 0.26030
# Poissons Ratio (y) = 0.27311 -0.02876
# Poissons Ratio (z) = 0.48241 -0.03982
#
# Static dielectric constant tensor:
#      x y z
#    x 1.622860 0.000000 -0.045470 
#    y 0.000000 1.867830 0.000000 
#    z -0.045470 0.000000 1.954420 
# 
# From -- ./inp_files/275464.got.cif
#   From: 2010.05.17/outbox.cif.g08.bks.cpg/sg12_138_cif.got.tgz:275464.got - 2010.06.03 13:09:07.
