data_PCOD9181601
_publ_section_title
;
Structure prediction by ZEFSAII (Michael W. Deem and Ramdas Pophale) SiO2 
 PCOD9181601
Probable space group: C 2/M
;
_chemical_formula_sum "Si O2"
_cell_formula_units_Z 64
_cell_length_a 8.854818
_cell_length_b 31.191091
_cell_length_c 11.738552
_cell_angle_alpha 90.000000
_cell_angle_beta 74.739768
_cell_angle_gamma 90.000000
_cell_volume 3127.772593
_symmetry_space_group_name_H-M "C 2/M"
_symmetry_group_IT_number 12
_symmetry_cell_setting 'monoclinic'
loop_
_space_group_symop_operation_xyz
x,y,z
-x,y,-z
-x,-y,-z
x,-y,z
1/2+x,1/2+y,z
1/2-x,1/2+y,-z
1/2-x,1/2-y,-z
1/2+x,1/2-y,z
loop_
_atom_site_type_symbol
_atom_site_label
_atom_site_fract_x
_atom_site_fract_y
_atom_site_fract_z
Si Si1 0.439350 0.880857 0.201417
Si Si2 0.404812 0.289274 0.266624
Si Si3 0.195297 0.366577 0.332532
Si Si4 0.328961 0.200949 0.488390
Si Si5 0.652956 0.452341 0.742944
Si Si6 0.788980 0.048232 0.777924
Si Si7 0.774152 0.703099 0.230941
Si Si8 0.821841 0.548531 0.939268
O O1 0.545538 0.863374 0.282374
O O2 0.301695 0.913411 0.264876
O O3 0.359450 0.838743 0.161010
O O4 0.558174 0.912896 0.110544
O O5 0.326701 0.334861 0.250753
O O6 0.315154 0.279736 0.406570
O O7 0.590433 0.293294 0.239895
O O8 0.356005 0.249440 0.196302
O O9 0.246039 0.415025 0.329469
O O10 0.172525 0.347057 0.460253
O O11 0.500000 0.217244 0.500000
O O12 0.292390 0.197187 0.363593
O O13 0.703371 0.500000 0.700129
O O14 0.474677 0.446498 0.742442
O O15 0.683957 0.448596 0.872921
O O16 0.751610 0.000000 0.744311
O O17 0.739885 0.051040 0.920797
O O18 0.890692 0.500000 0.910757
#
# Coordination Sequence:
#
# PCOD9181601 Si02
#       8
#     8   8   8   8   8   8   8   8
#     4  11  20  30  49  74 110 138 172 209 264 312
#     4  10  22  34  55  77 107 135 173 217 263 305
#     4   9  20  34  49  75 105 141 173 212 262 306
#     4  10  19  35  53  74 107 134 172 212 258 305
#     4   9  17  32  54  79 108 138 172 215 263 312
#     4  10  19  32  53  81 108 135 173 221 268 311
#     4  12  20  35  52  81 104 141 169 218 263 307
#     4   9  18  33  53  79 108 138 173 219 266 309
#
# _framework density 20.461846999999999
#
# number of rings (size 3 to 8) (size 9 to 14) (size 15 to 20)
#    0.750    1.250    1.250    4.125    0.000    3.000 
#    0.000    0.000    0.000    1.875    0.000   35.875 
#    0.000    0.000    0.000    0.000    0.000    0.000 
#
# Total GULP energy -178222.463100 kJ/mol
# GULP energy per Si atom -5569.451972 kJ/mol
# Density = 2.041527 g / cm^3
# Si number density = 20.461847 Si / 1000 Ang^3
#
#
#
# Elastic Constant Matrix: (Units=GPa)
#
#
# Indices 1 2 3 4 5 6 
#
# 1 143.8819 65.2697 -4.3371 0.0000 -5.4320 0.0000
# 2 65.2697 120.7907 0.6796 0.0000 -12.8074 0.0000
# 3 -4.3371 0.6796 6.4409 0.0000 -1.9209 0.0000
# 4 0.0000 0.0000 0.0000 5.4742 0.0000 -5.3939
# 5 -5.4320 -12.8074 -1.9209 0.0000 24.9060 0.0000
# 6 0.0000 0.0000 0.0000 -5.3939 0.0000 46.1140
#
#
#
# Elastic Compliance Matrix: (Units=1/GPa)
#
#
# Indices 1 2 3 4 5 6 
#
# 1 0.009508 -0.005183 0.006932 0.000000 -0.000057 0.000000
# 2 -0.005183 0.011582 -0.003350 0.000000 0.004567 0.000000
# 3 0.006932 -0.003350 0.163989 0.000000 0.012437 0.000000
# 4 0.000000 0.000000 0.000000 0.206471 0.000000 0.024150
# 5 -0.000057 0.004567 0.012437 0.000000 0.043447 0.000000
# 6 0.000000 0.000000 0.000000 0.024150 0.000000 0.024510
#
#
# Mechanical properties :
#
#
# Convention : Reuss Voigt Hill
#
# Bulk Modulus (GPa) = 5.49814 43.81533 24.65673
# Shear Modulus (GPa) = 9.55412 29.26559 19.40986
#
# Velocity S-wave (km/s) = 2.16319 3.78597 3.08326
# Velocity P-wave (km/s) = 2.98865 6.36954 4.97509
#
# Compressibility (1/GPa) = 0.18187955
#
# Stress axis : x y z
#
# Youngs Moduli (GPa) = 105.17425 86.33787 6.09795
#
# Poissons Ratio (x) = 0.44747 -0.04227
# Poissons Ratio (y) = 0.54509 0.02043
# Poissons Ratio (z) = -0.72911 0.28922
#
# Static dielectric constant tensor:
#      x y z
#    x 1.750470 0.000000 -0.009640 
#    y 0.000000 1.821270 0.000000 
#    z -0.009640 0.000000 1.734810 
# 
# From -- ./inp_files/199768.got.cif
#   From: 2010.05.17/outbox.cif.g08.bks.cpg/sg12_100_cif.got.tgz:199768.got - 2010.06.03 13:09:07.
