data_PCOD9181992
_publ_section_title
;
Structure prediction by ZEFSAII (Michael W. Deem and Ramdas Pophale) SiO2 
 PCOD9181992
Probable space group: C 2/M
;
_chemical_formula_sum "Si O2"
_cell_formula_units_Z 52
_cell_length_a 21.376488
_cell_length_b 14.823261
_cell_length_c 13.184953
_cell_angle_alpha 90.000000
_cell_angle_beta 140.698568
_cell_angle_gamma 90.000000
_cell_volume 2646.286748
_symmetry_space_group_name_H-M "C 2/M"
_symmetry_group_IT_number 12
_symmetry_cell_setting 'monoclinic'
loop_
_space_group_symop_operation_xyz
x,y,z
-x,y,-z
-x,-y,-z
x,-y,z
1/2+x,1/2+y,z
1/2-x,1/2+y,-z
1/2-x,1/2-y,-z
1/2+x,1/2-y,z
loop_
_atom_site_type_symbol
_atom_site_label
_atom_site_fract_x
_atom_site_fract_y
_atom_site_fract_z
Si Si1 0.000000 0.746407 0.000000
Si Si2 0.969366 0.262476 0.574849
Si Si3 0.177386 0.663717 0.904352
Si Si4 0.134383 0.901148 0.250185
Si Si5 0.838917 0.099630 0.490840
Si Si6 0.714350 0.854997 0.730366
Si Si7 0.313870 0.842260 0.862192
O O1 0.061724 0.816450 0.146937
O O2 0.076591 0.684840 0.035140
O O3 0.914886 0.179552 0.560518
O O4 0.890960 0.342772 0.456453
O O5 0.000000 0.231683 0.500000
O O6 0.066527 0.297762 0.752477
O O7 0.201916 0.611844 0.830281
O O8 0.250000 0.750000 0.000000
O O9 0.187490 0.617293 0.026546
O O10 0.189682 0.890873 0.426929
O O11 0.208397 0.900131 0.248020
O O12 0.084429 0.000000 0.190502
O O13 0.745588 0.105965 0.299217
O O14 0.884361 0.000000 0.534895
O O15 0.755468 0.753036 0.793188
#
# Coordination Sequence:
#
# PCOD9181992 Si02
#       7
#     4   8   8   8   8   8   8
#     4  10  19  32  55  82 102 130 172 216 257 298
#     4   9  17  31  53  77  99 130 174 216 253 298
#     4   9  16  30  51  75 101 127 168 217 255 294
#     4  10  20  34  52  77 108 136 167 211 259 303
#     4  10  21  35  50  74 109 142 170 205 252 307
#     4   8  17  31  50  73  97 132 173 213 253 296
#     4   9  18  31  50  75 103 135 171 208 250 304
#
# _framework density 19.650175999999998
#
# number of rings (size 3 to 8) (size 9 to 14) (size 15 to 20)
#    0.000    2.769    0.000    2.077    0.000    7.077 
#    0.000    1.154    0.000    5.077    0.000    0.000 
#    0.000    0.000    0.000    0.000    0.000    0.000 
#
# Total GULP energy -144801.681282 kJ/mol
# GULP energy per Si atom -5569.295434 kJ/mol
# Density = 1.960545 g / cm^3
# Si number density = 19.650176 Si / 1000 Ang^3
#
#
#
# Elastic Constant Matrix: (Units=GPa)
#
#
# Indices 1 2 3 4 5 6 
#
# 1 73.4997 5.3722 44.9157 0.0000 -14.4212 0.0000
# 2 5.3722 34.7098 5.9966 0.0000 -14.0450 0.0000
# 3 44.9157 5.9966 122.5565 0.0000 -17.8482 0.0000
# 4 0.0000 0.0000 0.0000 21.1675 0.0000 -7.9590
# 5 -14.4212 -14.0450 -17.8482 0.0000 41.4780 0.0000
# 6 0.0000 0.0000 0.0000 -7.9590 0.0000 9.8487
#
#
#
# Elastic Compliance Matrix: (Units=1/GPa)
#
#
# Indices 1 2 3 4 5 6 
#
# 1 0.018040 -0.000304 -0.006079 0.000000 0.003553 0.000000
# 2 -0.000304 0.033390 0.000116 0.000000 0.011250 0.000000
# 3 -0.006079 0.000116 0.010754 0.000000 0.002553 0.000000
# 4 0.000000 0.000000 0.000000 0.067863 0.000000 0.054841
# 5 0.003553 0.011250 0.002553 0.000000 0.030253 0.000000
# 6 0.000000 0.000000 0.000000 0.054841 0.000000 0.145855
#
#
# Mechanical properties :
#
#
# Convention : Reuss Voigt Hill
#
# Bulk Modulus (GPa) = 20.14133 38.14832 29.14483
# Shear Modulus (GPa) = 14.91481 26.13094 20.52288
#
# Velocity S-wave (km/s) = 2.75801 3.65061 3.23524
# Velocity P-wave (km/s) = 4.51823 6.10124 5.36840
#
# Compressibility (1/GPa) = 0.04964914
#
# Stress axis : x y z
#
# Youngs Moduli (GPa) = 55.43289 29.94936 92.99266
#
# Poissons Ratio (x) = 0.00911 0.56531
# Poissons Ratio (y) = 0.01685 -0.01080
# Poissons Ratio (z) = 0.33698 -0.00348
#
# Static dielectric constant tensor:
#      x y z
#    x 1.709800 0.000000 -0.018470 
#    y 0.000000 1.324150 0.000000 
#    z -0.018470 0.000000 1.721640 
# 
# From -- ./inp_files/168846.got.cif
#   From: 2010.05.17/outbox.cif.g08.bks.cpg/sg12_85_cif.got.tgz:168846.got - 2010.06.03 13:09:07.
