data_PCOD9181710
_publ_section_title
;
Structure prediction by ZEFSAII (Michael W. Deem and Ramdas Pophale) SiO2 
 PCOD9181710
Probable space group: C 2/M
;
_chemical_formula_sum "Si O2"
_cell_formula_units_Z 48
_cell_length_a 8.919445
_cell_length_b 20.682501
_cell_length_c 18.449294
_cell_angle_alpha 90.000000
_cell_angle_beta 135.848757
_cell_angle_gamma 90.000000
_cell_volume 2370.696262
_symmetry_space_group_name_H-M "C 2/M"
_symmetry_group_IT_number 12
_symmetry_cell_setting 'monoclinic'
loop_
_space_group_symop_operation_xyz
x,y,z
-x,y,-z
-x,-y,-z
x,-y,z
1/2+x,1/2+y,z
1/2-x,1/2+y,-z
1/2-x,1/2-y,-z
1/2+x,1/2-y,z
loop_
_atom_site_type_symbol
_atom_site_label
_atom_site_fract_x
_atom_site_fract_y
_atom_site_fract_z
Si Si1 0.152509 0.177484 0.176717
Si Si2 0.405917 0.925224 0.193929
Si Si3 0.952603 0.291941 0.400710
Si Si4 0.758576 0.702748 0.885780
Si Si5 0.881307 0.429377 0.881736
Si Si6 0.219494 0.840208 0.603991
O O1 0.195612 0.113072 0.146759
O O2 0.262898 0.170268 0.293567
O O3 0.274162 0.234956 0.175882
O O4 0.910386 0.198378 0.107753
O O5 0.445260 0.921680 0.121810
O O6 0.610176 0.887757 0.299970
O O7 0.401051 0.000000 0.213831
O O8 0.157097 0.305628 0.420373
O O9 0.000000 0.311115 0.500000
O O10 0.865136 0.218273 0.374758
O O11 0.741051 0.635415 0.835757
O O12 0.000000 0.707630 0.000000
O O13 0.774702 0.500000 0.833553
O O14 0.000000 0.431380 0.000000
O O15 0.000000 0.873212 0.500000
#
# Coordination Sequence:
#
# PCOD9181710 Si02
#       6
#     8   8   8   8   8   8
#     4  11  22  37  60  84 117 154 191 241 291 340
#     4  10  22  39  58  82 113 152 198 241 288 345
#     4  10  19  32  53  86 117 145 185 231 285 343
#     4  11  22  37  59  88 118 147 190 239 289 349
#     4   9  19  37  58  81 111 145 183 228 279 339
#     4  10  19  32  55  83 115 150 188 233 285 342
#
# _framework density 20.247215000000001
#
# number of rings (size 3 to 8) (size 9 to 14) (size 15 to 20)
#    0.000    1.833    0.000    6.500    0.000    3.667 
#    0.000    0.000    0.000   17.500    0.000    0.000 
#    0.000    0.667    0.000    0.000    0.000    0.000 
#
# Total GULP energy -133919.415270 kJ/mol
# GULP energy per Si atom -5579.975636 kJ/mol
# Density = 2.020113 g / cm^3
# Si number density = 20.247215 Si / 1000 Ang^3
#
#
#
# Elastic Constant Matrix: (Units=GPa)
#
#
# Indices 1 2 3 4 5 6 
#
# 1 135.8102 64.4218 46.5893 0.0000 4.9987 0.0000
# 2 64.4218 128.4516 18.2830 0.0000 -21.3020 0.0000
# 3 46.5893 18.2830 73.3322 0.0000 -8.3678 0.0000
# 4 0.0000 0.0000 0.0000 11.6425 0.0000 2.4085
# 5 4.9987 -21.3020 -8.3678 0.0000 32.4230 0.0000
# 6 0.0000 0.0000 0.0000 2.4085 0.0000 30.8761
#
#
#
# Elastic Compliance Matrix: (Units=1/GPa)
#
#
# Indices 1 2 3 4 5 6 
#
# 1 0.013950 -0.007351 -0.008064 0.000000 -0.009062 0.000000
# 2 -0.007351 0.012790 0.002648 0.000000 0.010220 0.000000
# 3 -0.008064 0.002648 0.019000 0.000000 0.007886 0.000000
# 4 0.000000 0.000000 0.000000 0.087301 0.000000 -0.006810
# 5 -0.009062 0.010220 0.007886 0.000000 0.040989 0.000000
# 6 0.000000 0.000000 0.000000 -0.006810 0.000000 0.032919
#
#
# Mechanical properties :
#
#
# Convention : Reuss Voigt Hill
#
# Bulk Modulus (GPa) = 49.49374 66.24247 57.86810
# Shear Modulus (GPa) = 20.90140 28.87500 24.88820
#
# Velocity S-wave (km/s) = 3.21644 3.78050 3.50982
# Velocity P-wave (km/s) = 6.18804 7.20028 6.71327
#
# Compressibility (1/GPa) = 0.02020458
#
# Stress axis : x y z
#
# Youngs Moduli (GPa) = 71.68321 78.18677 52.63281
#
# Poissons Ratio (x) = 0.57478 0.42443
# Poissons Ratio (y) = 0.52697 -0.13937
# Poissons Ratio (z) = 0.57806 -0.20703
#
# Static dielectric constant tensor:
#      x y z
#    x 1.740560 0.000000 0.010090 
#    y 0.000000 1.746850 0.000000 
#    z 0.010090 0.000000 1.775100 
# 
# From -- ./inp_files/258293.got.cif
#   From: 2010.05.17/outbox.cif.g08.bks.cpg/sg12_130_cif.got.tgz:258293.got - 2010.06.03 13:09:07.
