data_PCOD9181402
_publ_section_title
;
Structure prediction by ZEFSAII (Michael W. Deem and Ramdas Pophale) SiO2 
 PCOD9181402
Probable space group: C 2/M
;
_chemical_formula_sum "Si O2"
_cell_formula_units_Z 56
_cell_length_a 22.412450
_cell_length_b 9.081918
_cell_length_c 15.451857
_cell_angle_alpha 90.000000
_cell_angle_beta 80.899957
_cell_angle_gamma 90.000000
_cell_volume 3105.608693
_symmetry_space_group_name_H-M "C 2/M"
_symmetry_group_IT_number 12
_symmetry_cell_setting 'monoclinic'
loop_
_space_group_symop_operation_xyz
x,y,z
-x,y,-z
-x,-y,-z
x,-y,z
1/2+x,1/2+y,z
1/2-x,1/2+y,-z
1/2-x,1/2-y,-z
1/2+x,1/2-y,z
loop_
_atom_site_type_symbol
_atom_site_label
_atom_site_fract_x
_atom_site_fract_y
_atom_site_fract_z
Si Si1 0.444079 0.822267 0.946404
Si Si2 0.974757 0.329189 0.414250
Si Si3 0.244001 0.673737 0.362423
Si Si4 0.685137 0.671155 0.030601
Si Si5 0.831992 0.331297 0.454693
Si Si6 0.174132 0.166620 0.239980
Si Si7 0.539895 0.322771 0.245154
O O1 0.377621 0.752038 0.985113
O O2 0.461870 0.754809 0.848354
O O3 0.437384 0.000000 0.942295
O O4 0.500000 0.791589 0.000000
O O5 0.995647 0.500000 0.399043
O O6 0.903180 0.329231 0.440526
O O7 0.000000 0.272049 0.500000
O O8 0.993010 0.237854 0.325648
O O9 0.245358 0.500000 0.359760
O O10 0.196371 0.721905 0.448138
O O11 0.306597 0.737311 0.381796
O O12 0.221965 0.733786 0.276734
O O13 0.685990 0.500000 0.000003
O O14 0.680084 0.668310 0.135716
O O15 0.750000 0.750000 0.000000
O O16 0.811234 0.500000 0.447586
O O17 0.105322 0.213391 0.271976
O O18 0.182383 0.000000 0.269443
O O19 0.536771 0.500000 0.234615
#
# Coordination Sequence:
#
# PCOD9181402 Si02
#       7
#     8   8   8   8   8   8   8
#     4  10  21  39  63  88 115 153 195 236 292 353
#     4  10  20  35  55  79 109 146 186 227 275 328
#     4  10  19  32  53  77 100 135 182 223 264 317
#     4  10  21  38  60  87 117 148 187 236 286 340
#     4   9  19  34  50  72 106 142 174 219 271 318
#     4   9  19  35  54  77 106 140 174 215 272 326
#     4  10  21  36  56  83 113 145 184 230 278 332
#
# _framework density 18.031891000000002
#
# number of rings (size 3 to 8) (size 9 to 14) (size 15 to 20)
#    0.000    2.286    0.000    3.429    0.000    7.143 
#    2.571    0.000    0.000    0.000    0.000    0.000 
#    0.000    0.000    0.000    0.000    0.000    0.000 
#
# Total GULP energy -156031.507281 kJ/mol
# GULP energy per Si atom -5572.553831 kJ/mol
# Density = 1.799085 g / cm^3
# Si number density = 18.031891 Si / 1000 Ang^3
#
#
#
# Elastic Constant Matrix: (Units=GPa)
#
#
# Indices 1 2 3 4 5 6 
#
# 1 95.5972 48.9486 33.2369 0.0000 12.6867 0.0000
# 2 48.9486 70.4293 29.5500 0.0000 18.9542 0.0000
# 3 33.2369 29.5500 45.6274 0.0000 16.2526 0.0000
# 4 0.0000 0.0000 0.0000 27.7196 0.0000 0.7520
# 5 12.6867 18.9542 16.2526 0.0000 31.9253 0.0000
# 6 0.0000 0.0000 0.0000 0.7520 0.0000 25.0922
#
#
#
# Elastic Compliance Matrix: (Units=1/GPa)
#
#
# Indices 1 2 3 4 5 6 
#
# 1 0.017799 -0.009948 -0.007460 0.000000 0.002631 0.000000
# 2 -0.009948 0.026148 -0.006799 0.000000 -0.008110 0.000000
# 3 -0.007460 -0.006799 0.035741 0.000000 -0.011194 0.000000
# 4 0.000000 0.000000 0.000000 0.036105 0.000000 -0.001082
# 5 0.002631 -0.008110 -0.011194 0.000000 0.040791 0.000000
# 6 0.000000 0.000000 0.000000 -0.001082 0.000000 0.039886
#
#
# Mechanical properties :
#
#
# Convention : Reuss Voigt Hill
#
# Bulk Modulus (GPa) = 31.97523 48.34720 40.16121
# Shear Modulus (GPa) = 19.58418 23.60863 21.59640
#
# Velocity S-wave (km/s) = 3.29916 3.62231 3.46450
# Velocity P-wave (km/s) = 5.68187 6.66071 6.19067
#
# Compressibility (1/GPa) = 0.03127421
#
# Stress axis : x y z
#
# Youngs Moduli (GPa) = 56.18343 38.24396 27.97889
#
# Poissons Ratio (x) = 0.38047 0.20871
# Poissons Ratio (y) = 0.55894 0.19022
# Poissons Ratio (z) = 0.41910 0.26001
#
# Static dielectric constant tensor:
#      x y z
#    x 1.636460 0.000000 -0.012710 
#    y 0.000000 1.636750 0.000000 
#    z -0.012710 0.000000 1.600100 
# 
# From -- ./inp_files/231060.got.cif
#   From: 2010.05.17/outbox.cif.g08.bks.cpg/sg12_116_cif.got.tgz:231060.got - 2010.06.03 13:09:07.
