data_PCOD9181519
_publ_section_title
;
Structure prediction by ZEFSAII (Michael W. Deem and Ramdas Pophale) SiO2 
 PCOD9181519
Probable space group: C 2/M
;
_chemical_formula_sum "Si O2"
_cell_formula_units_Z 40
_cell_length_a 19.352379
_cell_length_b 8.927565
_cell_length_c 20.588235
_cell_angle_alpha 90.000000
_cell_angle_beta 44.421985
_cell_angle_gamma 90.000000
_cell_volume 2489.692569
_symmetry_space_group_name_H-M "C 2/M"
_symmetry_group_IT_number 12
_symmetry_cell_setting 'monoclinic'
loop_
_space_group_symop_operation_xyz
x,y,z
-x,y,-z
-x,-y,-z
x,-y,z
1/2+x,1/2+y,z
1/2-x,1/2+y,-z
1/2-x,1/2-y,-z
1/2+x,1/2-y,z
loop_
_atom_site_type_symbol
_atom_site_label
_atom_site_fract_x
_atom_site_fract_y
_atom_site_fract_z
Si Si1 0.269301 0.679160 0.416731
Si Si2 0.113778 0.320040 0.409793
Si Si3 0.813673 0.323972 0.901133
Si Si4 0.473272 0.175785 0.278484
Si Si5 0.123090 0.821592 0.266777
O O1 0.272429 0.500000 0.420186
O O2 0.250000 0.750000 0.500000
O O3 0.183921 0.719153 0.422950
O O4 0.375061 0.741856 0.323013
O O5 0.118443 0.500000 0.397151
O O6 0.146554 0.239092 0.321945
O O7 0.000000 0.280138 0.500000
O O8 0.791778 0.500000 0.909618
O O9 0.803714 0.241639 0.838188
O O10 0.932440 0.310106 0.832771
O O11 0.750000 0.250000 0.000000
O O12 0.518016 0.250985 0.313813
O O13 0.454782 0.000000 0.302386
O O14 0.118990 0.000000 0.267378
#
# Coordination Sequence:
#
# PCOD9181519 Si02
#       5
#     8   8   8   8   8
#     4  11  22  34  53  77 106 143 181 221 266 320
#     4  10  21  36  52  73 106 144 179 220 270 317
#     4   9  18  32  55  82 109 140 175 222 270 315
#     4   9  19  34  52  75 107 139 173 219 266 313
#     4  10  19  32  53  79 106 136 177 220 263 317
#
# _framework density 16.066238999999999
#
# number of rings (size 3 to 8) (size 9 to 14) (size 15 to 20)
#    1.200    1.000    0.000    4.200    0.000    3.600 
#    0.000    0.000    0.000    1.200    0.000    8.400 
#    0.000    0.000    0.000    0.000    0.000    0.000 
#
# Total GULP energy -111367.842512 kJ/mol
# GULP energy per Si atom -5568.392126 kJ/mol
# Density = 1.602967 g / cm^3
# Si number density = 16.066239 Si / 1000 Ang^3
#
#
#
# Elastic Constant Matrix: (Units=GPa)
#
#
# Indices 1 2 3 4 5 6 
#
# 1 120.8018 66.3580 61.6882 0.0000 7.5903 0.0000
# 2 66.3580 93.8943 62.6860 0.0000 8.1011 0.0000
# 3 61.6882 62.6860 113.5569 0.0000 14.3581 0.0000
# 4 0.0000 0.0000 0.0000 30.2181 0.0000 1.5139
# 5 7.5903 8.1011 14.3581 0.0000 21.5360 0.0000
# 6 0.0000 0.0000 0.0000 1.5139 0.0000 25.8620
#
#
#
# Elastic Compliance Matrix: (Units=1/GPa)
#
#
# Indices 1 2 3 4 5 6 
#
# 1 0.014350 -0.007820 -0.003507 0.000000 0.000222 0.000000
# 2 -0.007820 0.021128 -0.007381 0.000000 -0.000271 0.000000
# 3 -0.003507 -0.007381 0.015593 0.000000 -0.006383 0.000000
# 4 0.000000 0.000000 0.000000 0.033190 0.000000 -0.001943
# 5 0.000222 -0.000271 -0.006383 0.000000 0.050713 0.000000
# 6 0.000000 0.000000 0.000000 -0.001943 0.000000 0.038780
#
#
# Mechanical properties :
#
#
# Convention : Reuss Voigt Hill
#
# Bulk Modulus (GPa) = 73.22906 78.85748 76.04327
# Shear Modulus (GPa) = 23.17803 24.69128 23.93465
#
# Velocity S-wave (km/s) = 3.80235 3.92451 3.86391
# Velocity P-wave (km/s) = 8.05950 8.35015 8.20611
#
# Compressibility (1/GPa) = 0.01365578
#
# Stress axis : x y z
#
# Youngs Moduli (GPa) = 69.68434 47.33150 64.13201
#
# Poissons Ratio (x) = 0.37011 0.22492
# Poissons Ratio (y) = 0.54490 0.47335
# Poissons Ratio (z) = 0.24439 0.34934
#
# Static dielectric constant tensor:
#      x y z
#    x 1.531730 0.000000 -0.012630 
#    y 0.000000 1.533140 0.000000 
#    z -0.012630 0.000000 1.545850 
# 
# From -- ./inp_files/151864.got.cif
#   From: 2010.05.17/outbox.cif.g08.bks.cpg/sg12_76_cif.got.tgz:151864.got - 2010.06.03 13:09:07.
