data_PCOD9181328
_publ_section_title
;
Structure prediction by ZEFSAII (Michael W. Deem and Ramdas Pophale) SiO2 
 PCOD9181328
Probable space group: C 2/M
;
_chemical_formula_sum "Si O2"
_cell_formula_units_Z 40
_cell_length_a 22.042793
_cell_length_b 19.763980
_cell_length_c 7.685817
_cell_angle_alpha 90.000000
_cell_angle_beta 39.912458
_cell_angle_gamma 90.000000
_cell_volume 2148.357438
_symmetry_space_group_name_H-M "C 2/M"
_symmetry_group_IT_number 12
_symmetry_cell_setting 'monoclinic'
loop_
_space_group_symop_operation_xyz
x,y,z
-x,y,-z
-x,-y,-z
x,-y,z
1/2+x,1/2+y,z
1/2-x,1/2+y,-z
1/2-x,1/2-y,-z
1/2+x,1/2-y,z
loop_
_atom_site_type_symbol
_atom_site_label
_atom_site_fract_x
_atom_site_fract_y
_atom_site_fract_z
Si Si1 0.695652 0.145070 0.805647
Si Si2 0.664798 0.287155 0.290476
Si Si3 0.142480 0.577899 0.560964
Si Si4 0.004851 0.697006 0.789389
Si Si5 0.283662 0.575550 0.927787
O O1 0.786250 0.193513 0.631649
O O2 0.683005 0.110736 0.647721
O O3 0.600227 0.186917 0.049516
O O4 0.713938 0.090098 0.917179
O O5 0.573547 0.242944 0.524412
O O6 0.750000 0.250000 0.000000
O O7 0.647557 0.359761 0.237352
O O8 0.116024 0.500000 0.647080
O O9 0.054556 0.623503 0.694652
O O10 0.221846 0.580726 0.237388
O O11 0.000000 0.722727 0.000000
O O12 0.324072 0.500000 0.826289
#
# Coordination Sequence:
#
# PCOD9181328 Si02
#       5
#     8   8   8   8   8
#     4   9  21  34  57  75 116 146 186 218 285 324
#     4  10  20  37  56  80 116 148 189 227 276 332
#     4  10  19  32  52  81 114 149 182 221 276 343
#     4  10  20  35  53  85 116 147 185 229 279 333
#     4   9  19  35  56  81 112 147 186 227 274 335
#
# _framework density 18.618874999999999
#
# number of rings (size 3 to 8) (size 9 to 14) (size 15 to 20)
#    1.200    1.200    2.000    0.600    0.000   10.800 
#    0.000    2.000    0.000    0.600    0.000    4.200 
#    0.000    0.000    0.000    0.000    0.000    0.000 
#
# Total GULP energy -111394.887308 kJ/mol
# GULP energy per Si atom -5569.744365 kJ/mol
# Density = 1.857650 g / cm^3
# Si number density = 18.618875 Si / 1000 Ang^3
#
#
#
# Elastic Constant Matrix: (Units=GPa)
#
#
# Indices 1 2 3 4 5 6 
#
# 1 45.2675 10.6821 7.2021 0.0000 6.5538 0.0000
# 2 10.6821 81.5849 18.0380 0.0000 -6.5272 0.0000
# 3 7.2021 18.0380 36.1072 0.0000 2.7437 0.0000
# 4 0.0000 0.0000 0.0000 32.1396 0.0000 3.8479
# 5 6.5538 -6.5272 2.7437 0.0000 14.7241 0.0000
# 6 0.0000 0.0000 0.0000 3.8479 0.0000 20.2671
#
#
#
# Elastic Compliance Matrix: (Units=1/GPa)
#
#
# Indices 1 2 3 4 5 6 
#
# 1 0.025141 -0.003812 -0.002162 0.000000 -0.012477 0.000000
# 2 -0.003812 0.015224 -0.007595 0.000000 0.009861 0.000000
# 3 -0.002162 -0.007595 0.032564 0.000000 -0.008472 0.000000
# 4 0.000000 0.000000 0.000000 0.031838 0.000000 -0.006045
# 5 -0.012477 0.009861 -0.008472 0.000000 0.079420 0.000000
# 6 0.000000 0.000000 0.000000 -0.006045 0.000000 0.050489
#
#
# Mechanical properties :
#
#
# Convention : Reuss Voigt Hill
#
# Bulk Modulus (GPa) = 21.83783 26.08933 23.96358
# Shear Modulus (GPa) = 18.04549 21.89532 19.97041
#
# Velocity S-wave (km/s) = 3.11658 3.43297 3.27859
# Velocity P-wave (km/s) = 4.97042 5.45494 5.21831
#
# Compressibility (1/GPa) = 0.04579209
#
# Stress axis : x y z
#
# Youngs Moduli (GPa) = 39.77581 65.68446 30.70840
#
# Poissons Ratio (x) = 0.25038 0.06640
# Poissons Ratio (y) = 0.15162 0.23322
# Poissons Ratio (z) = 0.08601 0.49884
#
# Static dielectric constant tensor:
#      x y z
#    x 1.637620 0.000000 0.023910 
#    y 0.000000 1.683900 0.000000 
#    z 0.023910 0.000000 1.638110 
# 
# From -- ./inp_files/105707.got.cif
#   From: 2010.05.17/outbox.cif.g08.bks.cpg/sg12_53_cif.got.tgz:105707.got - 2010.06.03 13:09:07.
