data_PCOD9181312
_publ_section_title
;
Structure prediction by ZEFSAII (Michael W. Deem and Ramdas Pophale) SiO2 
 PCOD9181312
Probable space group: C 2/M
;
_chemical_formula_sum "Si O2"
_cell_formula_units_Z 64
_cell_length_a 31.975937
_cell_length_b 7.638603
_cell_length_c 11.307135
_cell_angle_alpha 90.000000
_cell_angle_beta 87.416075
_cell_angle_gamma 90.000000
_cell_volume 2758.976529
_symmetry_space_group_name_H-M "C 2/M"
_symmetry_group_IT_number 12
_symmetry_cell_setting 'monoclinic'
loop_
_space_group_symop_operation_xyz
x,y,z
-x,y,-z
-x,-y,-z
x,-y,z
1/2+x,1/2+y,z
1/2-x,1/2+y,-z
1/2-x,1/2-y,-z
1/2+x,1/2-y,z
loop_
_atom_site_type_symbol
_atom_site_label
_atom_site_fract_x
_atom_site_fract_y
_atom_site_fract_z
Si Si1 0.047216 0.302056 0.505830
Si Si2 0.861428 0.201599 0.946806
Si Si3 0.915284 0.290137 0.144661
Si Si4 0.870475 0.710910 0.377542
Si Si5 0.005327 0.706121 0.139401
Si Si6 0.717141 0.288355 0.897731
Si Si7 0.915176 0.800862 0.736938
Si Si8 0.723623 0.699835 0.621722
O O1 0.040777 0.500000 0.555308
O O2 0.086625 0.220389 0.569819
O O3 0.068087 0.307511 0.374500
O O4 0.000000 0.225554 0.500000
O O5 0.876767 0.274923 0.818951
O O6 0.849948 0.000000 0.924814
O O7 0.902396 0.207295 0.023772
O O8 0.825263 0.281678 0.032857
O O9 0.918214 0.500000 0.126871
O O10 0.878539 0.250719 0.239632
O O11 0.959967 0.236693 0.191677
O O12 0.869694 0.500000 0.395982
O O13 0.824864 0.781109 0.412035
O O14 0.012064 0.500000 0.164028
O O15 0.043833 0.807146 0.186549
O O16 0.000000 0.723310 0.000000
O O17 0.713255 0.500000 0.887441
O O18 0.726033 0.223512 0.759496
O O19 0.750000 0.250000 0.000000
O O20 0.904798 0.000000 0.701154
O O21 0.735248 0.500000 0.639001
O O22 0.750000 0.750000 0.500000
#
# Coordination Sequence:
#
# PCOD9181312 Si02
#       8
#     8   8   8   8   8   8   8   8
#     4  10  22  42  64  85 121 169 215 265 314 368
#     4  10  21  38  57  83 120 154 189 240 304 364
#     4  10  19  33  57  86 114 149 197 244 289 350
#     4  10  21  38  63  92 120 158 210 261 313 372
#     4  10  19  32  52  80 115 155 198 242 291 350
#     4  10  23  43  66  93 127 166 205 255 320 387
#     4  11  23  36  55  85 122 159 201 254 308 367
#     4  11  24  43  68  98 132 170 215 268 328 393
#
# _framework density 23.197006999999999
#
# number of rings (size 3 to 8) (size 9 to 14) (size 15 to 20)
#    0.000    1.750    2.500    1.500    0.000    6.500 
#    0.000    3.750    0.000    0.000    0.000    0.000 
#    0.000    0.000    0.000    0.000    0.000    0.000 
#
# Total GULP energy -178218.836493 kJ/mol
# GULP energy per Si atom -5569.338640 kJ/mol
# Density = 2.314421 g / cm^3
# Si number density = 23.197007 Si / 1000 Ang^3
#
#
#
# Elastic Constant Matrix: (Units=GPa)
#
#
# Indices 1 2 3 4 5 6 
#
# 1 125.4612 -6.2432 68.6883 0.0000 -21.4257 0.0000
# 2 -6.2432 40.7796 11.3983 0.0000 -11.6081 0.0000
# 3 68.6883 11.3983 142.1756 0.0000 -28.3818 0.0000
# 4 0.0000 0.0000 0.0000 22.2415 0.0000 -53.3262
# 5 -21.4257 -11.6081 -28.3818 0.0000 49.3572 0.0000
# 6 0.0000 0.0000 0.0000 -53.3262 0.0000 43.4964
#
#
#
# Elastic Compliance Matrix: (Units=1/GPa)
#
#
# Indices 1 2 3 4 5 6 
#
# 1 0.011604 0.004105 -0.005351 0.000000 0.002926 0.000000
# 2 0.004105 0.027857 -0.002884 0.000000 0.006675 0.000000
# 3 -0.005351 -0.002884 0.010451 0.000000 0.003008 0.000000
# 4 0.000000 0.000000 0.000000 -0.023183 0.000000 -0.028422
# 5 0.002926 0.006675 0.003008 0.000000 0.024830 0.000000
# 6 0.000000 0.000000 0.000000 -0.028422 0.000000 -0.011854
#
#
# Mechanical properties :
#
#
# Convention : Reuss Voigt Hill
#
# Bulk Modulus (GPa) = 24.00899 50.67813 37.34356
# Shear Modulus (GPa) = 80.84171 38.65724 59.74948
#
# Velocity S-wave (km/s) = 5.90980 4.08668 5.08068
# Velocity P-wave (km/s) = 7.54587 6.64546 7.10993
#
# Compressibility (1/GPa) = 0.04165106
#
# Stress axis : x y z
#
# Youngs Moduli (GPa) = 86.17483 35.89796 95.68782
#
# Poissons Ratio (x) = -0.14737 0.51206
# Poissons Ratio (y) = -0.35376 0.27597
# Poissons Ratio (z) = 0.46116 0.10353
#
# Static dielectric constant tensor:
#      x y z
#    x 1.897250 0.000000 -0.014920 
#    y 0.000000 1.954120 0.000000 
#    z -0.014920 0.000000 2.024120 
# 
# From -- ./inp_files/187555.got.cif
#   From: 2010.05.17/outbox.cif.g08.bks.cpg/sg12_94_cif.got.tgz:187555.got - 2010.06.03 13:09:07.
