data_PCOD9181861
_publ_section_title
;
Structure prediction by ZEFSAII (Michael W. Deem and Ramdas Pophale) SiO2 
 PCOD9181861
Probable space group: C 2/M
;
_chemical_formula_sum "Si O2"
_cell_formula_units_Z 64
_cell_length_a 27.485730
_cell_length_b 14.102342
_cell_length_c 8.833183
_cell_angle_alpha 90.000000
_cell_angle_beta 55.030460
_cell_angle_gamma 90.000000
_cell_volume 2805.703930
_symmetry_space_group_name_H-M "C 2/M"
_symmetry_group_IT_number 12
_symmetry_cell_setting 'monoclinic'
loop_
_space_group_symop_operation_xyz
x,y,z
-x,y,-z
-x,-y,-z
x,-y,z
1/2+x,1/2+y,z
1/2-x,1/2+y,-z
1/2-x,1/2-y,-z
1/2+x,1/2-y,z
loop_
_atom_site_type_symbol
_atom_site_label
_atom_site_fract_x
_atom_site_fract_y
_atom_site_fract_z
Si Si1 0.215508 0.110387 0.770062
Si Si2 0.137274 0.610381 0.962696
Si Si3 0.983200 0.108254 0.200292
Si Si4 0.158891 0.891572 0.567513
Si Si5 0.547311 0.756019 0.301801
Si Si6 0.352509 0.892559 0.412255
Si Si7 0.725763 0.113726 0.047890
Si Si8 0.362201 0.250939 0.622363
O O1 0.175534 0.149548 0.703668
O O2 0.282543 0.115642 0.582358
O O3 0.219115 0.144981 0.939768
O O4 0.197187 0.000000 0.812660
O O5 0.123294 0.500000 0.020412
O O6 0.086781 0.675329 0.127701
O O7 0.202711 0.627870 0.918260
O O8 0.140632 0.621719 0.777544
O O9 0.911855 0.107229 0.330050
O O10 0.013740 0.179466 0.260878
O O11 0.003890 0.000000 0.190949
O O12 0.000000 0.134792 0.000000
O O13 0.177974 0.827383 0.391991
O O14 0.181487 0.000000 0.516930
O O15 0.500000 0.805230 0.500000
O O16 0.592278 0.706257 0.340414
O O17 0.388518 0.813150 0.439363
O O18 0.370521 0.000000 0.419614
O O19 0.673913 0.171994 0.222519
O O20 0.723599 0.000000 0.075673
#
# Coordination Sequence:
#
# PCOD9181861 Si02
#       8
#     8   8   8   8   8   8   8   8
#     4   8  15  30  55  81 109 143 183 221 265 330
#     4   9  19  34  55  83 118 151 183 223 272 330
#     4  10  23  42  63  82 106 143 188 238 289 328
#     4  10  20  34  56  84 108 138 185 232 276 329
#     4  11  22  36  58  83 109 149 191 231 277 328
#     4   9  18  34  57  85 115 150 182 218 272 332
#     4   8  15  30  51  77 112 149 181 214 262 328
#     4  10  19  32  54  82 108 147 181 229 270 328
#
# _framework density 22.810675
#
# number of rings (size 3 to 8) (size 9 to 14) (size 15 to 20)
#    0.000    2.625    1.250    1.125    1.750    3.500 
#    0.000    0.000    2.750    4.125    0.000    0.000 
#    0.000    0.000    0.000    0.000    0.000    0.000 
#
# Total GULP energy -178331.146516 kJ/mol
# GULP energy per Si atom -5572.848329 kJ/mol
# Density = 2.275876 g / cm^3
# Si number density = 22.810675 Si / 1000 Ang^3
#
#
#
# Elastic Constant Matrix: (Units=GPa)
#
#
# Indices 1 2 3 4 5 6 
#
# 1 102.6895 31.6750 34.9422 0.0000 27.7793 0.0000
# 2 31.6750 72.3954 22.9553 0.0000 7.5996 0.0000
# 3 34.9422 22.9553 54.3668 0.0000 -2.8980 0.0000
# 4 0.0000 0.0000 0.0000 21.7450 0.0000 8.4723
# 5 27.7793 7.5996 -2.8980 0.0000 29.9670 0.0000
# 6 0.0000 0.0000 0.0000 8.4723 0.0000 28.8360
#
#
#
# Elastic Compliance Matrix: (Units=1/GPa)
#
#
# Indices 1 2 3 4 5 6 
#
# 1 0.020139 -0.002731 -0.012815 0.000000 -0.019216 0.000000
# 2 -0.002731 0.017012 -0.005551 0.000000 -0.002319 0.000000
# 3 -0.012815 -0.005551 0.029836 0.000000 0.016172 0.000000
# 4 0.000000 0.000000 0.000000 0.051933 0.000000 -0.015258
# 5 -0.019216 -0.002319 0.016172 0.000000 0.053335 0.000000
# 6 0.000000 0.000000 0.000000 -0.015258 0.000000 0.039162
#
#
# Mechanical properties :
#
#
# Convention : Reuss Voigt Hill
#
# Bulk Modulus (GPa) = 40.33482 45.39961 42.86722
# Shear Modulus (GPa) = 19.09314 25.43488 22.26401
#
# Velocity S-wave (km/s) = 2.89628 3.34285 3.12754
# Velocity P-wave (km/s) = 5.37637 5.90301 5.64584
#
# Compressibility (1/GPa) = 0.02479247
#
# Stress axis : x y z
#
# Youngs Moduli (GPa) = 49.65457 58.78353 33.51681
#
# Poissons Ratio (x) = 0.16054 0.42951
# Poissons Ratio (y) = 0.13560 0.18606
# Poissons Ratio (z) = 0.63632 0.32632
#
# Static dielectric constant tensor:
#      x y z
#    x 1.910810 0.000000 -0.006810 
#    y 0.000000 1.902790 0.000000 
#    z -0.006810 0.000000 1.944880 
# 
# From -- ./inp_files/111196.got.cif
#   From: 2010.05.17/outbox.cif.g08.bks.cpg/sg12_56_cif.got.tgz:111196.got - 2010.06.03 13:09:07.
