data_PCOD9181978
_publ_section_title
;
Structure prediction by ZEFSAII (Michael W. Deem and Ramdas Pophale) SiO2 
 PCOD9181978
Probable space group: C 2/M
;
_chemical_formula_sum "Si O2"
_cell_formula_units_Z 64
_cell_length_a 29.518313
_cell_length_b 14.799691
_cell_length_c 8.220571
_cell_angle_alpha 90.000000
_cell_angle_beta 124.715899
_cell_angle_gamma 90.000000
_cell_volume 2951.960949
_symmetry_space_group_name_H-M "C 2/M"
_symmetry_group_IT_number 12
_symmetry_cell_setting 'monoclinic'
loop_
_space_group_symop_operation_xyz
x,y,z
-x,y,-z
-x,-y,-z
x,-y,z
1/2+x,1/2+y,z
1/2-x,1/2+y,-z
1/2-x,1/2-y,-z
1/2+x,1/2-y,z
loop_
_atom_site_type_symbol
_atom_site_label
_atom_site_fract_x
_atom_site_fract_y
_atom_site_fract_z
Si Si1 0.616772 0.105091 0.351669
Si Si2 0.046801 0.746109 0.990105
Si Si3 0.542576 0.100417 0.734907
Si Si4 0.651535 0.324873 0.130290
Si Si5 0.283196 0.392059 0.043959
Si Si6 0.284773 0.833731 0.646848
Si Si7 0.323101 0.399024 0.456482
Si Si8 0.844663 0.608987 0.216046
O O1 0.678196 0.111806 0.401680
O O2 0.626474 0.135434 0.555460
O O3 0.597763 0.000000 0.306328
O O4 0.581539 0.177838 0.178756
O O5 0.021435 0.676647 0.811088
O O6 0.086448 0.815332 0.978177
O O7 0.000000 0.792337 0.000000
O O8 0.500000 0.096776 0.500000
O O9 0.605267 0.122142 0.809032
O O10 0.543681 0.000000 0.812628
O O11 0.675090 0.223586 0.158773
O O12 0.656505 0.354783 0.331886
O O13 0.687261 0.377853 0.070573
O O14 0.281057 0.500000 0.065478
O O15 0.322223 0.356033 0.272987
O O16 0.219372 0.357065 0.919913
O O17 0.250000 0.750000 0.500000
O O18 0.242778 0.898502 0.648557
O O19 0.346149 0.500000 0.497833
O O20 0.838362 0.500000 0.208921
#
# Coordination Sequence:
#
# PCOD9181978 Si02
#       8
#     8   8   8   8   8   8   8   8
#     4  10  19  32  55  79 111 158 201 246 286 334
#     4  11  24  41  57  82 111 150 201 246 305 365
#     4  10  21  38  58  83 118 159 205 246 281 334
#     4  10  22  40  56  86 124 157 191 248 302 361
#     4  10  21  37  61  91 119 158 205 239 293 361
#     4   9  18  31  47  81 120 156 194 225 276 343
#     4  10  20  36  61  85 117 160 197 242 290 348
#     4   9  18  32  52  84 118 149 193 244 285 329
#
# _framework density 21.680503999999999
#
# number of rings (size 3 to 8) (size 9 to 14) (size 15 to 20)
#    0.000    2.125    0.000    3.375    3.500    3.500 
#    9.000    0.000    0.000    1.500    0.000    1.750 
#    0.000    0.000    0.000    0.000    0.000    0.000 
#
# Total GULP energy -178178.646208 kJ/mol
# GULP energy per Si atom -5568.082694 kJ/mol
# Density = 2.163116 g / cm^3
# Si number density = 21.680504 Si / 1000 Ang^3
#
#
#
# Elastic Constant Matrix: (Units=GPa)
#
#
# Indices 1 2 3 4 5 6 
#
# 1 75.0553 1.3536 2.8016 0.0000 10.3310 0.0000
# 2 1.3536 40.8459 19.1324 0.0000 0.5334 0.0000
# 3 2.8016 19.1324 82.0792 0.0000 -7.7216 0.0000
# 4 0.0000 0.0000 0.0000 77.2168 0.0000 -12.7707
# 5 10.3310 0.5334 -7.7216 0.0000 24.7658 0.0000
# 6 0.0000 0.0000 0.0000 -12.7707 0.0000 24.7310
#
#
#
# Elastic Compliance Matrix: (Units=1/GPa)
#
#
# Indices 1 2 3 4 5 6 
#
# 1 0.014227 0.000129 -0.001107 0.000000 -0.006283 0.000000
# 2 0.000129 0.027656 -0.006709 0.000000 -0.002741 0.000000
# 3 -0.001107 -0.006709 0.014260 0.000000 0.005052 0.000000
# 4 0.000000 0.000000 0.000000 0.014160 0.000000 0.007312
# 5 -0.006283 -0.002741 0.005052 0.000000 0.044633 0.000000
# 6 0.000000 0.000000 0.000000 0.007312 0.000000 0.044211
#
#
# Mechanical properties :
#
#
# Convention : Reuss Voigt Hill
#
# Bulk Modulus (GPa) = 24.52753 27.17286 25.85019
# Shear Modulus (GPa) = 26.58002 36.98891 31.78447
#
# Velocity S-wave (km/s) = 3.50521 4.13497 3.83304
# Velocity P-wave (km/s) = 5.26495 5.94624 5.61594
#
# Compressibility (1/GPa) = 0.04077051
#
# Stress axis : x y z
#
# Youngs Moduli (GPa) = 70.28752 36.15817 70.12506
#
# Poissons Ratio (x) = -0.00466 0.07761
# Poissons Ratio (y) = -0.00906 0.47046
# Poissons Ratio (z) = 0.07779 0.24258
#
# Static dielectric constant tensor:
#      x y z
#    x 1.887140 0.000000 0.037370 
#    y 0.000000 1.779510 0.000000 
#    z 0.037370 0.000000 2.026790 
# 
# From -- ./inp_files/112026.got.cif
#   From: 2010.05.17/outbox.cif.g08.bks.cpg/sg12_57_cif.got.tgz:112026.got - 2010.06.03 13:09:07.
