data_PCOD9181250
_publ_section_title
;
Structure prediction by ZEFSAII (Michael W. Deem and Ramdas Pophale) SiO2 
 PCOD9181250
Probable space group: C 2/M
;
_chemical_formula_sum "Si O2"
_cell_formula_units_Z 56
_cell_length_a 14.698369
_cell_length_b 7.591301
_cell_length_c 24.388306
_cell_angle_alpha 90.000000
_cell_angle_beta 117.219176
_cell_angle_gamma 90.000000
_cell_volume 2419.899792
_symmetry_space_group_name_H-M "C 2/M"
_symmetry_group_IT_number 12
_symmetry_cell_setting 'monoclinic'
loop_
_space_group_symop_operation_xyz
x,y,z
-x,y,-z
-x,-y,-z
x,-y,z
1/2+x,1/2+y,z
1/2-x,1/2+y,-z
1/2-x,1/2-y,-z
1/2+x,1/2-y,z
loop_
_atom_site_type_symbol
_atom_site_label
_atom_site_fract_x
_atom_site_fract_y
_atom_site_fract_z
Si Si1 0.422257 0.783456 0.698545
Si Si2 0.011766 0.705027 0.830550
Si Si3 0.320913 0.804634 0.569313
Si Si4 0.136589 0.288015 0.699412
Si Si5 0.724524 0.707008 0.834172
Si Si6 0.947946 0.715974 0.929676
Si Si7 0.461887 0.798098 0.432481
O O1 0.433513 0.718665 0.763600
O O2 0.336646 0.714515 0.632747
O O3 0.531262 0.737311 0.701269
O O4 0.417177 0.000000 0.697470
O O5 0.983251 0.500000 0.827275
O O6 0.124614 0.712673 0.835396
O O7 0.005274 0.775904 0.890056
O O8 0.250000 0.750000 0.500000
O O9 0.434566 0.808754 0.574795
O O10 0.284669 0.000000 0.572259
O O11 0.139186 0.500000 0.696355
O O12 0.220391 0.232496 0.766970
O O13 0.122058 0.221290 0.632884
O O14 0.717441 0.500000 0.842303
O O15 0.830433 0.771557 0.888875
O O16 0.949135 0.500000 0.931832
O O17 0.000000 0.777134 0.000000
O O18 0.500000 0.714256 0.500000
O O19 0.428946 0.000000 0.437255
#
# Coordination Sequence:
#
# PCOD9181250 Si02
#       7
#     8   8   8   8   8   8   8
#     4   7  12  25  45  64  83 118 164 197 224 281
#     4   9  17  34  58  76  96 136 180 206 244 311
#     4   9  16  27  42  62  89 119 154 195 239 284
#     4   8  14  28  50  70  91 128 171 204 241 301
#     4  10  19  32  52  79 107 132 166 217 264 296
#     4   9  19  35  54  78 108 139 171 207 251 312
#     4   8  14  27  47  67  89 123 166 203 237 290
#
# _framework density 23.141454
#
# number of rings (size 3 to 8) (size 9 to 14) (size 15 to 20)
#    0.000    3.429    0.000    3.000    0.000    0.571 
#    2.571    7.857    0.000    3.857    0.000    0.000 
#    0.000    0.000    0.000    0.000    0.000    0.000 
#
# Total GULP energy -155936.449942 kJ/mol
# GULP energy per Si atom -5569.158927 kJ/mol
# Density = 2.308878 g / cm^3
# Si number density = 23.141454 Si / 1000 Ang^3
#
#
#
# Elastic Constant Matrix: (Units=GPa)
#
#
# Indices 1 2 3 4 5 6 
#
# 1 67.7767 -9.3305 57.4736 0.0000 -4.2278 0.0000
# 2 -9.3305 46.6364 12.5382 0.0000 -1.1019 0.0000
# 3 57.4736 12.5382 308.2913 0.0000 1.6745 0.0000
# 4 0.0000 0.0000 0.0000 -3.9528 0.0000 24.5634
# 5 -4.2278 -1.1019 1.6745 0.0000 32.0630 0.0000
# 6 0.0000 0.0000 0.0000 24.5634 0.0000 -16.5097
#
#
#
# Elastic Compliance Matrix: (Units=1/GPa)
#
#
# Indices 1 2 3 4 5 6 
#
# 1 0.018733 0.004810 -0.003703 0.000000 0.002829 0.000000
# 2 0.004810 0.022935 -0.001838 0.000000 0.001519 0.000000
# 3 -0.003703 -0.001838 0.004013 0.000000 -0.000761 0.000000
# 4 0.000000 0.000000 0.000000 0.030682 0.000000 0.045648
# 5 0.002829 0.001519 -0.000761 0.000000 0.031654 0.000000
# 6 0.000000 0.000000 0.000000 0.045648 0.000000 0.007346
#
#
# Mechanical properties :
#
#
# Convention : Reuss Voigt Hill
#
# Bulk Modulus (GPa) = 22.61428 60.45191 41.53310
# Shear Modulus (GPa) = 38.00434 26.45495 32.22965
#
# Velocity S-wave (km/s) = 4.05688 3.38477 3.73597
# Velocity P-wave (km/s) = 5.63363 6.43856 6.04950
#
# Compressibility (1/GPa) = 0.04421984
#
# Stress axis : x y z
#
# Youngs Moduli (GPa) = 53.38037 43.60172 249.19151
#
# Poissons Ratio (x) = -0.20975 0.92286
# Poissons Ratio (y) = -0.25679 0.45797
# Poissons Ratio (z) = 0.19769 0.08013
#
# Static dielectric constant tensor:
#      x y z
#    x 1.875230 0.000000 0.002130 
#    y 0.000000 1.904400 0.000000 
#    z 0.002130 0.000000 1.949650 
# 
# From -- ./inp_files/342040.got.cif
#   From: 2010.05.17/outbox.cif.g08.bks.cpg/sg12_172_cif.got.tgz:342040.got - 2010.06.03 13:09:07.
