data_PCOD9181287
_publ_section_title
;
Structure prediction by ZEFSAII (Michael W. Deem and Ramdas Pophale) SiO2 
 PCOD9181287
Probable space group: C 2/M
;
_chemical_formula_sum "Si O2"
_cell_formula_units_Z 64
_cell_length_a 21.192063
_cell_length_b 7.818309
_cell_length_c 19.295616
_cell_angle_alpha 90.000000
_cell_angle_beta 96.969832
_cell_angle_gamma 90.000000
_cell_volume 3173.389941
_symmetry_space_group_name_H-M "C 2/M"
_symmetry_group_IT_number 12
_symmetry_cell_setting 'monoclinic'
loop_
_space_group_symop_operation_xyz
x,y,z
-x,y,-z
-x,-y,-z
x,-y,z
1/2+x,1/2+y,z
1/2-x,1/2+y,-z
1/2-x,1/2-y,-z
1/2+x,1/2-y,z
loop_
_atom_site_type_symbol
_atom_site_label
_atom_site_fract_x
_atom_site_fract_y
_atom_site_fract_z
Si Si1 0.196447 0.707522 0.693185
Si Si2 0.087750 0.795748 0.788007
Si Si3 0.050920 0.203474 0.451820
Si Si4 0.043472 0.210892 0.293420
Si Si5 0.168479 0.201990 0.231915
Si Si6 0.313927 0.204204 0.467162
Si Si7 0.166067 0.206367 0.927899
Si Si8 0.190180 0.703203 0.082000
O O1 0.196908 0.500000 0.693396
O O2 0.138912 0.763630 0.734401
O O3 0.263385 0.771080 0.733716
O O4 0.189164 0.766253 0.612864
O O5 0.116726 0.728925 0.864043
O O6 0.019133 0.730507 0.755627
O O7 0.081569 0.000000 0.795137
O O8 0.041668 0.269311 0.372781
O O9 0.122637 0.230108 0.487233
O O10 0.000000 0.274847 0.500000
O O11 0.039849 0.000000 0.446320
O O12 0.108068 0.270333 0.265360
O O13 0.043461 0.000000 0.293184
O O14 0.161940 0.225569 0.148921
O O15 0.170514 0.000000 0.246862
O O16 0.250000 0.250000 0.500000
O O17 0.318224 0.000000 0.465610
O O18 0.237169 0.269130 0.917649
O O19 0.167526 0.000000 0.924729
O O20 0.154484 0.254791 0.005910
O O21 0.193286 0.500000 0.089695
#
# Coordination Sequence:
#
# PCOD9181287 Si02
#       8
#     8   8   8   8   8   8   8   8
#     4  10  21  35  54  79 108 139 175 222 275 326
#     4  10  19  35  58  83 107 136 181 228 264 310
#     4  10  20  37  60  84 111 148 190 230 279 338
#     4   9  19  35  56  80 109 144 181 222 270 324
#     4  10  19  34  54  76 106 144 179 215 266 324
#     4  11  23  38  56  81 112 146 185 233 283 334
#     4   9  18  32  52  80 109 137 174 221 266 315
#     4  10  19  32  52  80 109 138 175 221 266 315
#
# _framework density 20.167708999999999
#
# number of rings (size 3 to 8) (size 9 to 14) (size 15 to 20)
#    0.000    2.125    1.250    2.250    0.000    5.250 
#    0.000    3.750    0.000    3.750    0.000    0.000 
#    0.000    0.000    0.000    0.000    0.000    0.000 
#
# Total GULP energy -178711.716487 kJ/mol
# GULP energy per Si atom -5584.741140 kJ/mol
# Density = 2.012181 g / cm^3
# Si number density = 20.167709 Si / 1000 Ang^3
#
#
#
# Elastic Constant Matrix: (Units=GPa)
#
#
# Indices 1 2 3 4 5 6 
#
# 1 86.3186 -9.2926 26.5343 0.0000 5.4163 0.0000
# 2 -9.2926 17.8047 -10.7749 0.0000 0.4555 0.0000
# 3 26.5343 -10.7749 97.7910 0.0000 17.9271 0.0000
# 4 0.0000 0.0000 0.0000 17.4770 0.0000 1.0453
# 5 5.4163 0.4555 17.9271 0.0000 26.1073 0.0000
# 6 0.0000 0.0000 0.0000 1.0453 0.0000 18.8821
#
#
#
# Elastic Compliance Matrix: (Units=1/GPa)
#
#
# Indices 1 2 3 4 5 6 
#
# 1 0.013058 0.005131 -0.002820 0.000000 -0.000862 0.000000
# 2 0.005131 0.063146 0.006821 0.000000 -0.006850 0.000000
# 3 -0.002820 0.006821 0.013336 0.000000 -0.008691 0.000000
# 4 0.000000 0.000000 0.000000 0.057408 0.000000 -0.003178
# 5 -0.000862 -0.006850 -0.008691 0.000000 0.044570 0.000000
# 6 0.000000 0.000000 0.000000 -0.003178 0.000000 0.053136
#
#
# Mechanical properties :
#
#
# Convention : Reuss Voigt Hill
#
# Bulk Modulus (GPa) = 9.27599 23.87197 16.57398
# Shear Modulus (GPa) = 19.06036 25.52313 22.29175
#
# Velocity S-wave (km/s) = 3.07757 3.56131 3.32824
# Velocity P-wave (km/s) = 4.15187 5.36405 4.79640
#
# Compressibility (1/GPa) = 0.10780519
#
# Stress axis : x y z
#
# Youngs Moduli (GPa) = 76.57984 15.83628 74.98571
#
# Poissons Ratio (x) = -0.08126 0.21144
# Poissons Ratio (y) = -0.39293 -0.51149
# Poissons Ratio (z) = 0.21593 -0.10802
#
# Static dielectric constant tensor:
#      x y z
#    x 1.680390 0.000000 0.012460 
#    y 0.000000 1.738870 0.000000 
#    z 0.012460 0.000000 1.703430 
# 
# From -- ./inp_files/281371.got.cif
#   From: 2010.05.17/outbox.cif.g08.bks.cpg/sg12_141_cif.got.tgz:281371.got - 2010.06.03 13:09:07.
