data_PCOD9181889
_publ_section_title
;
Structure prediction by ZEFSAII (Michael W. Deem and Ramdas Pophale) SiO2 
 PCOD9181889
Probable space group: C 2/M
;
_chemical_formula_sum "Si O2"
_cell_formula_units_Z 64
_cell_length_a 32.382631
_cell_length_b 7.553302
_cell_length_c 24.815131
_cell_angle_alpha 90.000000
_cell_angle_beta 28.396679
_cell_angle_gamma 90.000000
_cell_volume 2886.575659
_symmetry_space_group_name_H-M "C 2/M"
_symmetry_group_IT_number 12
_symmetry_cell_setting 'monoclinic'
loop_
_space_group_symop_operation_xyz
x,y,z
-x,y,-z
-x,-y,-z
x,-y,z
1/2+x,1/2+y,z
1/2-x,1/2+y,-z
1/2-x,1/2-y,-z
1/2+x,1/2-y,z
loop_
_atom_site_type_symbol
_atom_site_label
_atom_site_fract_x
_atom_site_fract_y
_atom_site_fract_z
Si Si1 0.756910 0.716488 0.719224
Si Si2 0.434717 0.283959 0.028005
Si Si3 0.660286 0.304380 0.074248
Si Si4 0.593984 0.783607 0.370182
Si Si5 0.637063 0.211232 0.502099
Si Si6 0.849966 0.195964 0.391211
Si Si7 0.941248 0.288880 0.706068
Si Si8 0.028595 0.781439 0.136943
O O1 0.758245 0.500000 0.717202
O O2 0.661934 0.773457 0.845368
O O3 0.828936 0.773730 0.679610
O O4 0.787922 0.771959 0.624285
O O5 0.435526 0.500000 0.027007
O O6 0.500000 0.226023 0.000000
O O7 0.458794 0.230919 0.939655
O O8 0.680358 0.500000 0.031082
O O9 0.592187 0.300754 0.201643
O O10 0.607676 0.217671 0.084926
O O11 0.750000 0.250000 0.000000
O O12 0.500000 0.727170 0.500000
O O13 0.604932 0.729231 0.295579
O O14 0.592885 0.000000 0.371418
O O15 0.634226 0.299382 0.563159
O O16 0.543980 0.237744 0.580926
O O17 0.646845 0.000000 0.500097
O O18 0.750000 0.250000 0.500000
O O19 0.934783 0.283296 0.266706
O O20 0.851173 0.000000 0.366611
O O21 0.927154 0.500000 0.729340
O O22 0.029363 0.000000 0.139420
#
# Coordination Sequence:
#
# PCOD9181889 Si02
#       8
#     8   8   8   8   8   8   8   8
#     4   9  17  28  48  79 112 144 181 229 279 327
#     4   9  18  31  49  75 107 142 179 226 281 328
#     4  11  23  39  57  81 114 153 193 233 285 343
#     4   9  15  26  45  76 112 142 178 227 275 321
#     4  10  19  33  55  86 116 143 183 232 283 339
#     4  11  23  39  59  84 113 148 186 233 290 344
#     4  10  19  32  54  82 114 148 186 232 284 337
#     4   9  20  37  55  82 117 145 181 235 288 339
#
# _framework density 22.171597999999999
#
# number of rings (size 3 to 8) (size 9 to 14) (size 15 to 20)
#    0.000    2.250    2.500    0.750    3.500    0.000 
#    0.000    0.000    0.000    1.125    0.000    0.875 
#    0.000    0.000    0.000    0.000    0.000    0.000 
#
# Total GULP energy -178578.470174 kJ/mol
# GULP energy per Si atom -5580.577193 kJ/mol
# Density = 2.212113 g / cm^3
# Si number density = 22.171598 Si / 1000 Ang^3
#
#
#
# Elastic Constant Matrix: (Units=GPa)
#
#
# Indices 1 2 3 4 5 6 
#
# 1 136.1378 3.0145 97.2666 0.0165 0.2078 0.0028
# 2 3.0145 42.4975 10.3110 0.0742 -9.6875 0.0032
# 3 97.2666 10.3110 160.2200 0.0202 -6.7879 -0.0193
# 4 0.0165 0.0742 0.0202 10.9492 -0.0087 2.0554
# 5 0.2078 -9.6875 -6.7879 -0.0087 43.7087 -0.0054
# 6 0.0028 0.0032 -0.0193 2.0554 -0.0054 12.1854
#
#
#
# Elastic Compliance Matrix: (Units=1/GPa)
#
#
# Indices 1 2 3 4 5 6 
#
# 1 0.013068 0.000762 -0.008031 -0.000008 -0.001141 -0.000015
# 2 0.000762 0.025131 -0.001856 -0.000168 0.005278 0.000021
# 3 -0.008031 -0.001856 0.011295 0.000001 0.001381 0.000021
# 4 -0.000008 -0.000168 0.000001 0.094319 -0.000020 -0.015909
# 5 -0.001141 0.005278 0.001381 -0.000020 0.024268 0.000015
# 6 -0.000015 0.000021 0.000021 -0.015909 0.000015 0.084749
#
#
# Mechanical properties :
#
#
# Convention : Reuss Voigt Hill
#
# Bulk Modulus (GPa) = 32.00721 62.22661 47.11691
# Shear Modulus (GPa) = 17.76238 28.58621 23.17430
#
# Velocity S-wave (km/s) = 2.83350 3.59460 3.23650
# Velocity P-wave (km/s) = 5.01721 6.73462 5.93833
#
# Compressibility (1/GPa) = 0.03124296
#
# Stress axis : x y z
#
# Youngs Moduli (GPa) = 76.52217 39.79227 88.53731
#
# Poissons Ratio (x) = -0.03030 0.71102
# Poissons Ratio (y) = -0.05827 0.16432
# Poissons Ratio (z) = 0.61453 0.07385
#
# Static dielectric constant tensor:
#      x y z
#    x 1.798690 -0.000050 -0.026230 
#    y -0.000050 1.891550 0.000050 
#    z -0.026230 0.000050 1.797580 
# 
# From -- ./inp_files/353309.got.cif
#   From: 2010.05.17/outbox.cif.g08.bks.cpg/sg12_177_cif.got.tgz:353309.got - 2010.06.03 13:09:07.
