data_PCOD9181095
_publ_section_title
;
Structure prediction by ZEFSAII (Michael W. Deem and Ramdas Pophale) SiO2 
 PCOD9181095
Probable space group: C 2/M
;
_chemical_formula_sum "Si O2"
_cell_formula_units_Z 64
_cell_length_a 21.760756
_cell_length_b 9.296151
_cell_length_c 17.276040
_cell_angle_alpha 90.000000
_cell_angle_beta 87.627904
_cell_angle_gamma 90.000000
_cell_volume 3491.797468
_symmetry_space_group_name_H-M "C 2/M"
_symmetry_group_IT_number 12
_symmetry_cell_setting 'monoclinic'
loop_
_space_group_symop_operation_xyz
x,y,z
-x,y,-z
-x,-y,-z
x,-y,z
1/2+x,1/2+y,z
1/2-x,1/2+y,-z
1/2-x,1/2-y,-z
1/2+x,1/2-y,z
loop_
_atom_site_type_symbol
_atom_site_label
_atom_site_fract_x
_atom_site_fract_y
_atom_site_fract_z
Si Si1 0.642649 0.333197 0.263791
Si Si2 0.019378 0.166204 0.164538
Si Si3 0.066249 0.173684 0.593155
Si Si4 0.577198 0.674294 0.418196
Si Si5 0.589418 0.832353 0.034440
Si Si6 0.287840 0.833325 0.867054
Si Si7 0.091004 0.329370 0.744843
Si Si8 0.666336 0.170324 0.889167
O O1 0.662751 0.500000 0.267688
O O2 0.579654 0.331737 0.216809
O O3 0.623812 0.276512 0.349491
O O4 0.691469 0.241368 0.213814
O O5 0.040502 0.237365 0.082854
O O6 0.967600 0.257763 0.210157
O O7 0.000566 0.000000 0.156434
O O8 0.089697 0.214874 0.506299
O O9 0.098449 0.252954 0.662125
O O10 0.993414 0.212923 0.598107
O O11 0.070235 0.000000 0.601185
O O12 0.578223 0.500000 0.415603
O O13 0.653362 0.823333 0.079428
O O14 0.569985 0.000000 0.035056
O O15 0.609817 0.786002 0.947780
O O16 0.228546 0.753515 0.903285
O O17 0.273776 0.000000 0.856166
O O18 0.081453 0.500000 0.736327
O O19 0.146843 0.307367 0.801576
O O20 0.675375 0.000000 0.902311
#
# Coordination Sequence:
#
# PCOD9181095 Si02
#       8
#     8   8   8   8   8   8   8   8
#     4   9  16  30  52  76 102 133 164 196 245 307
#     4  10  19  32  52  76 102 134 168 203 250 299
#     4   9  16  30  51  75 103 133 167 204 243 294
#     4   8  14  27  51  78 102 131 166 200 242 301
#     4   9  19  36  55  75 100 127 163 212 261 301
#     4  10  20  33  53  79 100 122 162 220 262 286
#     4  11  22  34  49  71 104 140 172 204 244 297
#     4  10  22  38  53  69  96 140 176 201 247 310
#
# _framework density 18.328668
#
# number of rings (size 3 to 8) (size 9 to 14) (size 15 to 20)
#    0.000    2.500    1.250    2.250    0.000    3.000 
#    0.000    4.375    0.000    0.750    0.000    0.000 
#    0.000    0.000    0.000    0.000    0.000    0.000 
#
# Total GULP energy -178537.422592 kJ/mol
# GULP energy per Si atom -5579.294456 kJ/mol
# Density = 1.828695 g / cm^3
# Si number density = 18.328668 Si / 1000 Ang^3
#
#
#
# Elastic Constant Matrix: (Units=GPa)
#
#
# Indices 1 2 3 4 5 6 
#
# 1 33.0961 18.1081 10.0107 0.0000 -3.3539 0.0000
# 2 18.1081 46.0009 30.5065 0.0000 4.5140 0.0000
# 3 10.0107 30.5065 123.0487 0.0000 -8.5389 0.0000
# 4 0.0000 0.0000 0.0000 26.5641 0.0000 -5.3259
# 5 -3.3539 4.5140 -8.5389 0.0000 16.8568 0.0000
# 6 0.0000 0.0000 0.0000 -5.3259 0.0000 16.1278
#
#
#
# Elastic Compliance Matrix: (Units=1/GPa)
#
#
# Indices 1 2 3 4 5 6 
#
# 1 0.041610 -0.019458 0.002462 0.000000 0.014737 0.000000
# 2 -0.019458 0.037084 -0.008881 0.000000 -0.018301 0.000000
# 3 0.002462 -0.008881 0.010704 0.000000 0.008290 0.000000
# 4 0.000000 0.000000 0.000000 0.040314 0.000000 0.013313
# 5 0.014737 -0.018301 0.008290 0.000000 0.071356 0.000000
# 6 0.000000 0.000000 0.000000 0.013313 0.000000 0.066401
#
#
# Mechanical properties :
#
#
# Convention : Reuss Voigt Hill
#
# Bulk Modulus (GPa) = 26.56571 35.48849 31.02710
# Shear Modulus (GPa) = 15.07065 21.47775 18.27420
#
# Velocity S-wave (km/s) = 2.87059 3.42689 3.16100
# Velocity P-wave (km/s) = 5.05100 5.92135 5.50341
#
# Compressibility (1/GPa) = 0.03764251
#
# Stress axis : x y z
#
# Youngs Moduli (GPa) = 24.03258 26.96600 93.42615
#
# Poissons Ratio (x) = 0.52471 -0.22997
# Poissons Ratio (y) = 0.46763 0.82970
# Poissons Ratio (z) = -0.05916 0.23948
#
# Static dielectric constant tensor:
#      x y z
#    x 1.612310 0.000000 0.007970 
#    y 0.000000 1.609160 0.000000 
#    z 0.007970 0.000000 1.663850 
# 
# From -- ./inp_files/281405.got.cif
#   From: 2010.05.17/outbox.cif.g08.bks.cpg/sg12_141_cif.got.tgz:281405.got - 2010.06.03 13:09:07.
