data_PCOD9181929
_publ_section_title
;
Structure prediction by ZEFSAII (Michael W. Deem and Ramdas Pophale) SiO2 
 PCOD9181929
Probable space group: C 2/M
;
_chemical_formula_sum "Si O2"
_cell_formula_units_Z 58
_cell_length_a 28.719625
_cell_length_b 14.197184
_cell_length_c 21.445912
_cell_angle_alpha 90.000000
_cell_angle_beta 158.375162
_cell_angle_gamma 90.000000
_cell_volume 3222.519037
_symmetry_space_group_name_H-M "C 2/M"
_symmetry_group_IT_number 12
_symmetry_cell_setting 'monoclinic'
loop_
_space_group_symop_operation_xyz
x,y,z
-x,y,-z
-x,-y,-z
x,-y,z
1/2+x,1/2+y,z
1/2-x,1/2+y,-z
1/2-x,1/2-y,-z
1/2+x,1/2-y,z
loop_
_atom_site_type_symbol
_atom_site_label
_atom_site_fract_x
_atom_site_fract_y
_atom_site_fract_z
Si Si1 0.000000 0.000000 0.000000
Si Si2 0.130892 0.386087 0.693503
Si Si3 0.010256 0.112560 0.273104
Si Si4 0.161228 0.825478 0.146582
Si Si5 0.697347 0.760441 0.557788
Si Si6 0.000278 0.612146 0.751926
Si Si7 0.951380 0.241335 0.796841
Si Si8 0.722557 0.113815 0.941489
O O1 0.099018 0.917232 0.100135
O O2 0.127558 0.500000 0.691304
O O3 0.245338 0.355560 0.792318
O O4 0.156183 0.351810 0.795263
O O5 0.000000 0.353435 0.500000
O O6 0.114210 0.167347 0.442991
O O7 0.025192 0.154282 0.221716
O O8 0.024477 0.000000 0.290702
O O9 0.870136 0.137963 0.123399
O O10 0.240402 0.771114 0.297523
O O11 0.048693 0.766842 0.974725
O O12 0.604418 0.847617 0.426342
O O13 0.810870 0.761836 0.649090
O O14 0.991209 0.500000 0.746288
O O15 0.974869 0.666588 0.784372
O O16 0.137231 0.639435 0.894359
O O17 0.718899 0.000000 0.934624
#
# Coordination Sequence:
#
# PCOD9181929 Si02
#       8
#     2   8   8   8   8   8   8   8
#     4  12  24  36  66  80 122 176 176 236 320 340
#     4  10  19  32  54  84 116 146 186 238 291 347
#     4  10  21  38  61  81 115 155 194 243 292 340
#     4  12  23  39  56  87 119 152 197 233 293 354
#     4  11  24  37  55  89 120 149 197 247 277 357
#     4  10  22  39  60  83 119 154 189 241 301 339
#     4  11  23  38  57  87 118 149 199 244 274 363
#     4   9  18  35  58  86 111 150 197 237 288 360
#
# _framework density 17.998342000000001
#
# number of rings (size 3 to 8) (size 9 to 14) (size 15 to 20)
#    0.000    1.517    3.448    2.483    1.931    5.517 
#    2.483    0.690    0.000    1.655    0.000    2.897 
#    0.000    0.000    0.000    0.000    0.000    0.000 
#
# Total GULP energy -161650.865290 kJ/mol
# GULP energy per Si atom -5574.167769 kJ/mol
# Density = 1.795738 g / cm^3
# Si number density = 17.998342 Si / 1000 Ang^3
#
#
#
# Elastic Constant Matrix: (Units=GPa)
#
#
# Indices 1 2 3 4 5 6 
#
# 1 55.3186 21.4989 28.0310 0.0000 4.2544 0.0000
# 2 21.4989 104.7619 36.3039 0.0000 -7.1869 0.0000
# 3 28.0310 36.3039 112.0987 0.0000 0.7570 -0.0001
# 4 0.0000 0.0000 0.0000 10.9329 0.0000 15.2140
# 5 4.2544 -7.1869 0.7570 0.0000 45.9644 0.0000
# 6 0.0000 0.0000 -0.0001 15.2140 0.0000 8.2449
#
#
#
# Elastic Compliance Matrix: (Units=1/GPa)
#
#
# Indices 1 2 3 4 5 6 
#
# 1 0.021698 -0.003091 -0.004408 0.000000 -0.002419 0.000000
# 2 -0.003091 0.011333 -0.002912 0.000000 0.002106 0.000000
# 3 -0.004408 -0.002912 0.010968 0.000000 -0.000228 0.000000
# 4 0.000000 0.000000 0.000000 -0.058340 0.000000 0.107652
# 5 -0.002419 0.002106 -0.000228 0.000000 0.022313 0.000000
# 6 0.000000 0.000000 0.000000 0.107652 0.000000 -0.077360
#
#
# Mechanical properties :
#
#
# Convention : Reuss Voigt Hill
#
# Bulk Modulus (GPa) = 43.14655 49.31634 46.23144
# Shear Modulus (GPa) = -122.42994 25.45146 -48.48924
#
# Velocity S-wave (km/s) = -8.25655 3.76453 -5.19610
# Velocity P-wave (km/s) = 8.17738 6.80849 3.20265
#
# Compressibility (1/GPa) = 0.02317682
#
# Stress axis : x y z
#
# Youngs Moduli (GPa) = 46.08662 88.23578 91.17813
#
# Poissons Ratio (x) = 0.27275 0.40195
# Poissons Ratio (y) = 0.14246 0.26548
# Poissons Ratio (z) = 0.20317 0.25691
#
# Static dielectric constant tensor:
#      x y z
#    x 1.621270 0.000000 0.001580 
#    y 0.000000 1.601910 0.000000 
#    z 0.001580 0.000000 1.628870 
# 
# From -- ./inp_files/156081.got.cif
#   From: 2010.05.17/outbox.cif.g08.bks.cpg/sg12_79_cif.got.tgz:156081.got - 2010.06.03 13:09:07.
