data_PCOD9181563
_publ_section_title
;
Structure prediction by ZEFSAII (Michael W. Deem and Ramdas Pophale) SiO2 
 PCOD9181563
Probable space group: C 2/M
;
_chemical_formula_sum "Si O2"
_cell_formula_units_Z 64
_cell_length_a 26.342915
_cell_length_b 8.442353
_cell_length_c 33.064640
_cell_angle_alpha 90.000000
_cell_angle_beta 154.343853
_cell_angle_gamma 90.000000
_cell_volume 3183.817987
_symmetry_space_group_name_H-M "C 2/M"
_symmetry_group_IT_number 12
_symmetry_cell_setting 'monoclinic'
loop_
_space_group_symop_operation_xyz
x,y,z
-x,y,-z
-x,-y,-z
x,-y,z
1/2+x,1/2+y,z
1/2-x,1/2+y,-z
1/2-x,1/2-y,-z
1/2+x,1/2-y,z
loop_
_atom_site_type_symbol
_atom_site_label
_atom_site_fract_x
_atom_site_fract_y
_atom_site_fract_z
Si Si1 0.503877 0.686063 0.677886
Si Si2 0.479037 0.306280 0.399557
Si Si3 0.000991 0.809322 0.047914
Si Si4 0.412648 0.808162 0.696942
Si Si5 0.267404 0.191279 0.741222
Si Si6 0.741217 0.819869 0.876651
Si Si7 0.852344 0.676326 0.099510
Si Si8 0.706917 0.306930 0.607428
O O1 0.480272 0.500000 0.662094
O O2 0.479085 0.746635 0.614881
O O3 0.435864 0.759818 0.667256
O O4 0.642879 0.717876 0.783808
O O5 0.477057 0.500000 0.397185
O O6 0.347966 0.254702 0.316888
O O7 0.574925 0.258545 0.501644
O O8 0.112160 0.743931 0.151635
O O9 0.006264 0.000000 0.054797
O O10 0.000000 0.765650 0.000000
O O11 0.873182 0.757459 0.971694
O O12 0.520641 0.746046 0.802405
O O13 0.293337 0.759037 0.633028
O O14 0.419064 0.000000 0.702132
O O15 0.252063 0.245714 0.683708
O O16 0.266118 0.000000 0.740048
O O17 0.697257 0.831579 0.890814
O O18 0.741640 0.000000 0.859756
O O19 0.872895 0.500000 0.097943
O O20 0.750000 0.750000 0.000000
O O21 0.707762 0.500000 0.608917
#
# Coordination Sequence:
#
# PCOD9181563 Si02
#       8
#     8   8   8   8   8   8   8   8
#     4  10  19  32  53  80 108 138 175 223 268 308
#     4   9  18  33  54  81 109 136 174 223 272 316
#     4  10  21  36  54  77 108 145 177 209 260 320
#     4   9  19  35  52  74 106 141 179 216 258 319
#     4  10  20  34  57  84 107 136 178 225 266 311
#     4   9  19  35  51  71 102 140 175 208 253 313
#     4   9  18  30  46  68  96 129 165 204 247 299
#     4   9  18  34  56  79 107 143 177 216 267 321
#
# _framework density 20.101652999999999
#
# number of rings (size 3 to 8) (size 9 to 14) (size 15 to 20)
#    0.000    2.625    0.000    2.250    1.750    4.750 
#    0.000    1.250    0.000    4.500    0.000    0.000 
#    0.000    0.000    0.000    0.000    0.000    0.000 
#
# Total GULP energy -178375.451379 kJ/mol
# GULP energy per Si atom -5574.232856 kJ/mol
# Density = 2.005590 g / cm^3
# Si number density = 20.101653 Si / 1000 Ang^3
#
#
#
# Elastic Constant Matrix: (Units=GPa)
#
#
# Indices 1 2 3 4 5 6 
#
# 1 69.1786 4.1078 27.0572 0.0003 -3.2564 -0.0001
# 2 4.1078 3.2735 -5.8766 0.0016 -4.9548 0.0014
# 3 27.0572 -5.8766 70.5910 -0.0001 -14.5098 0.0001
# 4 0.0003 0.0016 -0.0001 5.1899 0.0000 -1.3576
# 5 -3.2564 -4.9548 -14.5098 0.0000 36.1131 0.0000
# 6 -0.0001 0.0014 0.0001 -1.3576 0.0000 16.6436
#
#
#
# Elastic Compliance Matrix: (Units=1/GPa)
#
#
# Indices 1 2 3 4 5 6 
#
# 1 0.032778 -0.135861 -0.029537 0.000043 -0.027552 0.000016
# 2 -0.135861 1.173641 0.196595 -0.000382 0.227764 -0.000136
# 3 -0.029537 0.196595 0.051068 -0.000063 0.044828 -0.000023
# 4 0.000043 -0.000382 -0.000063 0.196884 -0.000074 0.016060
# 5 -0.027552 0.227764 0.044828 -0.000074 0.074467 -0.000027
# 6 0.000016 -0.000136 -0.000023 0.016060 -0.000027 0.061393
#
#
# Mechanical properties :
#
#
# Convention : Reuss Voigt Hill
#
# Bulk Modulus (GPa) = 0.75764 21.51334 11.13549
# Shear Modulus (GPa) = 2.54091 19.43964 10.99027
#
# Velocity S-wave (km/s) = 1.12551 3.11314 2.34077
# Velocity P-wave (km/s) = 1.43762 4.86289 3.58570
#
# Compressibility (1/GPa) = 1.31988056
#
# Stress axis : x y z
#
# Youngs Moduli (GPa) = 30.50792 0.85205 19.58170
#
# Poissons Ratio (x) = 0.11576 0.57839
# Poissons Ratio (y) = 4.14484 -3.84966
# Poissons Ratio (z) = 0.90112 -0.16751
#
# Static dielectric constant tensor:
#      x y z
#    x 1.736880 0.000000 0.013640 
#    y 0.000000 1.730610 0.000000 
#    z 0.013640 0.000000 1.721830 
# 
# From -- ./inp_files/382427.got.cif
#   From: 2010.05.17/outbox.cif.g08.bks.cpg/sg12_192_cif.got.tgz:382427.got - 2010.06.03 13:09:07.
