data_PCOD9181725
_publ_section_title
;
Structure prediction by ZEFSAII (Michael W. Deem and Ramdas Pophale) SiO2 
 PCOD9181725
Probable space group: C 2/M
;
_chemical_formula_sum "Si O2"
_cell_formula_units_Z 64
_cell_length_a 14.757901
_cell_length_b 15.763287
_cell_length_c 15.980027
_cell_angle_alpha 90.000000
_cell_angle_beta 115.908152
_cell_angle_gamma 90.000000
_cell_volume 3343.858860
_symmetry_space_group_name_H-M "C 2/M"
_symmetry_group_IT_number 12
_symmetry_cell_setting 'monoclinic'
loop_
_space_group_symop_operation_xyz
x,y,z
-x,y,-z
-x,-y,-z
x,-y,z
1/2+x,1/2+y,z
1/2-x,1/2+y,-z
1/2-x,1/2-y,-z
1/2+x,1/2-y,z
loop_
_atom_site_type_symbol
_atom_site_label
_atom_site_fract_x
_atom_site_fract_y
_atom_site_fract_z
Si Si1 0.320429 0.660971 0.787987
Si Si2 0.229050 0.343379 0.316657
Si Si3 0.662066 0.250065 0.033964
Si Si4 0.536335 0.821374 0.321258
Si Si5 0.890690 0.239603 0.491051
Si Si6 0.128885 0.595057 0.627110
Si Si7 0.763286 0.903784 0.151405
Si Si8 0.039508 0.187438 0.839621
O O1 0.294883 0.751140 0.733591
O O2 0.319163 0.680459 0.886365
O O3 0.232461 0.600512 0.721079
O O4 0.433371 0.639294 0.804978
O O5 0.122810 0.374370 0.310040
O O6 0.309093 0.325404 0.422307
O O7 0.269349 0.395991 0.254512
O O8 0.674907 0.159138 0.083837
O O9 0.750000 0.250000 0.000000
O O10 0.564494 0.272165 0.940240
O O11 0.596240 0.754846 0.405463
O O12 0.461257 0.875250 0.348077
O O13 0.473801 0.764829 0.230791
O O14 0.867792 0.332843 0.442870
O O15 0.000000 0.214239 0.500000
O O16 0.113339 0.500000 0.589364
O O17 0.867922 0.869393 0.154603
O O18 0.745450 0.000000 0.119099
#
# Coordination Sequence:
#
# PCOD9181725 Si02
#       8
#     8   8   8   8   8   8   8   8
#     4   9  18  33  54  77  98 132 175 214 252 299
#     4   9  18  33  53  76 101 133 176 215 253 305
#     4   9  17  33  55  75 101 134 173 210 251 306
#     4  10  19  32  54  77 100 137 180 218 252 301
#     4   9  17  31  53  77 101 134 177 218 257 302
#     4  10  20  33  49  75 109 136 163 208 265 314
#     4  10  20  34  53  78 109 139 168 212 271 323
#     4  10  19  34  56  76 100 136 179 218 252 299
#
# _framework density 19.139564
#
# number of rings (size 3 to 8) (size 9 to 14) (size 15 to 20)
#    0.000    2.500    0.000    4.500    0.000    3.250 
#    0.000    5.625    0.000   16.875    0.000    0.000 
#    0.000    0.000    0.000    0.000    0.000    0.000 
#
# Total GULP energy -178409.184986 kJ/mol
# GULP energy per Si atom -5575.287031 kJ/mol
# Density = 1.909600 g / cm^3
# Si number density = 19.139564 Si / 1000 Ang^3
#
#
#
# Elastic Constant Matrix: (Units=GPa)
#
#
# Indices 1 2 3 4 5 6 
#
# 1 63.4421 8.5246 12.9204 0.0000 2.1756 0.0000
# 2 8.5246 51.1268 5.2026 0.0000 12.4140 0.0000
# 3 12.9204 5.2026 97.6486 0.0000 12.8398 0.0000
# 4 0.0000 0.0000 0.0000 7.7480 0.0000 -0.9478
# 5 2.1756 12.4140 12.8398 0.0000 26.3631 0.0000
# 6 0.0000 0.0000 0.0000 -0.9478 0.0000 -0.6470
#
#
#
# Elastic Compliance Matrix: (Units=1/GPa)
#
#
# Indices 1 2 3 4 5 6 
#
# 1 0.016544 -0.002781 -0.002173 0.000000 0.001002 0.000000
# 2 -0.002781 0.022555 0.000569 0.000000 -0.010669 0.000000
# 3 -0.002173 0.000569 0.011229 0.000000 -0.005557 0.000000
# 4 0.000000 0.000000 0.000000 0.109452 0.000000 -0.160339
# 5 0.001002 -0.010669 -0.005557 0.000000 0.045579 0.000000
# 6 0.000000 0.000000 0.000000 -0.160339 0.000000 -1.310731
#
#
# Mechanical properties :
#
#
# Convention : Reuss Voigt Hill
#
# Bulk Modulus (GPa) = 24.06190 29.50139 26.78165
# Shear Modulus (GPa) = -4.61787 19.06415 7.22314
#
# Velocity S-wave (km/s) = -1.55498 3.15947 1.94477
# Velocity P-wave (km/s) = 3.06188 5.36255 4.36647
#
# Compressibility (1/GPa) = 0.04155947
#
# Stress axis : x y z
#
# Youngs Moduli (GPa) = 60.44428 44.33526 89.05740
#
# Poissons Ratio (x) = 0.12329 0.19349
# Poissons Ratio (y) = 0.16808 -0.05068
# Poissons Ratio (z) = 0.13133 -0.02523
#
# Static dielectric constant tensor:
#      x y z
#    x 1.710530 0.000000 0.006720 
#    y 0.000000 1.624590 0.000000 
#    z 0.006720 0.000000 1.703130 
# 
# From -- ./inp_files/216386.got.cif
#   From: 2010.05.17/outbox.cif.g08.bks.cpg/sg12_109_cif.got.tgz:216386.got - 2010.06.03 13:09:07.
