data_PCOD9181747
_publ_section_title
;
Structure prediction by ZEFSAII (Michael W. Deem and Ramdas Pophale) SiO2 
 PCOD9181747
Probable space group: C 2/M
;
_chemical_formula_sum "Si O2"
_cell_formula_units_Z 52
_cell_length_a 18.711742
_cell_length_b 11.998363
_cell_length_c 27.345245
_cell_angle_alpha 90.000000
_cell_angle_beta 26.747393
_cell_angle_gamma 90.000000
_cell_volume 2763.034696
_symmetry_space_group_name_H-M "C 2/M"
_symmetry_group_IT_number 12
_symmetry_cell_setting 'monoclinic'
loop_
_space_group_symop_operation_xyz
x,y,z
-x,y,-z
-x,-y,-z
x,-y,z
1/2+x,1/2+y,z
1/2-x,1/2+y,-z
1/2-x,1/2-y,-z
1/2+x,1/2-y,z
loop_
_atom_site_type_symbol
_atom_site_label
_atom_site_fract_x
_atom_site_fract_y
_atom_site_fract_z
Si Si1 0.356291 0.868368 0.125831
Si Si2 0.955970 0.500000 0.465182
Si Si3 0.483863 0.723341 0.690874
Si Si4 0.854489 0.368860 0.327212
Si Si5 0.658047 0.248936 0.764129
Si Si6 0.464259 0.247604 0.454076
Si Si7 0.847862 0.000000 0.375621
Si Si8 0.176108 0.000000 0.729686
O O1 0.202438 0.804937 0.198622
O O2 0.396638 0.809028 0.152488
O O3 0.317945 0.000000 0.157400
O O4 0.500000 0.862227 0.000000
O O5 0.917448 0.627262 0.504873
O O6 0.834747 0.500000 0.493675
O O7 0.143659 0.500000 0.358524
O O8 0.539668 0.816174 0.694645
O O9 0.536920 0.756075 0.603967
O O10 0.567687 0.609667 0.656982
O O11 0.869234 0.500000 0.316131
O O12 0.903622 0.312848 0.246111
O O13 0.669805 0.334686 0.448925
O O14 0.615384 0.380217 0.785877
O O15 0.851480 0.232961 0.645439
O O16 0.840546 0.000000 0.319861
#
# Coordination Sequence:
#
# PCOD9181747 Si02
#       8
#     8   4   8   8   8   8   4   4
#     4  10  22  43  68  87 108 142 188 239 293 349
#     4  10  19  32  54  78 113 164 200 229 264 340
#     4  11  23  36  57  86 115 152 192 241 284 334
#     4  12  24  35  55  84 123 156 190 235 282 332
#     4  10  21  39  59  86 115 155 194 233 279 340
#     4  10  22  34  53  82 120 161 196 227 278 332
#     4  12  19  32  59  79 117 152 204 229 275 330
#     4  10  19  36  57  83 121 157 191 229 276 338
#
# _framework density 18.819886
#
# number of rings (size 3 to 8) (size 9 to 14) (size 15 to 20)
#    0.000    1.385    3.846    1.615    2.154    4.308 
#    1.385    1.154    0.000    0.000    0.000    0.000 
#    0.000    0.000    0.000    0.000    0.000    0.000 
#
# Total GULP energy -144891.529616 kJ/mol
# GULP energy per Si atom -5572.751139 kJ/mol
# Density = 1.877705 g / cm^3
# Si number density = 18.819886 Si / 1000 Ang^3
#
#
#
# Elastic Constant Matrix: (Units=GPa)
#
#
# Indices 1 2 3 4 5 6 
#
# 1 120.2796 51.2686 32.7582 -0.0010 25.3655 0.0003
# 2 51.2686 161.3833 32.5201 -0.0018 16.6557 0.0001
# 3 32.7582 32.5201 48.3119 -0.0037 17.1360 0.0009
# 4 -0.0010 -0.0018 -0.0037 17.8840 0.0007 7.3935
# 5 25.3655 16.6557 17.1360 0.0007 16.3630 -0.0003
# 6 0.0003 0.0001 0.0009 7.3935 -0.0003 25.5941
#
#
#
# Elastic Compliance Matrix: (Units=1/GPa)
#
#
# Indices 1 2 3 4 5 6 
#
# 1 0.013151 -0.002149 -0.001616 0.000001 -0.016507 -0.000001
# 2 -0.002149 0.007653 -0.003362 0.000000 -0.000939 0.000000
# 3 -0.001616 -0.003362 0.034930 0.000010 -0.030654 -0.000004
# 4 0.000001 0.000000 0.000010 0.063499 -0.000015 -0.018343
# 5 -0.016507 -0.000939 -0.030654 -0.000015 0.119760 0.000007
# 6 -0.000001 0.000000 -0.000004 -0.018343 0.000007 0.044370
#
#
# Mechanical properties :
#
#
# Convention : Reuss Voigt Hill
#
# Bulk Modulus (GPa) = 24.10683 62.56317 43.33500
# Shear Modulus (GPa) = 16.05425 26.19673 21.12549
#
# Velocity S-wave (km/s) = 2.92387 3.73496 3.35402
# Velocity P-wave (km/s) = 4.92298 7.20522 6.17053
#
# Compressibility (1/GPa) = 0.04148202
#
# Stress axis : x y z
#
# Youngs Moduli (GPa) = 76.03966 130.66209 28.62870
#
# Poissons Ratio (x) = 0.28074 0.04626
# Poissons Ratio (y) = 0.16338 0.09624
# Poissons Ratio (z) = 0.12287 0.43925
#
# Static dielectric constant tensor:
#      x y z
#    x 1.681750 0.000000 -0.001070 
#    y 0.000000 1.637990 0.000000 
#    z -0.001070 0.000000 1.674930 
# 
# From -- ./inp_files/293189.got.cif
#   From: 2010.05.17/outbox.cif.g08.bks.cpg/sg12_147_cif.got.tgz:293189.got - 2010.06.03 13:09:07.
