data_PCOD9181310
_publ_section_title
;
Structure prediction by ZEFSAII (Michael W. Deem and Ramdas Pophale) SiO2 
 PCOD9181310
Probable space group: C 2/M
;
_chemical_formula_sum "Si O2"
_cell_formula_units_Z 56
_cell_length_a 29.334151
_cell_length_b 8.775321
_cell_length_c 14.546989
_cell_angle_alpha 90.000000
_cell_angle_beta 60.243215
_cell_angle_gamma 90.000000
_cell_volume 3250.868749
_symmetry_space_group_name_H-M "C 2/M"
_symmetry_group_IT_number 12
_symmetry_cell_setting 'monoclinic'
loop_
_space_group_symop_operation_xyz
x,y,z
-x,y,-z
-x,-y,-z
x,-y,z
1/2+x,1/2+y,z
1/2-x,1/2+y,-z
1/2-x,1/2-y,-z
1/2+x,1/2-y,z
loop_
_atom_site_type_symbol
_atom_site_label
_atom_site_fract_x
_atom_site_fract_y
_atom_site_fract_z
Si Si1 0.303474 0.317032 0.402451
Si Si2 0.401011 0.678996 0.429561
Si Si3 0.785338 0.322516 0.227458
Si Si4 0.202359 0.181230 0.986121
Si Si5 0.494000 0.816622 0.612371
Si Si6 0.381742 0.178703 0.802758
Si Si7 0.663709 0.672234 0.320985
O O1 0.300286 0.500000 0.412259
O O2 0.250000 0.250000 0.500000
O O3 0.355412 0.266642 0.406317
O O4 0.307957 0.264101 0.292682
O O5 0.410287 0.500000 0.402055
O O6 0.455991 0.764948 0.378938
O O7 0.376250 0.692342 0.555968
O O8 0.801151 0.500000 0.211726
O O9 0.796420 0.248443 0.117689
O O10 0.722191 0.317310 0.300960
O O11 0.208242 0.000000 0.978718
O O12 0.250000 0.250000 0.000000
O O13 0.147865 0.229935 0.088445
O O14 0.500000 0.761818 0.500000
O O15 0.439540 0.766684 0.714025
O O16 0.492280 0.000000 0.610089
O O17 0.346618 0.206041 0.747166
O O18 0.383654 0.000000 0.823975
O O19 0.657643 0.500000 0.288214
#
# Coordination Sequence:
#
# PCOD9181310 Si02
#       7
#     8   8   8   8   8   8   8
#     4  11  22  37  56  83 116 152 192 234 283 336
#     4  10  21  36  54  80 114 151 190 228 274 333
#     4  11  22  38  57  83 116 150 190 231 281 340
#     4  12  24  38  57  83 114 150 189 231 282 335
#     4  10  21  36  54  82 114 147 187 231 281 335
#     4  11  22  36  55  81 115 151 188 230 279 335
#     4  10  19  32  52  80 115 150 185 227 271 331
#
# _framework density 17.226164000000001
#
# number of rings (size 3 to 8) (size 9 to 14) (size 15 to 20)
#    0.000    1.286    4.286    2.571    0.000    3.143 
#    0.000    0.000    0.000    0.857    0.000    6.000 
#    0.000    0.000    0.000    0.000    0.000    0.000 
#
# Total GULP energy -156328.506027 kJ/mol
# GULP energy per Si atom -5583.160930 kJ/mol
# Density = 1.718696 g / cm^3
# Si number density = 17.226164 Si / 1000 Ang^3
#
#
#
# Elastic Constant Matrix: (Units=GPa)
#
#
# Indices 1 2 3 4 5 6 
#
# 1 90.9758 21.9302 39.3309 0.0000 2.2649 0.0000
# 2 21.9302 54.3779 26.3674 0.0000 -1.1794 0.0000
# 3 39.3309 26.3674 83.6300 0.0000 -0.4473 0.0000
# 4 0.0000 0.0000 0.0000 26.9881 0.0000 2.3452
# 5 2.2649 -1.1794 -0.4473 0.0000 30.1432 0.0000
# 6 0.0000 0.0000 0.0000 2.3452 0.0000 27.4791
#
#
#
# Elastic Compliance Matrix: (Units=1/GPa)
#
#
# Indices 1 2 3 4 5 6 
#
# 1 0.014231 -0.002973 -0.005763 0.000000 -0.001271 0.000000
# 2 -0.002973 0.022346 -0.005642 0.000000 0.001014 0.000000
# 3 -0.005763 -0.005642 0.016449 0.000000 0.000456 0.000000
# 4 0.000000 0.000000 0.000000 0.037330 0.000000 -0.003186
# 5 -0.001271 0.001014 0.000456 0.000000 0.033317 0.000000
# 6 0.000000 0.000000 0.000000 -0.003186 0.000000 0.036663
#
#
# Mechanical properties :
#
#
# Convention : Reuss Voigt Hill
#
# Bulk Modulus (GPa) = 41.19962 44.91564 43.05763
# Shear Modulus (GPa) = 25.35723 26.34577 25.85150
#
# Velocity S-wave (km/s) = 3.84085 3.91500 3.87810
# Velocity P-wave (km/s) = 6.60593 6.82400 6.71585
#
# Compressibility (1/GPa) = 0.02427207
#
# Stress axis : x y z
#
# Youngs Moduli (GPa) = 70.26693 44.74976 60.79470
#
# Poissons Ratio (x) = 0.13303 0.35033
# Poissons Ratio (y) = 0.20889 0.34300
# Poissons Ratio (z) = 0.40491 0.25248
#
# Static dielectric constant tensor:
#      x y z
#    x 1.571390 0.000000 -0.006520 
#    y 0.000000 1.598960 0.000000 
#    z -0.006520 0.000000 1.582470 
# 
# From -- ./inp_files/243068.got.cif
#   From: 2010.05.17/outbox.cif.g08.bks.cpg/sg12_122_cif.got.tgz:243068.got - 2010.06.03 13:09:07.
