data_PCOD9181290
_publ_section_title
;
Structure prediction by ZEFSAII (Michael W. Deem and Ramdas Pophale) SiO2 
 PCOD9181290
Probable space group: C 2/M
;
_chemical_formula_sum "Si O2"
_cell_formula_units_Z 48
_cell_length_a 32.103882
_cell_length_b 15.400152
_cell_length_c 5.333181
_cell_angle_alpha 90.000000
_cell_angle_beta 115.250936
_cell_angle_gamma 90.000000
_cell_volume 2384.803326
_symmetry_space_group_name_H-M "C 2/M"
_symmetry_group_IT_number 12
_symmetry_cell_setting 'monoclinic'
loop_
_space_group_symop_operation_xyz
x,y,z
-x,y,-z
-x,-y,-z
x,-y,z
1/2+x,1/2+y,z
1/2-x,1/2+y,-z
1/2-x,1/2-y,-z
1/2+x,1/2-y,z
loop_
_atom_site_type_symbol
_atom_site_label
_atom_site_fract_x
_atom_site_fract_y
_atom_site_fract_z
Si Si1 0.046026 0.096554 0.961625
Si Si2 0.130083 0.911304 0.562697
Si Si3 0.339252 0.101422 0.989935
Si Si4 0.890440 0.769623 0.112304
Si Si5 0.783450 0.345857 0.344649
Si Si6 0.802592 0.162357 0.586440
O O1 0.087893 0.085754 0.262439
O O2 0.040116 0.000000 0.822917
O O3 0.062603 0.179748 0.842263
O O4 0.000000 0.114078 0.000000
O O5 0.124386 0.819362 0.677199
O O6 0.178624 0.909663 0.549131
O O7 0.127341 0.000000 0.717122
O O8 0.313911 0.118303 0.657636
O O9 0.350799 0.000000 0.039929
O O10 0.383298 0.166639 0.116713
O O11 0.305402 0.126527 0.136684
O O12 0.849034 0.797916 0.822539
O O13 0.781480 0.241094 0.370195
O O14 0.731462 0.371254 0.286470
#
# Coordination Sequence:
#
# PCOD9181290 Si02
#       6
#     8   8   8   8   8   8
#     4   9  19  36  57  84 114 141 176 225 284 353
#     4  10  19  32  52  80 109 143 180 221 280 345
#     4  11  23  38  57  82 113 154 201 242 279 325
#     4  10  20  35  55  79 112 146 185 233 286 337
#     4  10  21  37  57  79 111 152 198 241 284 323
#     4   9  20  34  53  75 112 148 188 235 286 328
#
# _framework density 20.127447
#
# number of rings (size 3 to 8) (size 9 to 14) (size 15 to 20)
#    0.000    2.167    1.667    1.000    2.333    4.667 
#    0.000    2.500    0.000    0.500    0.000    1.167 
#    0.000    0.000    0.000    0.000    0.000    0.000 
#
# Total GULP energy -133626.826935 kJ/mol
# GULP energy per Si atom -5567.784456 kJ/mol
# Density = 2.008164 g / cm^3
# Si number density = 20.127447 Si / 1000 Ang^3
#
#
#
# Elastic Constant Matrix: (Units=GPa)
#
#
# Indices 1 2 3 4 5 6 
#
# 1 130.7978 47.7154 6.6054 0.0000 -22.3520 0.0000
# 2 47.7154 156.3699 17.5456 0.0000 -8.2026 0.0000
# 3 6.6054 17.5456 51.0360 0.0000 -15.0076 0.0000
# 4 0.0000 0.0000 0.0000 27.5973 0.0000 -10.3684
# 5 -22.3520 -8.2026 -15.0076 0.0000 19.6663 0.0000
# 6 0.0000 0.0000 0.0000 -10.3684 0.0000 48.9172
#
#
#
# Elastic Compliance Matrix: (Units=1/GPa)
#
#
# Indices 1 2 3 4 5 6 
#
# 1 0.010965 -0.003030 0.003759 0.000000 0.014067 0.000000
# 2 -0.003030 0.007516 -0.002943 0.000000 -0.002554 0.000000
# 3 0.003759 -0.002943 0.027095 0.000000 0.023721 0.000000
# 4 0.000000 0.000000 0.000000 0.039371 0.000000 0.008345
# 5 0.014067 -0.002554 0.023721 0.000000 0.083873 0.000000
# 6 0.000000 0.000000 0.000000 0.008345 0.000000 0.022212
#
#
# Mechanical properties :
#
#
# Convention : Reuss Voigt Hill
#
# Bulk Modulus (GPa) = 24.30252 53.54851 38.92551
# Shear Modulus (GPa) = 23.90358 36.99196 30.44777
#
# Velocity S-wave (km/s) = 3.44991 4.29171 3.89363
# Velocity P-wave (km/s) = 5.28864 7.15687 6.29248
#
# Compressibility (1/GPa) = 0.04114800
#
# Stress axis : x y z
#
# Youngs Moduli (GPa) = 91.20172 133.05308 36.90760
#
# Poissons Ratio (x) = 0.40311 -0.13873
# Poissons Ratio (y) = 0.27631 0.10861
# Poissons Ratio (z) = -0.34283 0.39156
#
# Static dielectric constant tensor:
#      x y z
#    x 1.733300 0.000000 -0.040740 
#    y 0.000000 1.793500 0.000000 
#    z -0.040740 0.000000 1.812120 
# 
# From -- ./inp_files/28132.got.cif
#   From: 2010.05.17/outbox.cif.g08.bks.cpg/sg12_15_cif.got.tgz:28132.got - 2010.06.03 13:09:07.
