data_PCOD9181385
_publ_section_title
;
Structure prediction by ZEFSAII (Michael W. Deem and Ramdas Pophale) SiO2 
 PCOD9181385
Probable space group: C 2/M
;
_chemical_formula_sum "Si O2"
_cell_formula_units_Z 64
_cell_length_a 11.897878
_cell_length_b 14.577103
_cell_length_c 26.542084
_cell_angle_alpha 90.000000
_cell_angle_beta 38.277947
_cell_angle_gamma 90.000000
_cell_volume 2851.680650
_symmetry_space_group_name_H-M "C 2/M"
_symmetry_group_IT_number 12
_symmetry_cell_setting 'monoclinic'
loop_
_space_group_symop_operation_xyz
x,y,z
-x,y,-z
-x,-y,-z
x,-y,z
1/2+x,1/2+y,z
1/2-x,1/2+y,-z
1/2-x,1/2-y,-z
1/2+x,1/2-y,z
loop_
_atom_site_type_symbol
_atom_site_label
_atom_site_fract_x
_atom_site_fract_y
_atom_site_fract_z
Si Si1 0.915061 0.600442 0.826939
Si Si2 0.924744 0.216215 0.701305
Si Si3 0.471806 0.603035 0.069304
Si Si4 0.122381 0.106109 0.719197
Si Si5 0.037234 0.394140 0.541046
Si Si6 0.658398 0.889928 0.600709
Si Si7 0.521787 0.265460 0.848813
Si Si8 0.671605 0.603975 0.359266
O O1 0.900996 0.500000 0.856520
O O2 0.900270 0.683779 0.870531
O O3 0.114187 0.605107 0.732244
O O4 0.747755 0.605298 0.847489
O O5 0.039055 0.153105 0.698848
O O6 0.007955 0.317247 0.670982
O O7 0.420654 0.326258 0.646526
O O8 0.716988 0.220275 0.792426
O O9 0.533227 0.500000 0.060152
O O10 0.549789 0.678452 0.078780
O O11 0.500000 0.617564 0.000000
O O12 0.340245 0.107626 0.636883
O O13 0.060732 0.164568 0.789016
O O14 0.066700 0.000000 0.742637
O O15 0.090069 0.500000 0.511443
O O16 0.179736 0.365820 0.534006
O O17 0.000000 0.348203 0.500000
O O18 0.817614 0.876213 0.585226
O O19 0.613428 0.000000 0.619164
O O20 0.602818 0.500000 0.375998
#
# Coordination Sequence:
#
# PCOD9181385 Si02
#       8
#     8   8   8   8   8   8   8   8
#     4   9  19  34  52  77 108 143 178 217 269 322
#     4  11  20  33  53  81 114 135 173 224 278 314
#     4  10  21  36  54  78 109 142 180 229 275 314
#     4  11  22  35  56  84 111 141 178 227 277 321
#     4   9  19  36  56  78 107 144 182 223 274 325
#     4  10  19  32  53  76 101 138 183 218 257 321
#     4  11  20  34  57  81 108 143 183 223 265 329
#     4   9  18  32  52  76 105 142 175 216 266 320
#
# _framework density 22.442905
#
# number of rings (size 3 to 8) (size 9 to 14) (size 15 to 20)
#    0.000    2.000    1.250    3.750    0.000    2.500 
#    0.000    0.625    0.000    0.375    0.000    4.375 
#    0.000    1.500    0.000    0.000    0.000    0.000 
#
# Total GULP energy -178717.078505 kJ/mol
# GULP energy per Si atom -5584.908703 kJ/mol
# Density = 2.239182 g / cm^3
# Si number density = 22.442905 Si / 1000 Ang^3
#
#
#
# Elastic Constant Matrix: (Units=GPa)
#
#
# Indices 1 2 3 4 5 6 
#
# 1 98.7827 58.5786 21.3474 0.0000 31.9927 0.0000
# 2 58.5786 129.0843 20.2726 0.0000 19.6697 0.0000
# 3 21.3474 20.2726 49.7111 0.0004 6.5873 0.0000
# 4 0.0000 0.0000 0.0004 0.6157 0.0002 2.2183
# 5 31.9927 19.6697 6.5873 0.0002 37.4714 0.0000
# 6 0.0000 0.0000 0.0000 2.2183 0.0000 38.6796
#
#
#
# Elastic Compliance Matrix: (Units=1/GPa)
#
#
# Indices 1 2 3 4 5 6 
#
# 1 0.018287 -0.005884 -0.003884 0.000008 -0.011842 0.000000
# 2 -0.005884 0.010748 -0.001817 0.000001 -0.000299 0.000000
# 3 -0.003884 -0.001817 0.022483 -0.000020 0.000317 0.000001
# 4 0.000008 0.000001 -0.000020 2.047188 -0.000012 -0.117409
# 5 -0.011842 -0.000299 0.000317 -0.000012 0.036898 0.000001
# 6 0.000000 0.000000 0.000001 -0.117409 0.000001 0.032587
#
#
# Mechanical properties :
#
#
# Convention : Reuss Voigt Hill
#
# Bulk Modulus (GPa) = 35.27607 53.10838 44.19223
# Shear Modulus (GPa) = 2.27189 27.17865 14.72527
#
# Velocity S-wave (km/s) = 1.00722 3.48374 2.56427
# Velocity P-wave (km/s) = 4.13581 6.31641 5.33863
#
# Compressibility (1/GPa) = 0.02834783
#
# Stress axis : x y z
#
# Youngs Moduli (GPa) = 54.68294 93.04072 44.47806
#
# Poissons Ratio (x) = 0.54748 0.17276
# Poissons Ratio (y) = 0.32177 0.08080
# Poissons Ratio (z) = 0.21240 0.16902
#
# Static dielectric constant tensor:
#      x y z
#    x 1.838350 0.000000 0.014870 
#    y 0.000000 1.829200 0.000000 
#    z 0.014870 0.000000 1.878730 
# 
# From -- ./inp_files/358428.got.cif
#   From: 2010.05.17/outbox.cif.g08.bks.cpg/sg12_180_cif.got.tgz:358428.got - 2010.06.03 13:09:07.
