data_PCOD9181592
_publ_section_title
;
Structure prediction by ZEFSAII (Michael W. Deem and Ramdas Pophale) SiO2 
 PCOD9181592
Probable space group: C 2/M
;
_chemical_formula_sum "Si O2"
_cell_formula_units_Z 60
_cell_length_a 16.339785
_cell_length_b 23.027418
_cell_length_c 10.021242
_cell_angle_alpha 90.000000
_cell_angle_beta 43.185914
_cell_angle_gamma 90.000000
_cell_volume 2580.493351
_symmetry_space_group_name_H-M "C 2/M"
_symmetry_group_IT_number 12
_symmetry_cell_setting 'monoclinic'
loop_
_space_group_symop_operation_xyz
x,y,z
-x,y,-z
-x,-y,-z
x,-y,z
1/2+x,1/2+y,z
1/2-x,1/2+y,-z
1/2-x,1/2-y,-z
1/2+x,1/2-y,z
loop_
_atom_site_type_symbol
_atom_site_label
_atom_site_fract_x
_atom_site_fract_y
_atom_site_fract_z
Si Si1 0.365225 0.688043 0.276096
Si Si2 0.142118 0.938030 0.344014
Si Si3 0.756075 0.678547 0.131865
Si Si4 0.500000 0.109538 0.500000
Si Si5 0.147816 0.063659 0.653839
Si Si6 0.577234 0.936193 0.666092
Si Si7 0.380504 0.184715 0.257555
Si Si8 0.199345 0.299760 0.230355
O O1 0.419164 0.623581 0.230764
O O2 0.429375 0.749846 0.229608
O O3 0.248839 0.686343 0.512362
O O4 0.317131 0.692281 0.181181
O O5 0.196707 0.883549 0.207920
O O6 0.168267 0.934685 0.470112
O O7 0.000000 0.936753 0.500000
O O8 0.187069 0.000000 0.239108
O O9 0.855715 0.680403 0.129100
O O10 0.668847 0.731602 0.278177
O O11 0.793358 0.689349 0.936028
O O12 0.508352 0.070901 0.359070
O O13 0.392573 0.154225 0.603849
O O14 0.283461 0.064183 0.548572
O O15 0.093302 0.000000 0.749586
O O16 0.563046 0.876318 0.764108
O O17 0.559379 0.000000 0.751688
#
# Coordination Sequence:
#
# PCOD9181592 Si02
#       8
#     8   8   8   4   8   8   8   8
#     4   9  15  31  53  80 101 145 188 228 261 354
#     4  10  20  34  57  88 114 141 191 244 286 348
#     4  10  20  38  56  84 114 151 178 243 296 345
#     4  12  21  36  54  88 113 156 196 242 275 348
#     4   9  16  30  53  79 108 145 185 227 284 342
#     4  10  19  32  53  80 114 151 195 237 274 340
#     4   9  16  30  57  75 101 145 195 224 274 336
#     4  10  22  35  56  83 121 144 191 233 292 337
#
# _framework density 23.251366999999998
#
# number of rings (size 3 to 8) (size 9 to 14) (size 15 to 20)
#    0.000    2.267    5.333    0.200    0.933    0.000 
#    0.000    2.667    0.000    1.600    0.000    2.800 
#    0.000    0.000    0.000    0.000    0.000    0.000 
#
# Total GULP energy -167287.668902 kJ/mol
# GULP energy per Si atom -5576.255630 kJ/mol
# Density = 2.319845 g / cm^3
# Si number density = 23.251367 Si / 1000 Ang^3
#
#
#
# Elastic Constant Matrix: (Units=GPa)
#
#
# Indices 1 2 3 4 5 6 
#
# 1 33.0731 37.1866 7.5132 0.0000 20.3330 0.0000
# 2 37.1866 288.6761 36.5060 0.0000 7.8590 0.0000
# 3 7.5132 36.5060 57.7026 0.0000 14.9567 0.0000
# 4 0.0000 0.0000 0.0000 22.4832 0.0000 12.2334
# 5 20.3330 7.8590 14.9567 0.0000 29.8030 0.0000
# 6 0.0000 0.0000 0.0000 12.2334 0.0000 31.0406
#
#
#
# Elastic Compliance Matrix: (Units=1/GPa)
#
#
# Indices 1 2 3 4 5 6 
#
# 1 0.067514 -0.008537 0.009157 0.000000 -0.048405 0.000000
# 2 -0.008537 0.004846 -0.003601 0.000000 0.006354 0.000000
# 3 0.009157 -0.003601 0.022749 0.000000 -0.016714 0.000000
# 4 0.000000 0.000000 0.000000 0.056619 0.000000 -0.022314
# 5 -0.048405 0.006354 -0.016714 0.000000 0.073291 0.000000
# 6 0.000000 0.000000 0.000000 -0.022314 0.000000 0.041010
#
#
# Mechanical properties :
#
#
# Convention : Reuss Voigt Hill
#
# Bulk Modulus (GPa) = 11.21752 60.20705 35.71228
# Shear Modulus (GPa) = 16.57239 36.54843 26.56041
#
# Velocity S-wave (km/s) = 2.67263 3.96900 3.38348
# Velocity P-wave (km/s) = 3.78931 6.85231 5.53683
#
# Compressibility (1/GPa) = 0.08914630
#
# Stress axis : x y z
#
# Youngs Moduli (GPa) = 14.81177 206.34342 43.95844
#
# Poissons Ratio (x) = 1.76160 -0.40254
# Poissons Ratio (y) = 0.12645 0.15831
# Poissons Ratio (z) = -0.13564 0.74313
#
# Static dielectric constant tensor:
#      x y z
#    x 2.030770 0.000000 0.044760 
#    y 0.000000 1.927380 0.000000 
#    z 0.044760 0.000000 1.911090 
# 
# From -- ./inp_files/79101.got.cif
#   From: 2010.05.17/outbox.cif.g08.bks.cpg/sg12_40_cif.got.tgz:79101.got - 2010.06.03 13:09:07.
