data_PCOD9181667
_publ_section_title
;
Structure prediction by ZEFSAII (Michael W. Deem and Ramdas Pophale) SiO2 
 PCOD9181667
Probable space group: C 2/M
;
_chemical_formula_sum "Si O2"
_cell_formula_units_Z 56
_cell_length_a 19.885051
_cell_length_b 8.880671
_cell_length_c 19.547127
_cell_angle_alpha 90.000000
_cell_angle_beta 59.879358
_cell_angle_gamma 90.000000
_cell_volume 2985.773188
_symmetry_space_group_name_H-M "C 2/M"
_symmetry_group_IT_number 12
_symmetry_cell_setting 'monoclinic'
loop_
_space_group_symop_operation_xyz
x,y,z
-x,y,-z
-x,-y,-z
x,-y,z
1/2+x,1/2+y,z
1/2-x,1/2+y,-z
1/2-x,1/2-y,-z
1/2+x,1/2-y,z
loop_
_atom_site_type_symbol
_atom_site_label
_atom_site_fract_x
_atom_site_fract_y
_atom_site_fract_z
Si Si1 0.162767 0.178230 0.835106
Si Si2 0.740616 0.677190 0.325154
Si Si3 0.418260 0.825928 0.999905
Si Si4 0.480400 0.821024 0.323420
Si Si5 0.559094 0.678738 0.409452
Si Si6 0.814018 0.178706 0.417969
Si Si7 0.998709 0.821238 0.165558
O O1 0.231619 0.268790 0.763418
O O2 0.085167 0.203642 0.828242
O O3 0.177996 0.000000 0.828517
O O4 0.141937 0.239309 0.920815
O O5 0.758502 0.500000 0.325504
O O6 0.648951 0.699034 0.383466
O O7 0.787834 0.776233 0.355208
O O8 0.437452 0.746351 0.918588
O O9 0.396272 0.000000 0.001814
O O10 0.500000 0.823261 0.000000
O O11 0.540796 0.768383 0.349953
O O12 0.397907 0.750292 0.387682
O O13 0.499453 0.756515 0.238781
O O14 0.474588 0.000000 0.323285
O O15 0.500000 0.724473 0.500000
O O16 0.546809 0.500000 0.403277
O O17 0.750000 0.250000 0.500000
O O18 0.817654 0.000000 0.424683
O O19 0.008583 0.000000 0.167986
#
# Coordination Sequence:
#
# PCOD9181667 Si02
#       7
#     8   8   8   8   8   8   8
#     4  10  19  32  53  82 117 156 193 236 286 344
#     4  11  22  37  60  87 116 152 194 242 292 348
#     4   9  17  29  49  79 116 152 189 238 285 340
#     4  12  24  38  60  87 117 153 195 242 289 346
#     4  10  23  43  63  83 113 154 197 242 295 352
#     4  12  24  39  59  85 116 149 188 240 295 348
#     4  10  19  33  54  82 117 155 193 236 286 344
#
# _framework density 18.755611999999999
#
# number of rings (size 3 to 8) (size 9 to 14) (size 15 to 20)
#    0.000    1.429    1.429    5.143    0.000    5.429 
#    0.000    0.000    0.000    0.857    0.000    0.000 
#    0.000    0.000    0.000    0.000    0.000    0.000 
#
# Total GULP energy -156495.391068 kJ/mol
# GULP energy per Si atom -5589.121110 kJ/mol
# Density = 1.871292 g / cm^3
# Si number density = 18.755612 Si / 1000 Ang^3
#
#
#
# Elastic Constant Matrix: (Units=GPa)
#
#
# Indices 1 2 3 4 5 6 
#
# 1 15.6210 10.4584 -13.3701 0.0000 1.9177 -0.0001
# 2 10.4584 91.5795 17.0640 -0.0001 5.6995 -0.0002
# 3 -13.3701 17.0640 85.1793 0.0000 -8.2671 0.0000
# 4 0.0000 -0.0001 0.0000 37.4935 0.0000 0.2366
# 5 1.9177 5.6995 -8.2671 0.0000 22.5172 0.0000
# 6 -0.0001 -0.0002 0.0000 0.2366 0.0000 20.9610
#
#
#
# Elastic Compliance Matrix: (Units=1/GPa)
#
#
# Indices 1 2 3 4 5 6 
#
# 1 0.086549 -0.013060 0.016391 0.000000 0.001952 0.000000
# 2 -0.013060 0.013643 -0.005195 0.000000 -0.004249 0.000000
# 3 0.016391 -0.005195 0.015913 0.000000 0.005761 0.000000
# 4 0.000000 0.000000 0.000000 0.026673 0.000000 -0.000301
# 5 0.001952 -0.004249 0.005761 0.000000 0.047435 0.000000
# 6 0.000000 0.000000 0.000000 -0.000301 0.000000 0.047711
#
#
# Mechanical properties :
#
#
# Convention : Reuss Voigt Hill
#
# Bulk Modulus (GPa) = 8.89863 24.52051 16.70957
# Shear Modulus (GPa) = 17.91398 28.07616 22.99507
#
# Velocity S-wave (km/s) = 3.09386 3.87324 3.50528
# Velocity P-wave (km/s) = 4.18539 5.75367 5.03101
#
# Compressibility (1/GPa) = 0.11237679
#
# Stress axis : x y z
#
# Youngs Moduli (GPa) = 11.55414 73.29567 62.84295
#
# Poissons Ratio (x) = 0.95721 -1.03005
# Poissons Ratio (y) = 0.15089 0.32650
# Poissons Ratio (z) = -0.18938 0.38080
#
# Static dielectric constant tensor:
#      x y z
#    x 1.636290 0.000000 0.005040 
#    y 0.000000 1.621580 0.000000 
#    z 0.005040 0.000000 1.667100 
# 
# From -- ./inp_files/275277.got.cif
#   From: 2010.05.17/outbox.cif.g08.bks.cpg/sg12_138_cif.got.tgz:275277.got - 2010.06.03 13:09:07.
