data_PCOD9181429
_publ_section_title
;
Structure prediction by ZEFSAII (Michael W. Deem and Ramdas Pophale) SiO2 
 PCOD9181429
Probable space group: C 2/M
;
_chemical_formula_sum "Si O2"
_cell_formula_units_Z 40
_cell_length_a 23.591824
_cell_length_b 9.091669
_cell_length_c 29.342551
_cell_angle_alpha 90.000000
_cell_angle_beta 22.247653
_cell_angle_gamma 90.000000
_cell_volume 2382.845543
_symmetry_space_group_name_H-M "C 2/M"
_symmetry_group_IT_number 12
_symmetry_cell_setting 'monoclinic'
loop_
_space_group_symop_operation_xyz
x,y,z
-x,y,-z
-x,-y,-z
x,-y,z
1/2+x,1/2+y,z
1/2-x,1/2+y,-z
1/2-x,1/2-y,-z
1/2+x,1/2-y,z
loop_
_atom_site_type_symbol
_atom_site_label
_atom_site_fract_x
_atom_site_fract_y
_atom_site_fract_z
Si Si1 0.247178 0.823631 0.431384
Si Si2 0.791134 0.823260 0.115847
Si Si3 0.372431 0.323335 0.158634
Si Si4 0.987337 0.175409 0.314548
Si Si5 0.669653 0.322640 0.385751
O O1 0.108541 0.789780 0.568316
O O2 0.391480 0.743689 0.344742
O O3 0.210088 0.780631 0.407393
O O4 0.269906 0.000000 0.416091
O O5 0.804357 0.784702 0.159684
O O6 0.650649 0.744383 0.198002
O O7 0.773971 0.000000 0.125727
O O8 0.951445 0.784792 0.974442
O O9 0.362529 0.500000 0.170482
O O10 0.283152 0.246310 0.265211
O O11 0.995661 0.000000 0.303965
O O12 0.500000 0.277862 0.500000
O O13 0.676858 0.500000 0.377362
#
# Coordination Sequence:
#
# PCOD9181429 Si02
#       5
#     8   8   8   8   8
#     4   9  19  34  50  72 104 135 161 198 250 298
#     4   9  18  34  53  73 101 133 163 202 252 294
#     4   9  19  34  52  75 101 131 167 203 242 295
#     4  10  19  32  53  77  98 127 170 210 242 287
#     4  10  20  34  52  75 104 133 160 199 251 297
#
# _framework density 16.786653000000001
#
# number of rings (size 3 to 8) (size 9 to 14) (size 15 to 20)
#    0.000    2.600    0.000    3.000    0.000    5.200 
#    0.000    3.000    0.000    0.000    0.000    0.000 
#    0.000    0.000    0.000    0.000    0.000    0.000 
#
# Total GULP energy -111577.333106 kJ/mol
# GULP energy per Si atom -5578.866655 kJ/mol
# Density = 1.674845 g / cm^3
# Si number density = 16.786653 Si / 1000 Ang^3
#
#
#
# Elastic Constant Matrix: (Units=GPa)
#
#
# Indices 1 2 3 4 5 6 
#
# 1 155.8584 52.7679 107.6426 -0.0007 -7.3300 0.0003
# 2 52.7679 25.4806 46.9011 0.0030 -6.8663 -0.0011
# 3 107.6426 46.9011 124.3235 0.0028 -13.9476 0.0003
# 4 -0.0007 0.0030 0.0028 28.6432 0.0020 8.2410
# 5 -7.3300 -6.8663 -13.9476 0.0020 32.2037 -0.0008
# 6 0.0003 -0.0011 0.0003 8.2410 -0.0008 17.2011
#
#
#
# Elastic Compliance Matrix: (Units=1/GPa)
#
#
# Indices 1 2 3 4 5 6 
#
# 1 0.023846 -0.038411 -0.006796 0.000008 -0.005705 -0.000007
# 2 -0.038411 0.191690 -0.037264 -0.000026 0.015989 0.000026
# 3 -0.006796 -0.037264 0.028295 0.000002 0.002763 -0.000003
# 4 0.000008 -0.000026 0.000002 0.040494 -0.000006 -0.019401
# 5 -0.005705 0.015989 0.002763 -0.000006 0.034359 0.000005
# 6 -0.000007 0.000026 -0.000003 -0.019401 0.000005 0.067431
#
#
# Mechanical properties :
#
#
# Convention : Reuss Voigt Hill
#
# Bulk Modulus (GPa) = 12.67598 80.03174 46.35386
# Shear Modulus (GPa) = 8.66020 22.16632 15.41326
#
# Velocity S-wave (km/s) = 2.27380 3.63777 3.03344
# Velocity P-wave (km/s) = 3.80279 8.08850 6.32001
#
# Compressibility (1/GPa) = 0.07888933
#
# Stress axis : x y z
#
# Youngs Moduli (GPa) = 41.93614 5.21676 35.34137
#
# Poissons Ratio (x) = 0.20038 0.24018
# Poissons Ratio (y) = 1.61081 1.31697
# Poissons Ratio (z) = 0.28499 0.19440
#
# Static dielectric constant tensor:
#      x y z
#    x 1.548400 0.000000 -0.000120 
#    y 0.000000 1.555810 0.000000 
#    z -0.000120 0.000000 1.542310 
# 
# From -- ./inp_files/162357.got.cif
#   From: 2010.05.17/outbox.cif.g08.bks.cpg/sg12_82_cif.got.tgz:162357.got - 2010.06.03 13:09:07.
