data_PCOD9181489
_publ_section_title
;
Structure prediction by ZEFSAII (Michael W. Deem and Ramdas Pophale) SiO2 
 PCOD9181489
Probable space group: C 2/M
;
_chemical_formula_sum "Si O2"
_cell_formula_units_Z 64
_cell_length_a 9.740851
_cell_length_b 33.721494
_cell_length_c 17.269503
_cell_angle_alpha 90.000000
_cell_angle_beta 150.250075
_cell_angle_gamma 90.000000
_cell_volume 2814.840276
_symmetry_space_group_name_H-M "C 2/M"
_symmetry_group_IT_number 12
_symmetry_cell_setting 'monoclinic'
loop_
_space_group_symop_operation_xyz
x,y,z
-x,y,-z
-x,-y,-z
x,-y,z
1/2+x,1/2+y,z
1/2-x,1/2+y,-z
1/2-x,1/2-y,-z
1/2+x,1/2-y,z
loop_
_atom_site_type_symbol
_atom_site_label
_atom_site_fract_x
_atom_site_fract_y
_atom_site_fract_z
Si Si1 0.694279 0.697788 0.311159
Si Si2 0.545586 0.838184 0.783242
Si Si3 0.984894 0.741173 0.316592
Si Si4 0.062793 0.454861 0.164436
Si Si5 0.010172 0.133785 0.892211
Si Si6 0.198701 0.415496 0.377296
Si Si7 0.836630 0.953341 0.594488
Si Si8 0.037038 0.044928 0.170824
O O1 0.474980 0.719316 0.260008
O O2 0.578049 0.654951 0.230417
O O3 0.000000 0.694027 0.500000
O O4 0.751941 0.725226 0.262399
O O5 0.464753 0.793669 0.722134
O O6 0.792541 0.848136 0.845347
O O7 0.312250 0.868867 0.642804
O O8 0.684504 0.850774 0.932875
O O9 0.250000 0.750000 0.500000
O O10 0.120392 0.500000 0.214048
O O11 0.998642 0.433541 0.214362
O O12 0.344964 0.439495 0.264865
O O13 0.796661 0.455510 0.979597
O O14 0.950326 0.086957 0.866168
O O15 0.500000 0.431401 0.500000
O O16 0.157759 0.428922 0.445082
O O17 0.803512 0.950880 0.670102
O O18 0.806730 0.000000 0.560475
O O19 0.100007 0.000000 0.169760
#
# Coordination Sequence:
#
# PCOD9181489 Si02
#       8
#     8   8   8   8   8   8   8   8
#     4   9  19  37  63  88 116 155 194 239 298 364
#     4  10  21  38  57  82 114 150 188 236 294 347
#     4   9  19  36  60  86 113 147 191 233 291 358
#     4   9  16  30  51  73 103 145 190 236 291 349
#     4  10  21  38  59  81 116 156 195 236 288 355
#     4  10  19  32  53  78 107 143 187 239 290 345
#     4   9  18  30  48  76 107 143 188 243 297 342
#     4  10  19  33  53  78 112 153 198 241 284 339
#
# _framework density 22.736636000000001
#
# number of rings (size 3 to 8) (size 9 to 14) (size 15 to 20)
#    0.000    2.500    1.250    0.750    0.000    8.000 
#    0.000    3.750    0.000    1.875    0.000    0.000 
#    0.000    0.000    0.000    0.000    0.000    0.000 
#
# Total GULP energy -178166.485298 kJ/mol
# GULP energy per Si atom -5567.702666 kJ/mol
# Density = 2.268489 g / cm^3
# Si number density = 22.736636 Si / 1000 Ang^3
#
#
#
# Elastic Constant Matrix: (Units=GPa)
#
#
# Indices 1 2 3 4 5 6 
#
# 1 35.9769 9.5449 17.1679 0.0000 -2.6648 0.0000
# 2 9.5449 105.8832 44.0278 0.0000 -12.9262 0.0000
# 3 17.1679 44.0278 112.0929 0.0000 -11.8787 0.0000
# 4 0.0000 0.0000 0.0000 35.9333 0.0000 -5.4828
# 5 -2.6648 -12.9262 -11.8787 0.0000 22.8328 0.0000
# 6 0.0000 0.0000 0.0000 -5.4828 0.0000 25.8361
#
#
#
# Elastic Compliance Matrix: (Units=1/GPa)
#
#
# Indices 1 2 3 4 5 6 
#
# 1 0.030082 -0.000873 -0.004175 0.000000 0.000845 0.000000
# 2 -0.000873 0.011731 -0.004002 0.000000 0.004458 0.000000
# 3 -0.004175 -0.004002 0.011473 0.000000 0.003216 0.000000
# 4 0.000000 0.000000 0.000000 0.028761 0.000000 0.006103
# 5 0.000845 0.004458 0.003216 0.000000 0.048092 0.000000
# 6 0.000000 0.000000 0.000000 0.006103 0.000000 0.040001
#
#
# Mechanical properties :
#
#
# Convention : Reuss Voigt Hill
#
# Bulk Modulus (GPa) = 28.41903 43.93714 36.17808
# Shear Modulus (GPa) = 25.00401 29.13459 27.06930
#
# Velocity S-wave (km/s) = 3.31981 3.58354 3.45419
# Velocity P-wave (km/s) = 5.21739 6.04059 5.64402
#
# Compressibility (1/GPa) = 0.03518769
#
# Stress axis : x y z
#
# Youngs Moduli (GPa) = 33.24246 85.24274 87.15932
#
# Poissons Ratio (x) = 0.07438 0.36389
# Poissons Ratio (y) = 0.02901 0.34879
# Poissons Ratio (z) = 0.13879 0.34112
#
# Static dielectric constant tensor:
#      x y z
#    x 1.926390 0.000000 -0.001180 
#    y 0.000000 1.875520 0.000000 
#    z -0.001180 0.000000 1.940690 
# 
# From -- ./inp_files/266317.got.cif
#   From: 2010.05.17/outbox.cif.g08.bks.cpg/sg12_134_cif.got.tgz:266317.got - 2010.06.03 13:09:07.
