data_PCOD9181339
_publ_section_title
;
Structure prediction by ZEFSAII (Michael W. Deem and Ramdas Pophale) SiO2 
 PCOD9181339
Probable space group: C 2/M
;
_chemical_formula_sum "Si O2"
_cell_formula_units_Z 64
_cell_length_a 15.863760
_cell_length_b 14.020318
_cell_length_c 19.292252
_cell_angle_alpha 90.000000
_cell_angle_beta 130.010331
_cell_angle_gamma 90.000000
_cell_volume 3286.511587
_symmetry_space_group_name_H-M "C 2/M"
_symmetry_group_IT_number 12
_symmetry_cell_setting 'monoclinic'
loop_
_space_group_symop_operation_xyz
x,y,z
-x,y,-z
-x,-y,-z
x,-y,z
1/2+x,1/2+y,z
1/2-x,1/2+y,-z
1/2-x,1/2-y,-z
1/2+x,1/2-y,z
loop_
_atom_site_type_symbol
_atom_site_label
_atom_site_fract_x
_atom_site_fract_y
_atom_site_fract_z
Si Si1 0.647697 0.887008 0.650657
Si Si2 0.773633 0.112834 0.135833
Si Si3 0.017783 0.797668 0.269741
Si Si4 0.261763 0.385725 0.566964
Si Si5 0.213925 0.795206 0.154245
Si Si6 0.232646 0.892462 0.026840
Si Si7 0.471287 0.609712 0.868814
Si Si8 0.559346 0.887982 0.370749
O O1 0.694600 0.856738 0.601101
O O2 0.709893 0.829302 0.743156
O O3 0.519464 0.877308 0.603024
O O4 0.672074 0.000000 0.670874
O O5 0.700793 0.181847 0.144620
O O6 0.735469 0.128445 0.035571
O O7 0.899268 0.150228 0.214373
O O8 0.769505 0.000000 0.146320
O O9 0.116099 0.843487 0.366992
O O10 0.049461 0.821521 0.207314
O O11 0.018288 0.687129 0.291944
O O12 0.271359 0.500000 0.574811
O O13 0.183355 0.364299 0.460334
O O14 0.102392 0.852939 0.107864
O O15 0.264880 0.825188 0.106951
O O16 0.100056 0.889751 0.952365
O O17 0.267582 0.000000 0.062552
O O18 0.441699 0.500000 0.835286
O O19 0.552621 0.000000 0.346917
#
# Coordination Sequence:
#
# PCOD9181339 Si02
#       8
#     8   8   8   8   8   8   8   8
#     4  10  19  32  52  82 109 131 167 216 271 317
#     4  10  22  37  52  76 109 143 178 214 256 315
#     4  11  19  35  54  76 103 144 181 216 257 312
#     4  10  19  33  56  79 105 138 174 221 268 314
#     4  12  19  32  55  82 106 137 172 214 266 311
#     4   9  19  34  55  83 110 133 168 218 265 307
#     4  10  20  34  56  84 109 133 175 225 264 306
#     4  10  21  35  51  79 112 138 172 218 269 322
#
# _framework density 19.473534999999998
#
# number of rings (size 3 to 8) (size 9 to 14) (size 15 to 20)
#    0.000    1.750    2.500    4.500    0.000    2.500 
#    0.000    0.625    0.000    1.500    0.000    0.875 
#    0.000    0.000    0.000    0.000    0.000    0.000 
#
# Total GULP energy -178476.467293 kJ/mol
# GULP energy per Si atom -5577.389603 kJ/mol
# Density = 1.942921 g / cm^3
# Si number density = 19.473535 Si / 1000 Ang^3
#
#
#
# Elastic Constant Matrix: (Units=GPa)
#
#
# Indices 1 2 3 4 5 6 
#
# 1 23.5495 13.0623 1.6949 0.0000 -2.0771 0.0000
# 2 13.0623 95.2767 34.2008 0.0000 -26.7808 0.0000
# 3 1.6949 34.2008 58.8687 0.0000 -5.2298 0.0000
# 4 0.0000 0.0000 0.0000 16.7114 0.0000 -2.4018
# 5 -2.0771 -26.7808 -5.2298 0.0000 17.1074 0.0000
# 6 0.0000 0.0000 0.0000 -2.4018 0.0000 24.0197
#
#
#
# Elastic Compliance Matrix: (Units=1/GPa)
#
#
# Indices 1 2 3 4 5 6 
#
# 1 0.047209 -0.010603 0.003943 0.000000 -0.009662 0.000000
# 2 -0.010603 0.026457 -0.011821 0.000000 0.036516 0.000000
# 3 0.003943 -0.011821 0.022758 0.000000 -0.011070 0.000000
# 4 0.000000 0.000000 0.000000 0.060712 0.000000 0.006071
# 5 -0.009662 0.036516 -0.011070 0.000000 0.111061 0.000000
# 6 0.000000 0.000000 0.000000 0.006071 0.000000 0.042240
#
#
# Mechanical properties :
#
#
# Convention : Reuss Voigt Hill
#
# Bulk Modulus (GPa) = 16.81805 30.62342 23.72073
# Shear Modulus (GPa) = 13.61580 20.15015 16.88298
#
# Velocity S-wave (km/s) = 2.64710 3.22024 2.94763
# Velocity P-wave (km/s) = 4.24240 5.43933 4.87772
#
# Compressibility (1/GPa) = 0.05945994
#
# Stress axis : x y z
#
# Youngs Moduli (GPa) = 21.18229 37.79735 43.94093
#
# Poissons Ratio (x) = 0.40078 -0.17325
# Poissons Ratio (y) = 0.22460 0.51944
# Poissons Ratio (z) = -0.08352 0.44681
#
# Static dielectric constant tensor:
#      x y z
#    x 1.722330 0.000000 0.026580 
#    y 0.000000 1.682980 0.000000 
#    z 0.026580 0.000000 1.707800 
# 
# From -- ./inp_files/315761.got.cif
#   From: 2010.05.17/outbox.cif.g08.bks.cpg/sg12_158_cif.got.tgz:315761.got - 2010.06.03 13:09:07.
