data_PCOD9181936
_publ_section_title
;
Structure prediction by ZEFSAII (Michael W. Deem and Ramdas Pophale) SiO2 
 PCOD9181936
Probable space group: C 2/M
;
_chemical_formula_sum "Si O2"
_cell_formula_units_Z 56
_cell_length_a 28.114969
_cell_length_b 12.694418
_cell_length_c 9.505573
_cell_angle_alpha 90.000000
_cell_angle_beta 118.051975
_cell_angle_gamma 90.000000
_cell_volume 2994.014701
_symmetry_space_group_name_H-M "C 2/M"
_symmetry_group_IT_number 12
_symmetry_cell_setting 'monoclinic'
loop_
_space_group_symop_operation_xyz
x,y,z
-x,y,-z
-x,-y,-z
x,-y,z
1/2+x,1/2+y,z
1/2-x,1/2+y,-z
1/2-x,1/2-y,-z
1/2+x,1/2-y,z
loop_
_atom_site_type_symbol
_atom_site_label
_atom_site_fract_x
_atom_site_fract_y
_atom_site_fract_z
Si Si1 0.914493 0.206935 0.916945
Si Si2 0.448025 0.259620 0.501551
Si Si3 0.108985 0.623353 0.341276
Si Si4 0.490876 0.616890 0.798139
Si Si5 0.806028 0.124882 0.912482
Si Si6 0.283569 0.772499 0.405622
Si Si7 0.156796 0.874050 0.723116
O O1 0.902541 0.316018 0.821087
O O2 0.860664 0.165111 0.913697
O O3 0.939554 0.132786 0.828805
O O4 0.963764 0.201587 0.095627
O O5 0.500000 0.212061 0.500000
O O6 0.427381 0.178965 0.590681
O O7 0.529122 0.361073 0.384368
O O8 0.397885 0.304508 0.343885
O O9 0.099888 0.500000 0.317005
O O10 0.169169 0.649512 0.478428
O O11 0.513499 0.500000 0.845708
O O12 0.755797 0.178789 0.765960
O O13 0.802393 0.000000 0.886869
O O14 0.810849 0.144037 0.086616
O O15 0.250000 0.750000 0.500000
O O16 0.311959 0.671832 0.370023
O O17 0.146827 0.000000 0.696983
#
# Coordination Sequence:
#
# PCOD9181936 Si02
#       7
#     8   8   8   8   8   8   8
#     4  10  19  34  53  83 115 150 196 241 293 350
#     4  10  21  37  58  86 119 154 196 242 293 357
#     4  10  22  40  58  81 115 155 204 251 296 346
#     4  10  19  32  54  84 119 154 189 238 296 354
#     4  11  21  36  60  88 120 157 194 240 302 358
#     4  11  22  41  60  87 117 160 202 251 291 351
#     4  10  23  39  60  91 124 155 193 243 299 359
#
# _framework density 18.703982
#
# number of rings (size 3 to 8) (size 9 to 14) (size 15 to 20)
#    0.000    1.714    1.429    3.857    0.000    3.714 
#    0.000    5.714    0.000    6.857    0.000    0.000 
#    0.000    0.000    0.000    0.000    0.000    0.000 
#
# Total GULP energy -156166.180183 kJ/mol
# GULP energy per Si atom -5577.363578 kJ/mol
# Density = 1.866141 g / cm^3
# Si number density = 18.703982 Si / 1000 Ang^3
#
#
#
# Elastic Constant Matrix: (Units=GPa)
#
#
# Indices 1 2 3 4 5 6 
#
# 1 98.1381 22.4744 18.8723 0.0000 -1.8365 0.0000
# 2 22.4744 100.8720 40.7141 0.0000 8.5625 0.0000
# 3 18.8723 40.7141 87.6716 0.0000 10.6529 0.0000
# 4 0.0000 0.0000 0.0000 27.2782 0.0000 2.8960
# 5 -1.8365 8.5625 10.6529 0.0000 24.4577 0.0000
# 6 0.0000 0.0000 0.0000 2.8960 0.0000 8.4415
#
#
#
# Elastic Compliance Matrix: (Units=1/GPa)
#
#
# Indices 1 2 3 4 5 6 
#
# 1 0.011012 -0.001942 -0.001744 0.000000 0.002266 0.000000
# 2 -0.001942 0.012627 -0.005165 0.000000 -0.002317 0.000000
# 3 -0.001744 -0.005165 0.014757 0.000000 -0.004751 0.000000
# 4 0.000000 0.000000 0.000000 0.038045 0.000000 -0.013052
# 5 0.002266 -0.002317 -0.004751 0.000000 0.043938 0.000000
# 6 0.000000 0.000000 0.000000 -0.013052 0.000000 0.122941
#
#
# Mechanical properties :
#
#
# Convention : Reuss Voigt Hill
#
# Bulk Modulus (GPa) = 48.31895 50.08927 49.20411
# Shear Modulus (GPa) = 18.66230 25.67686 22.16958
#
# Velocity S-wave (km/s) = 3.16218 3.70915 3.44653
# Velocity P-wave (km/s) = 6.26275 6.72175 6.49631
#
# Compressibility (1/GPa) = 0.02069581
#
# Stress axis : x y z
#
# Youngs Moduli (GPa) = 90.80790 79.19268 67.76334
#
# Poissons Ratio (x) = 0.15379 0.11818
# Poissons Ratio (y) = 0.17635 0.34996
# Poissons Ratio (z) = 0.15837 0.40899
#
# Static dielectric constant tensor:
#      x y z
#    x 1.671950 0.000000 -0.009250 
#    y 0.000000 1.623010 0.000000 
#    z -0.009250 0.000000 1.671230 
# 
# From -- ./inp_files/103264.got.cif
#   From: 2010.05.17/outbox.cif.g08.bks.cpg/sg12_52_cif.got.tgz:103264.got - 2010.06.03 13:09:07.
