data_PCOD9181304
_publ_section_title
;
Structure prediction by ZEFSAII (Michael W. Deem and Ramdas Pophale) SiO2 
 PCOD9181304
Probable space group: C 2/M
;
_chemical_formula_sum "Si O2"
_cell_formula_units_Z 56
_cell_length_a 27.629879
_cell_length_b 7.870958
_cell_length_c 18.790780
_cell_angle_alpha 90.000000
_cell_angle_beta 147.959554
_cell_angle_gamma 90.000000
_cell_volume 2167.960333
_symmetry_space_group_name_H-M "C 2/M"
_symmetry_group_IT_number 12
_symmetry_cell_setting 'monoclinic'
loop_
_space_group_symop_operation_xyz
x,y,z
-x,y,-z
-x,-y,-z
x,-y,z
1/2+x,1/2+y,z
1/2-x,1/2+y,-z
1/2-x,1/2-y,-z
1/2+x,1/2-y,z
loop_
_atom_site_type_symbol
_atom_site_label
_atom_site_fract_x
_atom_site_fract_y
_atom_site_fract_z
Si Si1 0.378304 0.798871 0.408744
Si Si2 0.216205 0.193541 0.852473
Si Si3 0.541037 0.197528 0.705910
Si Si4 0.562825 0.303930 0.286116
Si Si5 0.609649 0.701118 0.005498
Si Si6 0.773825 0.792872 0.424141
Si Si7 0.596916 0.197317 0.139406
O O1 0.335842 0.705933 0.288562
O O2 0.481724 0.758623 0.561576
O O3 0.322680 0.761376 0.411772
O O4 0.372424 0.000000 0.384990
O O5 0.146830 0.277953 0.821195
O O6 0.228463 0.000000 0.888543
O O7 0.315196 0.271612 0.961405
O O8 0.497893 0.300225 0.717025
O O9 0.522713 0.000000 0.698927
O O10 0.577017 0.500000 0.284756
O O11 0.490435 0.228157 0.140344
O O12 0.659944 0.226992 0.430699
O O13 0.603619 0.500000 0.010602
O O14 0.642496 0.791127 0.118128
O O15 0.669485 0.731531 0.286020
O O16 0.773156 0.000000 0.426098
O O17 0.582704 0.000000 0.139240
O O18 0.500000 0.281782 0.000000
#
# Coordination Sequence:
#
# PCOD9181304 Si02
#       7
#     8   8   8   8   8   8   8
#     4  10  19  32  52  80 113 146 188 239 285 327
#     4  12  23  34  52  78 112 153 195 236 283 338
#     4  10  21  35  53  80 113 151 193 239 282 325
#     4   9  20  38  58  81 112 153 196 234 278 332
#     4  11  23  39  59  83 114 149 189 239 288 335
#     4   9  17  34  59  83 111 150 190 227 275 336
#     4  10  21  38  62  91 118 145 182 229 283 345
#
# _framework density 25.830729999999999
#
# number of rings (size 3 to 8) (size 9 to 14) (size 15 to 20)
#    0.000    1.857    1.429    3.000    0.000    5.429 
#    0.000    0.714    0.000    0.000    0.000    0.000 
#    0.000    0.000    0.000    0.000    0.000    0.000 
#
# Total GULP energy -156658.817345 kJ/mol
# GULP energy per Si atom -5594.957762 kJ/mol
# Density = 2.577194 g / cm^3
# Si number density = 25.830730 Si / 1000 Ang^3
#
#
#
# Elastic Constant Matrix: (Units=GPa)
#
#
# Indices 1 2 3 4 5 6 
#
# 1 76.4014 10.2230 42.4220 0.0000 5.1685 0.0000
# 2 10.2230 76.2301 12.4690 0.0000 4.7619 0.0000
# 3 42.4220 12.4690 205.9029 0.0000 15.6188 0.0000
# 4 0.0000 0.0000 0.0000 14.0206 0.0000 1.5806
# 5 5.1685 4.7619 15.6188 0.0000 56.4561 0.0000
# 6 0.0000 0.0000 0.0000 1.5806 0.0000 29.1777
#
#
#
# Elastic Compliance Matrix: (Units=1/GPa)
#
#
# Indices 1 2 3 4 5 6 
#
# 1 0.014961 -0.001496 -0.002960 0.000000 -0.000425 0.000000
# 2 -0.001496 0.013445 -0.000440 0.000000 -0.000876 0.000000
# 3 -0.002960 -0.000440 0.005587 0.000000 -0.001238 0.000000
# 4 0.000000 0.000000 0.000000 0.071762 0.000000 -0.003888
# 5 -0.000425 -0.000876 -0.001238 0.000000 0.018168 0.000000
# 6 0.000000 0.000000 0.000000 -0.003888 0.000000 0.034483
#
#
# Mechanical properties :
#
#
# Convention : Reuss Voigt Hill
#
# Bulk Modulus (GPa) = 41.31668 54.30694 47.81181
# Shear Modulus (GPa) = 28.36647 39.49223 33.92935
#
# Velocity S-wave (km/s) = 3.31746 3.91434 3.62819
# Velocity P-wave (km/s) = 5.54111 6.44199 6.00846
#
# Compressibility (1/GPa) = 0.02420330
#
# Stress axis : x y z
#
# Youngs Moduli (GPa) = 66.84068 74.37509 178.98927
#
# Poissons Ratio (x) = 0.11124 0.52974
# Poissons Ratio (y) = 0.09998 0.07869
# Poissons Ratio (z) = 0.19782 0.03270
#
# Static dielectric constant tensor:
#      x y z
#    x 2.092230 0.000000 0.015420 
#    y 0.000000 1.889620 0.000000 
#    z 0.015420 0.000000 2.089120 
# 
# From -- ./inp_files/277090.got.cif
#   From: 2010.05.17/outbox.cif.g08.bks.cpg/sg12_139_cif.got.tgz:277090.got - 2010.06.03 13:09:07.
