data_PCOD9181855
_publ_section_title
;
Structure prediction by ZEFSAII (Michael W. Deem and Ramdas Pophale) SiO2 
 PCOD9181855
Probable space group: C 2/M
;
_chemical_formula_sum "Si O2"
_cell_formula_units_Z 64
_cell_length_a 25.145605
_cell_length_b 7.728207
_cell_length_c 16.875727
_cell_angle_alpha 90.000000
_cell_angle_beta 88.355817
_cell_angle_gamma 90.000000
_cell_volume 3278.117262
_symmetry_space_group_name_H-M "C 2/M"
_symmetry_group_IT_number 12
_symmetry_cell_setting 'monoclinic'
loop_
_space_group_symop_operation_xyz
x,y,z
-x,y,-z
-x,-y,-z
x,-y,z
1/2+x,1/2+y,z
1/2-x,1/2+y,-z
1/2-x,1/2-y,-z
1/2+x,1/2-y,z
loop_
_atom_site_type_symbol
_atom_site_label
_atom_site_fract_x
_atom_site_fract_y
_atom_site_fract_z
Si Si1 0.010678 0.209273 0.870390
Si Si2 0.423143 0.797543 0.280685
Si Si3 0.195262 0.791533 0.959827
Si Si4 0.309745 0.297712 0.218145
Si Si5 0.950625 0.702478 0.453019
Si Si6 0.244294 0.790548 0.624261
Si Si7 0.417179 0.710695 0.981849
Si Si8 0.836967 0.204806 0.508941
O O1 0.030422 0.278109 0.785881
O O2 0.953569 0.267389 0.906698
O O3 0.010993 0.000000 0.865606
O O4 0.052662 0.257983 0.937772
O O5 0.369981 0.713143 0.247583
O O6 0.439457 0.724093 0.365670
O O7 0.410250 0.000000 0.290905
O O8 0.194063 0.722878 0.869727
O O9 0.189986 0.000000 0.955985
O O10 0.250000 0.750000 0.000000
O O11 0.143221 0.728540 0.009367
O O12 0.295787 0.500000 0.211609
O O13 0.271799 0.224778 0.288471
O O14 0.963292 0.500000 0.439378
O O15 0.895320 0.715919 0.502770
O O16 0.000000 0.778308 0.500000
O O17 0.199560 0.729915 0.562880
O O18 0.301485 0.738872 0.587899
O O19 0.242052 0.000000 0.624363
O O20 0.417775 0.500000 0.979334
O O21 0.843462 0.000000 0.499028
#
# Coordination Sequence:
#
# PCOD9181855 Si02
#       8
#     8   8   8   8   8   8   8   8
#     4   9  16  31  55  78 101 134 173 215 260 309
#     4  11  21  32  52  82 108 132 172 225 269 305
#     4  10  20  35  54  77 107 141 177 213 257 313
#     4  10  19  35  57  78 103 141 182 216 256 314
#     4  10  22  39  55  73 106 149 181 211 265 328
#     4   9  18  32  53  80 108 138 174 216 266 318
#     4   8  15  30  54  77  99 136 178 209 248 309
#     4  10  19  32  54  82 108 136 174 221 268 310
#
# _framework density 19.523402000000001
#
# number of rings (size 3 to 8) (size 9 to 14) (size 15 to 20)
#    0.000    2.375    2.500    1.500    0.000    2.250 
#    0.000    3.125    0.000    4.500    0.000    0.000 
#    0.000    0.000    0.000    0.000    0.000    0.000 
#
# Total GULP energy -178516.853460 kJ/mol
# GULP energy per Si atom -5578.651671 kJ/mol
# Density = 1.947897 g / cm^3
# Si number density = 19.523402 Si / 1000 Ang^3
#
#
#
# Elastic Constant Matrix: (Units=GPa)
#
#
# Indices 1 2 3 4 5 6 
#
# 1 143.0531 -12.8015 78.0456 0.0000 -11.5127 0.0000
# 2 -12.8015 25.3956 -6.4659 0.0000 2.1297 0.0000
# 3 78.0456 -6.4659 118.2343 0.0000 -13.6216 0.0000
# 4 0.0000 0.0000 0.0000 13.5229 0.0000 -4.5340
# 5 -11.5127 2.1297 -13.6216 0.0000 31.9428 0.0000
# 6 0.0000 0.0000 0.0000 -4.5340 0.0000 20.3888
#
#
#
# Elastic Compliance Matrix: (Units=1/GPa)
#
#
# Indices 1 2 3 4 5 6 
#
# 1 0.011301 0.003809 -0.007163 0.000000 0.000764 0.000000
# 2 0.003809 0.041317 -0.000435 0.000000 -0.001568 0.000000
# 3 -0.007163 -0.000435 0.013533 0.000000 0.003218 0.000000
# 4 0.000000 0.000000 0.000000 0.079906 0.000000 0.017769
# 5 0.000764 -0.001568 0.003218 0.000000 0.033058 0.000000
# 6 0.000000 0.000000 0.000000 0.017769 0.000000 0.052998
#
#
# Mechanical properties :
#
#
# Convention : Reuss Voigt Hill
#
# Bulk Modulus (GPa) = 17.07300 44.91548 30.99424
# Shear Modulus (GPa) = 19.28884 28.36457 23.82671
#
# Velocity S-wave (km/s) = 3.14663 3.81576 3.49724
# Velocity P-wave (km/s) = 4.68675 6.51685 5.67604
#
# Compressibility (1/GPa) = 0.05857203
#
# Stress axis : x y z
#
# Youngs Moduli (GPa) = 88.48924 24.20283 73.89260
#
# Poissons Ratio (x) = -0.09218 0.52931
# Poissons Ratio (y) = -0.33702 0.03215
# Poissons Ratio (z) = 0.63387 0.01053
#
# Static dielectric constant tensor:
#      x y z
#    x 1.669870 0.000000 -0.019890 
#    y 0.000000 1.731170 0.000000 
#    z -0.019890 0.000000 1.693440 
# 
# From -- ./inp_files/287661.got.cif
#   From: 2010.05.17/outbox.cif.g08.bks.cpg/sg12_144_cif.got.tgz:287661.got - 2010.06.03 13:09:07.
