data_PCOD9181012
_publ_section_title
;
Structure prediction by ZEFSAII (Michael W. Deem and Ramdas Pophale) SiO2 
 PCOD9181012
Probable space group: C 2/M
;
_chemical_formula_sum "Si O2"
_cell_formula_units_Z 56
_cell_length_a 19.678435
_cell_length_b 7.945841
_cell_length_c 32.838950
_cell_angle_alpha 90.000000
_cell_angle_beta 145.513840
_cell_angle_gamma 90.000000
_cell_volume 2907.334745
_symmetry_space_group_name_H-M "C 2/M"
_symmetry_group_IT_number 12
_symmetry_cell_setting 'monoclinic'
loop_
_space_group_symop_operation_xyz
x,y,z
-x,y,-z
-x,-y,-z
x,-y,z
1/2+x,1/2+y,z
1/2-x,1/2+y,-z
1/2-x,1/2-y,-z
1/2+x,1/2-y,z
loop_
_atom_site_type_symbol
_atom_site_label
_atom_site_fract_x
_atom_site_fract_y
_atom_site_fract_z
Si Si1 0.805860 0.196771 0.795779
Si Si2 0.560644 0.295625 0.899181
Si Si3 0.457856 0.202254 0.352532
Si Si4 0.691840 0.299785 0.427867
Si Si5 0.878081 0.305586 0.919105
Si Si6 0.766391 0.801609 0.941944
Si Si7 0.071518 0.293976 0.494974
O O1 0.675155 0.270005 0.721991
O O2 0.836455 0.210836 0.858547
O O3 0.924308 0.266901 0.832268
O O4 0.800184 0.000000 0.781811
O O5 0.561792 0.500000 0.899376
O O6 0.640951 0.231461 0.902009
O O7 0.630814 0.244016 0.975191
O O8 0.554969 0.241312 0.365264
O O9 0.505446 0.259406 0.420416
O O10 0.452990 0.000000 0.352186
O O11 0.689043 0.500000 0.423619
O O12 0.750000 0.250000 0.500000
O O13 0.788712 0.240048 0.441930
O O14 0.899330 0.500000 0.918469
O O15 0.781137 0.291917 0.906902
O O16 0.000000 0.237165 0.000000
O O17 0.782244 0.000000 0.942875
O O18 0.071205 0.500000 0.495565
O O19 0.000000 0.238187 0.500000
#
# Coordination Sequence:
#
# PCOD9181012 Si02
#       7
#     8   8   8   8   8   8   8
#     4  10  20  35  53  73 101 137 175 215 263 316
#     4   9  18  32  50  72  98 130 168 211 259 311
#     4   9  18  32  51  74 101 135 170 205 250 304
#     4   9  16  28  49  74 101 132 168 206 245 293
#     4  11  22  34  51  75 100 127 169 221 265 310
#     4  10  19  32  52  73  97 129 168 213 262 314
#     4   8  14  27  49  76 101 128 165 204 239 283
#
# _framework density 19.261627000000001
#
# number of rings (size 3 to 8) (size 9 to 14) (size 15 to 20)
#    0.000    2.571    1.429    2.143    0.000    2.286 
#    0.000    1.429    0.000   14.143    0.000    0.000 
#    0.000    0.000    0.000    0.000    0.000    0.000 
#
# Total GULP energy -156035.659155 kJ/mol
# GULP energy per Si atom -5572.702113 kJ/mol
# Density = 1.921779 g / cm^3
# Si number density = 19.261627 Si / 1000 Ang^3
#
#
#
# Elastic Constant Matrix: (Units=GPa)
#
#
# Indices 1 2 3 4 5 6 
#
# 1 147.2071 4.1461 55.7391 0.0000 31.2501 0.0002
# 2 4.1461 21.0166 5.3637 0.0001 6.2836 -0.0003
# 3 55.7391 5.3637 88.7318 0.0000 37.3084 -0.0001
# 4 0.0000 0.0001 0.0000 13.1690 0.0000 5.1537
# 5 31.2501 6.2836 37.3084 0.0000 33.1253 0.0001
# 6 0.0002 -0.0003 -0.0001 5.1537 0.0001 20.0464
#
#
#
# Elastic Compliance Matrix: (Units=1/GPa)
#
#
# Indices 1 2 3 4 5 6 
#
# 1 0.009205 0.000479 -0.004030 0.000000 -0.004235 0.000000
# 2 0.000479 0.050628 0.001646 -0.000001 -0.011910 0.000001
# 3 -0.004030 0.001646 0.023241 0.000000 -0.022685 0.000000
# 4 0.000000 -0.000001 0.000000 0.084431 0.000001 -0.021706
# 5 -0.004235 -0.011910 -0.022685 0.000001 0.061993 -0.000001
# 6 0.000000 0.000001 0.000000 -0.021706 -0.000001 0.055465
#
#
# Mechanical properties :
#
#
# Convention : Reuss Voigt Hill
#
# Bulk Modulus (GPa) = 12.61623 43.05035 27.83329
# Shear Modulus (GPa) = 15.86329 26.04857 20.95593
#
# Velocity S-wave (km/s) = 2.87290 3.68143 3.30201
# Velocity P-wave (km/s) = 4.19153 6.36156 5.38694
#
# Compressibility (1/GPa) = 0.07926299
#
# Stress axis : x y z
#
# Youngs Moduli (GPa) = 108.63844 19.75203 43.02811
#
# Poissons Ratio (x) = -0.00946 0.17342
# Poissons Ratio (y) = -0.05204 -0.07084
# Poissons Ratio (z) = 0.43786 -0.03252
#
# Static dielectric constant tensor:
#      x y z
#    x 1.701980 0.000000 0.042830 
#    y 0.000000 1.695510 0.000000 
#    z 0.042830 0.000000 1.678070 
# 
# From -- ./inp_files/314382.got.cif
#   From: 2010.05.17/outbox.cif.g08.bks.cpg/sg12_158_cif.got.tgz:314382.got - 2010.06.03 13:09:07.
