data_PCOD9181532
_publ_section_title
;
Structure prediction by ZEFSAII (Michael W. Deem and Ramdas Pophale) SiO2 
 PCOD9181532
Probable space group: C 2/M
;
_chemical_formula_sum "Si O2"
_cell_formula_units_Z 56
_cell_length_a 31.097109
_cell_length_b 8.608054
_cell_length_c 17.339639
_cell_angle_alpha 90.000000
_cell_angle_beta 45.940628
_cell_angle_gamma 90.000000
_cell_volume 3335.524220
_symmetry_space_group_name_H-M "C 2/M"
_symmetry_group_IT_number 12
_symmetry_cell_setting 'monoclinic'
loop_
_space_group_symop_operation_xyz
x,y,z
-x,y,-z
-x,-y,-z
x,-y,z
1/2+x,1/2+y,z
1/2-x,1/2+y,-z
1/2-x,1/2-y,-z
1/2+x,1/2-y,z
loop_
_atom_site_type_symbol
_atom_site_label
_atom_site_fract_x
_atom_site_fract_y
_atom_site_fract_z
Si Si1 0.697687 0.187756 0.893767
Si Si2 0.873471 0.312105 0.863809
Si Si3 0.508319 0.315646 0.705327
Si Si4 0.970483 0.312241 0.157204
Si Si5 0.592416 0.188716 0.917142
Si Si6 0.054532 0.312257 0.488446
Si Si7 0.671350 0.187438 0.248766
O O1 0.653773 0.240944 0.879726
O O2 0.764508 0.250112 0.806392
O O3 0.699249 0.000000 0.890962
O O4 0.666466 0.235631 0.013333
O O5 0.877176 0.500000 0.859620
O O6 0.940611 0.249541 0.786661
O O7 0.844426 0.262829 0.819004
O O8 0.506348 0.500000 0.706230
O O9 0.536981 0.258152 0.749520
O O10 0.542800 0.253664 0.587483
O O11 0.969345 0.500000 0.164236
O O12 0.923290 0.262638 0.150261
O O13 0.035962 0.268432 0.041594
O O14 0.592951 0.000000 0.915778
O O15 0.053662 0.500000 0.493696
O O16 0.116974 0.263464 0.372009
O O17 0.000000 0.265616 0.500000
O O18 0.672852 0.000000 0.247021
#
# Coordination Sequence:
#
# PCOD9181532 Si02
#       7
#     8   8   8   8   8   8   8
#     4  10  19  32  53  79 109 140 170 209 259 306
#     4  10  19  35  54  73 104 146 181 206 242 311
#     4  12  23  32  50  81 112 135 166 219 273 306
#     4   9  16  32  55  76 102 136 177 213 249 310
#     4   8  15  29  54  80 100 134 178 213 247 303
#     4  10  20  38  59  73  95 138 183 219 254 305
#     4  10  21  35  53  76 102 138 180 213 254 307
#
# _framework density 16.788965000000001
#
# number of rings (size 3 to 8) (size 9 to 14) (size 15 to 20)
#    0.000    2.143    2.857    2.571    0.000    2.000 
#    0.000    2.143    0.000    0.857    0.000    0.000 
#    0.000    0.000    0.000    0.000    0.000    0.000 
#
# Total GULP energy -156235.027135 kJ/mol
# GULP energy per Si atom -5579.822398 kJ/mol
# Density = 1.675075 g / cm^3
# Si number density = 16.788965 Si / 1000 Ang^3
#
#
#
# Elastic Constant Matrix: (Units=GPa)
#
#
# Indices 1 2 3 4 5 6 
#
# 1 164.7970 28.1926 104.6857 0.0001 8.6695 0.0000
# 2 28.1926 12.3413 25.7843 0.0006 1.3100 -0.0005
# 3 104.6857 25.7843 128.5313 0.0002 3.3459 -0.0002
# 4 0.0001 0.0006 0.0002 4.2013 0.0000 -13.8335
# 5 8.6695 1.3100 3.3459 0.0000 32.2841 0.0000
# 6 0.0000 -0.0005 -0.0002 -13.8335 0.0000 16.3000
#
#
#
# Elastic Compliance Matrix: (Units=1/GPa)
#
#
# Indices 1 2 3 4 5 6 
#
# 1 0.013997 -0.013837 -0.008565 0.000000 -0.002310 -0.000001
# 2 -0.013837 0.153418 -0.019494 0.000004 -0.000489 0.000008
# 3 -0.008565 -0.019494 0.018636 -0.000001 0.001159 -0.000001
# 4 0.000000 0.000004 -0.000001 -0.132644 0.000000 -0.112573
# 5 -0.002310 -0.000489 0.001159 0.000000 0.031495 0.000000
# 6 -0.000001 0.000008 -0.000001 -0.112573 0.000000 -0.034189
#
#
# Mechanical properties :
#
#
# Convention : Reuss Voigt Hill
#
# Bulk Modulus (GPa) = 9.77897 69.22165 39.50031
# Shear Modulus (GPa) = 29.65758 20.35756 25.00757
#
# Velocity S-wave (km/s) = 4.20753 3.48596 3.86362
# Velocity P-wave (km/s) = 5.42602 7.58436 6.59409
#
# Compressibility (1/GPa) = 0.10226029
#
# Stress axis : x y z
#
# Youngs Moduli (GPa) = 71.44279 6.51815 53.65858
#
# Poissons Ratio (x) = 0.09019 0.45956
# Poissons Ratio (y) = 0.98852 1.04604
# Poissons Ratio (z) = 0.61188 0.12707
#
# Static dielectric constant tensor:
#      x y z
#    x 1.567720 0.000000 0.014790 
#    y 0.000000 1.570880 0.000000 
#    z 0.014790 0.000000 1.544050 
# 
# From -- ./inp_files/244320.got.cif
#   From: 2010.05.17/outbox.cif.g08.bks.cpg/sg12_123_cif.got.tgz:244320.got - 2010.06.03 13:09:07.
