data_PCOD9181183
_publ_section_title
;
Structure prediction by ZEFSAII (Michael W. Deem and Ramdas Pophale) SiO2 
 PCOD9181183
Probable space group: C 2/M
;
_chemical_formula_sum "Si O2"
_cell_formula_units_Z 56
_cell_length_a 13.692085
_cell_length_b 22.044907
_cell_length_c 16.043291
_cell_angle_alpha 90.000000
_cell_angle_beta 150.311843
_cell_angle_gamma 90.000000
_cell_volume 2398.398430
_symmetry_space_group_name_H-M "C 2/M"
_symmetry_group_IT_number 12
_symmetry_cell_setting 'monoclinic'
loop_
_space_group_symop_operation_xyz
x,y,z
-x,y,-z
-x,-y,-z
x,-y,z
1/2+x,1/2+y,z
1/2-x,1/2+y,-z
1/2-x,1/2-y,-z
1/2+x,1/2-y,z
loop_
_atom_site_type_symbol
_atom_site_label
_atom_site_fract_x
_atom_site_fract_y
_atom_site_fract_z
Si Si1 0.985668 0.572811 0.117367
Si Si2 0.908872 0.221960 0.520966
Si Si3 0.442366 0.693936 0.050525
Si Si4 0.472579 0.778607 0.231210
Si Si5 0.194124 0.362610 0.597958
Si Si6 0.319758 0.426045 0.236343
Si Si7 0.756768 0.573036 0.539059
O O1 0.981245 0.500000 0.104467
O O2 0.163740 0.595006 0.189831
O O3 0.058736 0.584087 0.263831
O O4 0.778265 0.593335 0.924507
O O5 0.696076 0.196983 0.391369
O O6 0.035171 0.228057 0.699829
O O7 0.861455 0.293560 0.468163
O O8 0.000000 0.201421 0.500000
O O9 0.452151 0.748303 0.125073
O O10 0.605273 0.644871 0.199968
O O11 0.500000 0.712855 0.000000
O O12 0.210939 0.678261 0.883445
O O13 0.227263 0.401488 0.541030
O O14 0.000000 0.386694 0.500000
O O15 0.322769 0.500000 0.243045
O O16 0.542552 0.405309 0.414844
O O17 0.741065 0.500000 0.523331
#
# Coordination Sequence:
#
# PCOD9181183 Si02
#       7
#     8   8   8   8   8   8   8
#     4   8  14  27  50  76 100 128 169 228 289 344
#     4   9  17  33  56  84 115 140 178 220 268 345
#     4  10  19  34  56  82 109 139 187 231 270 336
#     4   9  17  30  57  87 104 135 176 218 274 328
#     4  10  21  36  51  73 106 147 194 233 281 327
#     4   8  14  27  49  77 100 125 174 229 283 350
#     4  10  19  32  52  77 106 146 197 247 286 322
#
# _framework density 23.348914000000001
#
# number of rings (size 3 to 8) (size 9 to 14) (size 15 to 20)
#    0.000    2.857    0.000    3.857    0.000    2.000 
#    5.143    0.000    0.000   26.143    0.000    0.000 
#    0.000    0.000    0.000    0.000    0.000    0.143 
#
# Total GULP energy -156304.594109 kJ/mol
# GULP energy per Si atom -5582.306932 kJ/mol
# Density = 2.329577 g / cm^3
# Si number density = 23.348914 Si / 1000 Ang^3
#
#
#
# Elastic Constant Matrix: (Units=GPa)
#
#
# Indices 1 2 3 4 5 6 
#
# 1 167.7314 20.7261 81.0947 0.0000 -1.9379 0.0000
# 2 20.7261 32.0543 23.7543 0.0000 -1.6708 0.0000
# 3 81.0947 23.7543 153.4620 0.0000 6.6431 0.0000
# 4 0.0000 0.0000 0.0000 14.6499 0.0000 1.3276
# 5 -1.9379 -1.6708 6.6431 0.0000 47.6223 0.0000
# 6 0.0000 0.0000 0.0000 1.3276 0.0000 29.1824
#
#
#
# Elastic Compliance Matrix: (Units=1/GPa)
#
#
# Indices 1 2 3 4 5 6 
#
# 1 0.008193 -0.002282 -0.004011 0.000000 0.000813 0.000000
# 2 -0.002282 0.036067 -0.004454 0.000000 0.001794 0.000000
# 3 -0.004011 -0.004454 0.009396 0.000000 -0.001630 0.000000
# 4 0.000000 0.000000 0.000000 0.068543 0.000000 -0.003118
# 5 0.000813 0.001794 -0.001630 0.000000 0.021322 0.000000
# 6 0.000000 0.000000 0.000000 -0.003118 0.000000 0.034409
#
#
# Mechanical properties :
#
#
# Convention : Reuss Voigt Hill
#
# Bulk Modulus (GPa) = 31.09447 67.15532 49.12490
# Shear Modulus (GPa) = 23.79301 33.46910 28.63105
#
# Velocity S-wave (km/s) = 3.19567 3.79018 3.50555
# Velocity P-wave (km/s) = 5.19256 6.92662 6.12130
#
# Compressibility (1/GPa) = 0.03216005
#
# Stress axis : x y z
#
# Youngs Moduli (GPa) = 122.06045 27.72586 106.42854
#
# Poissons Ratio (x) = 0.06328 0.42690
# Poissons Ratio (y) = 0.27859 0.47407
# Poissons Ratio (z) = 0.48961 0.12350
#
# Static dielectric constant tensor:
#      x y z
#    x 1.864830 0.000000 0.008240 
#    y 0.000000 1.964690 0.000000 
#    z 0.008240 0.000000 1.962780 
# 
# From -- ./inp_files/219372.got.cif
#   From: 2010.05.17/outbox.cif.g08.bks.cpg/sg12_110_cif.got.tgz:219372.got - 2010.06.03 13:09:07.
