data_PCOD9181793
_publ_section_title
;
Structure prediction by ZEFSAII (Michael W. Deem and Ramdas Pophale) SiO2 
 PCOD9181793
Probable space group: C 2/M
;
_chemical_formula_sum "Si O2"
_cell_formula_units_Z 56
_cell_length_a 20.249960
_cell_length_b 20.108186
_cell_length_c 8.887510
_cell_angle_alpha 90.000000
_cell_angle_beta 50.628768
_cell_angle_gamma 90.000000
_cell_volume 2797.602263
_symmetry_space_group_name_H-M "C 2/M"
_symmetry_group_IT_number 12
_symmetry_cell_setting 'monoclinic'
loop_
_space_group_symop_operation_xyz
x,y,z
-x,y,-z
-x,-y,-z
x,-y,z
1/2+x,1/2+y,z
1/2-x,1/2+y,-z
1/2-x,1/2-y,-z
1/2+x,1/2-y,z
loop_
_atom_site_type_symbol
_atom_site_label
_atom_site_fract_x
_atom_site_fract_y
_atom_site_fract_z
Si Si1 0.359239 0.887958 0.394988
Si Si2 0.786254 0.929206 0.605033
Si Si3 0.469504 0.922226 0.708561
Si Si4 0.603028 0.764987 0.853242
Si Si5 0.800520 0.344979 0.042387
Si Si6 0.754854 0.077867 0.153369
Si Si7 0.400444 0.392082 0.164185
O O1 0.303516 0.927629 0.354821
O O2 0.455847 0.909551 0.280014
O O3 0.359217 0.812598 0.332219
O O4 0.313175 0.904125 0.618265
O O5 0.773154 0.869932 0.738778
O O6 0.859555 0.920275 0.376055
O O7 0.796430 0.000000 0.669117
O O8 0.500000 0.894656 0.500000
O O9 0.457109 0.000000 0.705589
O O10 0.382831 0.892152 0.897350
O O11 0.652599 0.784345 0.937284
O O12 0.614036 0.687286 0.808281
O O13 0.500000 0.777471 0.000000
O O14 0.755207 0.360708 0.948463
O O15 0.846026 0.080550 0.103539
O O16 0.740435 0.000000 0.124442
O O17 0.500000 0.405991 0.000000
#
# Coordination Sequence:
#
# PCOD9181793 Si02
#       7
#     8   8   8   8   8   8   8
#     4  10  19  32  54  80 116 155 187 226 264 332
#     4  10  21  36  57  86 114 143 190 243 294 340
#     4  11  19  29  51  84 122 163 191 212 266 342
#     4  10  21  39  56  84 118 152 201 232 271 337
#     4  11  22  35  57  86 127 155 179 233 287 335
#     4  11  22  38  60  89 117 146 191 240 290 345
#     4  10  23  43  65  79 105 152 199 253 292 338
#
# _framework density 20.017140999999999
#
# number of rings (size 3 to 8) (size 9 to 14) (size 15 to 20)
#    0.000    1.571    2.857    3.857    0.000    6.857 
#    0.000    2.857    0.000    5.143    0.000    0.000 
#    0.000    0.000    0.000    0.000    0.000    0.000 
#
# Total GULP energy -155932.960072 kJ/mol
# GULP energy per Si atom -5569.034288 kJ/mol
# Density = 1.997158 g / cm^3
# Si number density = 20.017141 Si / 1000 Ang^3
#
#
#
# Elastic Constant Matrix: (Units=GPa)
#
#
# Indices 1 2 3 4 5 6 
#
# 1 68.1410 11.0976 24.3327 0.0000 -17.9760 0.0000
# 2 11.0976 70.7457 9.8599 0.0000 -7.2086 0.0000
# 3 24.3327 9.8599 50.6620 0.0000 -1.7740 0.0000
# 4 0.0000 0.0000 0.0000 21.0369 0.0000 -8.6401
# 5 -17.9760 -7.2086 -1.7740 0.0000 29.2250 0.0000
# 6 0.0000 0.0000 0.0000 -8.6401 0.0000 21.1583
#
#
#
# Elastic Compliance Matrix: (Units=1/GPa)
#
#
# Indices 1 2 3 4 5 6 
#
# 1 0.021590 -0.000749 -0.009786 0.000000 0.012501 0.000000
# 2 -0.000749 0.014904 -0.002434 0.000000 0.003068 0.000000
# 3 -0.009786 -0.002434 0.024733 0.000000 -0.005118 0.000000
# 4 0.000000 0.000000 0.000000 0.057114 0.000000 0.023323
# 5 0.012501 0.003068 -0.005118 0.000000 0.042352 0.000000
# 6 0.000000 0.000000 0.000000 0.023323 0.000000 0.056787
#
#
# Mechanical properties :
#
#
# Convention : Reuss Voigt Hill
#
# Bulk Modulus (GPa) = 28.33642 31.12548 29.73095
# Shear Modulus (GPa) = 19.59394 23.90130 21.74762
#
# Velocity S-wave (km/s) = 3.13206 3.45924 3.29971
# Velocity P-wave (km/s) = 5.22174 5.61590 5.42240
#
# Compressibility (1/GPa) = 0.03529028
#
# Stress axis : x y z
#
# Youngs Moduli (GPa) = 46.31840 67.09432 40.43153
#
# Poissons Ratio (x) = 0.05026 0.39566
# Poissons Ratio (y) = 0.03469 0.09839
# Poissons Ratio (z) = 0.45327 0.16328
#
# Static dielectric constant tensor:
#      x y z
#    x 1.768600 0.000000 0.040140 
#    y 0.000000 1.726960 0.000000 
#    z 0.040140 0.000000 1.722530 
# 
# From -- ./inp_files/89524.got.cif
#   From: 2010.05.17/outbox.cif.g08.bks.cpg/sg12_45_cif.got.tgz:89524.got - 2010.06.03 13:09:07.
