data_PCOD9181302
_publ_section_title
;
Structure prediction by ZEFSAII (Michael W. Deem and Ramdas Pophale) SiO2 
 PCOD9181302
Probable space group: C 2/M
;
_chemical_formula_sum "Si O2"
_cell_formula_units_Z 56
_cell_length_a 31.676993
_cell_length_b 7.553669
_cell_length_c 14.574048
_cell_angle_alpha 90.000000
_cell_angle_beta 133.731978
_cell_angle_gamma 90.000000
_cell_volume 2519.816381
_symmetry_space_group_name_H-M "C 2/M"
_symmetry_group_IT_number 12
_symmetry_cell_setting 'monoclinic'
loop_
_space_group_symop_operation_xyz
x,y,z
-x,y,-z
-x,-y,-z
x,-y,z
1/2+x,1/2+y,z
1/2-x,1/2+y,-z
1/2-x,1/2-y,-z
1/2+x,1/2-y,z
loop_
_atom_site_type_symbol
_atom_site_label
_atom_site_fract_x
_atom_site_fract_y
_atom_site_fract_z
Si Si1 0.281182 0.715019 0.765114
Si Si2 0.080631 0.209685 0.344225
Si Si3 0.974715 0.296819 0.058974
Si Si4 0.317420 0.786330 0.130124
Si Si5 0.875961 0.295989 0.041418
Si Si6 0.345655 0.212898 0.378549
Si Si7 0.184066 0.788688 0.373343
O O1 0.281971 0.500000 0.770429
O O2 0.213792 0.770967 0.658539
O O3 0.318871 0.776178 0.735056
O O4 0.311999 0.788999 0.900399
O O5 0.024737 0.293531 0.212010
O O6 0.098338 0.235049 0.476962
O O7 0.135815 0.282078 0.369170
O O8 0.074247 0.000000 0.320067
O O9 0.958575 0.500000 0.011514
O O10 0.919702 0.214212 0.031428
O O11 0.000000 0.220581 0.000000
O O12 0.363444 0.718323 0.122892
O O13 0.336091 0.724697 0.259773
O O14 0.321684 0.000000 0.137068
O O15 0.250000 0.750000 0.000000
O O16 0.895036 0.500000 0.081825
O O17 0.345602 0.000000 0.376168
O O18 0.250000 0.750000 0.500000
O O19 0.177042 0.000000 0.361404
#
# Coordination Sequence:
#
# PCOD9181302 Si02
#       7
#     8   8   8   8   8   8   8
#     4  10  19  32  52  80 112 146 181 221 276 336
#     4  11  23  37  56  83 113 148 189 237 284 327
#     4  10  22  41  62  83 111 151 193 231 278 338
#     4  10  20  35  56  84 116 148 186 231 282 335
#     4  10  21  36  57  84 111 144 189 235 277 329
#     4  10  20  35  55  80 113 151 184 222 279 341
#     4  10  20  32  48  75 109 141 177 219 271 331
#
# _framework density 22.223842000000001
#
# number of rings (size 3 to 8) (size 9 to 14) (size 15 to 20)
#    0.000    1.857    2.857    1.286    0.000    3.143 
#    0.000    0.714    0.000    4.286    0.000    0.000 
#    0.000    0.000    0.000    0.000    0.000    0.000 
#
# Total GULP energy -156182.436789 kJ/mol
# GULP energy per Si atom -5577.944171 kJ/mol
# Density = 2.217326 g / cm^3
# Si number density = 22.223842 Si / 1000 Ang^3
#
#
#
# Elastic Constant Matrix: (Units=GPa)
#
#
# Indices 1 2 3 4 5 6 
#
# 1 120.9375 5.6290 37.0512 0.0000 -21.2871 0.0000
# 2 5.6290 61.1810 -7.3839 0.0000 -5.1333 0.0000
# 3 37.0512 -7.3839 119.7705 0.0000 -14.0686 0.0000
# 4 0.0000 0.0000 0.0000 21.2608 0.0000 2.9264
# 5 -21.2871 -5.1333 -14.0686 0.0000 39.9544 0.0000
# 6 0.0000 0.0000 0.0000 2.9264 0.0000 5.2498
#
#
#
# Elastic Compliance Matrix: (Units=1/GPa)
#
#
# Indices 1 2 3 4 5 6 
#
# 1 0.009850 -0.000867 -0.002605 0.000000 0.004219 0.000000
# 2 -0.000867 0.016803 0.001568 0.000000 0.002249 0.000000
# 3 -0.002605 0.001568 0.009506 0.000000 0.002161 0.000000
# 4 0.000000 0.000000 0.000000 0.050944 0.000000 -0.028397
# 5 0.004219 0.002249 0.002161 0.000000 0.028326 0.000000
# 6 0.000000 0.000000 0.000000 -0.028397 0.000000 0.206312
#
#
# Mechanical properties :
#
#
# Convention : Reuss Voigt Hill
#
# Bulk Modulus (GPa) = 30.91050 41.38684 36.14867
# Shear Modulus (GPa) = 14.86632 31.06584 22.96608
#
# Velocity S-wave (km/s) = 2.58919 3.74285 3.21814
# Velocity P-wave (km/s) = 4.78303 6.11079 5.48722
#
# Compressibility (1/GPa) = 0.03235147
#
# Stress axis : x y z
#
# Youngs Moduli (GPa) = 101.52513 59.51436 105.20106
#
# Poissons Ratio (x) = 0.05158 0.27403
# Poissons Ratio (y) = 0.08798 -0.16497
# Poissons Ratio (z) = 0.26446 -0.09333
#
# Static dielectric constant tensor:
#      x y z
#    x 1.870030 0.000000 -0.043780 
#    y 0.000000 1.838220 0.000000 
#    z -0.043780 0.000000 1.827380 
# 
# From -- ./inp_files/237489.got.cif
#   From: 2010.05.17/outbox.cif.g08.bks.cpg/sg12_119_cif.got.tgz:237489.got - 2010.06.03 13:09:07.
