data_PCOD9181411
_publ_section_title
;
Structure prediction by ZEFSAII (Michael W. Deem and Ramdas Pophale) SiO2 
 PCOD9181411
Probable space group: C 2/M
;
_chemical_formula_sum "Si O2"
_cell_formula_units_Z 56
_cell_length_a 18.433539
_cell_length_b 7.508782
_cell_length_c 29.741593
_cell_angle_alpha 90.000000
_cell_angle_beta 141.154305
_cell_angle_gamma 90.000000
_cell_volume 2582.057518
_symmetry_space_group_name_H-M "C 2/M"
_symmetry_group_IT_number 12
_symmetry_cell_setting 'monoclinic'
loop_
_space_group_symop_operation_xyz
x,y,z
-x,y,-z
-x,-y,-z
x,-y,z
1/2+x,1/2+y,z
1/2-x,1/2+y,-z
1/2-x,1/2-y,-z
1/2+x,1/2-y,z
loop_
_atom_site_type_symbol
_atom_site_label
_atom_site_fract_x
_atom_site_fract_y
_atom_site_fract_z
Si Si1 0.367962 0.717825 0.428933
Si Si2 0.514985 0.210920 0.141422
Si Si3 0.226249 0.218609 0.713601
Si Si4 0.933087 0.208420 0.282032
Si Si5 0.301244 0.788534 0.573733
Si Si6 0.413263 0.782114 0.997829
Si Si7 0.349585 0.284836 0.145289
O O1 0.500000 0.774507 0.500000
O O2 0.368171 0.500000 0.429674
O O3 0.319758 0.774253 0.357323
O O4 0.284553 0.778959 0.428828
O O5 0.643044 0.279536 0.214171
O O6 0.430398 0.235774 0.142587
O O7 0.529252 0.000000 0.141238
O O8 0.459706 0.280439 0.068572
O O9 0.142208 0.280570 0.712996
O O10 0.225370 0.000000 0.712489
O O11 0.900438 0.282176 0.217273
O O12 0.068695 0.221213 0.357512
O O13 0.902660 0.000000 0.265272
O O14 0.250000 0.750000 0.500000
O O15 0.307684 0.000000 0.582002
O O16 0.282042 0.723991 0.925517
O O17 0.411626 0.000000 0.997323
O O18 0.500000 0.728316 0.000000
O O19 0.347912 0.500000 0.145691
#
# Coordination Sequence:
#
# PCOD9181411 Si02
#       7
#     8   8   8   8   8   8   8
#     4   9  17  30  50  74  98 127 166 210 249 292
#     4  10  19  32  53  77 102 137 180 222 262 312
#     4   9  17  31  52  76  99 130 177 222 256 299
#     4  10  20  35  55  77 103 136 173 214 261 311
#     4  11  22  36  56  81 108 137 171 212 258 308
#     4   9  17  31  52  77 103 135 180 227 265 307
#     4  10  20  33  51  77 108 138 169 214 271 320
#
# _framework density 21.688129
#
# number of rings (size 3 to 8) (size 9 to 14) (size 15 to 20)
#    0.000    2.286    0.000    3.429    0.000    7.429 
#    0.000    0.714    0.000   12.857    0.000    0.000 
#    0.000    0.000    0.000    0.000    0.000    0.000 
#
# Total GULP energy -156516.529548 kJ/mol
# GULP energy per Si atom -5589.876055 kJ/mol
# Density = 2.163877 g / cm^3
# Si number density = 21.688129 Si / 1000 Ang^3
#
#
#
# Elastic Constant Matrix: (Units=GPa)
#
#
# Indices 1 2 3 4 5 6 
#
# 1 230.9522 -14.6728 137.0327 0.0001 -6.9333 0.0000
# 2 -14.6728 51.1304 -11.2763 0.0002 -4.0672 -0.0003
# 3 137.0327 -11.2763 236.1609 0.0000 -10.2076 -0.0001
# 4 0.0001 0.0002 0.0000 0.1877 -0.0001 -0.7812
# 5 -6.9333 -4.0672 -10.2076 -0.0001 48.3563 0.0002
# 6 0.0000 -0.0003 -0.0001 -0.7812 0.0002 34.8296
#
#
#
# Elastic Compliance Matrix: (Units=1/GPa)
#
#
# Indices 1 2 3 4 5 6 
#
# 1 0.006664 0.001093 -0.003804 -0.000003 0.000244 0.000000
# 2 0.001093 0.020116 0.000410 -0.000026 0.001935 0.000000
# 3 -0.003804 0.000410 0.006498 0.000000 0.000861 0.000000
# 4 -0.000003 -0.000026 0.000000 5.874626 0.000003 0.131763
# 5 0.000244 0.001935 0.000861 0.000003 0.021059 0.000000
# 6 0.000000 0.000000 0.000000 0.131763 0.000000 0.031667
#
#
# Mechanical properties :
#
#
# Convention : Reuss Voigt Hill
#
# Bulk Modulus (GPa) = 34.87261 82.26785 58.57023
# Shear Modulus (GPa) = 0.83685 43.81872 22.32779
#
# Velocity S-wave (km/s) = 0.62185 4.49976 3.21205
# Velocity P-wave (km/s) = 4.07794 8.06298 6.38911
#
# Compressibility (1/GPa) = 0.02867580
#
# Stress axis : x y z
#
# Youngs Moduli (GPa) = 150.06855 49.71215 153.88479
#
# Poissons Ratio (x) = -0.05432 0.58535
# Poissons Ratio (y) = -0.16399 -0.06310
# Poissons Ratio (z) = 0.57084 -0.02038
#
# Static dielectric constant tensor:
#      x y z
#    x 1.734520 0.000000 -0.008670 
#    y 0.000000 1.859240 0.000000 
#    z -0.008670 0.000000 1.732720 
# 
# From -- ./inp_files/275098.got.cif
#   From: 2010.05.17/outbox.cif.g08.bks.cpg/sg12_138_cif.got.tgz:275098.got - 2010.06.03 13:09:07.
