data_PCOD9181165
_publ_section_title
;
Structure prediction by ZEFSAII (Michael W. Deem and Ramdas Pophale) SiO2 
 PCOD9181165
Probable space group: C 2/M
;
_chemical_formula_sum "Si O2"
_cell_formula_units_Z 56
_cell_length_a 19.645554
_cell_length_b 9.829095
_cell_length_c 14.532614
_cell_angle_alpha 90.000000
_cell_angle_beta 68.314683
_cell_angle_gamma 90.000000
_cell_volume 2607.615234
_symmetry_space_group_name_H-M "C 2/M"
_symmetry_group_IT_number 12
_symmetry_cell_setting 'monoclinic'
loop_
_space_group_symop_operation_xyz
x,y,z
-x,y,-z
-x,-y,-z
x,-y,z
1/2+x,1/2+y,z
1/2-x,1/2+y,-z
1/2-x,1/2-y,-z
1/2+x,1/2-y,z
loop_
_atom_site_type_symbol
_atom_site_label
_atom_site_fract_x
_atom_site_fract_y
_atom_site_fract_z
Si Si1 0.822330 0.842329 0.569478
Si Si2 0.543299 0.160725 0.722466
Si Si3 0.441279 0.144134 0.949957
Si Si4 0.206362 0.853909 0.152699
Si Si5 0.682571 0.339769 0.649487
Si Si6 0.317819 0.648991 0.053480
Si Si7 0.941424 0.157259 0.657104
O O1 0.759106 0.737301 0.631263
O O2 0.826515 0.835238 0.457417
O O3 0.899015 0.814223 0.582873
O O4 0.803435 0.000000 0.601913
O O5 0.484469 0.167115 0.834328
O O6 0.614587 0.247239 0.716564
O O7 0.503222 0.237620 0.657868
O O8 0.559711 0.000000 0.697035
O O9 0.388880 0.260986 0.008975
O O10 0.399494 0.000000 0.961123
O O11 0.500000 0.131504 0.000000
O O12 0.205011 0.861719 0.042572
O O13 0.125800 0.837279 0.235305
O O14 0.235182 0.000000 0.172049
O O15 0.258065 0.726609 0.143822
O O16 0.681155 0.500000 0.676656
O O17 0.331897 0.500000 0.082944
O O18 0.968853 0.000000 0.642571
#
# Coordination Sequence:
#
# PCOD9181165 Si02
#       7
#     8   8   8   8   8   8   8
#     4   9  20  39  63  88 114 150 191 233 280 337
#     4  11  23  38  59  85 115 151 191 237 288 341
#     4  10  22  39  56  75 105 147 190 230 276 332
#     4   9  18  32  52  76 105 141 175 218 273 325
#     4  10  21  39  62  86 117 153 189 231 282 340
#     4  10  19  32  52  77 104 137 180 226 271 320
#     4  10  20  37  60  86 117 150 191 237 284 337
#
# _framework density 21.475563000000001
#
# number of rings (size 3 to 8) (size 9 to 14) (size 15 to 20)
#    0.000    2.143    1.429    1.286    0.000    4.857 
#    0.000    8.571    0.000    0.000    0.000    0.000 
#    0.000    0.000    0.000    0.000    0.000    0.000 
#
# Total GULP energy -156281.760561 kJ/mol
# GULP energy per Si atom -5581.491449 kJ/mol
# Density = 2.142668 g / cm^3
# Si number density = 21.475563 Si / 1000 Ang^3
#
#
#
# Elastic Constant Matrix: (Units=GPa)
#
#
# Indices 1 2 3 4 5 6 
#
# 1 50.9418 56.2848 -5.0655 0.0000 -1.2998 0.0000
# 2 56.2848 171.4327 5.1884 0.0000 -23.7078 0.0000
# 3 -5.0655 5.1884 49.1644 0.0000 10.7040 0.0000
# 4 0.0000 0.0000 0.0000 20.5715 0.0000 -9.2222
# 5 -1.2998 -23.7078 10.7040 0.0000 31.8359 0.0000
# 6 0.0000 0.0000 0.0000 -9.2222 0.0000 37.1707
#
#
#
# Elastic Compliance Matrix: (Units=1/GPa)
#
#
# Indices 1 2 3 4 5 6 
#
# 1 0.034462 -0.013018 0.007260 0.000000 -0.010728 0.000000
# 2 -0.013018 0.011585 -0.004668 0.000000 0.009665 0.000000
# 3 0.007260 -0.004668 0.024032 0.000000 -0.011260 0.000000
# 4 0.000000 0.000000 0.000000 0.054694 0.000000 0.013570
# 5 -0.010728 0.009665 -0.011260 0.000000 0.041957 0.000000
# 6 0.000000 0.000000 0.000000 0.013570 0.000000 0.030270
#
#
# Mechanical properties :
#
#
# Convention : Reuss Voigt Hill
#
# Bulk Modulus (GPa) = 20.31398 42.70603 31.51001
# Shear Modulus (GPa) = 21.34378 32.25769 26.80074
#
# Velocity S-wave (km/s) = 3.15598 3.87985 3.53649
# Velocity P-wave (km/s) = 4.77074 6.32456 5.60178
#
# Compressibility (1/GPa) = 0.04922717
#
# Stress axis : x y z
#
# Youngs Moduli (GPa) = 29.01787 86.31767 41.61096
#
# Poissons Ratio (x) = 1.12366 -0.30210
# Poissons Ratio (y) = 0.37775 0.19425
# Poissons Ratio (z) = -0.21067 0.40294
#
# Static dielectric constant tensor:
#      x y z
#    x 1.760790 0.000000 0.029800 
#    y 0.000000 1.878300 0.000000 
#    z 0.029800 0.000000 1.794360 
# 
# From -- ./inp_files/275247.got.cif
#   From: 2010.05.17/outbox.cif.g08.bks.cpg/sg12_138_cif.got.tgz:275247.got - 2010.06.03 13:09:07.
