data_PCOD9181732
_publ_section_title
;
Structure prediction by ZEFSAII (Michael W. Deem and Ramdas Pophale) SiO2 
 PCOD9181732
Probable space group: C 2/M
;
_chemical_formula_sum "Si O2"
_cell_formula_units_Z 64
_cell_length_a 21.109225
_cell_length_b 7.775883
_cell_length_c 22.326429
_cell_angle_alpha 90.000000
_cell_angle_beta 118.628516
_cell_angle_gamma 90.000000
_cell_volume 3216.691780
_symmetry_space_group_name_H-M "C 2/M"
_symmetry_group_IT_number 12
_symmetry_cell_setting 'monoclinic'
loop_
_space_group_symop_operation_xyz
x,y,z
-x,y,-z
-x,-y,-z
x,-y,z
1/2+x,1/2+y,z
1/2-x,1/2+y,-z
1/2-x,1/2-y,-z
1/2+x,1/2-y,z
loop_
_atom_site_type_symbol
_atom_site_label
_atom_site_fract_x
_atom_site_fract_y
_atom_site_fract_z
Si Si1 0.656443 0.791188 0.703424
Si Si2 0.304876 0.297080 0.710737
Si Si3 0.156955 0.296751 0.836942
Si Si4 0.579272 0.211324 0.920238
Si Si5 0.227407 0.795111 0.556946
Si Si6 0.676873 0.791298 0.077221
Si Si7 0.579703 0.704653 0.549080
Si Si8 0.416452 0.797923 0.853441
O O1 0.735435 0.730886 0.716786
O O2 0.641485 0.727231 0.763490
O O3 0.600735 0.733927 0.627627
O O4 0.657931 0.000000 0.704282
O O5 0.309498 0.500000 0.722074
O O6 0.285230 0.264734 0.632809
O O7 0.376853 0.220815 0.771885
O O8 0.141435 0.500000 0.827221
O O9 0.111751 0.226763 0.872044
O O10 0.241744 0.274096 0.887665
O O11 0.497298 0.272254 0.891272
O O12 0.578956 0.000000 0.919376
O O13 0.630577 0.260895 0.998448
O O14 0.250000 0.750000 0.500000
O O15 0.148161 0.726678 0.541546
O O16 0.224331 0.000000 0.560229
O O17 0.635923 0.728149 0.118429
O O18 0.680438 0.000000 0.079963
O O19 0.500000 0.775866 0.500000
O O20 0.576991 0.500000 0.536313
O O21 0.423538 0.000000 0.869855
#
# Coordination Sequence:
#
# PCOD9181732 Si02
#       8
#     8   8   8   8   8   8   8   8
#     4   9  18  32  52  76 102 136 175 212 254 308
#     4  10  19  34  55  78 106 138 178 219 258 306
#     4  10  19  34  53  74 104 137 173 218 265 311
#     4   9  19  34  51  74 106 139 172 218 269 317
#     4  10  20  36  58  83 111 141 175 212 258 309
#     4  10  19  32  54  78 100 135 180 219 261 316
#     4   9  19  36  57  80 107 137 171 213 259 303
#     4  10  19  33  53  76 104 137 178 219 262 314
#
# _framework density 19.896217
#
# number of rings (size 3 to 8) (size 9 to 14) (size 15 to 20)
#    0.000    2.375    1.250    1.500    0.000    3.250 
#    2.250    1.250    0.000    1.500    0.000    0.000 
#    0.000    0.000    0.000    0.000    0.000    0.000 
#
# Total GULP energy -178579.727956 kJ/mol
# GULP energy per Si atom -5580.616499 kJ/mol
# Density = 1.985093 g / cm^3
# Si number density = 19.896217 Si / 1000 Ang^3
#
#
#
# Elastic Constant Matrix: (Units=GPa)
#
#
# Indices 1 2 3 4 5 6 
#
# 1 48.2194 -3.6347 22.1034 0.0001 -5.5148 0.0001
# 2 -3.6347 20.8245 -16.7357 -0.0005 -3.9510 -0.0003
# 3 22.1034 -16.7357 90.7339 0.0000 -6.5579 0.0000
# 4 0.0001 -0.0005 0.0000 244.1258 0.0000 147.5082
# 5 -5.5148 -3.9510 -6.5579 0.0000 33.5509 0.0000
# 6 0.0001 -0.0003 0.0000 147.5082 0.0000 105.4408
#
#
#
# Elastic Compliance Matrix: (Units=1/GPa)
#
#
# Indices 1 2 3 4 5 6 
#
# 1 0.023602 0.000236 -0.005501 0.000000 0.002832 0.000000
# 2 0.000236 0.059060 0.011504 0.000000 0.009242 0.000000
# 3 -0.005501 0.011504 0.014724 0.000000 0.003328 0.000000
# 4 0.000000 0.000000 0.000000 0.026478 0.000000 -0.037042
# 5 0.002832 0.009242 0.003328 0.000000 0.032010 0.000000
# 6 0.000000 0.000000 0.000000 -0.037042 0.000000 0.061305
#
#
# Mechanical properties :
#
#
# Convention : Reuss Voigt Hill
#
# Bulk Modulus (GPa) = 9.10227 18.13820 13.62023
# Shear Modulus (GPa) = 20.71901 87.15980 53.93940
#
# Velocity S-wave (km/s) = 3.23050 6.62588 5.21241
# Velocity P-wave (km/s) = 4.30112 8.22634 6.56400
#
# Compressibility (1/GPa) = 0.10986271
#
# Stress axis : x y z
#
# Youngs Moduli (GPa) = 42.36930 16.93184 67.91657
#
# Poissons Ratio (x) = -0.00399 0.37364
# Poissons Ratio (y) = -0.00998 -0.78133
# Poissons Ratio (z) = 0.23309 -0.19479
#
# Static dielectric constant tensor:
#      x y z
#    x 1.672470 0.000000 0.031260 
#    y 0.000000 1.725240 0.000000 
#    z 0.031260 0.000000 1.619300 
# 
# From -- ./inp_files/319999.got.cif
#   From: 2010.05.17/outbox.cif.g08.bks.cpg/sg12_160_cif.got.tgz:319999.got - 2010.06.03 13:09:07.
