data_PCOD9181805
_publ_section_title
;
Structure prediction by ZEFSAII (Michael W. Deem and Ramdas Pophale) SiO2 
 PCOD9181805
Probable space group: C 2/M
;
_chemical_formula_sum "Si O2"
_cell_formula_units_Z 64
_cell_length_a 14.303336
_cell_length_b 7.762210
_cell_length_c 29.639178
_cell_angle_alpha 90.000000
_cell_angle_beta 65.487030
_cell_angle_gamma 90.000000
_cell_volume 2994.104652
_symmetry_space_group_name_H-M "C 2/M"
_symmetry_group_IT_number 12
_symmetry_cell_setting 'monoclinic'
loop_
_space_group_symop_operation_xyz
x,y,z
-x,y,-z
-x,-y,-z
x,-y,z
1/2+x,1/2+y,z
1/2-x,1/2+y,-z
1/2-x,1/2-y,-z
1/2+x,1/2-y,z
loop_
_atom_site_type_symbol
_atom_site_label
_atom_site_fract_x
_atom_site_fract_y
_atom_site_fract_z
Si Si1 0.203143 0.710859 0.125583
Si Si2 0.133150 0.206412 0.508934
Si Si3 0.176915 0.800616 0.403438
Si Si4 0.900256 0.200962 0.388055
Si Si5 0.483936 0.796613 0.133622
Si Si6 0.615488 0.198852 0.317439
Si Si7 0.413827 0.300529 0.049577
Si Si8 0.227127 0.791485 0.788604
O O1 0.204956 0.500000 0.124779
O O2 0.298630 0.773043 0.075891
O O3 0.225221 0.761975 0.172726
O O4 0.092398 0.766404 0.130659
O O5 0.250000 0.250000 0.500000
O O6 0.121910 0.271106 0.459944
O O7 0.074023 0.263662 0.565837
O O8 0.120641 0.000000 0.507571
O O9 0.299013 0.793320 0.389758
O O10 0.155691 0.711277 0.360544
O O11 0.145040 0.000000 0.404214
O O12 0.003000 0.218113 0.338729
O O13 0.871808 0.000000 0.397046
O O14 0.453973 0.706539 0.092855
O O15 0.390347 0.769845 0.187042
O O16 0.492222 0.000000 0.122433
O O17 0.700929 0.270949 0.266334
O O18 0.600149 0.000000 0.308460
O O19 0.402108 0.500000 0.037712
O O20 0.500000 0.220360 0.000000
O O21 0.224026 0.000000 0.787880
#
# Coordination Sequence:
#
# PCOD9181805 Si02
#       8
#     8   8   8   8   8   8   8   8
#     4   8  16  33  54  75 101 136 174 212 258 306
#     4   8  16  31  52  75 101 135 172 211 260 317
#     4  10  20  36  56  78 106 140 176 217 267 323
#     4  10  20  36  56  79 107 137 173 219 267 324
#     4  10  19  32  54  81 106 134 173 221 269 310
#     4  11  23  37  54  79 107 139 179 223 273 325
#     4   9  18  34  54  76 109 151 184 209 248 307
#     4   9  20  39  56  71 100 138 176 217 260 314
#
# _framework density 21.375336999999998
#
# number of rings (size 3 to 8) (size 9 to 14) (size 15 to 20)
#    0.000    2.625    0.000    2.250    0.000    4.250 
#    0.000    8.750    0.000    0.000    0.000    0.000 
#    0.000    0.000    0.000    0.000    0.000    0.000 
#
# Total GULP energy -178534.137271 kJ/mol
# GULP energy per Si atom -5579.191790 kJ/mol
# Density = 2.132669 g / cm^3
# Si number density = 21.375337 Si / 1000 Ang^3
#
#
#
# Elastic Constant Matrix: (Units=GPa)
#
#
# Indices 1 2 3 4 5 6 
#
# 1 96.4325 -8.5020 32.1040 0.0000 -30.6673 0.0000
# 2 -8.5020 36.7162 -4.8079 0.0000 -2.3215 0.0000
# 3 32.1040 -4.8079 128.2151 0.0000 -40.7609 0.0000
# 4 0.0000 0.0000 0.0000 16.9232 0.0000 -0.3516
# 5 -30.6673 -2.3215 -40.7609 0.0000 27.4711 0.0000
# 6 0.0000 0.0000 0.0000 -0.3516 0.0000 15.8683
#
#
#
# Elastic Compliance Matrix: (Units=1/GPa)
#
#
# Indices 1 2 3 4 5 6 
#
# 1 0.018186 0.006517 0.004392 0.000000 0.027369 0.000000
# 2 0.006517 0.030493 0.005004 0.000000 0.017277 0.000000
# 3 0.004392 0.005004 0.016242 0.000000 0.029425 0.000000
# 4 0.000000 0.000000 0.000000 0.059118 0.000000 0.001310
# 5 0.027369 0.017277 0.029425 0.000000 0.112075 0.000000
# 6 0.000000 0.000000 0.000000 0.001310 0.000000 0.063048
#
#
# Mechanical properties :
#
#
# Convention : Reuss Voigt Hill
#
# Bulk Modulus (GPa) = 10.33634 33.21687 21.77661
# Shear Modulus (GPa) = 16.68977 28.22383 22.45680
#
# Velocity S-wave (km/s) = 2.79730 3.63766 3.24480
# Velocity P-wave (km/s) = 3.90888 5.76342 4.92424
#
# Compressibility (1/GPa) = 0.09674604
#
# Stress axis : x y z
#
# Youngs Moduli (GPa) = 54.98620 32.79477 61.56952
#
# Poissons Ratio (x) = -0.21372 -0.27039
# Poissons Ratio (y) = -0.35833 -0.30811
# Poissons Ratio (z) = -0.24148 -0.16411
#
# Static dielectric constant tensor:
#      x y z
#    x 1.764830 0.000000 -0.027640 
#    y 0.000000 1.816700 0.000000 
#    z -0.027640 0.000000 1.790540 
# 
# From -- ./inp_files/375063.got.cif
#   From: 2010.05.17/outbox.cif.g08.bks.cpg/sg12_188_cif.got.tgz:375063.got - 2010.06.03 13:09:07.
