data_PCOD9181736
_publ_section_title
;
Structure prediction by ZEFSAII (Michael W. Deem and Ramdas Pophale) SiO2 
 PCOD9181736
Probable space group: C 2/M
;
_chemical_formula_sum "Si O2"
_cell_formula_units_Z 56
_cell_length_a 30.880497
_cell_length_b 9.052639
_cell_length_c 17.213606
_cell_angle_alpha 90.000000
_cell_angle_beta 134.258975
_cell_angle_gamma 90.000000
_cell_volume 3446.364352
_symmetry_space_group_name_H-M "C 2/M"
_symmetry_group_IT_number 12
_symmetry_cell_setting 'monoclinic'
loop_
_space_group_symop_operation_xyz
x,y,z
-x,y,-z
-x,-y,-z
x,-y,z
1/2+x,1/2+y,z
1/2-x,1/2+y,-z
1/2-x,1/2-y,-z
1/2+x,1/2-y,z
loop_
_atom_site_type_symbol
_atom_site_label
_atom_site_fract_x
_atom_site_fract_y
_atom_site_fract_z
Si Si1 0.404805 0.322315 0.413441
Si Si2 0.011969 0.677298 0.797748
Si Si3 0.693448 0.177239 0.606527
Si Si4 0.439624 0.177434 0.974017
Si Si5 0.971530 0.822314 0.343155
Si Si6 0.870241 0.677810 0.635957
Si Si7 0.830479 0.822790 0.745523
O O1 0.400158 0.500000 0.409545
O O2 0.345245 0.250792 0.373952
O O3 0.423300 0.278958 0.349026
O O4 0.462372 0.281204 0.539653
O O5 0.014307 0.500000 0.793045
O O6 0.036546 0.750510 0.750482
O O7 0.941171 0.717305 0.719277
O O8 0.047182 0.718213 0.920290
O O9 0.662959 0.217667 0.485714
O O10 0.763762 0.218677 0.691983
O O11 0.689108 0.000000 0.608159
O O12 0.382777 0.258479 0.865670
O O13 0.430682 0.000000 0.958064
O O14 0.500000 0.210926 0.000000
O O15 0.970347 0.000000 0.335370
O O16 0.866301 0.500000 0.641310
O O17 0.840976 0.756779 0.673008
O O18 0.834061 0.000000 0.746632
#
# Coordination Sequence:
#
# PCOD9181736 Si02
#       7
#     8   8   8   8   8   8   8
#     4   9  18  32  51  76 106 138 168 201 252 312
#     4  10  19  32  54  78 101 134 173 208 252 304
#     4  10  21  35  51  75 107 138 171 210 251 301
#     4  10  20  37  55  72  99 136 175 215 252 297
#     4   9  18  32  50  77 109 134 163 209 258 302
#     4  10  19  34  52  73 105 141 170 204 251 303
#     4  11  23  35  50  76 105 136 175 214 253 298
#
# _framework density 16.249008
#
# number of rings (size 3 to 8) (size 9 to 14) (size 15 to 20)
#    0.000    2.143    2.857    1.714    0.000    3.714 
#    0.000    1.429    0.000    0.857    0.000    0.000 
#    0.000    0.000    0.000    0.000    0.000    0.000 
#
# Total GULP energy -156243.642023 kJ/mol
# GULP energy per Si atom -5580.130072 kJ/mol
# Density = 1.621202 g / cm^3
# Si number density = 16.249008 Si / 1000 Ang^3
#
#
#
# Elastic Constant Matrix: (Units=GPa)
#
#
# Indices 1 2 3 4 5 6 
#
# 1 167.3508 48.5860 75.6645 0.0000 -5.2847 0.0000
# 2 48.5860 20.8317 32.9064 0.0000 0.6476 0.0000
# 3 75.6645 32.9064 82.2348 0.0000 5.5980 0.0000
# 4 0.0000 0.0000 0.0000 23.4393 0.0000 -3.1117
# 5 -5.2847 0.6476 5.5980 0.0000 28.4212 0.0000
# 6 0.0000 0.0000 0.0000 -3.1117 0.0000 32.7104
#
#
#
# Elastic Compliance Matrix: (Units=1/GPa)
#
#
# Indices 1 2 3 4 5 6 
#
# 1 0.019081 -0.044634 -0.000007 0.000000 0.004566 0.000000
# 2 -0.044634 0.236443 -0.053328 0.000000 -0.003183 0.000000
# 3 -0.000007 -0.053328 0.033878 0.000000 -0.005459 0.000000
# 4 0.000000 0.000000 0.000000 0.043209 0.000000 0.004110
# 5 0.004566 -0.003183 -0.005459 0.000000 0.037182 0.000000
# 6 0.000000 0.000000 0.000000 0.004110 0.000000 0.030962
#
#
# Mechanical properties :
#
#
# Convention : Reuss Voigt Hill
#
# Bulk Modulus (GPa) = 10.69944 64.97012 37.83478
# Shear Modulus (GPa) = 7.96370 24.46488 16.21429
#
# Velocity S-wave (km/s) = 2.21623 3.88444 3.16232
# Velocity P-wave (km/s) = 3.62600 7.75818 6.05546
#
# Compressibility (1/GPa) = 0.09346282
#
# Stress axis : x y z
#
# Youngs Moduli (GPa) = 52.40722 4.22935 29.51777
#
# Poissons Ratio (x) = 0.18877 0.00021
# Poissons Ratio (y) = 2.33916 1.57413
# Poissons Ratio (z) = 0.00037 0.22554
#
# Static dielectric constant tensor:
#      x y z
#    x 1.530240 0.000000 -0.001260 
#    y 0.000000 1.541430 0.000000 
#    z -0.001260 0.000000 1.529050 
# 
# From -- ./inp_files/243664.got.cif
#   From: 2010.05.17/outbox.cif.g08.bks.cpg/sg12_122_cif.got.tgz:243664.got - 2010.06.03 13:09:07.
