data_PCOD9181158
_publ_section_title
;
Structure prediction by ZEFSAII (Michael W. Deem and Ramdas Pophale) SiO2 
 PCOD9181158
Probable space group: C 2/M
;
_chemical_formula_sum "Si O2"
_cell_formula_units_Z 56
_cell_length_a 14.902301
_cell_length_b 15.345688
_cell_length_c 11.680228
_cell_angle_alpha 90.000000
_cell_angle_beta 119.649590
_cell_angle_gamma 90.000000
_cell_volume 2321.369753
_symmetry_space_group_name_H-M "C 2/M"
_symmetry_group_IT_number 12
_symmetry_cell_setting 'monoclinic'
loop_
_space_group_symop_operation_xyz
x,y,z
-x,y,-z
-x,-y,-z
x,-y,z
1/2+x,1/2+y,z
1/2-x,1/2+y,-z
1/2-x,1/2-y,-z
1/2+x,1/2-y,z
loop_
_atom_site_type_symbol
_atom_site_label
_atom_site_fract_x
_atom_site_fract_y
_atom_site_fract_z
Si Si1 0.589875 0.099378 0.458939
Si Si2 0.375849 0.598680 0.933619
Si Si3 0.226288 0.285810 0.692493
Si Si4 0.892791 0.405390 0.000153
Si Si5 0.546052 0.217192 0.769434
Si Si6 0.278488 0.594632 0.305168
Si Si7 0.556129 0.404951 0.780156
O O1 0.500000 0.101822 0.500000
O O2 0.688009 0.147266 0.573186
O O3 0.541570 0.149832 0.321903
O O4 0.609420 0.000000 0.444239
O O5 0.343935 0.500000 0.879206
O O6 0.318461 0.671595 0.824205
O O7 0.500000 0.605562 0.000000
O O8 0.361884 0.603680 0.062718
O O9 0.132329 0.278362 0.725110
O O10 0.236071 0.188636 0.647250
O O11 0.884325 0.500000 0.056975
O O12 0.896794 0.322842 0.085218
O O13 0.804945 0.402527 0.849712
O O14 0.000000 0.404819 0.000000
O O15 0.498056 0.313434 0.751048
O O16 0.269231 0.500000 0.358425
O O17 0.387234 0.593120 0.305864
O O18 0.504920 0.500000 0.764235
#
# Coordination Sequence:
#
# PCOD9181158 Si02
#       7
#     8   8   8   8   8   8   8
#     4   9  18  32  51  76 103 131 167 209 250 297
#     4  10  20  32  49  75 105 135 167 208 259 309
#     4  10  19  32  52  77 104 135 170 208 252 301
#     4  10  20  32  49  75 105 135 167 208 259 309
#     4  10  19  32  52  77 104 135 170 208 252 301
#     4   9  18  32  49  71 100 133 170 211 254 302
#     4   9  18  32  49  71 100 133 170 211 254 302
#
# _framework density 24.123687
#
# number of rings (size 3 to 8) (size 9 to 14) (size 15 to 20)
#    0.000    2.429    0.000    2.571    0.000    7.429 
#    0.000    0.714    0.000    7.714    0.000    6.000 
#    0.000    0.000    0.000    0.000    0.000    1.143 
#
# Total GULP energy -156416.858847 kJ/mol
# GULP energy per Si atom -5586.316387 kJ/mol
# Density = 2.406878 g / cm^3
# Si number density = 24.123687 Si / 1000 Ang^3
#
#
#
# Elastic Constant Matrix: (Units=GPa)
#
#
# Indices 1 2 3 4 5 6 
#
# 1 59.5336 1.9769 -6.7775 0.0000 -9.3249 0.0000
# 2 1.9769 264.7105 47.2146 0.0000 11.0666 0.0000
# 3 -6.7775 47.2146 35.0631 0.0000 8.7353 0.0000
# 4 0.0000 0.0000 0.0000 33.9303 0.0000 3.8980
# 5 -9.3249 11.0666 8.7353 0.0000 13.2069 0.0000
# 6 0.0000 0.0000 0.0000 3.8980 0.0000 6.9749
#
#
#
# Elastic Compliance Matrix: (Units=1/GPa)
#
#
# Indices 1 2 3 4 5 6 
#
# 1 0.019093 -0.001008 0.001771 0.000000 0.013154 0.000000
# 2 -0.001008 0.005026 -0.006868 0.000000 -0.000381 0.000000
# 3 0.001771 -0.006868 0.043540 0.000000 -0.021792 0.000000
# 4 0.000000 0.000000 0.000000 0.031494 0.000000 -0.017601
# 5 0.013154 -0.000381 -0.021792 0.000000 0.099739 0.000000
# 6 0.000000 0.000000 0.000000 -0.017601 0.000000 0.153208
#
#
# Mechanical properties :
#
#
# Convention : Reuss Voigt Hill
#
# Bulk Modulus (GPa) = 18.03475 49.34833 33.69154
# Shear Modulus (GPa) = 13.06190 31.94862 22.50526
#
# Velocity S-wave (km/s) = 2.32944 3.64313 3.05767
# Velocity P-wave (km/s) = 3.83761 6.18040 5.14415
#
# Compressibility (1/GPa) = 0.05544852
#
# Stress axis : x y z
#
# Youngs Moduli (GPa) = 52.37592 198.95815 22.96750
#
# Poissons Ratio (x) = 0.20064 -0.04069
# Poissons Ratio (y) = 0.05282 0.15774
# Poissons Ratio (z) = -0.09278 1.36646
#
# Static dielectric constant tensor:
#      x y z
#    x 1.955410 0.000000 -0.025190 
#    y 0.000000 1.970750 0.000000 
#    z -0.025190 0.000000 1.870090 
# 
# From -- ./inp_files/225364.got.cif
#   From: 2010.05.17/outbox.cif.g08.bks.cpg/sg12_113_cif.got.tgz:225364.got - 2010.06.03 13:09:07.
