data_PCOD9181697
_publ_section_title
;
Structure prediction by ZEFSAII (Michael W. Deem and Ramdas Pophale) SiO2 
 PCOD9181697
Probable space group: C 2/M
;
_chemical_formula_sum "Si O2"
_cell_formula_units_Z 64
_cell_length_a 13.034493
_cell_length_b 26.629669
_cell_length_c 15.393503
_cell_angle_alpha 90.000000
_cell_angle_beta 39.241228
_cell_angle_gamma 90.000000
_cell_volume 3380.005999
_symmetry_space_group_name_H-M "C 2/M"
_symmetry_group_IT_number 12
_symmetry_cell_setting 'monoclinic'
loop_
_space_group_symop_operation_xyz
x,y,z
-x,y,-z
-x,-y,-z
x,-y,z
1/2+x,1/2+y,z
1/2-x,1/2+y,-z
1/2-x,1/2-y,-z
1/2+x,1/2-y,z
loop_
_atom_site_type_symbol
_atom_site_label
_atom_site_fract_x
_atom_site_fract_y
_atom_site_fract_z
Si Si1 0.573448 0.410048 0.041225
Si Si2 0.420343 0.689121 0.852428
Si Si3 0.623937 0.557414 0.337128
Si Si4 0.247614 0.442784 0.338460
Si Si5 0.875605 0.874250 0.402632
Si Si6 0.596672 0.057055 0.253140
Si Si7 0.637208 0.876192 0.712025
Si Si8 0.549741 0.787540 0.066330
O O1 0.609839 0.362439 0.076221
O O2 0.430473 0.441335 0.179659
O O3 0.500000 0.389350 0.000000
O O4 0.731374 0.440232 0.909782
O O5 0.544516 0.673482 0.695854
O O6 0.489787 0.733469 0.866285
O O7 0.243900 0.706513 0.938485
O O8 0.500000 0.554596 0.500000
O O9 0.662413 0.500000 0.286115
O O10 0.522476 0.587770 0.331575
O O11 0.779060 0.588368 0.269841
O O12 0.210122 0.500000 0.389572
O O13 0.259272 0.404083 0.410800
O O14 0.134120 0.429218 0.329815
O O15 0.781197 0.859989 0.552124
O O16 0.479875 0.092125 0.274315
O O17 0.536359 0.000000 0.291626
O O18 0.539138 0.830943 0.820080
O O19 0.500000 0.790795 0.000000
#
# Coordination Sequence:
#
# PCOD9181697 Si02
#       8
#     8   8   8   8   8   8   8   8
#     4   9  16  31  54  80 112 146 192 238 283 337
#     4  10  21  39  60  85 109 148 191 240 296 354
#     4   9  18  34  57  83 116 161 200 229 277 347
#     4   9  18  31  53  82 115 157 194 232 279 345
#     4  10  21  37  59  85 119 154 195 238 290 352
#     4  10  19  32  53  84 121 155 192 236 291 344
#     4  11  22  37  58  87 121 154 191 245 292 344
#     4  11  23  40  64  85 110 146 196 248 299 348
#
# _framework density 18.934877
#
# number of rings (size 3 to 8) (size 9 to 14) (size 15 to 20)
#    0.000    2.125    1.250    2.250    0.000    4.000 
#    0.000    1.250    0.000    1.500    0.000    0.000 
#    0.000    0.000    0.000    0.000    0.000    0.000 
#
# Total GULP energy -178523.110422 kJ/mol
# GULP energy per Si atom -5578.847201 kJ/mol
# Density = 1.889178 g / cm^3
# Si number density = 18.934877 Si / 1000 Ang^3
#
#
#
# Elastic Constant Matrix: (Units=GPa)
#
#
# Indices 1 2 3 4 5 6 
#
# 1 102.6543 47.8859 30.9718 0.0002 9.9236 0.0000
# 2 47.8859 97.5853 32.8352 0.0000 11.0568 0.0000
# 3 30.9718 32.8352 78.1827 0.0002 10.1120 0.0000
# 4 0.0002 0.0000 0.0002 7.3913 -0.0002 -4.2263
# 5 9.9236 11.0568 10.1120 -0.0002 22.1690 0.0000
# 6 0.0000 0.0000 0.0000 -4.2263 0.0000 22.0909
#
#
#
# Elastic Compliance Matrix: (Units=1/GPa)
#
#
# Indices 1 2 3 4 5 6 
#
# 1 0.013263 -0.005357 -0.002744 0.000000 -0.002014 0.000000
# 2 -0.005357 0.014423 -0.003523 0.000000 -0.003189 0.000000
# 3 -0.002744 -0.003523 0.015909 0.000000 -0.004272 0.000000
# 4 0.000000 0.000000 0.000000 0.151913 0.000002 0.029063
# 5 -0.002014 -0.003189 -0.004272 0.000002 0.049548 0.000000
# 6 0.000000 0.000000 0.000000 0.029063 0.000000 0.050828
#
#
# Mechanical properties :
#
#
# Convention : Reuss Voigt Hill
#
# Bulk Modulus (GPa) = 49.14443 55.75647 52.45045
# Shear Modulus (GPa) = 15.34152 21.44553 18.39353
#
# Velocity S-wave (km/s) = 2.84953 3.36905 3.12013
# Velocity P-wave (km/s) = 6.06937 6.68165 6.38285
#
# Compressibility (1/GPa) = 0.02034819
#
# Stress axis : x y z
#
# Youngs Moduli (GPa) = 75.39929 69.33538 62.85566
#
# Poissons Ratio (x) = 0.37141 0.17246
# Poissons Ratio (y) = 0.40389 0.22143
# Poissons Ratio (z) = 0.20688 0.24425
#
# Static dielectric constant tensor:
#      x y z
#    x 1.661880 0.000000 -0.007730 
#    y 0.000000 1.623300 0.000000 
#    z -0.007730 0.000000 1.684850 
# 
# From -- ./inp_files/209361.got.cif
#   From: 2010.05.17/outbox.cif.g08.bks.cpg/sg12_105_cif.got.tgz:209361.got - 2010.06.03 13:09:07.
