data_PCOD9181558
_publ_section_title
;
Structure prediction by ZEFSAII (Michael W. Deem and Ramdas Pophale) SiO2 
 PCOD9181558
Probable space group: C 2/M
;
_chemical_formula_sum "Si O2"
_cell_formula_units_Z 56
_cell_length_a 18.419578
_cell_length_b 8.979320
_cell_length_c 19.193752
_cell_angle_alpha 90.000000
_cell_angle_beta 75.776016
_cell_angle_gamma 90.000000
_cell_volume 3077.232383
_symmetry_space_group_name_H-M "C 2/M"
_symmetry_group_IT_number 12
_symmetry_cell_setting 'monoclinic'
loop_
_space_group_symop_operation_xyz
x,y,z
-x,y,-z
-x,-y,-z
x,-y,z
1/2+x,1/2+y,z
1/2-x,1/2+y,-z
1/2-x,1/2-y,-z
1/2+x,1/2-y,z
loop_
_atom_site_type_symbol
_atom_site_label
_atom_site_fract_x
_atom_site_fract_y
_atom_site_fract_z
Si Si1 0.810757 0.821426 0.934397
Si Si2 0.378578 0.822435 0.651518
Si Si3 0.089015 0.171623 0.497128
Si Si4 0.948319 0.321185 0.354421
Si Si5 0.970344 0.320825 0.929283
Si Si6 0.734908 0.320435 0.212638
Si Si7 0.402849 0.818892 0.210604
O O1 0.892282 0.759233 0.933688
O O2 0.808744 0.000000 0.941196
O O3 0.750000 0.750000 0.000000
O O4 0.709360 0.717978 0.140625
O O5 0.371601 0.757463 0.575305
O O6 0.463186 0.787328 0.657797
O O7 0.319505 0.751473 0.717899
O O8 0.371064 0.000000 0.651817
O O9 0.095004 0.246707 0.571140
O O10 0.000000 0.176555 0.500000
O O11 0.112431 0.000000 0.493246
O O12 0.940395 0.500000 0.361515
O O13 0.920472 0.271323 0.285269
O O14 0.959807 0.500000 0.925601
O O15 0.032558 0.272768 0.858303
O O16 0.000000 0.291069 0.000000
O O17 0.731533 0.500000 0.220259
O O18 0.820538 0.272588 0.205491
O O19 0.403641 0.000000 0.210283
#
# Coordination Sequence:
#
# PCOD9181558 Si02
#       7
#     8   8   8   8   8   8   8
#     4  11  23  38  58  84 114 147 184 226 271 322
#     4  10  19  32  53  80 107 136 174 221 270 319
#     4   9  17  30  50  76 105 136 172 216 266 320
#     4   9  17  31  52  76 102 134 175 221 266 316
#     4  10  20  37  61  85 111 145 184 225 273 329
#     4  10  21  37  55  77 107 143 181 220 265 318
#     4   9  18  34  55  77 104 141 181 220 267 322
#
# _framework density 18.198170000000001
#
# number of rings (size 3 to 8) (size 9 to 14) (size 15 to 20)
#    0.000    2.286    0.000    3.000    0.000    7.143 
#    0.000    2.857    0.000    0.000    0.000    0.000 
#    0.000    0.000    0.000    0.000    0.000    0.000 
#
# Total GULP energy -156316.669784 kJ/mol
# GULP energy per Si atom -5582.738207 kJ/mol
# Density = 1.815675 g / cm^3
# Si number density = 18.198170 Si / 1000 Ang^3
#
#
#
# Elastic Constant Matrix: (Units=GPa)
#
#
# Indices 1 2 3 4 5 6 
#
# 1 129.7634 51.7704 104.0181 0.0000 0.7107 0.0000
# 2 51.7704 38.7128 67.6254 0.0000 -2.1749 0.0000
# 3 104.0181 67.6254 211.6185 0.0000 -1.3021 0.0000
# 4 0.0000 0.0000 0.0000 31.1578 0.0000 -7.5775
# 5 0.7107 -2.1749 -1.3021 0.0000 30.7161 0.0000
# 6 0.0000 0.0000 0.0000 -7.5775 0.0000 20.7089
#
#
#
# Elastic Compliance Matrix: (Units=1/GPa)
#
#
# Indices 1 2 3 4 5 6 
#
# 1 0.017179 -0.018802 -0.002447 0.000000 -0.001833 0.000000
# 2 -0.018802 0.079396 -0.016097 0.000000 0.005374 0.000000
# 3 -0.002447 -0.016097 0.011069 0.000000 -0.000614 0.000000
# 4 0.000000 0.000000 0.000000 0.035230 0.000000 0.012891
# 5 -0.001833 0.005374 -0.000614 0.000000 0.032953 0.000000
# 6 0.000000 0.000000 0.000000 0.012891 0.000000 0.053005
#
#
# Mechanical properties :
#
#
# Convention : Reuss Voigt Hill
#
# Bulk Modulus (GPa) = 30.34746 91.88027 61.11386
# Shear Modulus (GPa) = 15.89786 26.96196 21.42991
#
# Velocity S-wave (km/s) = 2.95887 3.85330 3.43532
# Velocity P-wave (km/s) = 5.32781 8.39021 7.02784
#
# Compressibility (1/GPa) = 0.03295169
#
# Stress axis : x y z
#
# Youngs Moduli (GPa) = 58.21026 12.59506 90.34568
#
# Poissons Ratio (x) = 0.23681 0.22108
# Poissons Ratio (y) = 1.09446 1.45431
# Poissons Ratio (z) = 0.14244 0.20275
#
# Static dielectric constant tensor:
#      x y z
#    x 1.606960 0.000000 0.009290 
#    y 0.000000 1.610630 0.000000 
#    z 0.009290 0.000000 1.600850 
# 
# From -- ./inp_files/275087.got.cif
#   From: 2010.05.17/outbox.cif.g08.bks.cpg/sg12_138_cif.got.tgz:275087.got - 2010.06.03 13:09:07.
