data_PCOD9181902
_publ_section_title
;
Structure prediction by ZEFSAII (Michael W. Deem and Ramdas Pophale) SiO2 
 PCOD9181902
Probable space group: C 2/M
;
_chemical_formula_sum "Si O2"
_cell_formula_units_Z 64
_cell_length_a 29.208822
_cell_length_b 8.632619
_cell_length_c 14.619832
_cell_angle_alpha 90.000000
_cell_angle_beta 92.940469
_cell_angle_gamma 90.000000
_cell_volume 3681.517062
_symmetry_space_group_name_H-M "C 2/M"
_symmetry_group_IT_number 12
_symmetry_cell_setting 'monoclinic'
loop_
_space_group_symop_operation_xyz
x,y,z
-x,y,-z
-x,-y,-z
x,-y,z
1/2+x,1/2+y,z
1/2-x,1/2+y,-z
1/2-x,1/2-y,-z
1/2+x,1/2-y,z
loop_
_atom_site_type_symbol
_atom_site_label
_atom_site_fract_x
_atom_site_fract_y
_atom_site_fract_z
Si Si1 0.300034 0.684202 0.978791
Si Si2 0.654952 0.313607 0.544548
Si Si3 0.584293 0.813636 0.686139
Si Si4 0.487399 0.813524 0.603573
Si Si5 0.888842 0.185321 0.646396
Si Si6 0.773152 0.187483 0.305194
Si Si7 0.657018 0.814627 0.839486
Si Si8 0.676722 0.814674 0.217557
O O1 0.297060 0.500000 0.975236
O O2 0.315452 0.748429 0.882515
O O3 0.250000 0.750000 0.000000
O O4 0.334247 0.737211 0.062478
O O5 0.655335 0.500000 0.541935
O O6 0.614560 0.260557 0.608658
O O7 0.642517 0.257466 0.442247
O O8 0.702248 0.262661 0.597987
O O9 0.531477 0.769323 0.668936
O O10 0.609399 0.774612 0.783722
O O11 0.587067 0.000000 0.675214
O O12 0.500000 0.772954 0.500000
O O13 0.440504 0.736410 0.630318
O O14 0.481731 0.000000 0.606441
O O15 0.868335 0.254504 0.736733
O O16 0.886467 0.000000 0.649871
O O17 0.803543 0.256658 0.226068
O O18 0.720903 0.233757 0.283137
O O19 0.775731 0.000000 0.299917
O O20 0.660153 0.000000 0.848779
O O21 0.676132 0.000000 0.212467
#
# Coordination Sequence:
#
# PCOD9181902 Si02
#       8
#     8   8   8   8   8   8   8   8
#     4  12  23  37  58  83 111 143 182 225 272 322
#     4   9  18  32  50  75 109 146 183 223 266 318
#     4   9  18  32  53  82 110 140 180 226 271 320
#     4  10  19  34  57  81 109 144 186 229 272 322
#     4  11  23  36  52  78 113 149 187 228 276 327
#     4   9  18  33  52  75 106 145 186 223 264 319
#     4  10  19  32  54  83 112 140 177 224 274 322
#     4  11  23  38  56  78 108 146 188 229 275 325
#
# _framework density 17.384136999999999
#
# number of rings (size 3 to 8) (size 9 to 14) (size 15 to 20)
#    0.000    1.875    2.500    2.250    0.000    2.750 
#    0.000    0.000    0.000    0.750    0.000    5.250 
#    0.000    0.000    0.000    0.000    0.000    0.000 
#
# Total GULP energy -178619.139707 kJ/mol
# GULP energy per Si atom -5581.848116 kJ/mol
# Density = 1.734457 g / cm^3
# Si number density = 17.384137 Si / 1000 Ang^3
#
#
#
# Elastic Constant Matrix: (Units=GPa)
#
#
# Indices 1 2 3 4 5 6 
#
# 1 97.6295 32.2445 64.3423 0.0000 1.6322 0.0000
# 2 32.2445 38.9404 31.0936 0.0000 -0.5052 0.0000
# 3 64.3423 31.0936 113.1152 0.0000 -1.6978 0.0000
# 4 0.0000 0.0000 0.0000 24.6606 0.0000 -0.8970
# 5 1.6322 -0.5052 -1.6978 0.0000 24.6113 0.0000
# 6 0.0000 0.0000 0.0000 -0.8970 0.0000 20.8526
#
#
#
# Elastic Compliance Matrix: (Units=1/GPa)
#
#
# Indices 1 2 3 4 5 6 
#
# 1 0.018595 -0.008909 -0.008158 0.000000 -0.001979 0.000000
# 2 -0.008909 0.037170 -0.005135 0.000000 0.001000 0.000000
# 3 -0.008158 -0.005135 0.014914 0.000000 0.001464 0.000000
# 4 0.000000 0.000000 0.000000 0.040614 0.000000 0.001747
# 5 -0.001979 0.001000 0.001464 0.000000 0.040884 0.000000
# 6 0.000000 0.000000 0.000000 0.001747 0.000000 0.048031
#
#
# Mechanical properties :
#
#
# Convention : Reuss Voigt Hill
#
# Bulk Modulus (GPa) = 38.05748 56.11621 47.08685
# Shear Modulus (GPa) = 19.73392 22.15856 20.94624
#
# Velocity S-wave (km/s) = 3.37288 3.57409 3.47494
# Velocity P-wave (km/s) = 6.09164 7.02726 6.57611
#
# Compressibility (1/GPa) = 0.02627604
#
# Stress axis : x y z
#
# Youngs Moduli (GPa) = 53.77893 26.90308 67.04939
#
# Poissons Ratio (x) = 0.23968 0.54698
# Poissons Ratio (y) = 0.47911 0.34430
# Poissons Ratio (z) = 0.43872 0.13815
#
# Static dielectric constant tensor:
#      x y z
#    x 1.588580 0.000000 0.038420 
#    y 0.000000 1.583150 0.000000 
#    z 0.038420 0.000000 1.587870 
# 
# From -- ./inp_files/187504.got.cif
#   From: 2010.05.17/outbox.cif.g08.bks.cpg/sg12_94_cif.got.tgz:187504.got - 2010.06.03 13:09:07.
