data_PCOD9181968
_publ_section_title
;
Structure prediction by ZEFSAII (Michael W. Deem and Ramdas Pophale) SiO2 
 PCOD9181968
Probable space group: C 2/M
;
_chemical_formula_sum "Si O2"
_cell_formula_units_Z 40
_cell_length_a 7.279995
_cell_length_b 14.365272
_cell_length_c 17.645064
_cell_angle_alpha 90.000000
_cell_angle_beta 50.428887
_cell_angle_gamma 90.000000
_cell_volume 1422.424834
_symmetry_space_group_name_H-M "C 2/M"
_symmetry_group_IT_number 12
_symmetry_cell_setting 'monoclinic'
loop_
_space_group_symop_operation_xyz
x,y,z
-x,y,-z
-x,-y,-z
x,-y,z
1/2+x,1/2+y,z
1/2-x,1/2+y,-z
1/2-x,1/2-y,-z
1/2+x,1/2-y,z
loop_
_atom_site_type_symbol
_atom_site_label
_atom_site_fract_x
_atom_site_fract_y
_atom_site_fract_z
Si Si1 0.579864 0.105650 0.401574
Si Si2 0.044089 0.895706 0.866902
Si Si3 0.292682 0.609642 0.617669
Si Si4 0.608090 0.656700 0.246740
Si Si5 0.655461 0.841406 0.070456
O O1 0.500000 0.155133 0.500000
O O2 0.450561 0.140935 0.360024
O O3 0.862113 0.101518 0.330103
O O4 0.480048 0.000000 0.430619
O O5 0.993615 0.822901 0.812544
O O6 0.235382 0.852985 0.874245
O O7 0.120112 0.000000 0.821137
O O8 0.806627 0.909537 0.977904
O O9 0.500000 0.615215 0.500000
O O10 0.275684 0.500000 0.647095
O O11 0.333323 0.674825 0.679285
O O12 0.878136 0.634412 0.148132
O O13 0.750000 0.750000 0.000000
#
# Coordination Sequence:
#
# PCOD9181968 Si02
#       5
#     8   8   8   8   8
#     4  10  19  32  54  93 144 195 243 295 362 443
#     4  11  26  45  72 109 149 184 246 327 384 449
#     4  10  19  33  56  94 148 201 245 295 365 448
#     4  12  23  37  66 102 146 196 245 302 384 439
#     4  11  27  47  72 100 143 194 256 310 377 463
#
# _framework density 28.120995000000001
#
# number of rings (size 3 to 8) (size 9 to 14) (size 15 to 20)
#    0.000    1.200    2.000    4.800    5.600    7.200 
#    0.000    0.000    0.000    0.000    0.000    4.200 
#    0.000    0.000    0.000    0.000    0.000    0.000 
#
# Total GULP energy -111353.587951 kJ/mol
# GULP energy per Si atom -5567.679398 kJ/mol
# Density = 2.805699 g / cm^3
# Si number density = 28.120995 Si / 1000 Ang^3
#
#
#
# Elastic Constant Matrix: (Units=GPa)
#
#
# Indices 1 2 3 4 5 6 
#
# 1 244.0679 42.3415 82.6233 0.0002 18.8796 0.0000
# 2 42.3415 139.9791 32.5638 0.0001 -6.2305 0.0000
# 3 82.6233 32.5638 167.1832 -0.0003 13.7730 0.0002
# 4 0.0002 0.0001 -0.0003 20.3634 0.0001 -6.6882
# 5 18.8796 -6.2305 13.7730 0.0001 89.0085 0.0000
# 6 0.0000 0.0000 0.0002 -6.6882 0.0000 18.7984
#
#
#
# Elastic Compliance Matrix: (Units=1/GPa)
#
#
# Indices 1 2 3 4 5 6 
#
# 1 0.005105 -0.001057 -0.002250 0.000000 -0.000809 0.000000
# 2 -0.001057 0.007753 -0.001065 0.000000 0.000932 0.000000
# 3 -0.002250 -0.001065 0.007362 0.000000 -0.000736 0.000000
# 4 0.000000 0.000000 0.000000 0.055606 0.000000 0.019784
# 5 -0.000809 0.000932 -0.000736 0.000000 0.011586 0.000000
# 6 0.000000 0.000000 0.000000 0.019784 0.000000 0.060235
#
#
# Mechanical properties :
#
#
# Convention : Reuss Voigt Hill
#
# Bulk Modulus (GPa) = 87.13939 96.25415 91.69677
# Shear Modulus (GPa) = 31.20829 51.88083 41.54456
#
# Velocity S-wave (km/s) = 3.33496 4.29991 3.84780
# Velocity P-wave (km/s) = 6.77376 7.67822 7.24013
#
# Compressibility (1/GPa) = 0.01147587
#
# Stress axis : x y z
#
# Youngs Moduli (GPa) = 195.88989 128.98801 135.83844
#
# Poissons Ratio (x) = 0.13629 0.30570
# Poissons Ratio (y) = 0.20698 0.14462
# Poissons Ratio (z) = 0.44084 0.13732
#
# Static dielectric constant tensor:
#      x y z
#    x 2.141700 0.000000 0.089590 
#    y 0.000000 -0.358500 0.000000 
#    z 0.089590 0.000000 2.312610 
# 
# From -- ./inp_files/305097.got.cif
#   From: 2010.05.17/outbox.cif.g08.bks.cpg/sg12_153_cif.got.tgz:305097.got - 2010.06.03 13:09:07.
