data_PCOD9181219
_publ_section_title
;
Structure prediction by ZEFSAII (Michael W. Deem and Ramdas Pophale) SiO2 
 PCOD9181219
Probable space group: C 2/M
;
_chemical_formula_sum "Si O2"
_cell_formula_units_Z 56
_cell_length_a 15.188636
_cell_length_b 9.404503
_cell_length_c 23.529657
_cell_angle_alpha 90.000000
_cell_angle_beta 131.726664
_cell_angle_gamma 90.000000
_cell_volume 2508.420018
_symmetry_space_group_name_H-M "C 2/M"
_symmetry_group_IT_number 12
_symmetry_cell_setting 'monoclinic'
loop_
_space_group_symop_operation_xyz
x,y,z
-x,y,-z
-x,-y,-z
x,-y,z
1/2+x,1/2+y,z
1/2-x,1/2+y,-z
1/2-x,1/2-y,-z
1/2+x,1/2-y,z
loop_
_atom_site_type_symbol
_atom_site_label
_atom_site_fract_x
_atom_site_fract_y
_atom_site_fract_z
Si Si1 0.978464 0.670961 0.757546
Si Si2 0.776208 0.171514 0.328238
Si Si3 0.493196 0.828472 0.361773
Si Si4 0.369323 0.161657 0.471824
Si Si5 0.359298 0.345367 0.030815
Si Si6 0.437347 0.158158 0.910143
Si Si7 0.759165 0.341488 0.138018
O O1 0.972938 0.500000 0.758481
O O2 0.860208 0.718686 0.738657
O O3 0.976175 0.709491 0.689604
O O4 0.113932 0.705934 0.831458
O O5 0.874413 0.249339 0.331773
O O6 0.803110 0.225194 0.404259
O O7 0.787051 0.000000 0.328344
O O8 0.600367 0.794473 0.450816
O O9 0.475751 0.000000 0.358279
O O10 0.500000 0.152575 0.500000
O O11 0.319456 0.000000 0.448159
O O12 0.356090 0.500000 0.056775
O O13 0.481260 0.265730 0.089114
O O14 0.250000 0.250000 0.000000
O O15 0.333385 0.361786 0.952611
O O16 0.305403 0.218873 0.854943
O O17 0.441226 0.000000 0.887733
O O18 0.500000 0.148210 0.000000
O O19 0.773107 0.500000 0.170865
#
# Coordination Sequence:
#
# PCOD9181219 Si02
#       7
#     8   8   8   8   8   8   8
#     4   9  19  36  55  74 105 144 177 210 261 322
#     4  10  19  32  52  78 106 136 173 222 268 306
#     4   9  18  35  55  73 100 140 179 213 260 321
#     4   8  15  29  50  74 101 135 173 216 264 313
#     4  10  19  32  53  79 105 133 169 212 257 306
#     4   9  17  31  52  75 100 128 161 206 252 295
#     4   9  18  35  55  73  99 137 173 205 253 315
#
# _framework density 22.324808000000001
#
# number of rings (size 3 to 8) (size 9 to 14) (size 15 to 20)
#    0.000    2.857    0.000    2.143    0.000    5.429 
#    2.571    3.571    0.000    0.000    0.000    0.000 
#    0.000    0.000    0.000    0.000    0.000    0.000 
#
# Total GULP energy -156097.604285 kJ/mol
# GULP energy per Si atom -5574.914439 kJ/mol
# Density = 2.227400 g / cm^3
# Si number density = 22.324808 Si / 1000 Ang^3
#
#
#
# Elastic Constant Matrix: (Units=GPa)
#
#
# Indices 1 2 3 4 5 6 
#
# 1 80.9027 32.9493 16.4376 0.0000 22.5965 0.0000
# 2 32.9493 106.0603 10.2681 0.0000 19.9839 0.0000
# 3 16.4376 10.2681 78.4831 0.0000 5.8574 0.0000
# 4 0.0000 0.0000 0.0000 16.4507 0.0000 9.2296
# 5 22.5965 19.9839 5.8574 0.0000 40.4550 0.0000
# 6 0.0000 0.0000 0.0000 9.2296 0.0000 20.7077
#
#
#
# Elastic Compliance Matrix: (Units=1/GPa)
#
#
# Indices 1 2 3 4 5 6 
#
# 1 0.016225 -0.003490 -0.002420 0.000000 -0.006989 0.000000
# 2 -0.003490 0.011223 -0.000474 0.000000 -0.003526 0.000000
# 3 -0.002420 -0.000474 0.013336 0.000000 -0.000345 0.000000
# 4 0.000000 0.000000 0.000000 0.081058 0.000000 -0.036128
# 5 -0.006989 -0.003526 -0.000345 0.000000 0.030414 0.000000
# 6 0.000000 0.000000 0.000000 -0.036128 0.000000 0.064394
#
#
# Mechanical properties :
#
#
# Convention : Reuss Voigt Hill
#
# Bulk Modulus (GPa) = 35.69307 42.75068 39.22188
# Shear Modulus (GPa) = 20.94178 29.24208 25.09193
#
# Velocity S-wave (km/s) = 3.06608 3.62311 3.35617
# Velocity P-wave (km/s) = 5.34390 6.05752 5.71186
#
# Compressibility (1/GPa) = 0.02801664
#
# Stress axis : x y z
#
# Youngs Moduli (GPa) = 61.63170 89.10278 74.98349
#
# Poissons Ratio (x) = 0.31093 0.18147
# Poissons Ratio (y) = 0.21507 0.03557
# Poissons Ratio (z) = 0.14916 0.04226
#
# Static dielectric constant tensor:
#      x y z
#    x 1.896600 0.000000 -0.093520 
#    y 0.000000 1.817210 0.000000 
#    z -0.093520 0.000000 1.926440 
# 
# From -- ./inp_files/377772.got.cif
#   From: 2010.05.17/outbox.cif.g08.bks.cpg/sg12_189_cif.got.tgz:377772.got - 2010.06.03 13:09:07.
