data_PCOD9181514
_publ_section_title
;
Structure prediction by ZEFSAII (Michael W. Deem and Ramdas Pophale) SiO2 
 PCOD9181514
Probable space group: C 2/M
;
_chemical_formula_sum "Si O2"
_cell_formula_units_Z 56
_cell_length_a 19.494732
_cell_length_b 8.490347
_cell_length_c 20.102942
_cell_angle_alpha 90.000000
_cell_angle_beta 121.214329
_cell_angle_gamma 90.000000
_cell_volume 2845.690296
_symmetry_space_group_name_H-M "C 2/M"
_symmetry_group_IT_number 12
_symmetry_cell_setting 'monoclinic'
loop_
_space_group_symop_operation_xyz
x,y,z
-x,y,-z
-x,-y,-z
x,-y,z
1/2+x,1/2+y,z
1/2-x,1/2+y,-z
1/2-x,1/2-y,-z
1/2+x,1/2-y,z
loop_
_atom_site_type_symbol
_atom_site_label
_atom_site_fract_x
_atom_site_fract_y
_atom_site_fract_z
Si Si1 0.513335 0.808782 0.673837
Si Si2 0.665943 0.312131 0.255795
Si Si3 0.318335 0.190025 0.082973
Si Si4 0.691645 0.192125 0.767848
Si Si5 0.250469 0.684646 0.425001
Si Si6 0.080139 0.311073 0.497775
Si Si7 0.496850 0.810168 0.177484
O O1 0.603214 0.759837 0.698221
O O2 0.445106 0.757806 0.588967
O O3 0.501674 0.762433 0.743942
O O4 0.512438 0.000000 0.671226
O O5 0.668169 0.500000 0.257152
O O6 0.735556 0.252442 0.241116
O O7 0.687412 0.254484 0.340853
O O8 0.578248 0.256975 0.188637
O O9 0.197051 0.260708 0.848093
O O10 0.091140 0.259870 0.891834
O O11 0.318127 0.000000 0.082716
O O12 0.250000 0.250000 0.000000
O O13 0.692495 0.000000 0.767088
O O14 0.236498 0.500000 0.421666
O O15 0.250000 0.750000 0.500000
O O16 0.338804 0.726049 0.441173
O O17 0.095395 0.500000 0.507126
O O18 0.000000 0.283243 0.500000
O O19 0.500099 0.000000 0.176083
#
# Coordination Sequence:
#
# PCOD9181514 Si02
#       7
#     8   8   8   8   8   8   8
#     4   8  14  28  50  71  94 130 175 217 256 307
#     4  11  21  35  56  80 106 138 179 226 275 329
#     4   9  18  35  59  84 110 141 177 216 258 312
#     4   8  16  32  54  79 105 137 177 217 262 317
#     4  12  25  39  54  75 108 148 190 236 283 329
#     4  10  19  32  53  79 105 137 179 227 280 332
#     4   9  18  33  53  76 104 139 175 214 263 317
#
# _framework density 19.678879999999999
#
# number of rings (size 3 to 8) (size 9 to 14) (size 15 to 20)
#    0.000    2.429    0.000    5.143    0.000    4.286 
#    0.000    2.143    0.000    8.571    0.000    0.000 
#    0.000    0.000    0.000    0.000    0.000    0.000 
#
# Total GULP energy -156243.750293 kJ/mol
# GULP energy per Si atom -5580.133939 kJ/mol
# Density = 1.963409 g / cm^3
# Si number density = 19.678880 Si / 1000 Ang^3
#
#
#
# Elastic Constant Matrix: (Units=GPa)
#
#
# Indices 1 2 3 4 5 6 
#
# 1 119.1185 17.8864 29.0653 0.0000 22.9460 0.0000
# 2 17.8864 26.1983 10.5207 0.0000 5.8008 0.0000
# 3 29.0653 10.5207 78.8775 0.0000 28.6931 0.0000
# 4 0.0000 0.0000 0.0000 24.9407 0.0000 7.6853
# 5 22.9460 5.8008 28.6931 0.0000 32.1208 0.0000
# 6 0.0000 0.0000 0.0000 7.6853 0.0000 25.7672
#
#
#
# Elastic Compliance Matrix: (Units=1/GPa)
#
#
# Indices 1 2 3 4 5 6 
#
# 1 0.010570 -0.005532 -0.001146 0.000000 -0.005528 0.000000
# 2 -0.005532 0.043521 -0.003473 0.000000 -0.000805 0.000000
# 3 -0.001146 -0.003473 0.019313 0.000000 -0.015806 0.000000
# 4 0.000000 0.000000 0.000000 0.044153 0.000000 -0.013169
# 5 -0.005528 -0.000805 -0.015806 0.000000 0.049346 0.000000
# 6 0.000000 0.000000 0.000000 -0.013169 0.000000 0.042737
#
#
# Mechanical properties :
#
#
# Convention : Reuss Voigt Hill
#
# Bulk Modulus (GPa) = 18.83232 37.68213 28.25722
# Shear Modulus (GPa) = 20.19024 27.68053 23.93538
#
# Velocity S-wave (km/s) = 3.20658 3.75455 3.49133
# Velocity P-wave (km/s) = 4.82702 6.16325 5.53560
#
# Compressibility (1/GPa) = 0.05310020
#
# Stress axis : x y z
#
# Youngs Moduli (GPa) = 94.60494 22.97766 51.77771
#
# Poissons Ratio (x) = 0.12712 0.05935
# Poissons Ratio (y) = 0.52339 0.17985
# Poissons Ratio (z) = 0.10843 0.07981
#
# Static dielectric constant tensor:
#      x y z
#    x 1.737940 0.000000 -0.015960 
#    y 0.000000 1.681060 0.000000 
#    z -0.015960 0.000000 1.682830 
# 
# From -- ./inp_files/281746.got.cif
#   From: 2010.05.17/outbox.cif.g08.bks.cpg/sg12_141_cif.got.tgz:281746.got - 2010.06.03 13:09:07.
