data_PCOD9181898
_publ_section_title
;
Structure prediction by ZEFSAII (Michael W. Deem and Ramdas Pophale) SiO2 
 PCOD9181898
Probable space group: C 2/M
;
_chemical_formula_sum "Si O2"
_cell_formula_units_Z 56
_cell_length_a 15.318579
_cell_length_b 22.079721
_cell_length_c 9.474187
_cell_angle_alpha 90.000000
_cell_angle_beta 43.851871
_cell_angle_gamma 90.000000
_cell_volume 2220.033780
_symmetry_space_group_name_H-M "C 2/M"
_symmetry_group_IT_number 12
_symmetry_cell_setting 'monoclinic'
loop_
_space_group_symop_operation_xyz
x,y,z
-x,y,-z
-x,-y,-z
x,-y,z
1/2+x,1/2+y,z
1/2-x,1/2+y,-z
1/2-x,1/2-y,-z
1/2+x,1/2-y,z
loop_
_atom_site_type_symbol
_atom_site_label
_atom_site_fract_x
_atom_site_fract_y
_atom_site_fract_z
Si Si1 0.691778 0.573710 0.335138
Si Si2 0.195543 0.896084 0.797193
Si Si3 0.383155 0.070415 0.328234
Si Si4 0.384327 0.272568 0.735553
Si Si5 0.561114 0.572455 0.208540
Si Si6 0.627799 0.266488 0.929480
Si Si7 0.587678 0.872129 0.265908
O O1 0.698552 0.500000 0.323099
O O2 0.820181 0.593498 0.258338
O O3 0.652824 0.597304 0.226968
O O4 0.577123 0.589446 0.573214
O O5 0.272131 0.924747 0.578316
O O6 0.179732 0.824765 0.783196
O O7 0.286892 0.904426 0.828685
O O8 0.073344 0.915738 0.028210
O O9 0.507197 0.106416 0.228373
O O10 0.417282 0.000000 0.276923
O O11 0.500000 0.288848 0.500000
O O12 0.247594 0.277612 0.818548
O O13 0.393353 0.199547 0.751448
O O14 0.399074 0.293508 0.880746
O O15 0.570631 0.500000 0.211723
O O16 0.500000 0.245460 0.000000
O O17 0.500000 0.887216 0.500000
#
# Coordination Sequence:
#
# PCOD9181898 Si02
#       7
#     8   8   8   8   8   8   8
#     4   8  17  32  47  67 100 143 181 219 265 319
#     4  10  20  32  50  80 109 140 177 223 278 330
#     4  10  19  32  54  83 111 142 187 231 273 335
#     4   9  19  42  63  80 112 156 195 235 298 354
#     4   9  17  32  49  66 102 147 178 214 270 324
#     4  10  22  38  59  88 120 145 190 253 292 343
#     4   8  17  34  54  75 106 142 176 223 277 328
#
# _framework density 25.224841000000001
#
# number of rings (size 3 to 8) (size 9 to 14) (size 15 to 20)
#    0.000    2.857    0.000    2.143    2.000    3.714 
#    2.571    7.143    0.000    2.571    0.000    0.000 
#    0.000    0.000    0.000    0.000    0.000    0.000 
#
# Total GULP energy -156219.026463 kJ/mol
# GULP energy per Si atom -5579.250945 kJ/mol
# Density = 2.516743 g / cm^3
# Si number density = 25.224841 Si / 1000 Ang^3
#
#
#
# Elastic Constant Matrix: (Units=GPa)
#
#
# Indices 1 2 3 4 5 6 
#
# 1 256.3460 33.1926 32.2152 0.0000 4.7984 0.0000
# 2 33.1926 46.0134 -6.6682 0.0000 2.1374 0.0000
# 3 32.2152 -6.6682 103.9847 0.0000 2.4748 0.0000
# 4 0.0000 0.0000 0.0000 -1.1919 0.0000 -4.1697
# 5 4.7984 2.1374 2.4748 0.0000 -5.0812 0.0000
# 6 0.0000 0.0000 0.0000 -4.1697 0.0000 13.0088
#
#
#
# Elastic Compliance Matrix: (Units=1/GPa)
#
#
# Indices 1 2 3 4 5 6 
#
# 1 0.004544 -0.003613 -0.001686 0.000000 0.001950 0.000000
# 2 -0.003613 0.024326 0.002488 0.000000 0.008033 0.000000
# 3 -0.001686 0.002488 0.010193 0.000000 0.004419 0.000000
# 4 0.000000 0.000000 0.000000 -0.395512 0.000000 -0.126772
# 5 0.001950 0.008033 0.004419 0.000000 -0.189431 0.000000
# 6 0.000000 0.000000 0.000000 -0.126772 0.000000 0.036237
#
#
# Mechanical properties :
#
#
# Convention : Reuss Voigt Hill
#
# Bulk Modulus (GPa) = 29.90194 58.20259 44.05226
# Shear Modulus (GPa) = -10.14460 24.52080 7.18810
#
# Velocity S-wave (km/s) = -2.00759 3.12122 1.68991
# Velocity P-wave (km/s) = 2.55069 6.00940 4.61622
#
# Compressibility (1/GPa) = 0.03344265
#
# Stress axis : x y z
#
# Youngs Moduli (GPa) = 220.06307 41.10750 98.10183
#
# Poissons Ratio (x) = 0.14852 0.16539
# Poissons Ratio (y) = 0.79507 -0.24409
# Poissons Ratio (z) = 0.37101 -0.10228
#
# Static dielectric constant tensor:
#      x y z
#    x 2.088650 0.000000 -0.080420 
#    y 0.000000 2.012100 0.000000 
#    z -0.080420 0.000000 2.045670 
# 
# From -- ./inp_files/68133.got.cif
#   From: 2010.05.17/outbox.cif.g08.bks.cpg/sg12_35_cif.got.tgz:68133.got - 2010.06.03 13:09:07.
