data_PCOD9181142
_publ_section_title
;
Structure prediction by ZEFSAII (Michael W. Deem and Ramdas Pophale) SiO2 
 PCOD9181142
Probable space group: C 2/M
;
_chemical_formula_sum "Si O2"
_cell_formula_units_Z 64
_cell_length_a 9.455711
_cell_length_b 22.916165
_cell_length_c 23.958489
_cell_angle_alpha 90.000000
_cell_angle_beta 42.085065
_cell_angle_gamma 90.000000
_cell_volume 3479.537210
_symmetry_space_group_name_H-M "C 2/M"
_symmetry_group_IT_number 12
_symmetry_cell_setting 'monoclinic'
loop_
_space_group_symop_operation_xyz
x,y,z
-x,y,-z
-x,-y,-z
x,-y,z
1/2+x,1/2+y,z
1/2-x,1/2+y,-z
1/2-x,1/2-y,-z
1/2+x,1/2-y,z
loop_
_atom_site_type_symbol
_atom_site_label
_atom_site_fract_x
_atom_site_fract_y
_atom_site_fract_z
Si Si1 0.641646 0.429118 0.906494
Si Si2 0.385656 0.931372 0.245729
Si Si3 0.118921 0.813270 0.631397
Si Si4 0.658920 0.609498 0.780039
Si Si5 0.015728 0.066199 0.709836
Si Si6 0.641048 0.067890 0.625991
Si Si7 0.166882 0.724176 0.318301
Si Si8 0.793888 0.173385 0.523613
O O1 0.634266 0.500000 0.906954
O O2 0.576949 0.404890 0.865188
O O3 0.885973 0.409045 0.838868
O O4 0.500000 0.410300 0.000000
O O5 0.295342 0.907979 0.331002
O O6 0.215724 0.928757 0.247798
O O7 0.419731 0.000000 0.248850
O O8 0.138969 0.880658 0.644564
O O9 0.238066 0.779188 0.646946
O O10 0.195735 0.811559 0.544778
O O11 0.879777 0.787225 0.695394
O O12 0.514926 0.581533 0.774928
O O13 0.697989 0.678062 0.757019
O O14 0.888453 0.579060 0.702031
O O15 0.093797 0.000000 0.677416
O O16 0.757718 0.104779 0.544884
O O17 0.686193 0.000000 0.605791
O O18 0.927096 0.699545 0.390019
O O19 0.000000 0.190512 0.500000
#
# Coordination Sequence:
#
# PCOD9181142 Si02
#       8
#     8   8   8   8   8   8   8   8
#     4   9  16  28  49  77 107 138 169 201 242 295
#     4   8  15  28  45  69 100 131 167 203 239 295
#     4  11  22  36  53  73  98 130 172 217 254 298
#     4   9  18  33  52  72  99 135 170 204 244 299
#     4  10  19  32  52  77 103 131 163 207 259 300
#     4   9  17  30  47  67  95 135 174 206 250 305
#     4  10  22  37  51  70  95 130 173 210 252 300
#     4  11  21  32  48  69  98 130 166 218 264 299
#
# _framework density 18.393250999999999
#
# number of rings (size 3 to 8) (size 9 to 14) (size 15 to 20)
#    0.000    2.375    0.000    4.125    0.000    2.750 
#    0.000    0.625    0.000    7.500    0.000    7.875 
#    0.000    0.000    0.000    0.000    0.000    0.000 
#
# Total GULP energy -178215.719040 kJ/mol
# GULP energy per Si atom -5569.241220 kJ/mol
# Density = 1.835139 g / cm^3
# Si number density = 18.393251 Si / 1000 Ang^3
#
#
#
# Elastic Constant Matrix: (Units=GPa)
#
#
# Indices 1 2 3 4 5 6 
#
# 1 97.8217 11.7039 10.0767 -0.0001 21.0619 0.0008
# 2 11.7039 84.5429 12.3908 0.0000 10.9931 0.0001
# 3 10.0767 12.3908 44.4525 -0.0003 18.1168 0.0002
# 4 -0.0001 0.0000 -0.0003 17.6697 0.0001 2.0011
# 5 21.0619 10.9931 18.1168 0.0001 18.2531 -0.0002
# 6 0.0008 0.0001 0.0002 2.0011 -0.0002 23.0891
#
#
#
# Elastic Compliance Matrix: (Units=1/GPa)
#
#
# Indices 1 2 3 4 5 6 
#
# 1 0.014474 0.000070 0.005917 0.000000 -0.022616 -0.000001
# 2 0.000070 0.012847 -0.000690 0.000000 -0.007133 0.000000
# 3 0.005917 -0.000690 0.040236 0.000001 -0.046347 -0.000001
# 4 0.000000 0.000000 0.000001 0.057155 -0.000002 -0.004954
# 5 -0.022616 -0.007133 -0.046347 -0.000002 0.131179 0.000003
# 6 -0.000001 0.000000 -0.000001 -0.004954 0.000003 0.043740
#
#
# Mechanical properties :
#
#
# Convention : Reuss Voigt Hill
#
# Bulk Modulus (GPa) = 12.79567 32.79557 22.79562
# Shear Modulus (GPa) = 15.86859 24.64543 20.25701
#
# Velocity S-wave (km/s) = 2.94043 3.66446 3.32223
# Velocity P-wave (km/s) = 4.30116 5.98108 5.20928
#
# Compressibility (1/GPa) = 0.07815142
#
# Stress axis : x y z
#
# Youngs Moduli (GPa) = 69.08782 77.83743 24.85341
#
# Poissons Ratio (x) = -0.00543 -0.14705
# Poissons Ratio (y) = -0.00482 0.01714
# Poissons Ratio (z) = -0.40878 0.05368
#
# Static dielectric constant tensor:
#      x y z
#    x 1.687050 0.000000 0.010130 
#    y 0.000000 1.750770 0.000000 
#    z 0.010130 0.000000 1.615340 
# 
# From -- ./inp_files/333978.got.cif
#   From: 2010.05.17/outbox.cif.g08.bks.cpg/sg12_167_cif.got.tgz:333978.got - 2010.06.03 13:09:07.
