data_PCOD9181988
_publ_section_title
;
Structure prediction by ZEFSAII (Michael W. Deem and Ramdas Pophale) SiO2 
 PCOD9181988
Probable space group: C 2/M
;
_chemical_formula_sum "Si O2"
_cell_formula_units_Z 46
_cell_length_a 5.150559
_cell_length_b 18.347568
_cell_length_c 29.630156
_cell_angle_alpha 90.000000
_cell_angle_beta 117.389848
_cell_angle_gamma 90.000000
_cell_volume 2486.161610
_symmetry_space_group_name_H-M "C 2/M"
_symmetry_group_IT_number 12
_symmetry_cell_setting 'monoclinic'
loop_
_space_group_symop_operation_xyz
x,y,z
-x,y,-z
-x,-y,-z
x,-y,z
1/2+x,1/2+y,z
1/2-x,1/2+y,-z
1/2-x,1/2-y,-z
1/2+x,1/2-y,z
loop_
_atom_site_type_symbol
_atom_site_label
_atom_site_fract_x
_atom_site_fract_y
_atom_site_fract_z
Si Si1 0.000000 0.000000 0.500000
Si Si2 0.267871 0.585346 0.270660
Si Si3 0.859464 0.796194 0.353960
Si Si4 0.277058 0.697777 0.111647
Si Si5 0.848234 0.149382 0.531424
Si Si6 0.500000 0.801751 0.000000
Si Si7 0.086288 0.914279 0.202892
O O1 0.053192 0.065179 0.466641
O O2 0.297263 0.500000 0.285043
O O3 0.334247 0.636496 0.318047
O O4 0.477277 0.600747 0.245047
O O5 0.933683 0.597562 0.228342
O O6 0.544966 0.766566 0.343982
O O7 0.035352 0.818529 0.412885
O O8 0.522690 0.756083 0.115823
O O9 0.142677 0.661232 0.055284
O O10 0.417532 0.638116 0.155330
O O11 0.500000 0.150229 0.500000
O O12 0.000000 0.187006 0.500000
O O13 0.250000 0.750000 0.000000
O O14 0.027246 0.000000 0.189096
#
# Coordination Sequence:
#
# PCOD9181988 Si02
#       7
#     2   8   8   8   8   4   8
#     4   8  22  40  62  92 110 152 188 228 250 342
#     4  10  23  41  60  79 111 151 188 226 275 333
#     4  12  26  41  60  89 118 147 181 233 283 325
#     4  10  19  32  55  81 108 148 186 228 275 328
#     4  10  22  40  62  86 115 146 187 222 270 325
#     4   8  16  30  47  76 111 140 184 226 268 326
#     4  10  21  38  56  83 111 144 186 234 280 327
#
# _framework density 18.502417999999999
#
# number of rings (size 3 to 8) (size 9 to 14) (size 15 to 20)
#    0.522    1.391    0.000    3.391    1.217    6.261 
#    0.000    0.435    0.000    0.000    0.000   10.957 
#    0.000    0.000    0.000    0.000    0.000    0.000 
#
# Total GULP energy -128092.065513 kJ/mol
# GULP energy per Si atom -5569.220240 kJ/mol
# Density = 1.846031 g / cm^3
# Si number density = 18.502418 Si / 1000 Ang^3
#
#
#
# Elastic Constant Matrix: (Units=GPa)
#
#
# Indices 1 2 3 4 5 6 
#
# 1 63.7124 -14.5353 -18.7819 0.0000 -4.6563 0.0000
# 2 -14.5353 48.7499 32.8550 0.0000 -4.6728 0.0000
# 3 -18.7819 32.8550 90.6147 0.0000 -2.2506 0.0000
# 4 0.0000 0.0000 0.0000 -13.3053 0.0000 -3.2162
# 5 -4.6563 -4.6728 -2.2506 0.0000 19.5658 0.0000
# 6 0.0000 0.0000 0.0000 -3.2162 0.0000 16.9923
#
#
#
# Elastic Compliance Matrix: (Units=1/GPa)
#
#
# Indices 1 2 3 4 5 6 
#
# 1 0.017744 0.004298 0.002256 0.000000 0.005509 0.000000
# 2 0.004298 0.028761 -0.009368 0.000000 0.006814 0.000000
# 3 0.002256 -0.009368 0.014900 0.000000 0.000014 0.000000
# 4 0.000000 0.000000 0.000000 -0.071870 0.000000 -0.013603
# 5 0.005509 0.006814 0.000014 0.000000 0.054050 0.000000
# 6 0.000000 0.000000 0.000000 -0.013603 0.000000 0.056275
#
#
# Mechanical properties :
#
#
# Convention : Reuss Voigt Hill
#
# Bulk Modulus (GPa) = 17.92840 22.46141 20.19491
# Shear Modulus (GPa) = 40.29631 18.21983 29.25807
#
# Velocity S-wave (km/s) = 4.67185 3.14144 3.98088
# Velocity P-wave (km/s) = 6.22996 5.03232 5.66289
#
# Compressibility (1/GPa) = 0.05577742
#
# Stress axis : x y z
#
# Youngs Moduli (GPa) = 56.35779 34.76918 67.11217
#
# Poissons Ratio (x) = -0.14943 -0.15142
# Poissons Ratio (y) = -0.24222 0.62871
# Poissons Ratio (z) = -0.12716 0.32572
#
# Static dielectric constant tensor:
#      x y z
#    x 1.646990 0.000000 -0.006170 
#    y 0.000000 1.617680 0.000000 
#    z -0.006170 0.000000 1.638660 
# 
# From -- ./inp_files/354909.got.cif
#   From: 2010.05.17/outbox.cif.g08.bks.cpg/sg12_178_cif.got.tgz:354909.got - 2010.06.03 13:09:07.
