data_PCOD9181645
_publ_section_title
;
Structure prediction by ZEFSAII (Michael W. Deem and Ramdas Pophale) SiO2 
 PCOD9181645
Probable space group: C 2/M
;
_chemical_formula_sum "Si O2"
_cell_formula_units_Z 56
_cell_length_a 13.251200
_cell_length_b 14.499178
_cell_length_c 16.981753
_cell_angle_alpha 90.000000
_cell_angle_beta 116.651098
_cell_angle_gamma 90.000000
_cell_volume 2916.079631
_symmetry_space_group_name_H-M "C 2/M"
_symmetry_group_IT_number 12
_symmetry_cell_setting 'monoclinic'
loop_
_space_group_symop_operation_xyz
x,y,z
-x,y,-z
-x,-y,-z
x,-y,z
1/2+x,1/2+y,z
1/2-x,1/2+y,-z
1/2-x,1/2-y,-z
1/2+x,1/2-y,z
loop_
_atom_site_type_symbol
_atom_site_label
_atom_site_fract_x
_atom_site_fract_y
_atom_site_fract_z
Si Si1 0.865329 0.279974 0.936959
Si Si2 0.282530 0.603694 0.998029
Si Si3 0.204276 0.710222 0.401587
Si Si4 0.397814 0.399712 0.402723
Si Si5 0.453453 0.243787 0.295351
Si Si6 0.502856 0.399484 0.816533
Si Si7 0.215993 0.804285 0.237908
O O1 0.808487 0.360311 0.969285
O O2 0.833285 0.280505 0.832934
O O3 0.803012 0.185769 0.943535
O O4 0.000000 0.276396 0.000000
O O5 0.254772 0.500000 0.960323
O O6 0.403384 0.598785 0.083676
O O7 0.250000 0.750000 0.500000
O O8 0.281984 0.624110 0.406462
O O9 0.219247 0.779563 0.332149
O O10 0.070311 0.694440 0.357005
O O11 0.500000 0.400325 0.500000
O O12 0.389966 0.500000 0.362109
O O13 0.425165 0.319288 0.351832
O O14 0.469298 0.308658 0.224723
O O15 0.343599 0.179929 0.254421
O O16 0.507317 0.500000 0.777444
O O17 0.376836 0.383404 0.804110
#
# Coordination Sequence:
#
# PCOD9181645 Si02
#       7
#     8   8   8   8   8   8   8
#     4  11  21  38  59  80 117 149 187 230 277 333
#     4  10  22  36  57  84 113 147 187 231 278 329
#     4  10  20  35  54  80 112 145 182 223 274 330
#     4  10  19  32  53  82 106 135 180 229 272 315
#     4  10  19  35  56  76 111 144 181 221 273 327
#     4  10  19  34  54  82 109 141 185 230 270 321
#     4  10  21  34  55  84 106 148 186 224 275 330
#
# _framework density 19.203865
#
# number of rings (size 3 to 8) (size 9 to 14) (size 15 to 20)
#    0.000    1.857    4.286    0.429    0.000    1.143 
#    0.000    0.714    0.000    3.429    0.000    4.000 
#    0.000    0.000    0.000    0.000    0.000    0.000 
#
# Total GULP energy -155961.857041 kJ/mol
# GULP energy per Si atom -5570.066323 kJ/mol
# Density = 1.916016 g / cm^3
# Si number density = 19.203865 Si / 1000 Ang^3
#
#
#
# Elastic Constant Matrix: (Units=GPa)
#
#
# Indices 1 2 3 4 5 6 
#
# 1 126.4450 26.1055 29.3771 0.0000 27.2443 0.0000
# 2 26.1055 59.3503 -1.4991 0.0000 0.8836 0.0000
# 3 29.3771 -1.4991 69.5017 0.0000 8.8048 0.0000
# 4 0.0000 0.0000 0.0000 14.0647 0.0000 7.8064
# 5 27.2443 0.8836 8.8048 0.0000 32.5392 0.0000
# 6 0.0000 0.0000 0.0000 7.8064 0.0000 79.0097
#
#
#
# Elastic Compliance Matrix: (Units=1/GPa)
#
#
# Indices 1 2 3 4 5 6 
#
# 1 0.011755 -0.005143 -0.003987 0.000000 -0.008623 0.000000
# 2 -0.005143 0.019119 0.002181 0.000000 0.003196 0.000000
# 3 -0.003987 0.002181 0.016262 0.000000 -0.001122 0.000000
# 4 0.000000 0.000000 0.000000 0.075225 0.000000 -0.007432
# 5 -0.008623 0.003196 -0.001122 0.000000 0.038169 0.000000
# 6 0.000000 0.000000 0.000000 -0.007432 0.000000 0.013391
#
#
# Mechanical properties :
#
#
# Convention : Reuss Voigt Hill
#
# Bulk Modulus (GPa) = 30.08527 40.36266 35.22396
# Shear Modulus (GPa) = 25.13859 38.54361 31.84110
#
# Velocity S-wave (km/s) = 3.62199 4.48490 4.07634
# Velocity P-wave (km/s) = 5.76125 6.91973 6.36690
#
# Compressibility (1/GPa) = 0.03323886
#
# Stress axis : x y z
#
# Youngs Moduli (GPa) = 85.07286 52.30497 61.49121
#
# Poissons Ratio (x) = 0.26899 0.24516
# Poissons Ratio (y) = 0.43750 -0.13412
# Poissons Ratio (z) = 0.33918 -0.11408
#
# Static dielectric constant tensor:
#      x y z
#    x 1.717940 0.000000 -0.026890 
#    y 0.000000 1.653620 0.000000 
#    z -0.026890 0.000000 1.712870 
# 
# From -- ./inp_files/262821.got.cif
#   From: 2010.05.17/outbox.cif.g08.bks.cpg/sg12_132_cif.got.tgz:262821.got - 2010.06.03 13:09:07.
