data_PCOD9181173
_publ_section_title
;
Structure prediction by ZEFSAII (Michael W. Deem and Ramdas Pophale) SiO2 
 PCOD9181173
Probable space group: C 2/M
;
_chemical_formula_sum "Si O2"
_cell_formula_units_Z 48
_cell_length_a 31.717519
_cell_length_b 7.467159
_cell_length_c 27.961708
_cell_angle_alpha 90.000000
_cell_angle_beta 160.655619
_cell_angle_gamma 90.000000
_cell_volume 2193.653871
_symmetry_space_group_name_H-M "C 2/M"
_symmetry_group_IT_number 12
_symmetry_cell_setting 'monoclinic'
loop_
_space_group_symop_operation_xyz
x,y,z
-x,y,-z
-x,-y,-z
x,-y,z
1/2+x,1/2+y,z
1/2-x,1/2+y,-z
1/2-x,1/2-y,-z
1/2+x,1/2-y,z
loop_
_atom_site_type_symbol
_atom_site_label
_atom_site_fract_x
_atom_site_fract_y
_atom_site_fract_z
Si Si1 0.513091 0.281036 0.069023
Si Si2 0.366923 0.714425 0.089730
Si Si3 0.212059 0.709241 0.605192
Si Si4 0.861598 0.212751 0.581531
Si Si5 0.984521 0.719197 0.428325
Si Si6 0.291712 0.719103 0.903601
O O1 0.511124 0.500000 0.067878
O O2 0.647510 0.217893 0.234246
O O3 0.500000 0.226797 0.000000
O O4 0.395219 0.223584 0.975390
O O5 0.380454 0.500000 0.100272
O O6 0.501789 0.783493 0.254056
O O7 0.250000 0.750000 0.000000
O O8 0.332668 0.780356 0.000105
O O9 0.220299 0.500000 0.626841
O O10 0.175022 0.720294 0.510150
O O11 0.100799 0.783225 0.519836
O O12 0.750000 0.250000 0.500000
O O13 0.873127 0.000000 0.589478
O O14 0.984332 0.500000 0.427486
O O15 0.849526 0.776281 0.262201
O O16 0.000000 0.773092 0.500000
O O17 0.290879 0.500000 0.903209
#
# Coordination Sequence:
#
# PCOD9181173 Si02
#       6
#     8   8   8   8   8   8
#     4   9  16  27  46  73 103 133 167 210 258 308
#     4  10  21  36  54  77 105 138 176 219 266 318
#     4  10  19  32  52  77 105 137 175 220 270 319
#     4  11  23  38  56  79 108 142 183 228 275 328
#     4   9  16  26  44  73 104 131 163 206 256 311
#     4   9  16  27  43  65  96 128 159 201 251 299
#
# _framework density 21.881302000000002
#
# number of rings (size 3 to 8) (size 9 to 14) (size 15 to 20)
#    0.000    2.333    0.000    3.500    0.000    9.333 
#    0.000    0.000    0.000    1.000    0.000    2.333 
#    0.000    0.000    0.000    0.000    0.000    0.000 
#
# Total GULP energy -134161.407569 kJ/mol
# GULP energy per Si atom -5590.058649 kJ/mol
# Density = 2.183150 g / cm^3
# Si number density = 21.881302 Si / 1000 Ang^3
#
#
#
# Elastic Constant Matrix: (Units=GPa)
#
#
# Indices 1 2 3 4 5 6 
#
# 1 108.1655 -18.2752 10.2070 -0.0002 8.3570 0.0000
# 2 -18.2752 60.5485 -5.8748 -0.0001 2.6360 0.0000
# 3 10.2070 -5.8748 112.8876 -0.0004 5.0366 -0.0001
# 4 -0.0002 -0.0001 -0.0004 -1.6493 -0.0003 -8.3218
# 5 8.3570 2.6360 5.0366 -0.0003 46.3712 -0.0001
# 6 0.0000 0.0000 -0.0001 -8.3218 -0.0001 10.6696
#
#
#
# Elastic Compliance Matrix: (Units=1/GPa)
#
#
# Indices 1 2 3 4 5 6 
#
# 1 0.009965 0.003026 -0.000659 0.000000 -0.001896 0.000000
# 2 0.003026 0.017569 0.000713 0.000000 -0.001622 0.000000
# 3 -0.000659 0.000713 0.008995 -0.000001 -0.000899 0.000000
# 4 0.000000 0.000000 -0.000001 -0.122851 -0.000001 -0.095818
# 5 -0.001896 -0.001622 -0.000899 -0.000001 0.022097 0.000000
# 6 0.000000 0.000000 0.000000 -0.095818 0.000000 0.018991
#
#
# Mechanical properties :
#
#
# Convention : Reuss Voigt Hill
#
# Bulk Modulus (GPa) = 23.42463 28.19062 25.80762
# Shear Modulus (GPa) = -134.53158 30.78126 -51.87516
#
# Velocity S-wave (km/s) = -7.84958 3.75472 -4.87432
# Velocity P-wave (km/s) = 8.45139 5.63104 4.45631
#
# Compressibility (1/GPa) = 0.04269010
#
# Stress axis : x y z
#
# Youngs Moduli (GPa) = 100.35014 56.91879 111.17103
#
# Poissons Ratio (x) = -0.17226 0.07325
# Poissons Ratio (y) = -0.30370 -0.07927
# Poissons Ratio (z) = 0.06612 -0.04058
#
# Static dielectric constant tensor:
#      x y z
#    x 1.710580 0.000000 0.015380 
#    y 0.000000 1.848950 0.000000 
#    z 0.015380 0.000000 1.759940 
# 
# From -- ./inp_files/101992.got.cif
#   From: 2010.05.17/outbox.cif.g08.bks.cpg/sg12_51_cif.got.tgz:101992.got - 2010.06.03 13:09:07.
