data_PCOD9181381
_publ_section_title
;
Structure prediction by ZEFSAII (Michael W. Deem and Ramdas Pophale) SiO2 
 PCOD9181381
Probable space group: C 2/M
;
_chemical_formula_sum "Si O2"
_cell_formula_units_Z 48
_cell_length_a 27.527190
_cell_length_b 8.291909
_cell_length_c 9.430012
_cell_angle_alpha 90.000000
_cell_angle_beta 105.681005
_cell_angle_gamma 90.000000
_cell_volume 2072.317749
_symmetry_space_group_name_H-M "C 2/M"
_symmetry_group_IT_number 12
_symmetry_cell_setting 'monoclinic'
loop_
_space_group_symop_operation_xyz
x,y,z
-x,y,-z
-x,-y,-z
x,-y,z
1/2+x,1/2+y,z
1/2-x,1/2+y,-z
1/2-x,1/2-y,-z
1/2+x,1/2-y,z
loop_
_atom_site_type_symbol
_atom_site_label
_atom_site_fract_x
_atom_site_fract_y
_atom_site_fract_z
Si Si1 0.748097 0.308174 0.157691
Si Si2 0.409689 0.323440 0.177034
Si Si3 0.855193 0.309665 0.392115
Si Si4 0.479013 0.673348 0.642664
Si Si5 0.461080 0.000000 0.760286
Si Si6 0.578587 0.000000 0.959147
Si Si7 0.697497 0.306119 0.386651
O O1 0.743394 0.500000 0.151114
O O2 0.801860 0.271831 0.272513
O O3 0.704071 0.248896 0.229348
O O4 0.750000 0.250000 0.000000
O O5 0.389498 0.500000 0.116892
O O6 0.394319 0.289370 0.328099
O O7 0.470330 0.332784 0.221452
O O8 0.395507 0.163738 0.077863
O O9 0.865226 0.500000 0.386647
O O10 0.845683 0.263290 0.547192
O O11 0.500000 0.683092 0.500000
O O12 0.452325 0.500000 0.640131
O O13 0.452379 0.838342 0.663656
O O14 0.521050 0.000000 0.849651
O O15 0.429205 0.000000 0.878982
O O16 0.694846 0.500000 0.388239
O O17 0.750000 0.250000 0.500000
#
# Coordination Sequence:
#
# PCOD9181381 Si02
#       7
#     8   8   8   8   4   4   8
#     4   9  19  32  50  73 100 131 166 209 253 303
#     4  10  19  32  53  76 100 136 169 206 259 302
#     4  10  19  33  52  74 101 131 169 216 255 300
#     4   9  18  32  52  78 104 131 172 214 251 304
#     4   9  17  30  52  74 101 139 166 208 260 295
#     4   9  18  32  48  76 106 128 172 216 242 308
#     4   9  17  30  48  74  98 126 168 210 250 300
#
# _framework density 23.162469999999999
#
# number of rings (size 3 to 8) (size 9 to 14) (size 15 to 20)
#    0.000    2.667    0.833    2.250    0.000    4.667 
#    0.000    3.333    3.667    0.000    0.000    0.000 
#    0.000    0.000    0.000    0.000    0.000    0.000 
#
# Total GULP energy -134005.725984 kJ/mol
# GULP energy per Si atom -5583.571916 kJ/mol
# Density = 2.310975 g / cm^3
# Si number density = 23.162470 Si / 1000 Ang^3
#
#
#
# Elastic Constant Matrix: (Units=GPa)
#
#
# Indices 1 2 3 4 5 6 
#
# 1 65.8488 48.3236 33.8025 0.0000 -17.4779 0.0000
# 2 48.3236 160.9109 47.7728 0.0000 -24.6660 0.0000
# 3 33.8025 47.7728 101.8149 0.0000 -28.0677 0.0000
# 4 0.0000 0.0000 0.0000 27.3647 0.0000 -6.3733
# 5 -17.4779 -24.6660 -28.0677 0.0000 33.0113 0.0000
# 6 0.0000 0.0000 0.0000 -6.3733 0.0000 17.1092
#
#
#
# Elastic Compliance Matrix: (Units=1/GPa)
#
#
# Indices 1 2 3 4 5 6 
#
# 1 0.021839 -0.004712 -0.003687 0.000000 0.004907 0.000000
# 2 -0.004712 0.008520 -0.001784 0.000000 0.002355 0.000000
# 3 -0.003687 -0.001784 0.014338 0.000000 0.008906 0.000000
# 4 0.000000 0.000000 0.000000 0.040015 0.000000 0.014906
# 5 0.004907 0.002355 0.008906 0.000000 0.042222 0.000000
# 6 0.000000 0.000000 0.000000 0.014906 0.000000 0.064001
#
#
# Mechanical properties :
#
#
# Convention : Reuss Voigt Hill
#
# Bulk Modulus (GPa) = 41.09928 65.37472 53.23700
# Shear Modulus (GPa) = 22.78815 28.74208 25.76511
#
# Velocity S-wave (km/s) = 3.14002 3.52645 3.33883
# Velocity P-wave (km/s) = 5.56136 6.69827 6.15612
#
# Compressibility (1/GPa) = 0.02433133
#
# Stress axis : x y z
#
# Youngs Moduli (GPa) = 45.78916 117.36649 69.74408
#
# Poissons Ratio (x) = 0.55300 0.25715
# Poissons Ratio (y) = 0.21575 0.12446
# Poissons Ratio (z) = 0.16882 0.20944
#
# Static dielectric constant tensor:
#      x y z
#    x 1.908830 0.000000 0.029110 
#    y 0.000000 1.851550 0.000000 
#    z 0.029110 0.000000 1.865640 
# 
# From -- ./inp_files/108821.got.cif
#   From: 2010.05.17/outbox.cif.g08.bks.cpg/sg12_55_cif.got.tgz:108821.got - 2010.06.03 13:09:07.
