data_PCOD9181872
_publ_section_title
;
Structure prediction by ZEFSAII (Michael W. Deem and Ramdas Pophale) SiO2 
 PCOD9181872
Probable space group: C 2/M
;
_chemical_formula_sum "Si O2"
_cell_formula_units_Z 48
_cell_length_a 23.829001
_cell_length_b 10.722730
_cell_length_c 14.022982
_cell_angle_alpha 90.000000
_cell_angle_beta 137.324499
_cell_angle_gamma 90.000000
_cell_volume 2428.746651
_symmetry_space_group_name_H-M "C 2/M"
_symmetry_group_IT_number 12
_symmetry_cell_setting 'monoclinic'
loop_
_space_group_symop_operation_xyz
x,y,z
-x,y,-z
-x,-y,-z
x,-y,z
1/2+x,1/2+y,z
1/2-x,1/2+y,-z
1/2-x,1/2-y,-z
1/2+x,1/2-y,z
loop_
_atom_site_type_symbol
_atom_site_label
_atom_site_fract_x
_atom_site_fract_y
_atom_site_fract_z
Si Si1 0.824550 0.145696 0.881363
Si Si2 0.909079 0.857150 0.186867
Si Si3 0.689420 0.356961 0.750477
Si Si4 0.848596 0.633412 0.567686
Si Si5 0.351219 0.361168 0.701448
Si Si6 0.951736 0.283569 0.528282
O O1 0.754096 0.251143 0.800664
O O2 0.869692 0.158366 0.835974
O O3 0.794339 0.000000 0.847585
O O4 0.882138 0.164499 0.045186
O O5 0.831935 0.844673 0.163947
O O6 0.979293 0.768156 0.314316
O O7 0.937602 0.000000 0.231708
O O8 0.715131 0.500000 0.763123
O O9 0.603954 0.325947 0.588339
O O10 0.867658 0.500000 0.637720
O O11 0.749432 0.640335 0.430972
O O12 0.878587 0.750137 0.667360
O O13 0.889879 0.638578 0.515752
O O14 0.379512 0.500000 0.707540
O O15 0.000000 0.344948 0.500000
#
# Coordination Sequence:
#
# PCOD9181872 Si02
#       6
#     8   8   8   8   8   8
#     4  10  19  35  56  79 110 144 184 230 274 323
#     4   9  19  34  52  78 113 150 184 222 269 327
#     4  10  19  32  54  82 110 144 187 229 270 319
#     4  10  20  36  56  83 111 139 183 233 276 321
#     4   9  19  35  56  81 107 141 185 230 274 321
#     4  10  20  35  55  82 115 148 181 222 272 328
#
# _framework density 19.763280000000002
#
# number of rings (size 3 to 8) (size 9 to 14) (size 15 to 20)
#    0.000    2.333    1.667    1.000    0.000    4.333 
#    0.000    4.167    0.000    4.000    0.000    0.000 
#    0.000    0.000    0.000    0.000    0.000    0.000 
#
# Total GULP energy -133826.955854 kJ/mol
# GULP energy per Si atom -5576.123161 kJ/mol
# Density = 1.971830 g / cm^3
# Si number density = 19.763280 Si / 1000 Ang^3
#
#
#
# Elastic Constant Matrix: (Units=GPa)
#
#
# Indices 1 2 3 4 5 6 
#
# 1 67.3106 45.4606 15.3206 0.0000 -19.7694 0.0000
# 2 45.4606 112.2137 48.1022 0.0000 -21.5295 0.0000
# 3 15.3206 48.1022 76.4381 0.0000 -24.8053 0.0000
# 4 0.0000 0.0000 0.0000 9.8962 0.0000 -13.1165
# 5 -19.7694 -21.5295 -24.8053 0.0000 27.0936 0.0000
# 6 0.0000 0.0000 0.0000 -13.1165 0.0000 11.7408
#
#
#
# Elastic Compliance Matrix: (Units=1/GPa)
#
#
# Indices 1 2 3 4 5 6 
#
# 1 0.024646 -0.009606 0.006351 0.000000 0.016165 0.000000
# 2 -0.009606 0.016228 -0.009072 0.000000 -0.002420 0.000000
# 3 0.006351 -0.009072 0.023735 0.000000 0.019155 0.000000
# 4 0.000000 0.000000 0.000000 -0.210206 0.000000 -0.234837
# 5 0.016165 -0.002420 0.019155 0.000000 0.064319 0.000000
# 6 0.000000 0.000000 0.000000 -0.234837 0.000000 -0.177180
#
#
# Mechanical properties :
#
#
# Convention : Reuss Voigt Hill
#
# Bulk Modulus (GPa) = 25.02826 52.63657 38.83241
# Shear Modulus (GPa) = -22.67715 19.55137 -1.56289
#
# Velocity S-wave (km/s) = -3.39106 3.14869 -0.89024
# Velocity P-wave (km/s) = 1.62508 6.31746 4.31680
#
# Compressibility (1/GPa) = 0.03995483
#
# Stress axis : x y z
#
# Youngs Moduli (GPa) = 40.57391 61.62301 42.13247
#
# Poissons Ratio (x) = 0.59194 -0.26757
# Poissons Ratio (y) = 0.38974 0.38222
# Poissons Ratio (z) = -0.25768 0.55904
#
# Static dielectric constant tensor:
#      x y z
#    x 1.720590 0.000000 -0.003470 
#    y 0.000000 1.697980 0.000000 
#    z -0.003470 0.000000 1.684480 
# 
# From -- ./inp_files/174855.got.cif
#   From: 2010.05.17/outbox.cif.g08.bks.cpg/sg12_88_cif.got.tgz:174855.got - 2010.06.03 13:09:07.
