data_PCOD9181734
_publ_section_title
;
Structure prediction by ZEFSAII (Michael W. Deem and Ramdas Pophale) SiO2 
 PCOD9181734
Probable space group: C 2/M
;
_chemical_formula_sum "Si O2"
_cell_formula_units_Z 56
_cell_length_a 14.927310
_cell_length_b 7.494393
_cell_length_c 24.339346
_cell_angle_alpha 90.000000
_cell_angle_beta 66.006266
_cell_angle_gamma 90.000000
_cell_volume 2487.586698
_symmetry_space_group_name_H-M "C 2/M"
_symmetry_group_IT_number 12
_symmetry_cell_setting 'monoclinic'
loop_
_space_group_symop_operation_xyz
x,y,z
-x,y,-z
-x,-y,-z
x,-y,z
1/2+x,1/2+y,z
1/2-x,1/2+y,-z
1/2-x,1/2-y,-z
1/2+x,1/2-y,z
loop_
_atom_site_type_symbol
_atom_site_label
_atom_site_fract_x
_atom_site_fract_y
_atom_site_fract_z
Si Si1 0.146819 0.286872 0.496678
Si Si2 0.061691 0.718032 0.404367
Si Si3 0.900554 0.719310 0.728238
Si Si4 0.128191 0.783919 0.075994
Si Si5 0.852962 0.204196 0.046781
Si Si6 0.698908 0.705157 0.826523
Si Si7 0.967866 0.708331 0.208668
O O1 0.138753 0.500000 0.496500
O O2 0.250000 0.250000 0.500000
O O3 0.131038 0.223983 0.437686
O O4 0.049870 0.225329 0.553809
O O5 0.062676 0.500000 0.403237
O O6 0.092908 0.777394 0.336198
O O7 0.898309 0.500000 0.729027
O O8 0.802369 0.784002 0.783130
O O9 0.991437 0.774739 0.743493
O O10 0.235961 0.710537 0.063030
O O11 0.052977 0.731291 0.141899
O O12 0.134338 0.000000 0.073151
O O13 0.100448 0.722123 0.021031
O O14 0.855915 0.286566 0.106841
O O15 0.888290 0.000000 0.042102
O O16 0.718986 0.500000 0.837406
O O17 0.627909 0.704336 0.792427
O O18 0.946268 0.500000 0.219653
#
# Coordination Sequence:
#
# PCOD9181734 Si02
#       7
#     8   8   8   8   8   8   8
#     4   9  17  31  54  82 111 137 173 215 253 302
#     4   8  16  32  53  77 104 144 181 205 248 313
#     4   9  18  35  56  73 102 143 179 213 255 309
#     4  10  19  32  54  78 101 132 171 218 267 320
#     4   9  18  34  54  76 102 133 171 214 269 322
#     4  10  20  36  55  75 100 135 176 216 262 317
#     4  11  22  36  53  76 104 136 176 220 265 315
#
# _framework density 22.511776000000001
#
# number of rings (size 3 to 8) (size 9 to 14) (size 15 to 20)
#    0.000    2.571    1.429    1.714    0.000    2.857 
#    0.000    4.286    0.000    3.429    0.000    0.000 
#    0.000    0.000    0.000    0.000    0.000    0.000 
#
# Total GULP energy -156292.918750 kJ/mol
# GULP energy per Si atom -5581.889955 kJ/mol
# Density = 2.246054 g / cm^3
# Si number density = 22.511776 Si / 1000 Ang^3
#
#
#
# Elastic Constant Matrix: (Units=GPa)
#
#
# Indices 1 2 3 4 5 6 
#
# 1 125.4988 -1.8807 49.3991 0.0000 28.2641 0.0000
# 2 -1.8807 68.0658 4.2945 0.0000 2.5451 0.0000
# 3 49.3991 4.2945 109.6230 0.0000 40.7890 0.0000
# 4 0.0000 0.0000 0.0000 3.7014 0.0000 1.8482
# 5 28.2641 2.5451 40.7890 0.0000 30.0259 0.0000
# 6 0.0000 0.0000 0.0000 1.8482 0.0000 22.4173
#
#
#
# Elastic Compliance Matrix: (Units=1/GPa)
#
#
# Indices 1 2 3 4 5 6 
#
# 1 0.010377 0.000680 -0.002117 0.000000 -0.006950 0.000000
# 2 0.000680 0.014786 -0.000366 0.000000 -0.001396 0.000000
# 3 -0.002117 -0.000366 0.018881 0.000000 -0.023626 0.000000
# 4 0.000000 0.000000 0.000000 0.281769 0.000000 -0.023231
# 5 -0.006950 -0.001396 -0.023626 0.000000 0.072060 0.000000
# 6 0.000000 0.000000 0.000000 -0.023231 0.000000 0.046524
#
#
# Mechanical properties :
#
#
# Convention : Reuss Voigt Hill
#
# Bulk Modulus (GPa) = 24.72923 45.20148 34.96536
# Shear Modulus (GPa) = 10.83468 27.98725 19.41096
#
# Velocity S-wave (km/s) = 2.19621 3.52977 2.93961
# Velocity P-wave (km/s) = 4.17612 6.06094 5.20456
#
# Compressibility (1/GPa) = 0.04043797
#
# Stress axis : x y z
#
# Youngs Moduli (GPa) = 96.36843 67.63257 52.96301
#
# Poissons Ratio (x) = -0.04600 0.11211
# Poissons Ratio (y) = -0.06554 0.01940
# Poissons Ratio (z) = 0.20398 0.02478
#
# Static dielectric constant tensor:
#      x y z
#    x 1.828640 0.000000 0.026860 
#    y 0.000000 1.929860 0.000000 
#    z 0.026860 0.000000 1.839060 
# 
# From -- ./inp_files/338154.got.cif
#   From: 2010.05.17/outbox.cif.g08.bks.cpg/sg12_170_cif.got.tgz:338154.got - 2010.06.03 13:09:07.
