data_PCOD9181892
_publ_section_title
;
Structure prediction by ZEFSAII (Michael W. Deem and Ramdas Pophale) SiO2 
 PCOD9181892
Probable space group: C 2/M
;
_chemical_formula_sum "Si O2"
_cell_formula_units_Z 50
_cell_length_a 24.075978
_cell_length_b 9.850921
_cell_length_c 11.488652
_cell_angle_alpha 90.000000
_cell_angle_beta 108.089647
_cell_angle_gamma 90.000000
_cell_volume 2590.089666
_symmetry_space_group_name_H-M "C 2/M"
_symmetry_group_IT_number 12
_symmetry_cell_setting 'monoclinic'
loop_
_space_group_symop_operation_xyz
x,y,z
-x,y,-z
-x,-y,-z
x,-y,z
1/2+x,1/2+y,z
1/2-x,1/2+y,-z
1/2-x,1/2-y,-z
1/2+x,1/2-y,z
loop_
_atom_site_type_symbol
_atom_site_label
_atom_site_fract_x
_atom_site_fract_y
_atom_site_fract_z
Si Si1 0.869161 0.842276 0.350381
Si Si2 0.944804 0.658172 0.050368
Si Si3 0.730079 0.659471 0.878907
Si Si4 0.846024 0.658847 0.808074
Si Si5 0.512156 0.258998 0.677223
Si Si6 0.880118 0.841876 0.613090
Si Si7 0.500000 0.000000 0.500000
O O1 0.828722 0.785810 0.221188
O O2 0.937096 0.831289 0.363163
O O3 0.859063 0.786533 0.473360
O O4 0.853012 0.000000 0.346718
O O5 0.934982 0.500000 0.073953
O O6 0.960451 0.735016 0.177762
O O7 0.888882 0.705271 0.940473
O O8 0.000000 0.666007 0.000000
O O9 0.723371 0.500000 0.909080
O O10 0.780667 0.665079 0.814249
O O11 0.750000 0.750000 0.000000
O O12 0.860565 0.500000 0.792700
O O13 0.857312 0.750004 0.703090
O O14 0.450568 0.333063 0.652911
O O15 0.500463 0.118826 0.602058
O O16 0.863369 0.000000 0.616202
#
# Coordination Sequence:
#
# PCOD9181892 Si02
#       7
#     8   8   8   8   8   8   2
#     4  10  22  40  61  82 119 164 200 242 305 367
#     4  10  19  32  54  82 116 153 185 236 304 356
#     4  10  22  43  65  89 117 158 203 251 301 361
#     4  10  22  39  61  87 117 155 199 250 301 355
#     4  12  21  37  58  91 123 155 202 250 302 353
#     4  11  23  38  59  86 123 159 197 243 302 367
#     4  12  24  32  60  96 128 152 206 262 294 354
#
# _framework density 19.304352000000002
#
# number of rings (size 3 to 8) (size 9 to 14) (size 15 to 20)
#    0.000    1.440    4.000    1.440    1.120    2.560 
#    1.440    2.400    0.000    0.000    0.000    0.000 
#    0.000    0.000    0.000    0.000    0.000    0.000 
#
# Total GULP energy -139264.270864 kJ/mol
# GULP energy per Si atom -5570.570835 kJ/mol
# Density = 1.926041 g / cm^3
# Si number density = 19.304352 Si / 1000 Ang^3
#
#
#
# Elastic Constant Matrix: (Units=GPa)
#
#
# Indices 1 2 3 4 5 6 
#
# 1 50.6192 13.6816 15.7726 0.0000 -0.0585 0.0000
# 2 13.6816 60.4109 45.7341 0.0000 -10.5479 0.0000
# 3 15.7726 45.7341 118.6237 0.0000 -20.6127 0.0000
# 4 0.0000 0.0000 0.0000 32.8450 0.0000 -5.9116
# 5 -0.0585 -10.5479 -20.6127 0.0000 32.2824 0.0000
# 6 0.0000 0.0000 0.0000 -5.9116 0.0000 9.7197
#
#
#
# Elastic Compliance Matrix: (Units=1/GPa)
#
#
# Indices 1 2 3 4 5 6 
#
# 1 0.021356 -0.003937 -0.001730 0.000000 -0.002353 0.000000
# 2 -0.003937 0.024232 -0.008373 0.000000 0.002564 0.000000
# 3 -0.001730 -0.008373 0.012837 0.000000 0.005457 0.000000
# 4 0.000000 0.000000 0.000000 0.034189 0.000000 0.020794
# 5 -0.002353 0.002564 0.005457 0.000000 0.035295 0.000000
# 6 0.000000 0.000000 0.000000 0.020794 0.000000 0.115530
#
#
# Mechanical properties :
#
#
# Convention : Reuss Voigt Hill
#
# Bulk Modulus (GPa) = 32.95732 42.22559 37.59146
# Shear Modulus (GPa) = 17.75355 25.26714 21.51034
#
# Velocity S-wave (km/s) = 3.03589 3.62177 3.34170
# Velocity P-wave (km/s) = 5.42203 6.27780 5.86554
#
# Compressibility (1/GPa) = 0.03034227
#
# Stress axis : x y z
#
# Youngs Moduli (GPa) = 46.82523 41.26834 77.90238
#
# Poissons Ratio (x) = 0.16249 0.13480
# Poissons Ratio (y) = 0.18437 0.65229
# Poissons Ratio (z) = 0.08102 0.34555
#
# Static dielectric constant tensor:
#      x y z
#    x 1.674670 0.000000 0.028180 
#    y 0.000000 1.660090 0.000000 
#    z 0.028180 0.000000 1.707000 
# 
# From -- ./inp_files/181187.got.cif
#   From: 2010.05.17/outbox.cif.g08.bks.cpg/sg12_91_cif.got.tgz:181187.got - 2010.06.03 13:09:07.
