data_PCOD9181319
_publ_section_title
;
Structure prediction by ZEFSAII (Michael W. Deem and Ramdas Pophale) SiO2 
 PCOD9181319
Probable space group: C 2/M
;
_chemical_formula_sum "Si O2"
_cell_formula_units_Z 56
_cell_length_a 10.401697
_cell_length_b 31.289266
_cell_length_c 14.677018
_cell_angle_alpha 90.000000
_cell_angle_beta 135.245744
_cell_angle_gamma 90.000000
_cell_volume 3363.192173
_symmetry_space_group_name_H-M "C 2/M"
_symmetry_group_IT_number 12
_symmetry_cell_setting 'monoclinic'
loop_
_space_group_symop_operation_xyz
x,y,z
-x,y,-z
-x,-y,-z
x,-y,z
1/2+x,1/2+y,z
1/2-x,1/2+y,-z
1/2-x,1/2-y,-z
1/2+x,1/2-y,z
loop_
_atom_site_type_symbol
_atom_site_label
_atom_site_fract_x
_atom_site_fract_y
_atom_site_fract_z
Si Si1 0.000000 0.885697 0.000000
Si Si2 0.227246 0.450623 0.418972
Si Si3 0.585797 0.691252 0.400096
Si Si4 0.712223 0.068107 0.616075
Si Si5 0.000000 0.119338 0.500000
Si Si6 0.997514 0.713474 0.607198
Si Si7 0.174856 0.158729 0.252515
Si Si8 0.790083 0.546945 0.186149
O O1 0.033519 0.858212 0.107120
O O2 0.176080 0.916415 0.080038
O O3 0.267048 0.500000 0.412980
O O4 0.288249 0.444189 0.555704
O O5 0.329567 0.413381 0.416040
O O6 0.007804 0.444805 0.300359
O O7 0.508781 0.651256 0.417751
O O8 0.797784 0.698008 0.538590
O O9 0.486154 0.736093 0.368015
O O10 0.588820 0.684380 0.293087
O O11 0.500000 0.056663 0.500000
O O12 0.733969 0.118129 0.649981
O O13 0.778706 0.046990 0.743039
O O14 0.000000 0.707361 0.500000
O O15 0.168821 0.685016 0.722336
O O16 0.759953 0.500000 0.131225
#
# Coordination Sequence:
#
# PCOD9181319 Si02
#       8
#     4   8   8   8   4   8   8   8
#     4  10  21  32  54  76  96 138 186 212 259 294
#     4  10  20  32  48  76 111 139 165 208 265 322
#     4  10  19  32  52  81 105 131 169 208 260 323
#     4   9  15  27  50  76 100 129 160 210 274 319
#     4  12  21  30  50  80 108 142 168 192 263 330
#     4   9  18  32  54  80 107 130 160 215 274 313
#     4  10  19  33  51  76 105 133 172 217 257 299
#     4   9  18  32  51  75 101 131 175 227 264 298
#
# _framework density 16.650846999999999
#
# number of rings (size 3 to 8) (size 9 to 14) (size 15 to 20)
#    0.000    2.286    2.143    2.143    4.000    1.714 
#    0.000    0.714    0.000    0.857    0.000    2.000 
#    0.000    0.000    0.000    0.000    0.000    0.000 
#
# Total GULP energy -155871.442013 kJ/mol
# GULP energy per Si atom -5566.837215 kJ/mol
# Density = 1.661295 g / cm^3
# Si number density = 16.650847 Si / 1000 Ang^3
#
#
#
# Elastic Constant Matrix: (Units=GPa)
#
#
# Indices 1 2 3 4 5 6 
#
# 1 48.2870 33.1186 14.3590 0.0000 4.4920 0.0000
# 2 33.1186 107.8045 33.2051 0.0000 8.1074 0.0000
# 3 14.3590 33.2051 74.7565 0.0000 1.0297 0.0000
# 4 0.0000 0.0000 0.0000 17.3427 0.0000 2.1546
# 5 4.4920 8.1074 1.0297 0.0000 10.0899 0.0000
# 6 0.0000 0.0000 0.0000 2.1546 0.0000 33.4567
#
#
#
# Elastic Compliance Matrix: (Units=1/GPa)
#
#
# Indices 1 2 3 4 5 6 
#
# 1 0.026752 -0.007200 -0.001859 0.000000 -0.005935 0.000000
# 2 -0.007200 0.013399 -0.004471 0.000000 -0.007105 0.000000
# 3 -0.001859 -0.004471 0.015681 0.000000 0.002820 0.000000
# 4 0.000000 0.000000 0.000000 0.058126 0.000000 -0.003743
# 5 -0.005935 -0.007105 0.002820 0.000000 0.107173 0.000000
# 6 0.000000 0.000000 0.000000 -0.003743 0.000000 0.030130
#
#
# Mechanical properties :
#
#
# Convention : Reuss Voigt Hill
#
# Bulk Modulus (GPa) = 34.75392 43.57927 39.16660
# Shear Modulus (GPa) = 17.36639 22.18887 19.77763
#
# Velocity S-wave (km/s) = 3.23301 3.65444 3.45016
# Velocity P-wave (km/s) = 5.90373 6.63594 6.28051
#
# Compressibility (1/GPa) = 0.02877373
#
# Stress axis : x y z
#
# Youngs Moduli (GPa) = 37.37972 74.63083 63.77215
#
# Poissons Ratio (x) = 0.53732 0.11854
# Poissons Ratio (y) = 0.26912 0.28512
# Poissons Ratio (z) = 0.06948 0.33367
#
# Static dielectric constant tensor:
#      x y z
#    x 1.596560 0.000000 0.009380 
#    y 0.000000 1.615110 0.000000 
#    z 0.009380 0.000000 1.559180 
# 
# From -- ./inp_files/209728.got.cif
#   From: 2010.05.17/outbox.cif.g08.bks.cpg/sg12_105_cif.got.tgz:209728.got - 2010.06.03 13:09:07.
