data_PCOD9181236
_publ_section_title
;
Structure prediction by ZEFSAII (Michael W. Deem and Ramdas Pophale) SiO2 
 PCOD9181236
Probable space group: C 2/M
;
_chemical_formula_sum "Si O2"
_cell_formula_units_Z 56
_cell_length_a 20.908547
_cell_length_b 17.019072
_cell_length_c 11.357583
_cell_angle_alpha 90.000000
_cell_angle_beta 138.719643
_cell_angle_gamma 90.000000
_cell_volume 2666.374475
_symmetry_space_group_name_H-M "C 2/M"
_symmetry_group_IT_number 12
_symmetry_cell_setting 'monoclinic'
loop_
_space_group_symop_operation_xyz
x,y,z
-x,y,-z
-x,-y,-z
x,-y,z
1/2+x,1/2+y,z
1/2-x,1/2+y,-z
1/2-x,1/2-y,-z
1/2+x,1/2-y,z
loop_
_atom_site_type_symbol
_atom_site_label
_atom_site_fract_x
_atom_site_fract_y
_atom_site_fract_z
Si Si1 0.426118 0.193600 0.299585
Si Si2 0.520826 0.173057 0.181273
Si Si3 0.263335 0.915172 0.027421
Si Si4 0.739704 0.157175 0.466491
Si Si5 0.447069 0.360769 0.806819
Si Si6 0.829457 0.590533 0.849253
Si Si7 0.455288 0.379028 0.310874
O O1 0.500000 0.166146 0.500000
O O2 0.473897 0.167094 0.244661
O O3 0.428809 0.287623 0.298190
O O4 0.319927 0.156217 0.167046
O O5 0.628174 0.135186 0.338928
O O6 0.536106 0.265581 0.173970
O O7 0.431801 0.135783 0.984386
O O8 0.291627 0.909322 0.929288
O O9 0.148124 0.913817 0.868431
O O10 0.298616 0.000000 0.121193
O O11 0.750000 0.250000 0.500000
O O12 0.832439 0.121215 0.658951
O O13 0.746323 0.135071 0.338349
O O14 0.481377 0.387025 0.722259
O O15 0.500000 0.388932 0.000000
O O16 0.840881 0.500000 0.827633
O O17 0.500000 0.406666 0.500000
#
# Coordination Sequence:
#
# PCOD9181236 Si02
#       7
#     8   8   8   8   8   8   8
#     4   9  19  34  54  82 112 142 181 231 281 335
#     4   9  18  32  52  81 112 142 180 227 283 337
#     4  10  21  36  56  82 111 146 186 231 283 335
#     4  10  19  32  52  78 109 145 183 224 273 331
#     4  10  20  34  54  81 112 147 189 233 274 327
#     4  10  20  35  56  84 114 140 179 236 288 334
#     4  10  20  36  58  83 111 146 190 235 280 330
#
# _framework density 21.002303000000001
#
# number of rings (size 3 to 8) (size 9 to 14) (size 15 to 20)
#    0.000    2.286    0.000    3.429    0.000    4.000 
#    0.000    2.143    0.000    3.429    0.000    0.000 
#    0.000    0.000    0.000    0.000    0.000    0.000 
#
# Total GULP energy -155938.932845 kJ/mol
# GULP energy per Si atom -5569.247602 kJ/mol
# Density = 2.095450 g / cm^3
# Si number density = 21.002303 Si / 1000 Ang^3
#
#
#
# Elastic Constant Matrix: (Units=GPa)
#
#
# Indices 1 2 3 4 5 6 
#
# 1 47.9182 8.0537 28.7139 0.0000 14.6834 0.0000
# 2 8.0537 36.1405 29.4666 0.0000 -0.9961 0.0000
# 3 28.7139 29.4666 162.2511 0.0000 6.6085 0.0000
# 4 0.0000 0.0000 0.0000 -36.0813 0.0000 -5.4751
# 5 14.6834 -0.9961 6.6085 0.0000 37.5155 0.0000
# 6 0.0000 0.0000 0.0000 -5.4751 0.0000 6.0754
#
#
#
# Elastic Compliance Matrix: (Units=1/GPa)
#
#
# Indices 1 2 3 4 5 6 
#
# 1 0.026665 -0.003162 -0.003743 0.000000 -0.009861 0.000000
# 2 -0.003162 0.032991 -0.005558 0.000000 0.003093 0.000000
# 3 -0.003743 -0.005558 0.007838 0.000000 -0.000063 0.000000
# 4 0.000000 0.000000 0.000000 -0.024381 0.000000 -0.021972
# 5 -0.009861 0.003093 -0.000063 0.000000 0.030609 0.000000
# 6 0.000000 0.000000 0.000000 -0.021972 0.000000 0.144797
#
#
# Mechanical properties :
#
#
# Convention : Reuss Voigt Hill
#
# Bulk Modulus (GPa) = 23.49196 42.08647 32.78922
# Shear Modulus (GPa) = 19.40739 13.50695 16.45717
#
# Velocity S-wave (km/s) = 3.04313 2.53873 2.80230
# Velocity P-wave (km/s) = 4.85358 5.35500 5.11044
#
# Compressibility (1/GPa) = 0.04256775
#
# Stress axis : x y z
#
# Youngs Moduli (GPa) = 37.50230 30.31105 127.58913
#
# Poissons Ratio (x) = 0.09585 0.47757
# Poissons Ratio (y) = 0.11859 0.70913
# Poissons Ratio (z) = 0.14037 0.16847
#
# Static dielectric constant tensor:
#      x y z
#    x 1.818260 0.000000 -0.032850 
#    y 0.000000 1.774480 0.000000 
#    z -0.032850 0.000000 1.803890 
# 
# From -- ./inp_files/177920.got.cif
#   From: 2010.05.17/outbox.cif.g08.bks.cpg/sg12_89_cif.got.tgz:177920.got - 2010.06.03 13:09:07.
