data_PCOD9181546
_publ_section_title
;
Structure prediction by ZEFSAII (Michael W. Deem and Ramdas Pophale) SiO2 
 PCOD9181546
Probable space group: C 2/M
;
_chemical_formula_sum "Si O2"
_cell_formula_units_Z 40
_cell_length_a 18.831827
_cell_length_b 10.694486
_cell_length_c 22.908480
_cell_angle_alpha 90.000000
_cell_angle_beta 25.495961
_cell_angle_gamma 90.000000
_cell_volume 1985.952263
_symmetry_space_group_name_H-M "C 2/M"
_symmetry_group_IT_number 12
_symmetry_cell_setting 'monoclinic'
loop_
_space_group_symop_operation_xyz
x,y,z
-x,y,-z
-x,-y,-z
x,-y,z
1/2+x,1/2+y,z
1/2-x,1/2+y,-z
1/2-x,1/2-y,-z
1/2+x,1/2-y,z
loop_
_atom_site_type_symbol
_atom_site_label
_atom_site_fract_x
_atom_site_fract_y
_atom_site_fract_z
Si Si1 0.916184 0.354544 0.145264
Si Si2 0.360965 0.635505 0.974337
Si Si3 0.724001 0.645499 0.410142
Si Si4 0.037588 0.230747 0.223901
Si Si5 0.120327 0.852633 0.291406
O O1 0.972901 0.500000 0.095180
O O2 0.796865 0.352813 0.290765
O O3 0.799450 0.307718 0.179380
O O4 0.057758 0.255295 0.054734
O O5 0.409543 0.500000 0.961959
O O6 0.416562 0.645375 0.865556
O O7 0.164451 0.653591 0.122871
O O8 0.724595 0.500000 0.428669
O O9 0.537293 0.693602 0.554617
O O10 0.851228 0.723657 0.354670
O O11 0.075520 0.170826 0.257797
O O12 0.132642 0.000000 0.293804
#
# Coordination Sequence:
#
# PCOD9181546 Si02
#       5
#     8   8   8   8   8
#     4   9  19  35  56  80 106 138 174 212 257 310
#     4  10  21  37  55  75 105 143 178 214 260 311
#     4   9  17  32  54  78 105 136 171 212 260 313
#     4  10  20  33  53  77 105 136 176 218 260 306
#     4  10  19  32  53  80 105 133 174 219 259 306
#
# _framework density 20.141470999999999
#
# number of rings (size 3 to 8) (size 9 to 14) (size 15 to 20)
#    0.000    2.400    0.000    2.400    0.000    8.800 
#    0.000    5.000    0.000   12.000    0.000    0.000 
#    0.000    0.000    0.000    0.000    0.000    0.000 
#
# Total GULP energy -111584.684726 kJ/mol
# GULP energy per Si atom -5579.234236 kJ/mol
# Density = 2.009563 g / cm^3
# Si number density = 20.141471 Si / 1000 Ang^3
#
#
#
# Elastic Constant Matrix: (Units=GPa)
#
#
# Indices 1 2 3 4 5 6 
#
# 1 96.5551 23.8474 4.6025 0.0000 -11.4446 0.0000
# 2 23.8474 77.6385 21.2706 -0.0015 -17.6563 0.0005
# 3 4.6025 21.2706 45.4768 -0.0011 0.4629 0.0007
# 4 0.0000 -0.0015 -0.0011 -1.9022 0.0007 -6.7662
# 5 -11.4446 -17.6563 0.4629 0.0007 21.5593 -0.0004
# 6 0.0000 0.0005 0.0007 -6.7662 -0.0004 24.4061
#
#
#
# Elastic Compliance Matrix: (Units=1/GPa)
#
#
# Indices 1 2 3 4 5 6 
#
# 1 0.011473 -0.002640 0.000034 0.000001 0.003927 0.000001
# 2 -0.002640 0.019522 -0.009014 -0.000002 0.014780 -0.000001
# 3 0.000034 -0.009014 0.026283 -0.000004 -0.007929 -0.000002
# 4 0.000001 -0.000002 -0.000004 -0.264688 0.000006 -0.073381
# 5 0.003927 0.014780 -0.007929 0.000006 0.060743 0.000003
# 6 0.000001 -0.000001 -0.000002 -0.073381 0.000003 0.020630
#
#
# Mechanical properties :
#
#
# Convention : Reuss Voigt Hill
#
# Bulk Modulus (GPa) = 29.38026 35.45681 32.41854
# Shear Modulus (GPa) = -54.67368 20.14262 -17.26553
#
# Velocity S-wave (km/s) = -5.21572 3.16580 -2.93100
# Velocity P-wave (km/s) = 4.65328 5.56823 2.16242
#
# Compressibility (1/GPa) = 0.03403645
#
# Stress axis : x y z
#
# Youngs Moduli (GPa) = 87.16317 51.22458 38.04795
#
# Poissons Ratio (x) = 0.13523 -0.00128
# Poissons Ratio (y) = 0.23011 0.34297
# Poissons Ratio (z) = -0.00294 0.46174
#
# Static dielectric constant tensor:
#      x y z
#    x 1.732460 0.000000 0.008690 
#    y 0.000000 1.687730 0.000000 
#    z 0.008690 0.000000 1.744250 
# 
# From -- ./inp_files/83465.got.cif
#   From: 2010.05.17/outbox.cif.g08.bks.cpg/sg12_42_cif.got.tgz:83465.got - 2010.06.03 13:09:07.
