data_PCOD9181518
_publ_section_title
;
Structure prediction by ZEFSAII (Michael W. Deem and Ramdas Pophale) SiO2 
 PCOD9181518
Probable space group: C 2/M
;
_chemical_formula_sum "Si O2"
_cell_formula_units_Z 64
_cell_length_a 20.669916
_cell_length_b 7.441082
_cell_length_c 21.918453
_cell_angle_alpha 90.000000
_cell_angle_beta 50.632587
_cell_angle_gamma 90.000000
_cell_volume 2606.257110
_symmetry_space_group_name_H-M "C 2/M"
_symmetry_group_IT_number 12
_symmetry_cell_setting 'monoclinic'
loop_
_space_group_symop_operation_xyz
x,y,z
-x,y,-z
-x,-y,-z
x,-y,z
1/2+x,1/2+y,z
1/2-x,1/2+y,-z
1/2-x,1/2-y,-z
1/2+x,1/2-y,z
loop_
_atom_site_type_symbol
_atom_site_label
_atom_site_fract_x
_atom_site_fract_y
_atom_site_fract_z
Si Si1 0.333427 0.214389 0.487967
Si Si2 0.747262 0.794501 0.085945
Si Si3 0.503318 0.786025 0.677263
Si Si4 0.092005 0.785225 0.812501
Si Si5 0.596566 0.720081 0.943642
Si Si6 0.074173 0.285028 0.149520
Si Si7 0.253211 0.707479 0.342952
Si Si8 0.326360 0.287259 0.738076
O O1 0.250000 0.250000 0.500000
O O2 0.412688 0.287418 0.403409
O O3 0.309336 0.286001 0.569492
O O4 0.349083 0.000000 0.483762
O O5 0.839090 0.712608 0.043320
O O6 0.670234 0.716059 0.092415
O O7 0.709666 0.794556 0.177622
O O8 0.758916 0.000000 0.059780
O O9 0.472667 0.714382 0.761345
O O10 0.424995 0.752856 0.680062
O O11 0.513532 0.000000 0.679914
O O12 0.124069 0.722558 0.859215
O O13 0.153477 0.713267 0.722883
O O14 0.993883 0.750840 0.861726
O O15 0.100751 0.000000 0.807764
O O16 0.598211 0.500000 0.946154
O O17 0.500000 0.774199 0.000000
O O18 0.082336 0.500000 0.149646
O O19 0.265598 0.500000 0.354082
O O20 0.212819 0.714185 0.300396
O O21 0.313119 0.500000 0.749041
#
# Coordination Sequence:
#
# PCOD9181518 Si02
#       8
#     8   8   8   8   8   8   8   8
#     4  10  21  35  53  74 101 139 180 221 269 320
#     4   9  17  35  57  77 107 143 178 214 258 321
#     4   9  19  36  53  72 103 143 180 214 262 321
#     4  10  19  32  53  79 106 135 174 224 262 303
#     4   9  17  32  57  83 104 136 181 219 254 310
#     4   9  18  31  52  76 103 141 176 213 260 312
#     4  10  20  35  53  74 102 139 177 215 266 320
#     4  11  21  32  52  80 103 133 175 224 269 309
#
# _framework density 24.556287999999999
#
# number of rings (size 3 to 8) (size 9 to 14) (size 15 to 20)
#    0.000    2.375    1.250    2.625    0.000    4.000 
#    0.000    3.125    0.000    1.500    0.000    0.000 
#    0.000    0.000    0.000    0.000    0.000    0.000 
#
# Total GULP energy -178732.014062 kJ/mol
# GULP energy per Si atom -5585.375439 kJ/mol
# Density = 2.450040 g / cm^3
# Si number density = 24.556288 Si / 1000 Ang^3
#
#
#
# Elastic Constant Matrix: (Units=GPa)
#
#
# Indices 1 2 3 4 5 6 
#
# 1 158.7967 -13.7519 42.8214 -0.0004 -25.7279 -0.0005
# 2 -13.7519 90.1370 18.1830 -0.0021 -0.5386 -0.0029
# 3 42.8214 18.1830 108.9572 -0.0002 -23.8894 0.0001
# 4 -0.0004 -0.0021 -0.0002 -2.0636 0.0000 -2.5483
# 5 -25.7279 -0.5386 -23.8894 0.0000 50.0334 -0.0001
# 6 -0.0005 -0.0029 0.0001 -2.5483 -0.0001 20.5200
#
#
#
# Elastic Compliance Matrix: (Units=1/GPa)
#
#
# Indices 1 2 3 4 5 6 
#
# 1 0.007601 0.001719 -0.002695 -0.000003 0.002640 0.000000
# 2 0.001719 0.011905 -0.002726 -0.000012 -0.000289 0.000000
# 3 -0.002695 -0.002726 0.011596 0.000002 0.004121 0.000000
# 4 -0.000003 -0.000012 0.000002 -0.420161 0.000000 -0.052178
# 5 0.002640 -0.000289 0.004121 0.000000 0.023309 0.000000
# 6 0.000000 0.000000 0.000000 -0.052178 0.000000 0.042253
#
#
# Mechanical properties :
#
#
# Convention : Reuss Voigt Hill
#
# Bulk Modulus (GPa) = 42.19884 50.26621 46.23252
# Shear Modulus (GPa) = -16.22350 34.40720 9.09185
#
# Velocity S-wave (km/s) = -2.57313 3.74726 1.92626
# Velocity P-wave (km/s) = 2.89721 6.26393 4.88010
#
# Compressibility (1/GPa) = 0.02369733
#
# Stress axis : x y z
#
# Youngs Moduli (GPa) = 131.56566 84.00105 86.23921
#
# Poissons Ratio (x) = -0.14441 0.23243
# Poissons Ratio (y) = -0.22617 0.23506
# Poissons Ratio (z) = 0.35460 0.22896
#
# Static dielectric constant tensor:
#      x y z
#    x 1.945260 0.000000 -0.023700 
#    y 0.000000 1.941790 0.000000 
#    z -0.023700 0.000000 2.020340 
# 
# From -- ./inp_files/346069.got.cif
#   From: 2010.05.17/outbox.cif.g08.bks.cpg/sg12_174_cif.got.tgz:346069.got - 2010.06.03 13:09:07.
