data_PCOD9181453
_publ_section_title
;
Structure prediction by ZEFSAII (Michael W. Deem and Ramdas Pophale) SiO2 
 PCOD9181453
Probable space group: C 2/M
;
_chemical_formula_sum "Si O2"
_cell_formula_units_Z 56
_cell_length_a 7.397423
_cell_length_b 18.946424
_cell_length_c 18.112655
_cell_angle_alpha 90.000000
_cell_angle_beta 73.829323
_cell_angle_gamma 90.000000
_cell_volume 2438.138687
_symmetry_space_group_name_H-M "C 2/M"
_symmetry_group_IT_number 12
_symmetry_cell_setting 'monoclinic'
loop_
_space_group_symop_operation_xyz
x,y,z
-x,y,-z
-x,-y,-z
x,-y,z
1/2+x,1/2+y,z
1/2-x,1/2+y,-z
1/2-x,1/2-y,-z
1/2+x,1/2-y,z
loop_
_atom_site_type_symbol
_atom_site_label
_atom_site_fract_x
_atom_site_fract_y
_atom_site_fract_z
Si Si1 0.746207 0.916903 0.164205
Si Si2 0.515212 0.579237 0.410175
Si Si3 0.708107 0.651934 0.266979
Si Si4 0.293535 0.577541 0.876838
Si Si5 0.189866 0.690481 0.446555
Si Si6 0.717832 0.303469 0.722153
Si Si7 0.723564 0.332226 0.985609
O O1 0.689275 0.864813 0.238852
O O2 0.696882 0.873301 0.095303
O O3 0.976526 0.919869 0.144457
O O4 0.686685 0.000000 0.172858
O O5 0.500000 0.574235 0.500000
O O6 0.500764 0.500000 0.380714
O O7 0.692460 0.617700 0.350591
O O8 0.337920 0.629134 0.417934
O O9 0.766658 0.595865 0.199168
O O10 0.490780 0.670442 0.272651
O O11 0.809343 0.725994 0.240513
O O12 0.232946 0.500000 0.904577
O O13 0.217227 0.630646 0.945663
O O14 0.250000 0.750000 0.500000
O O15 0.165182 0.716790 0.365419
O O16 0.000000 0.659846 0.500000
O O17 0.500000 0.341757 0.000000
O O18 0.750000 0.250000 0.000000
#
# Coordination Sequence:
#
# PCOD9181453 Si02
#       7
#     8   8   8   8   8   8   8
#     4   9  18  33  52  76 104 134 171 213 255 301
#     4  10  21  36  54  76 104 139 176 217 267 317
#     4  10  19  33  52  76 104 133 171 214 257 307
#     4   9  17  30  51  76 100 131 171 210 248 295
#     4  11  21  35  55  79 106 138 176 219 264 314
#     4  10  20  32  53  76 100 135 170 210 256 308
#     4  10  19  32  53  78 103 132 168 210 252 300
#
# _framework density 22.968340000000001
#
# number of rings (size 3 to 8) (size 9 to 14) (size 15 to 20)
#    0.000    2.143    0.000    4.714    0.000    5.429 
#    0.000    0.000    0.000    5.143    0.000    0.000 
#    0.000    0.000    0.000    0.000    0.000    0.000 
#
# Total GULP energy -156127.311734 kJ/mol
# GULP energy per Si atom -5575.975419 kJ/mol
# Density = 2.291606 g / cm^3
# Si number density = 22.968340 Si / 1000 Ang^3
#
#
#
# Elastic Constant Matrix: (Units=GPa)
#
#
# Indices 1 2 3 4 5 6 
#
# 1 20.9687 2.4544 9.7492 0.0000 -3.7182 0.0000
# 2 2.4544 197.7993 69.3867 0.0000 7.3384 0.0000
# 3 9.7492 69.3867 119.6377 0.0000 13.4577 0.0000
# 4 0.0000 0.0000 0.0000 44.9604 0.0000 2.9278
# 5 -3.7182 7.3384 13.4577 0.0000 23.4879 0.0000
# 6 0.0000 0.0000 0.0000 2.9278 0.0000 29.0318
#
#
#
# Elastic Compliance Matrix: (Units=1/GPa)
#
#
# Indices 1 2 3 4 5 6 
#
# 1 0.052493 0.001100 -0.006212 0.000000 0.011525 0.000000
# 2 0.001100 0.006370 -0.003827 0.000000 0.000376 0.000000
# 3 -0.006212 -0.003827 0.011822 0.000000 -0.006562 0.000000
# 4 0.000000 0.000000 0.000000 0.022389 0.000000 -0.002258
# 5 0.011525 0.000376 -0.006562 0.000000 0.048041 0.000000
# 6 0.000000 0.000000 0.000000 -0.002258 0.000000 0.034673
#
#
# Mechanical properties :
#
#
# Convention : Reuss Voigt Hill
#
# Bulk Modulus (GPa) = 18.93629 55.73183 37.33406
# Shear Modulus (GPa) = 23.66653 36.61707 30.14180
#
# Velocity S-wave (km/s) = 3.21346 3.99713 3.62652
# Velocity P-wave (km/s) = 4.69371 6.75426 5.81596
#
# Compressibility (1/GPa) = 0.05280865
#
# Stress axis : x y z
#
# Youngs Moduli (GPa) = 19.05006 156.97666 84.58639
#
# Poissons Ratio (x) = -0.17271 0.52547
# Poissons Ratio (y) = -0.02096 0.32368
# Poissons Ratio (z) = 0.11834 0.60069
#
# Static dielectric constant tensor:
#      x y z
#    x 1.955580 0.000000 0.097640 
#    y 0.000000 2.591250 0.000000 
#    z 0.097640 0.000000 2.084550 
# 
# From -- ./inp_files/257003.got.cif
#   From: 2010.05.17/outbox.cif.g08.bks.cpg/sg12_129_cif.got.tgz:257003.got - 2010.06.03 13:09:07.
