data_PCOD9181175
_publ_section_title
;
Structure prediction by ZEFSAII (Michael W. Deem and Ramdas Pophale) SiO2 
 PCOD9181175
Probable space group: C 2/M
;
_chemical_formula_sum "Si O2"
_cell_formula_units_Z 48
_cell_length_a 27.922922
_cell_length_b 7.434377
_cell_length_c 14.622334
_cell_angle_alpha 90.000000
_cell_angle_beta 137.735188
_cell_angle_gamma 90.000000
_cell_volume 2041.512201
_symmetry_space_group_name_H-M "C 2/M"
_symmetry_group_IT_number 12
_symmetry_cell_setting 'monoclinic'
loop_
_space_group_symop_operation_xyz
x,y,z
-x,y,-z
-x,-y,-z
x,-y,z
1/2+x,1/2+y,z
1/2-x,1/2+y,-z
1/2-x,1/2-y,-z
1/2+x,1/2-y,z
loop_
_atom_site_type_symbol
_atom_site_label
_atom_site_fract_x
_atom_site_fract_y
_atom_site_fract_z
Si Si1 0.236591 0.785209 0.087292
Si Si2 0.506107 0.217689 0.658917
Si Si3 0.611571 0.781069 0.653503
Si Si4 0.871815 0.779897 0.921917
Si Si5 0.523559 0.706407 0.175728
Si Si6 0.178285 0.785215 0.342356
O O1 0.307825 0.719155 0.238567
O O2 0.166267 0.717185 0.038705
O O3 0.234543 0.000000 0.094095
O O4 0.250000 0.750000 0.000000
O O5 0.439346 0.272560 0.501218
O O6 0.575173 0.273816 0.697990
O O7 0.497615 0.291455 0.747616
O O8 0.506684 0.000000 0.665804
O O9 0.611051 0.000000 0.653092
O O10 0.824597 0.727387 0.767764
O O11 0.875186 0.000000 0.928791
O O12 0.953165 0.715220 0.028104
O O13 0.528644 0.500000 0.150784
O O14 0.602924 0.783985 0.277016
O O15 0.250000 0.750000 0.500000
O O16 0.174276 0.000000 0.336227
#
# Coordination Sequence:
#
# PCOD9181175 Si02
#       6
#     8   8   8   8   8   8
#     4  10  19  32  52  77 105 140 181 220 261 315
#     4   9  17  31  52  76 104 142 181 218 263 317
#     4   8  16  30  48  73 105 140 181 220 257 311
#     4   9  19  36  58  79 106 148 185 213 264 333
#     4  10  20  35  55  80 109 138 176 223 271 320
#     4  10  22  39  59  82 108 140 181 228 272 321
#
# _framework density 23.511982
#
# number of rings (size 3 to 8) (size 9 to 14) (size 15 to 20)
#    0.000    2.667    0.000    2.500    2.333    2.667 
#    0.000    4.167    0.000    2.000    0.000    0.000 
#    0.000    0.000    0.000    0.000    0.000    0.000 
#
# Total GULP energy -134014.727882 kJ/mol
# GULP energy per Si atom -5583.946995 kJ/mol
# Density = 2.345847 g / cm^3
# Si number density = 23.511982 Si / 1000 Ang^3
#
#
#
# Elastic Constant Matrix: (Units=GPa)
#
#
# Indices 1 2 3 4 5 6 
#
# 1 130.6333 3.7728 80.4979 0.0000 17.8411 0.0000
# 2 3.7728 74.7447 1.6747 0.0000 6.0256 0.0000
# 3 80.4979 1.6747 158.0116 0.0000 21.2901 0.0000
# 4 0.0000 0.0000 0.0000 5.0008 0.0000 -2.4128
# 5 17.8411 6.0256 21.2901 0.0000 43.7613 0.0000
# 6 0.0000 0.0000 0.0000 -2.4128 0.0000 11.8405
#
#
#
# Elastic Compliance Matrix: (Units=1/GPa)
#
#
# Indices 1 2 3 4 5 6 
#
# 1 0.011315 -0.000295 -0.005506 0.000000 -0.001894 0.000000
# 2 -0.000295 0.013539 0.000259 0.000000 -0.001870 0.000000
# 3 -0.005506 0.000259 0.009453 0.000000 -0.002390 0.000000
# 4 0.000000 0.000000 0.000000 0.221771 0.000000 0.045192
# 5 -0.001894 -0.001870 -0.002390 0.000000 0.025043 0.000000
# 6 0.000000 0.000000 0.000000 0.045192 0.000000 0.093665
#
#
# Mechanical properties :
#
#
# Convention : Reuss Voigt Hill
#
# Bulk Modulus (GPa) = 43.06289 59.47560 51.26925
# Shear Modulus (GPa) = 12.70288 30.61682 21.65985
#
# Velocity S-wave (km/s) = 2.32690 3.61249 3.03846
# Velocity P-wave (km/s) = 5.05711 6.53841 5.84488
#
# Compressibility (1/GPa) = 0.02322185
#
# Stress axis : x y z
#
# Youngs Moduli (GPa) = 88.37738 73.86233 105.78713
#
# Poissons Ratio (x) = 0.02180 0.58248
# Poissons Ratio (y) = 0.02608 -0.02738
# Poissons Ratio (z) = 0.48662 -0.01911
#
# Static dielectric constant tensor:
#      x y z
#    x 1.889520 0.000000 0.016440 
#    y 0.000000 1.917890 0.000000 
#    z 0.016440 0.000000 1.891190 
# 
# From -- ./inp_files/244855.got.cif
#   From: 2010.05.17/outbox.cif.g08.bks.cpg/sg12_123_cif.got.tgz:244855.got - 2010.06.03 13:09:07.
