data_PCOD9181560
_publ_section_title
;
Structure prediction by ZEFSAII (Michael W. Deem and Ramdas Pophale) SiO2 
 PCOD9181560
Probable space group: C 2/M
;
_chemical_formula_sum "Si O2"
_cell_formula_units_Z 56
_cell_length_a 32.967342
_cell_length_b 8.301364
_cell_length_c 19.841334
_cell_angle_alpha 90.000000
_cell_angle_beta 32.787239
_cell_angle_gamma 90.000000
_cell_volume 2940.488934
_symmetry_space_group_name_H-M "C 2/M"
_symmetry_group_IT_number 12
_symmetry_cell_setting 'monoclinic'
loop_
_space_group_symop_operation_xyz
x,y,z
-x,y,-z
-x,-y,-z
x,-y,z
1/2+x,1/2+y,z
1/2-x,1/2+y,-z
1/2-x,1/2-y,-z
1/2+x,1/2-y,z
loop_
_atom_site_type_symbol
_atom_site_label
_atom_site_fract_x
_atom_site_fract_y
_atom_site_fract_z
Si Si1 0.033517 0.190164 0.546637
Si Si2 0.414823 0.806081 0.107659
Si Si3 0.390101 0.187308 0.695887
Si Si4 0.736302 0.181741 0.944771
Si Si5 0.189731 0.304022 0.869745
Si Si6 0.674797 0.192201 0.411023
Si Si7 0.281115 0.307924 0.385295
O O1 0.070876 0.276509 0.429779
O O2 0.094462 0.223955 0.518399
O O3 0.951731 0.268486 0.666298
O O4 0.025469 0.000000 0.545941
O O5 0.374833 0.751929 0.093181
O O6 0.359057 0.760325 0.246755
O O7 0.417463 0.000000 0.100681
O O8 0.500000 0.747387 0.000000
O O9 0.319956 0.303771 0.798808
O O10 0.368237 0.000000 0.730619
O O11 0.686799 0.252967 0.952049
O O12 0.710380 0.000000 0.990386
O O13 0.750000 0.250000 0.000000
O O14 0.190840 0.500000 0.869487
O O15 0.267797 0.245239 0.727947
O O16 0.718362 0.236086 0.417868
O O17 0.664734 0.000000 0.421256
O O18 0.288464 0.500000 0.376034
O O19 0.250000 0.250000 0.500000
#
# Coordination Sequence:
#
# PCOD9181560 Si02
#       7
#     8   8   8   8   8   8   8
#     4  11  20  32  52  78 106 136 171 216 267 321
#     4   9  18  35  60  87 113 145 185 231 286 347
#     4  11  21  34  52  75 104 137 175 220 265 313
#     4  11  22  36  53  75 105 144 188 230 276 325
#     4   9  18  33  54  78 105 139 182 228 274 328
#     4  10  19  32  53  80 107 139 182 227 273 326
#     4  10  21  36  56  83 115 150 188 233 283 340
#
# _framework density 19.044453000000001
#
# number of rings (size 3 to 8) (size 9 to 14) (size 15 to 20)
#    0.000    1.857    1.429    4.714    0.000    2.571 
#    0.000    1.429    0.000    6.857    0.000    0.000 
#    0.000    0.000    0.000    0.000    0.000    0.000 
#
# Total GULP energy -156035.343526 kJ/mol
# GULP energy per Si atom -5572.690840 kJ/mol
# Density = 1.900111 g / cm^3
# Si number density = 19.044453 Si / 1000 Ang^3
#
#
#
# Elastic Constant Matrix: (Units=GPa)
#
#
# Indices 1 2 3 4 5 6 
#
# 1 136.1567 14.9608 56.6061 0.0029 6.3541 -0.0006
# 2 14.9608 27.9387 -2.7522 0.0065 3.7875 -0.0112
# 3 56.6061 -2.7522 48.0844 0.0104 5.1289 -0.0020
# 4 0.0029 0.0065 0.0104 22.2175 -0.0025 1.2331
# 5 6.3541 3.7875 5.1289 -0.0025 40.9223 0.0001
# 6 -0.0006 -0.0112 -0.0020 1.2331 0.0001 23.8297
#
#
#
# Elastic Compliance Matrix: (Units=1/GPa)
#
#
# Indices 1 2 3 4 5 6 
#
# 1 0.017405 -0.011554 -0.021261 0.000012 0.001032 -0.000007
# 2 -0.011554 0.044209 0.016599 -0.000021 -0.004378 0.000023
# 3 -0.021261 0.016599 0.047219 -0.000025 -0.004153 0.000012
# 4 0.000012 -0.000021 -0.000025 0.045139 0.000006 -0.002336
# 5 0.001032 -0.004378 -0.004153 0.000006 0.025202 -0.000003
# 6 -0.000007 0.000023 0.000012 -0.002336 -0.000003 0.042085
#
#
# Mechanical properties :
#
#
# Convention : Reuss Voigt Hill
#
# Bulk Modulus (GPa) = 13.08889 38.86767 25.97828
# Shear Modulus (GPa) = 17.91101 26.95155 22.43128
#
# Velocity S-wave (km/s) = 3.07006 3.76598 3.43569
# Velocity P-wave (km/s) = 4.41075 6.27403 5.42301
#
# Compressibility (1/GPa) = 0.07640066
#
# Stress axis : x y z
#
# Youngs Moduli (GPa) = 57.45473 22.62003 21.17798
#
# Poissons Ratio (x) = 0.26136 0.45026
# Poissons Ratio (y) = 0.66385 -0.35154
# Poissons Ratio (z) = 1.22154 -0.37548
#
# Static dielectric constant tensor:
#      x y z
#    x 1.766350 0.000000 0.018090 
#    y 0.000000 1.664620 0.000000 
#    z 0.018090 0.000000 1.668650 
# 
# From -- ./inp_files/295111.got.cif
#   From: 2010.05.17/outbox.cif.g08.bks.cpg/sg12_148_cif.got.tgz:295111.got - 2010.06.03 13:09:07.
