data_PCOD9181317
_publ_section_title
;
Structure prediction by ZEFSAII (Michael W. Deem and Ramdas Pophale) SiO2 
 PCOD9181317
Probable space group: C 2/M
;
_chemical_formula_sum "Si O2"
_cell_formula_units_Z 56
_cell_length_a 10.141199
_cell_length_b 29.782845
_cell_length_c 10.801649
_cell_angle_alpha 90.000000
_cell_angle_beta 114.713140
_cell_angle_gamma 90.000000
_cell_volume 2963.661260
_symmetry_space_group_name_H-M "C 2/M"
_symmetry_group_IT_number 12
_symmetry_cell_setting 'monoclinic'
loop_
_space_group_symop_operation_xyz
x,y,z
-x,y,-z
-x,-y,-z
x,-y,z
1/2+x,1/2+y,z
1/2-x,1/2+y,-z
1/2-x,1/2-y,-z
1/2+x,1/2-y,z
loop_
_atom_site_type_symbol
_atom_site_label
_atom_site_fract_x
_atom_site_fract_y
_atom_site_fract_z
Si Si1 0.678167 0.949052 0.570468
Si Si2 0.377653 0.947500 0.186845
Si Si3 0.833233 0.610307 0.656784
Si Si4 0.334764 0.216995 0.626456
Si Si5 0.349651 0.681939 0.002199
Si Si6 0.843100 0.746515 0.216026
Si Si7 0.172867 0.604786 0.065927
O O1 0.500000 0.946688 0.500000
O O2 0.722069 0.940533 0.730622
O O3 0.733006 0.916143 0.485792
O O4 0.716607 0.000000 0.553725
O O5 0.507353 0.912069 0.261229
O O6 0.425372 0.000000 0.210820
O O7 0.318925 0.936944 0.026604
O O8 0.831110 0.662740 0.619234
O O9 0.772287 0.601367 0.771090
O O10 0.250000 0.250000 0.500000
O O11 0.260814 0.227801 0.729647
O O12 0.500916 0.231661 0.675350
O O13 0.243541 0.702481 0.858314
O O14 0.500000 0.667979 0.000000
O O15 0.374117 0.722121 0.109701
O O16 0.265669 0.643087 0.038360
O O17 0.000000 0.617123 0.000000
#
# Coordination Sequence:
#
# PCOD9181317 Si02
#       7
#     8   8   8   8   8   8   8
#     4   8  15  29  49  76 112 151 185 226 294 373
#     4   9  18  32  55  90 124 152 192 253 317 375
#     4  10  19  32  52  80 118 157 192 244 305 362
#     4  12  25  40  58  83 126 163 210 255 306 362
#     4  11  22  38  63  82 114 158 210 257 301 370
#     4  11  23  40  57  85 110 160 209 258 307 356
#     4  10  20  33  57  89 121 150 191 254 311 368
#
# _framework density 18.895548000000002
#
# number of rings (size 3 to 8) (size 9 to 14) (size 15 to 20)
#    0.000    1.857    2.857    3.429    0.000    7.714 
#    0.000    0.000    0.000    0.429    0.000    0.000 
#    0.000   11.429    0.000    0.000    0.000    0.000 
#
# Total GULP energy -155883.855081 kJ/mol
# GULP energy per Si atom -5567.280539 kJ/mol
# Density = 1.885254 g / cm^3
# Si number density = 18.895548 Si / 1000 Ang^3
#
#
#
# Elastic Constant Matrix: (Units=GPa)
#
#
# Indices 1 2 3 4 5 6 
#
# 1 79.0769 36.5518 32.3828 0.0000 -16.8336 0.0000
# 2 36.5518 116.4235 56.9794 0.0000 -19.7942 0.0000
# 3 32.3828 56.9794 65.9225 0.0000 -11.4341 0.0000
# 4 0.0000 0.0000 0.0000 27.1984 0.0000 -15.0967
# 5 -16.8336 -19.7942 -11.4341 0.0000 23.9280 0.0000
# 6 0.0000 0.0000 0.0000 -15.0967 0.0000 23.2130
#
#
#
# Elastic Compliance Matrix: (Units=1/GPa)
#
#
# Indices 1 2 3 4 5 6 
#
# 1 0.017470 -0.000974 -0.006267 0.000000 0.008490 0.000000
# 2 -0.000974 0.016004 -0.012187 0.000000 0.006730 0.000000
# 3 -0.006267 -0.012187 0.028642 0.000000 -0.000804 0.000000
# 4 0.000000 0.000000 0.000000 0.057537 0.000000 0.037420
# 5 0.008490 0.006730 -0.000804 0.000000 0.052948 0.000000
# 6 0.000000 0.000000 0.000000 0.037420 0.000000 0.067415
#
#
# Mechanical properties :
#
#
# Convention : Reuss Voigt Hill
#
# Bulk Modulus (GPa) = 42.99328 57.02789 50.01058
# Shear Modulus (GPa) = 17.44436 23.90181 20.67309
#
# Velocity S-wave (km/s) = 3.04172 3.56046 3.31126
# Velocity P-wave (km/s) = 5.92778 6.86649 6.41433
#
# Compressibility (1/GPa) = 0.02325945
#
# Stress axis : x y z
#
# Youngs Moduli (GPa) = 57.24132 62.48489 34.91360
#
# Poissons Ratio (x) = 0.06087 0.21881
# Poissons Ratio (y) = 0.05576 0.42549
# Poissons Ratio (z) = 0.35874 0.76150
#
# Static dielectric constant tensor:
#      x y z
#    x 1.606110 0.000000 -0.043270 
#    y 0.000000 1.653060 0.000000 
#    z -0.043270 0.000000 1.744380 
# 
# From -- ./inp_files/124332.got.cif
#   From: 2010.05.17/outbox.cif.g08.bks.cpg/sg12_63_cif.got.tgz:124332.got - 2010.06.03 13:09:07.
