data_PCOD9181511
_publ_section_title
;
Structure prediction by ZEFSAII (Michael W. Deem and Ramdas Pophale) SiO2 
 PCOD9181511
Probable space group: C 2/M
;
_chemical_formula_sum "Si O2"
_cell_formula_units_Z 40
_cell_length_a 13.920336
_cell_length_b 7.698630
_cell_length_c 15.557928
_cell_angle_alpha 90.000000
_cell_angle_beta 87.647084
_cell_angle_gamma 90.000000
_cell_volume 1665.898807
_symmetry_space_group_name_H-M "C 2/M"
_symmetry_group_IT_number 12
_symmetry_cell_setting 'monoclinic'
loop_
_space_group_symop_operation_xyz
x,y,z
-x,y,-z
-x,-y,-z
x,-y,z
1/2+x,1/2+y,z
1/2-x,1/2+y,-z
1/2-x,1/2-y,-z
1/2+x,1/2-y,z
loop_
_atom_site_type_symbol
_atom_site_label
_atom_site_fract_x
_atom_site_fract_y
_atom_site_fract_z
Si Si1 0.880163 0.708960 0.569366
Si Si2 0.208275 0.701853 0.791806
Si Si3 0.461838 0.786757 0.093278
Si Si4 0.422005 0.200253 0.748665
Si Si5 0.160057 0.206327 0.612673
O O1 0.882218 0.500000 0.575611
O O2 0.933557 0.779404 0.652582
O O3 0.901915 0.749126 0.469276
O O4 0.769207 0.769360 0.587107
O O5 0.231796 0.500000 0.801805
O O6 0.145921 0.762858 0.874962
O O7 0.307538 0.798080 0.771181
O O8 0.142718 0.719248 0.708038
O O9 0.527935 0.722807 0.169476
O O10 0.464304 0.000000 0.092270
O O11 0.500000 0.727626 0.000000
O O12 0.453125 0.000000 0.742366
O O13 0.161917 0.000000 0.620454
#
# Coordination Sequence:
#
# PCOD9181511 Si02
#       5
#     8   8   8   8   8
#     4   8  14  25  44  71 100 132 171 208 244 294
#     4  10  19  32  53  79 105 135 172 213 255 302
#     4   9  19  36  56  77 102 134 173 215 259 309
#     4   9  18  34  55  77 104 138 172 209 255 305
#     4   9  16  27  46  72 103 138 171 205 249 300
#
# _framework density 24.011061000000002
#
# number of rings (size 3 to 8) (size 9 to 14) (size 15 to 20)
#    0.000    3.000    0.000    2.400    0.000    5.600 
#    0.000    3.000    0.000   10.200    0.000    0.000 
#    0.000    0.000    0.000    0.000    0.000    0.000 
#
# Total GULP energy -111664.582378 kJ/mol
# GULP energy per Si atom -5583.229119 kJ/mol
# Density = 2.395641 g / cm^3
# Si number density = 24.011061 Si / 1000 Ang^3
#
#
#
# Elastic Constant Matrix: (Units=GPa)
#
#
# Indices 1 2 3 4 5 6 
#
# 1 67.5350 -1.4357 50.3376 0.0000 -7.2489 0.0000
# 2 -1.4357 50.1808 0.7270 0.0000 0.2926 0.0000
# 3 50.3376 0.7270 168.2931 0.0000 -31.2092 0.0000
# 4 0.0000 0.0000 0.0000 15.0390 0.0000 -4.1148
# 5 -7.2489 0.2926 -31.2092 0.0000 43.8234 0.0000
# 6 0.0000 0.0000 0.0000 -4.1148 0.0000 12.1485
#
#
#
# Elastic Compliance Matrix: (Units=1/GPa)
#
#
# Indices 1 2 3 4 5 6 
#
# 1 0.019117 0.000639 -0.005917 0.000000 -0.001056 0.000000
# 2 0.000639 0.019952 -0.000325 0.000000 -0.000259 0.000000
# 3 -0.005917 -0.000325 0.008678 0.000000 0.005204 0.000000
# 4 0.000000 0.000000 0.000000 0.073286 0.000000 0.024823
# 5 -0.001056 -0.000259 0.005204 0.000000 0.026352 0.000000
# 6 0.000000 0.000000 0.000000 0.024823 0.000000 0.090722
#
#
# Mechanical properties :
#
#
# Convention : Reuss Voigt Hill
#
# Bulk Modulus (GPa) = 27.36605 42.80742 35.08673
# Shear Modulus (GPa) = 19.12084 29.96084 24.54084
#
# Velocity S-wave (km/s) = 2.82500 3.53624 3.20044
# Velocity P-wave (km/s) = 4.69711 5.87710 5.31992
#
# Compressibility (1/GPa) = 0.03654163
#
# Stress axis : x y z
#
# Youngs Moduli (GPa) = 52.30829 50.11916 115.23221
#
# Poissons Ratio (x) = -0.03202 0.68179
# Poissons Ratio (y) = -0.03342 0.03749
# Poissons Ratio (z) = 0.30949 0.01631
#
# Static dielectric constant tensor:
#      x y z
#    x 1.992330 0.000000 0.006860 
#    y 0.000000 1.840490 0.000000 
#    z 0.006860 0.000000 1.934620 
# 
# From -- ./inp_files/211335.got.cif
#   From: 2010.05.17/outbox.cif.g08.bks.cpg/sg12_106_cif.got.tgz:211335.got - 2010.06.03 13:09:07.
