data_PCOD9181758
_publ_section_title
;
Structure prediction by ZEFSAII (Michael W. Deem and Ramdas Pophale) SiO2 
 PCOD9181758
Probable space group: C 2/M
;
_chemical_formula_sum "Si O2"
_cell_formula_units_Z 48
_cell_length_a 19.925156
_cell_length_b 8.620549
_cell_length_c 22.788633
_cell_angle_alpha 90.000000
_cell_angle_beta 43.834403
_cell_angle_gamma 90.000000
_cell_volume 2710.957036
_symmetry_space_group_name_H-M "C 2/M"
_symmetry_group_IT_number 12
_symmetry_cell_setting 'monoclinic'
loop_
_space_group_symop_operation_xyz
x,y,z
-x,y,-z
-x,-y,-z
x,-y,z
1/2+x,1/2+y,z
1/2-x,1/2+y,-z
1/2-x,1/2-y,-z
1/2+x,1/2-y,z
loop_
_atom_site_type_symbol
_atom_site_label
_atom_site_fract_x
_atom_site_fract_y
_atom_site_fract_z
Si Si1 0.027975 0.685889 0.280647
Si Si2 0.708069 0.812629 0.244324
Si Si3 0.429969 0.311153 0.095678
Si Si4 0.778949 0.185609 0.636971
Si Si5 0.847974 0.186312 0.467686
Si Si6 0.062198 0.814036 0.776611
O O1 0.025903 0.500000 0.279535
O O2 0.939962 0.743741 0.376830
O O3 0.009148 0.751109 0.227775
O O4 0.128397 0.736236 0.247344
O O5 0.817789 0.762514 0.159938
O O6 0.684667 0.750405 0.324002
O O7 0.708157 0.000000 0.247102
O O8 0.430575 0.500000 0.093453
O O9 0.462196 0.267020 0.141157
O O10 0.500000 0.254877 0.000000
O O11 0.842508 0.227048 0.540123
O O12 0.670506 0.251379 0.695994
O O13 0.773073 0.000000 0.643789
O O14 0.750000 0.250000 0.500000
O O15 0.849572 0.000000 0.461108
O O16 0.065414 0.000000 0.771854
#
# Coordination Sequence:
#
# PCOD9181758 Si02
#       6
#     8   8   8   8   8   8
#     4  11  22  35  51  75 109 144 178 219 263 307
#     4   9  20  36  54  77 106 141 176 214 266 317
#     4   8  15  32  58  82 101 129 174 219 259 315
#     4  10  20  34  53  76 103 137 177 222 263 306
#     4  11  22  34  52  77 105 140 182 223 261 306
#     4  10  19  32  54  79 104 138 177 215 262 318
#
# _framework density 17.705922999999999
#
# number of rings (size 3 to 8) (size 9 to 14) (size 15 to 20)
#    0.000    2.167    1.667    3.000    0.000    4.000 
#    0.000    4.167    0.000   12.500    0.000    0.000 
#    0.000    0.000    0.000    0.000    0.000    0.000 
#
# Total GULP energy -133927.859157 kJ/mol
# GULP energy per Si atom -5580.327465 kJ/mol
# Density = 1.766562 g / cm^3
# Si number density = 17.705923 Si / 1000 Ang^3
#
#
#
# Elastic Constant Matrix: (Units=GPa)
#
#
# Indices 1 2 3 4 5 6 
#
# 1 173.6617 31.5117 80.4793 0.0000 16.9229 0.0000
# 2 31.5117 25.2504 24.0775 -0.0002 4.5371 0.0003
# 3 80.4793 24.0775 136.4853 0.0000 19.6943 0.0000
# 4 0.0000 -0.0002 0.0000 16.3259 0.0001 5.9545
# 5 16.9229 4.5371 19.6943 0.0001 18.1293 -0.0001
# 6 0.0000 0.0003 0.0000 5.9545 -0.0001 27.7912
#
#
#
# Elastic Compliance Matrix: (Units=1/GPa)
#
#
# Indices 1 2 3 4 5 6 
#
# 1 0.009038 -0.007318 -0.003659 0.000000 -0.002631 0.000000
# 2 -0.007318 0.053705 -0.004987 0.000001 -0.001192 -0.000001
# 3 -0.003659 -0.004987 0.011493 0.000000 -0.007821 0.000000
# 4 0.000000 0.000001 0.000000 0.066445 0.000000 -0.014236
# 5 -0.002631 -0.001192 -0.007821 0.000000 0.066410 0.000000
# 6 0.000000 -0.000001 0.000000 -0.014236 0.000000 0.039033
#
#
# Mechanical properties :
#
#
# Convention : Reuss Voigt Hill
#
# Bulk Modulus (GPa) = 23.63599 67.50381 45.56990
# Shear Modulus (GPa) = 17.11426 25.73786 21.42606
#
# Velocity S-wave (km/s) = 3.11237 3.81679 3.48243
# Velocity P-wave (km/s) = 5.12776 7.59155 6.47787
#
# Compressibility (1/GPa) = 0.04230837
#
# Stress axis : x y z
#
# Youngs Moduli (GPa) = 110.64264 18.62014 87.01213
#
# Poissons Ratio (x) = 0.13626 0.31837
# Poissons Ratio (y) = 0.80965 0.43396
# Poissons Ratio (z) = 0.40483 0.09286
#
# Static dielectric constant tensor:
#      x y z
#    x 1.604930 0.000000 0.016980 
#    y 0.000000 1.601600 0.000000 
#    z 0.016980 0.000000 1.592780 
# 
# From -- ./inp_files/249360.got.cif
#   From: 2010.05.17/outbox.cif.g08.bks.cpg/sg12_125_cif.got.tgz:249360.got - 2010.06.03 13:09:07.
