data_PCOD9181388
_publ_section_title
;
Structure prediction by ZEFSAII (Michael W. Deem and Ramdas Pophale) SiO2 
 PCOD9181388
Probable space group: C 2/M
;
_chemical_formula_sum "Si O2"
_cell_formula_units_Z 56
_cell_length_a 21.508704
_cell_length_b 15.750062
_cell_length_c 9.359538
_cell_angle_alpha 90.000000
_cell_angle_beta 130.934138
_cell_angle_gamma 90.000000
_cell_volume 2395.323923
_symmetry_space_group_name_H-M "C 2/M"
_symmetry_group_IT_number 12
_symmetry_cell_setting 'monoclinic'
loop_
_space_group_symop_operation_xyz
x,y,z
-x,y,-z
-x,-y,-z
x,-y,z
1/2+x,1/2+y,z
1/2-x,1/2+y,-z
1/2-x,1/2-y,-z
1/2+x,1/2-y,z
loop_
_atom_site_type_symbol
_atom_site_label
_atom_site_fract_x
_atom_site_fract_y
_atom_site_fract_z
Si Si1 0.580937 0.599797 0.276085
Si Si2 0.248185 0.099047 0.979406
Si Si3 0.814406 0.659866 0.471516
Si Si4 0.840983 0.903259 0.896548
Si Si5 0.567779 0.093218 0.729322
Si Si6 0.016145 0.250234 0.356593
Si Si7 0.246390 0.656159 0.333986
O O1 0.558879 0.500000 0.246280
O O2 0.599280 0.627673 0.139844
O O3 0.523315 0.664881 0.275387
O O4 0.669681 0.611297 0.486332
O O5 0.178693 0.138335 0.978652
O O6 0.339196 0.102126 0.184641
O O7 0.227391 0.000000 0.929339
O O8 0.260292 0.136251 0.841396
O O9 0.751645 0.592868 0.309332
O O10 0.899388 0.695722 0.538182
O O11 0.822221 0.634952 0.650584
O O12 0.757782 0.743478 0.366700
O O13 0.867964 0.000000 0.963359
O O14 0.500000 0.091707 0.500000
O O15 0.549816 0.178799 0.788900
O O16 0.562245 0.000000 0.792491
O O17 0.000000 0.229649 0.500000
#
# Coordination Sequence:
#
# PCOD9181388 Si02
#       7
#     8   8   8   8   8   8   8
#     4   9  18  33  53  79 111 145 181 227 284 338
#     4  10  19  32  55  86 112 137 177 230 286 339
#     4   9  18  33  52  77 107 141 177 220 282 344
#     4   9  17  30  50  77 107 138 174 218 274 335
#     4   9  18  33  53  78 109 145 186 230 277 335
#     4  10  19  32  53  76 104 144 193 231 260 324
#     4   9  18  33  54  80 110 135 171 230 289 340
#
# _framework density 23.378883999999999
#
# number of rings (size 3 to 8) (size 9 to 14) (size 15 to 20)
#    0.000    2.714    0.000    3.000    0.000    3.143 
#    0.000    0.714    0.000    5.143    0.000    1.000 
#    0.000   32.000    0.000    0.000    0.000    0.286 
#
# Total GULP energy -155934.103343 kJ/mol
# GULP energy per Si atom -5569.075119 kJ/mol
# Density = 2.332567 g / cm^3
# Si number density = 23.378884 Si / 1000 Ang^3
#
#
#
# Elastic Constant Matrix: (Units=GPa)
#
#
# Indices 1 2 3 4 5 6 
#
# 1 165.8810 56.3456 55.2325 0.0000 -41.9723 0.0000
# 2 56.3456 128.2726 16.4121 0.0000 -10.7238 0.0000
# 3 55.2325 16.4121 82.5226 0.0000 -25.7377 0.0000
# 4 0.0000 0.0000 0.0000 14.1485 0.0000 -2.2444
# 5 -41.9723 -10.7238 -25.7377 0.0000 39.1004 0.0000
# 6 0.0000 0.0000 0.0000 -2.2444 0.0000 23.6419
#
#
#
# Elastic Compliance Matrix: (Units=1/GPa)
#
#
# Indices 1 2 3 4 5 6 
#
# 1 0.010447 -0.003446 -0.003906 0.000000 0.007699 0.000000
# 2 -0.003446 0.009201 0.000138 0.000000 -0.001084 0.000000
# 3 -0.003906 0.000138 0.016873 0.000000 0.006951 0.000000
# 4 0.000000 0.000000 0.000000 0.071759 0.000000 0.006812
# 5 0.007699 -0.001084 0.006951 0.000000 0.038117 0.000000
# 6 0.000000 0.000000 0.000000 0.006812 0.000000 0.042945
#
#
# Mechanical properties :
#
#
# Convention : Reuss Voigt Hill
#
# Bulk Modulus (GPa) = 45.26142 70.29517 57.77829
# Shear Modulus (GPa) = 23.68155 31.95724 27.81939
#
# Velocity S-wave (km/s) = 3.18613 3.70121 3.45329
# Velocity P-wave (km/s) = 5.73910 6.95689 6.37713
#
# Compressibility (1/GPa) = 0.02209387
#
# Stress axis : x y z
#
# Youngs Moduli (GPa) = 95.71773 108.68180 59.26701
#
# Poissons Ratio (x) = 0.37449 0.23150
# Poissons Ratio (y) = 0.32982 -0.00819
# Poissons Ratio (z) = 0.37388 -0.01501
#
# Static dielectric constant tensor:
#      x y z
#    x 1.976340 0.000000 -0.038610 
#    y 0.000000 1.924250 0.000000 
#    z -0.038610 0.000000 1.962900 
# 
# From -- ./inp_files/88094.got.cif
#   From: 2010.05.17/outbox.cif.g08.bks.cpg/sg12_45_cif.got.tgz:88094.got - 2010.06.03 13:09:07.
