data_PCOD9181472
_publ_section_title
;
Structure prediction by ZEFSAII (Michael W. Deem and Ramdas Pophale) SiO2 
 PCOD9181472
Probable space group: C 2/M
;
_chemical_formula_sum "Si O2"
_cell_formula_units_Z 64
_cell_length_a 31.664515
_cell_length_b 7.340946
_cell_length_c 11.622232
_cell_angle_alpha 90.000000
_cell_angle_beta 96.978406
_cell_angle_gamma 90.000000
_cell_volume 2681.545597
_symmetry_space_group_name_H-M "C 2/M"
_symmetry_group_IT_number 12
_symmetry_cell_setting 'monoclinic'
loop_
_space_group_symop_operation_xyz
x,y,z
-x,y,-z
-x,-y,-z
x,-y,z
1/2+x,1/2+y,z
1/2-x,1/2+y,-z
1/2-x,1/2-y,-z
1/2+x,1/2-y,z
loop_
_atom_site_type_symbol
_atom_site_label
_atom_site_fract_x
_atom_site_fract_y
_atom_site_fract_z
Si Si1 0.484737 0.709188 0.663746
Si Si2 0.184030 0.790237 0.411107
Si Si3 0.419334 0.279049 0.278710
Si Si4 0.792387 0.282530 0.086105
Si Si5 0.459005 0.778858 0.911871
Si Si6 0.378967 0.206757 0.022455
Si Si7 0.730249 0.778214 0.666527
Si Si8 0.400878 0.722970 0.520171
O O1 0.490571 0.500000 0.628944
O O2 0.532150 0.785182 0.687112
O O3 0.465806 0.715934 0.785114
O O4 0.447745 0.787005 0.571661
O O5 0.221066 0.715323 0.341423
O O6 0.203418 0.783843 0.546984
O O7 0.136854 0.711346 0.409630
O O8 0.178631 0.000000 0.374445
O O9 0.419412 0.500000 0.268170
O O10 0.400412 0.203848 0.155605
O O11 0.393520 0.229064 0.384675
O O12 0.798933 0.500000 0.098104
O O13 0.833024 0.208063 0.030426
O O14 0.787029 0.216534 0.215682
O O15 0.750000 0.250000 0.000000
O O16 0.458648 0.000000 0.913713
O O17 0.500000 0.721228 0.000000
O O18 0.414786 0.712241 0.951449
O O19 0.372028 0.000000 0.978604
O O20 0.730193 0.000000 0.663792
O O21 0.401166 0.500000 0.525793
#
# Coordination Sequence:
#
# PCOD9181472 Si02
#       8
#     8   8   8   8   8   8   8   8
#     4  10  20  33  52  77 105 136 172 216 260 305
#     4   9  17  31  53  76  99 133 171 204 250 313
#     4  10  19  32  53  78 104 135 174 214 255 307
#     4  10  22  38  55  77 107 139 173 216 263 311
#     4  10  20  36  55  73 101 139 176 216 261 308
#     4  10  21  37  56  77 103 139 177 215 263 310
#     4   9  18  33  52  75 102 130 165 212 260 300
#     4   9  18  32  49  74 107 137 165 205 259 309
#
# _framework density 23.866833
#
# number of rings (size 3 to 8) (size 9 to 14) (size 15 to 20)
#    0.000    2.375    1.250    1.125    0.000    4.250 
#    0.000    2.500    0.000    1.500    0.000    0.000 
#    0.000    0.000    0.000    0.000    0.000    0.000 
#
# Total GULP energy -178827.032937 kJ/mol
# GULP energy per Si atom -5588.344779 kJ/mol
# Density = 2.381251 g / cm^3
# Si number density = 23.866833 Si / 1000 Ang^3
#
#
#
# Elastic Constant Matrix: (Units=GPa)
#
#
# Indices 1 2 3 4 5 6 
#
# 1 157.6806 -0.4612 13.5640 0.0000 -27.2554 0.0000
# 2 -0.4612 96.8218 -9.4464 0.0000 -7.3315 0.0000
# 3 13.5640 -9.4464 75.5960 0.0000 -23.3334 0.0000
# 4 0.0000 0.0000 0.0000 19.8260 0.0000 3.5626
# 5 -27.2554 -7.3315 -23.3334 0.0000 39.0058 0.0000
# 6 0.0000 0.0000 0.0000 3.5626 0.0000 -4.2221
#
#
#
# Elastic Compliance Matrix: (Units=1/GPa)
#
#
# Indices 1 2 3 4 5 6 
#
# 1 0.007241 0.000486 0.000431 0.000000 0.005409 0.000000
# 2 0.000486 0.010862 0.002459 0.000000 0.003852 0.000000
# 3 0.000431 0.002459 0.016795 0.000000 0.010810 0.000000
# 4 0.000000 0.000000 0.000000 0.043798 0.000000 0.036956
# 5 0.005409 0.003852 0.010810 0.000000 0.036608 0.000000
# 6 0.000000 0.000000 0.000000 0.036956 0.000000 -0.205667
#
#
# Mechanical properties :
#
#
# Convention : Reuss Voigt Hill
#
# Bulk Modulus (GPa) = 24.00904 37.49012 30.74958
# Shear Modulus (GPa) = -60.07283 32.68475 -13.69404
#
# Velocity S-wave (km/s) = -5.02241 3.70464 -2.39795
# Velocity P-wave (km/s) = 4.85298 5.83449 2.29018
#
# Compressibility (1/GPa) = 0.04165098
#
# Stress axis : x y z
#
# Youngs Moduli (GPa) = 138.09778 92.06227 59.54218
#
# Poissons Ratio (x) = -0.04475 -0.02566
# Poissons Ratio (y) = -0.06713 -0.14643
# Poissons Ratio (z) = -0.05952 -0.22640
#
# Static dielectric constant tensor:
#      x y z
#    x 1.936300 0.000000 -0.026810 
#    y 0.000000 1.887290 0.000000 
#    z -0.026810 0.000000 1.841300 
# 
# From -- ./inp_files/187446.got.cif
#   From: 2010.05.17/outbox.cif.g08.bks.cpg/sg12_94_cif.got.tgz:187446.got - 2010.06.03 13:09:07.
