data_PCOD9181118
_publ_section_title
;
Structure prediction by ZEFSAII (Michael W. Deem and Ramdas Pophale) SiO2 
 PCOD9181118
Probable space group: C 2/M
;
_chemical_formula_sum "Si O2"
_cell_formula_units_Z 52
_cell_length_a 21.805397
_cell_length_b 13.353760
_cell_length_c 11.190535
_cell_angle_alpha 90.000000
_cell_angle_beta 115.919605
_cell_angle_gamma 90.000000
_cell_volume 2930.726483
_symmetry_space_group_name_H-M "C 2/M"
_symmetry_group_IT_number 12
_symmetry_cell_setting 'monoclinic'
loop_
_space_group_symop_operation_xyz
x,y,z
-x,y,-z
-x,-y,-z
x,-y,z
1/2+x,1/2+y,z
1/2-x,1/2+y,-z
1/2-x,1/2-y,-z
1/2+x,1/2-y,z
loop_
_atom_site_type_symbol
_atom_site_label
_atom_site_fract_x
_atom_site_fract_y
_atom_site_fract_z
Si Si1 0.000000 0.679214 0.000000
Si Si2 0.942840 0.386049 0.591244
Si Si3 0.173171 0.881458 0.912973
Si Si4 0.231209 0.746976 0.171414
Si Si5 0.645284 0.885553 0.717831
Si Si6 0.558171 0.758725 0.802252
Si Si7 0.364308 0.110362 0.761025
O O1 0.967590 0.738914 0.083703
O O2 0.062444 0.617949 0.110030
O O3 0.972735 0.500000 0.631898
O O4 0.912361 0.379678 0.433384
O O5 0.882294 0.379818 0.636798
O O6 0.994538 0.297760 0.669962
O O7 0.230841 0.840173 0.871842
O O8 0.098207 0.843233 0.807694
O O9 0.176453 0.000000 0.930613
O O10 0.188396 0.818718 0.046577
O O11 0.292226 0.816939 0.269205
O O12 0.183801 0.696002 0.228765
O O13 0.615453 0.842073 0.816461
O O14 0.666102 0.000000 0.750185
O O15 0.335039 0.000000 0.758121
#
# Coordination Sequence:
#
# PCOD9181118 Si02
#       7
#     4   8   8   8   8   8   8
#     4  10  19  34  49  78 104 132 171 208 263 312
#     4   9  19  34  54  80 106 134 172 216 259 302
#     4  10  20  35  52  76 107 138 174 210 254 312
#     4  10  20  34  52  78 104 140 171 212 257 303
#     4  10  20  34  54  79 105 137 175 212 256 304
#     4  10  19  33  55  76 107 134 167 217 261 303
#     4  10  19  32  52  76 107 136 168 214 260 304
#
# _framework density 17.743040000000001
#
# number of rings (size 3 to 8) (size 9 to 14) (size 15 to 20)
#    0.000    2.154    1.538    2.077    0.000    3.692 
#    0.000    0.385    0.000    8.308    0.000    0.000 
#    0.000    0.000    0.000    0.000    0.000    0.000 
#
# Total GULP energy -144898.268295 kJ/mol
# GULP energy per Si atom -5573.010319 kJ/mol
# Density = 1.770266 g / cm^3
# Si number density = 17.743040 Si / 1000 Ang^3
#
#
#
# Elastic Constant Matrix: (Units=GPa)
#
#
# Indices 1 2 3 4 5 6 
#
# 1 96.6034 54.3716 23.1279 0.0000 -10.8659 0.0000
# 2 54.3716 126.5309 23.6729 0.0000 0.1610 0.0000
# 3 23.1279 23.6729 43.5004 0.0000 -3.8168 0.0000
# 4 0.0000 0.0000 0.0000 17.0878 0.0000 3.2449
# 5 -10.8659 0.1610 -3.8168 0.0000 29.4827 0.0000
# 6 0.0000 0.0000 0.0000 3.2449 0.0000 23.4433
#
#
#
# Elastic Compliance Matrix: (Units=1/GPa)
#
#
# Indices 1 2 3 4 5 6 
#
# 1 0.015212 -0.005692 -0.004547 0.000000 0.005049 0.000000
# 2 -0.005692 0.010943 -0.003154 0.000000 -0.002566 0.000000
# 3 -0.004547 -0.003154 0.027286 0.000000 0.001874 0.000000
# 4 0.000000 0.000000 0.000000 0.060101 0.000000 -0.008319
# 5 0.005049 -0.002566 0.001874 0.000000 0.036036 0.000000
# 6 0.000000 0.000000 0.000000 -0.008319 0.000000 0.043808
#
#
# Mechanical properties :
#
#
# Convention : Reuss Voigt Hill
#
# Bulk Modulus (GPa) = 37.51646 52.10882 44.81264
# Shear Modulus (GPa) = 21.82872 25.03358 23.43115
#
# Velocity S-wave (km/s) = 3.51132 3.76026 3.63792
# Velocity P-wave (km/s) = 6.13428 6.94875 6.55418
#
# Compressibility (1/GPa) = 0.02665497
#
# Stress axis : x y z
#
# Youngs Moduli (GPa) = 65.73760 91.38609 36.64840
#
# Poissons Ratio (x) = 0.52021 0.16664
# Poissons Ratio (y) = 0.37421 0.11557
# Poissons Ratio (z) = 0.29890 0.28819
#
# Static dielectric constant tensor:
#      x y z
#    x 1.639150 0.000000 0.020240 
#    y 0.000000 1.585040 0.000000 
#    z 0.020240 0.000000 1.640070 
# 
# From -- ./inp_files/165772.got.cif
#   From: 2010.05.17/outbox.cif.g08.bks.cpg/sg12_83_cif.got.tgz:165772.got - 2010.06.03 13:09:07.
