data_PCOD9181959
_publ_section_title
;
Structure prediction by ZEFSAII (Michael W. Deem and Ramdas Pophale) SiO2 
 PCOD9181959
Probable space group: C 2/M
;
_chemical_formula_sum "Si O2"
_cell_formula_units_Z 64
_cell_length_a 11.820974
_cell_length_b 23.223672
_cell_length_c 24.699090
_cell_angle_alpha 90.000000
_cell_angle_beta 154.391578
_cell_angle_gamma 90.000000
_cell_volume 2930.679056
_symmetry_space_group_name_H-M "C 2/M"
_symmetry_group_IT_number 12
_symmetry_cell_setting 'monoclinic'
loop_
_space_group_symop_operation_xyz
x,y,z
-x,y,-z
-x,-y,-z
x,-y,z
1/2+x,1/2+y,z
1/2-x,1/2+y,-z
1/2-x,1/2-y,-z
1/2+x,1/2-y,z
loop_
_atom_site_type_symbol
_atom_site_label
_atom_site_fract_x
_atom_site_fract_y
_atom_site_fract_z
Si Si1 0.186968 0.359913 0.954962
Si Si2 0.484973 0.066049 0.222267
Si Si3 0.432156 0.753902 0.159230
Si Si4 0.654675 0.433942 0.191213
Si Si5 0.215260 0.334930 0.366860
Si Si6 0.333409 0.335277 0.202085
Si Si7 0.251651 0.067312 0.354848
Si Si8 0.502586 0.236154 0.645004
O O1 0.138601 0.402290 0.882822
O O2 0.234349 0.295286 0.952139
O O3 0.927495 0.355044 0.879480
O O4 0.425541 0.387311 0.089818
O O5 0.306928 0.069911 0.199593
O O6 0.736679 0.102683 0.349578
O O7 0.535396 0.000000 0.231725
O O8 0.540614 0.799338 0.249951
O O9 0.292523 0.702381 0.130041
O O10 0.707696 0.732554 0.254050
O O11 0.548127 0.500000 0.146433
O O12 0.805287 0.427615 0.313383
O O13 0.500000 0.309417 0.500000
O O14 0.061870 0.325101 0.355801
O O15 0.518664 0.389182 0.269247
O O16 0.476127 0.289535 0.303740
O O17 0.500000 0.080854 0.500000
O O18 0.182071 0.000000 0.334791
O O19 0.250000 0.250000 0.500000
#
# Coordination Sequence:
#
# PCOD9181959 Si02
#       8
#     8   8   8   8   8   8   8   8
#     4  10  21  42  68  97 131 167 229 281 324 395
#     4  10  22  39  62  95 131 170 223 277 334 400
#     4   9  20  37  57  94 131 167 217 272 332 388
#     4  10  22  43  72  97 126 181 230 270 337 409
#     4  10  19  32  54  86 125 163 215 269 323 393
#     4  10  23  38  65  99 132 176 219 275 340 394
#     4  10  24  44  66  98 136 173 224 279 332 400
#     4  10  19  32  60  89 123 174 223 268 318 398
#
# _framework density 21.837942999999999
#
# number of rings (size 3 to 8) (size 9 to 14) (size 15 to 20)
#    0.000    2.125    1.250    0.750    3.500    2.750 
#    0.000    1.875    8.250    0.000    0.000    0.000 
#    0.000    0.000    0.000    0.000    0.000    0.000 
#
# Total GULP energy -178610.814257 kJ/mol
# GULP energy per Si atom -5581.587946 kJ/mol
# Density = 2.178824 g / cm^3
# Si number density = 21.837943 Si / 1000 Ang^3
#
#
#
# Elastic Constant Matrix: (Units=GPa)
#
#
# Indices 1 2 3 4 5 6 
#
# 1 101.1603 49.7034 26.1623 -0.0562 -12.0098 0.0285
# 2 49.7034 116.5801 47.3078 -0.0022 -15.0189 0.0008
# 3 26.1623 47.3078 90.8333 -0.2616 -17.9248 0.0995
# 4 -0.0562 -0.0022 -0.2616 248.5795 0.0360 -116.2829
# 5 -12.0098 -15.0189 -17.9248 0.0360 19.3867 -0.0164
# 6 0.0285 0.0008 0.0995 -116.2829 -0.0164 92.9457
#
#
#
# Elastic Compliance Matrix: (Units=1/GPa)
#
#
# Indices 1 2 3 4 5 6 
#
# 1 0.012805 -0.004789 -0.000441 0.000001 0.003815 -0.000001
# 2 -0.004789 0.012914 -0.004841 -0.000008 0.002562 -0.000003
# 3 -0.000441 -0.004841 0.015734 0.000019 0.010524 0.000009
# 4 0.000001 -0.000008 0.000019 0.009699 0.000005 0.012135
# 5 0.003815 0.002562 0.010524 0.000005 0.065660 0.000005
# 6 -0.000001 -0.000003 0.000009 0.012135 0.000005 0.025940
#
#
# Mechanical properties :
#
#
# Convention : Reuss Voigt Hill
#
# Bulk Modulus (GPa) = 46.92355 61.65785 54.29070
# Shear Modulus (GPa) = 29.41175 84.54241 56.97708
#
# Velocity S-wave (km/s) = 3.67388 6.22877 5.11346
# Velocity P-wave (km/s) = 6.28732 8.94571 7.73163
#
# Compressibility (1/GPa) = 0.02131126
#
# Stress axis : x y z
#
# Youngs Moduli (GPa) = 78.09275 77.43494 63.55490
#
# Poissons Ratio (x) = 0.37083 0.02804
# Poissons Ratio (y) = 0.37398 0.30767
# Poissons Ratio (z) = 0.03446 0.37486
#
# Static dielectric constant tensor:
#      x y z
#    x 1.829460 0.000000 -0.004960 
#    y 0.000000 1.832730 -0.000020 
#    z -0.004960 -0.000020 1.632130 
# 
# From -- ./inp_files/337122.got.cif
#   From: 2010.05.17/outbox.cif.g08.bks.cpg/sg12_169_cif.got.tgz:337122.got - 2010.06.03 13:09:07.
