data_PCOD9181986
_publ_section_title
;
Structure prediction by ZEFSAII (Michael W. Deem and Ramdas Pophale) SiO2 
 PCOD9181986
Probable space group: C 2/M
;
_chemical_formula_sum "Si O2"
_cell_formula_units_Z 64
_cell_length_a 20.758856
_cell_length_b 7.662513
_cell_length_c 16.829194
_cell_angle_alpha 90.000000
_cell_angle_beta 103.042106
_cell_angle_gamma 90.000000
_cell_volume 2607.882880
_symmetry_space_group_name_H-M "C 2/M"
_symmetry_group_IT_number 12
_symmetry_cell_setting 'monoclinic'
loop_
_space_group_symop_operation_xyz
x,y,z
-x,y,-z
-x,-y,-z
x,-y,z
1/2+x,1/2+y,z
1/2-x,1/2+y,-z
1/2-x,1/2-y,-z
1/2+x,1/2-y,z
loop_
_atom_site_type_symbol
_atom_site_label
_atom_site_fract_x
_atom_site_fract_y
_atom_site_fract_z
Si Si1 0.578862 0.298553 0.026152
Si Si2 0.288522 0.792258 0.404697
Si Si3 0.659717 0.198789 0.195750
Si Si4 0.197590 0.706511 0.773089
Si Si5 0.081659 0.202204 0.855719
Si Si6 0.000564 0.214731 0.307725
Si Si7 0.645392 0.699046 0.369195
Si Si8 0.431477 0.709519 0.442082
O O1 0.601532 0.500000 0.038262
O O2 0.599122 0.220727 0.946197
O O3 0.500000 0.294477 0.000000
O O4 0.604885 0.212523 0.113125
O O5 0.299246 0.726305 0.317101
O O6 0.217030 0.721185 0.413728
O O7 0.361598 0.763135 0.460482
O O8 0.278740 0.000000 0.398633
O O9 0.728480 0.258930 0.176079
O O10 0.649350 0.306842 0.273421
O O11 0.665361 0.000000 0.224416
O O12 0.184587 0.500000 0.767304
O O13 0.144022 0.792004 0.814741
O O14 0.021371 0.275221 0.785679
O O15 0.063831 0.000000 0.866941
O O16 0.072008 0.276814 0.358217
O O17 0.943475 0.265776 0.354168
O O18 0.003068 0.000000 0.307477
O O19 0.642663 0.500000 0.399435
O O20 0.500000 0.769536 0.500000
O O21 0.431705 0.500000 0.444437
#
# Coordination Sequence:
#
# PCOD9181986 Si02
#       8
#     8   8   8   8   8   8   8   8
#     4  10  21  37  55  74 102 142 185 224 271 331
#     4   9  18  33  54  79 106 142 181 221 269 322
#     4  11  22  35  53  78 109 141 178 226 279 324
#     4  10  20  35  55  78 105 141 181 222 271 325
#     4  10  19  32  55  81 102 136 184 230 271 311
#     4   9  17  33  57  82 108 141 183 225 265 323
#     4   9  18  35  58  80 106 145 190 226 267 323
#     4  10  20  34  56  84 112 143 178 220 269 322
#
# _framework density 24.540979
#
# number of rings (size 3 to 8) (size 9 to 14) (size 15 to 20)
#    0.000    2.250    1.250    3.000    0.000    5.500 
#    0.000    3.125    0.000    0.000    0.000    0.000 
#    0.000    0.000    0.000    0.000    0.000    0.000 
#
# Total GULP energy -178722.598277 kJ/mol
# GULP energy per Si atom -5585.081196 kJ/mol
# Density = 2.448512 g / cm^3
# Si number density = 24.540979 Si / 1000 Ang^3
#
#
#
# Elastic Constant Matrix: (Units=GPa)
#
#
# Indices 1 2 3 4 5 6 
#
# 1 164.7339 -3.8854 29.6500 0.0000 15.9589 0.0000
# 2 -3.8854 65.3919 3.3050 0.0000 -2.4173 0.0000
# 3 29.6500 3.3050 94.0596 0.0000 15.5081 0.0000
# 4 0.0000 0.0000 0.0000 4.6199 0.0000 -4.7259
# 5 15.9589 -2.4173 15.5081 0.0000 44.6716 0.0000
# 6 0.0000 0.0000 0.0000 -4.7259 0.0000 11.2790
#
#
#
# Elastic Compliance Matrix: (Units=1/GPa)
#
#
# Indices 1 2 3 4 5 6 
#
# 1 0.006570 0.000419 -0.001806 0.000000 -0.001697 0.000000
# 2 0.000419 0.015395 -0.000833 0.000000 0.000973 0.000000
# 3 -0.001806 -0.000833 0.011807 0.000000 -0.003499 0.000000
# 4 0.000000 0.000000 0.000000 0.378819 0.000000 0.158725
# 5 -0.001697 0.000973 -0.003499 0.000000 0.024259 0.000000
# 6 0.000000 0.000000 0.000000 0.158725 0.000000 0.155166
#
#
# Mechanical properties :
#
#
# Convention : Reuss Voigt Hill
#
# Bulk Modulus (GPa) = 34.09309 42.48051 38.28680
# Shear Modulus (GPa) = 8.24764 31.78850 20.01807
#
# Velocity S-wave (km/s) = 1.83523 3.60296 2.85914
# Velocity P-wave (km/s) = 4.29106 5.88694 5.15118
#
# Compressibility (1/GPa) = 0.02933146
#
# Stress axis : x y z
#
# Youngs Moduli (GPa) = 152.21301 64.95458 84.69591
#
# Poissons Ratio (x) = -0.02721 0.15294
# Poissons Ratio (y) = -0.06376 0.07058
# Poissons Ratio (z) = 0.27487 0.05413
#
# Static dielectric constant tensor:
#      x y z
#    x 1.961590 0.000000 0.013400 
#    y 0.000000 1.942300 0.000000 
#    z 0.013400 0.000000 2.041360 
# 
# From -- ./inp_files/320141.got.cif
#   From: 2010.05.17/outbox.cif.g08.bks.cpg/sg12_161_cif.got.tgz:320141.got - 2010.06.03 13:09:07.
