data_PCOD9181218
_publ_section_title
;
Structure prediction by ZEFSAII (Michael W. Deem and Ramdas Pophale) SiO2 
 PCOD9181218
Probable space group: C 2/M
;
_chemical_formula_sum "Si O2"
_cell_formula_units_Z 64
_cell_length_a 19.028709
_cell_length_b 9.607277
_cell_length_c 33.069942
_cell_angle_alpha 90.000000
_cell_angle_beta 142.915634
_cell_angle_gamma 90.000000
_cell_volume 3645.469088
_symmetry_space_group_name_H-M "C 2/M"
_symmetry_group_IT_number 12
_symmetry_cell_setting 'monoclinic'
loop_
_space_group_symop_operation_xyz
x,y,z
-x,y,-z
-x,-y,-z
x,-y,z
1/2+x,1/2+y,z
1/2-x,1/2+y,-z
1/2-x,1/2-y,-z
1/2+x,1/2-y,z
loop_
_atom_site_type_symbol
_atom_site_label
_atom_site_fract_x
_atom_site_fract_y
_atom_site_fract_z
Si Si1 0.288688 0.834969 0.978399
Si Si2 0.159410 0.661936 0.298185
Si Si3 0.934383 0.165305 0.429243
Si Si4 0.564389 0.162653 0.102525
Si Si5 0.938164 0.338840 0.352821
Si Si6 0.656365 0.339047 0.219683
Si Si7 0.770997 0.833989 0.138031
Si Si8 0.465956 0.165132 0.275556
O O1 0.226703 0.792208 0.908014
O O2 0.267482 0.000000 0.975032
O O3 0.250000 0.750000 0.000000
O O4 0.426862 0.817299 0.034140
O O5 0.148707 0.500000 0.280579
O O6 0.295394 0.688100 0.369550
O O7 0.119035 0.760484 0.243305
O O8 0.080495 0.682642 0.301129
O O9 0.973203 0.246375 0.406995
O O10 0.000000 0.210279 0.500000
O O11 0.046548 0.000000 0.567172
O O12 0.608467 0.259771 0.158819
O O13 0.643352 0.188729 0.099256
O O14 0.583121 0.000000 0.122105
O O15 0.970132 0.500000 0.374331
O O16 0.797322 0.332505 0.284008
O O17 0.984598 0.291886 0.330528
O O18 0.620747 0.500000 0.203499
O O19 0.863043 0.750494 0.207133
O O20 0.793701 0.000000 0.150488
O O21 0.435541 0.000000 0.262322
#
# Coordination Sequence:
#
# PCOD9181218 Si02
#       8
#     8   8   8   8   8   8   8   8
#     4  10  23  40  55  76 105 138 177 222 272 322
#     4   9  19  34  53  76 107 144 177 212 262 314
#     4   9  18  34  56  80 106 140 182 219 252 303
#     4  10  20  36  57  76 101 138 178 216 265 324
#     4   9  18  33  52  77 107 138 171 212 261 312
#     4  10  19  32  52  78 106 134 173 221 261 307
#     4  10  21  37  57  78 102 138 181 222 264 316
#     4  10  20  35  54  78 109 140 174 218 268 319
#
# _framework density 17.556038999999998
#
# number of rings (size 3 to 8) (size 9 to 14) (size 15 to 20)
#    0.000    2.375    1.250    0.750    1.750    4.250 
#    0.000    0.625    0.000    2.250    0.000    0.000 
#    0.000    0.000    0.000    0.000    0.000    0.000 
#
# Total GULP energy -178523.957478 kJ/mol
# GULP energy per Si atom -5578.873671 kJ/mol
# Density = 1.751608 g / cm^3
# Si number density = 17.556039 Si / 1000 Ang^3
#
#
#
# Elastic Constant Matrix: (Units=GPa)
#
#
# Indices 1 2 3 4 5 6 
#
# 1 118.8940 54.4977 42.4036 0.0000 -32.6838 0.0001
# 2 54.4977 55.5283 48.3700 0.0000 -21.1473 0.0002
# 3 42.4036 48.3700 75.5570 0.0000 -36.6757 0.0000
# 4 0.0000 0.0000 0.0000 25.0079 0.0000 -8.7773
# 5 -32.6838 -21.1473 -36.6757 0.0000 31.7412 0.0000
# 6 0.0001 0.0002 0.0000 -8.7773 0.0000 22.9852
#
#
#
# Elastic Compliance Matrix: (Units=1/GPa)
#
#
# Indices 1 2 3 4 5 6 
#
# 1 0.020453 -0.024856 0.015071 0.000000 0.021915 0.000000
# 2 -0.024856 0.071576 -0.048158 0.000000 -0.033552 -0.000001
# 3 0.015071 -0.048158 0.062772 0.000000 0.055965 0.000000
# 4 0.000000 0.000000 0.000000 0.046176 0.000000 0.017633
# 5 0.021915 -0.033552 0.055965 0.000000 0.096381 0.000000
# 6 0.000000 -0.000001 0.000000 0.017633 0.000000 0.050240
#
#
# Mechanical properties :
#
#
# Convention : Reuss Voigt Hill
#
# Bulk Modulus (GPa) = 25.69701 60.05801 42.87751
# Shear Modulus (GPa) = 10.49414 22.92738 16.71076
#
# Velocity S-wave (km/s) = 2.44755 3.61772 3.08856
# Velocity P-wave (km/s) = 4.75986 7.19264 6.09878
#
# Compressibility (1/GPa) = 0.03891504
#
# Stress axis : x y z
#
# Youngs Moduli (GPa) = 48.89156 13.97125 15.93064
#
# Poissons Ratio (x) = 0.34727 -0.24009
# Poissons Ratio (y) = 1.21526 0.76719
# Poissons Ratio (z) = -0.73685 0.67283
#
# Static dielectric constant tensor:
#      x y z
#    x 1.603230 0.000000 0.006490 
#    y 0.000000 1.587960 0.000000 
#    z 0.006490 0.000000 1.572690 
# 
# From -- ./inp_files/378301.got.cif
#   From: 2010.05.17/outbox.cif.g08.bks.cpg/sg12_190_cif.got.tgz:378301.got - 2010.06.03 13:09:07.
