data_PCOD9181014
_publ_section_title
;
Structure prediction by ZEFSAII (Michael W. Deem and Ramdas Pophale) SiO2 
 PCOD9181014
Probable space group: C 2/M
;
_chemical_formula_sum "Si O2"
_cell_formula_units_Z 64
_cell_length_a 30.721330
_cell_length_b 9.756566
_cell_length_c 12.218696
_cell_angle_alpha 90.000000
_cell_angle_beta 84.471503
_cell_angle_gamma 90.000000
_cell_volume 3645.331133
_symmetry_space_group_name_H-M "C 2/M"
_symmetry_group_IT_number 12
_symmetry_cell_setting 'monoclinic'
loop_
_space_group_symop_operation_xyz
x,y,z
-x,y,-z
-x,-y,-z
x,-y,z
1/2+x,1/2+y,z
1/2-x,1/2+y,-z
1/2-x,1/2-y,-z
1/2+x,1/2-y,z
loop_
_atom_site_type_symbol
_atom_site_label
_atom_site_fract_x
_atom_site_fract_y
_atom_site_fract_z
Si Si1 0.744388 0.653167 0.206205
Si Si2 0.215291 0.346796 0.565140
Si Si3 0.816179 0.837113 0.093134
Si Si4 0.599950 0.343824 0.773068
Si Si5 0.636224 0.344027 0.534721
Si Si6 0.546019 0.840709 0.942181
Si Si7 0.641535 0.342032 0.279375
Si Si8 0.872500 0.340237 0.913996
O O1 0.746296 0.500000 0.154423
O O2 0.771955 0.646833 0.311414
O O3 0.769457 0.768995 0.131800
O O4 0.694249 0.678275 0.254409
O O5 0.216533 0.500000 0.519214
O O6 0.250000 0.250000 0.500000
O O7 0.169767 0.274409 0.556030
O O8 0.851673 0.819029 0.184372
O O9 0.812953 0.000000 0.073328
O O10 0.837320 0.752933 0.987695
O O11 0.589078 0.500000 0.806277
O O12 0.601434 0.334971 0.641205
O O13 0.565823 0.242936 0.836829
O O14 0.655370 0.500000 0.540176
O O15 0.626183 0.328904 0.408814
O O16 0.540216 0.000000 0.912882
O O17 0.500000 0.788821 0.000000
O O18 0.583049 0.833977 0.026850
O O19 0.632872 0.500000 0.247261
O O20 0.620956 0.230949 0.204295
O O21 0.859157 0.500000 0.909942
#
# Coordination Sequence:
#
# PCOD9181014 Si02
#       8
#     8   8   8   8   8   8   8   8
#     4  10  20  32  47  69  99 138 182 224 263 298
#     4  11  20  30  46  69  99 137 183 229 268 301
#     4  10  19  32  52  74 100 135 175 220 268 307
#     4   9  18  31  52  82 110 132 163 211 260 304
#     4  10  19  34  51  73 105 140 176 217 262 302
#     4   9  19  37  61  85 107 130 157 200 259 315
#     4  10  21  36  51  69 102 145 182 214 255 303
#     4  10  21  37  55  76 103 131 169 213 256 312
#
# _framework density 17.556704
#
# number of rings (size 3 to 8) (size 9 to 14) (size 15 to 20)
#    0.000    2.125    2.500    1.125    0.000    3.750 
#    0.000    0.000    0.000    0.750    0.000    5.250 
#    0.000    0.000    0.000    0.000    0.000    0.000 
#
# Total GULP energy -178365.073290 kJ/mol
# GULP energy per Si atom -5573.908540 kJ/mol
# Density = 1.751674 g / cm^3
# Si number density = 17.556704 Si / 1000 Ang^3
#
#
#
# Elastic Constant Matrix: (Units=GPa)
#
#
# Indices 1 2 3 4 5 6 
#
# 1 33.9043 37.3392 21.4211 0.0000 -20.0046 0.0000
# 2 37.3392 120.5442 60.2527 0.0000 -18.2855 0.0000
# 3 21.4211 60.2527 96.8714 0.0000 -12.0625 0.0000
# 4 0.0000 0.0000 0.0000 28.3390 0.0000 -5.3393
# 5 -20.0046 -18.2855 -12.0625 0.0000 16.8348 0.0000
# 6 0.0000 0.0000 0.0000 -5.3393 0.0000 21.3961
#
#
#
# Elastic Compliance Matrix: (Units=1/GPa)
#
#
# Indices 1 2 3 4 5 6 
#
# 1 0.129669 -0.020310 0.000438 0.000000 0.132337 0.000000
# 2 -0.020310 0.016429 -0.007148 0.000000 -0.011412 0.000000
# 3 0.000438 -0.007148 0.015119 0.000000 0.003589 0.000000
# 4 0.000000 0.000000 0.000000 0.037028 0.000000 0.009240
# 5 0.132337 -0.011412 0.003589 0.000000 0.206831 0.000000
# 6 0.000000 0.000000 0.000000 0.009240 0.000000 0.049043
#
#
# Mechanical properties :
#
#
# Convention : Reuss Voigt Hill
#
# Bulk Modulus (GPa) = 9.33050 54.37175 31.85112
# Shear Modulus (GPa) = 9.19310 22.13443 15.66377
#
# Velocity S-wave (km/s) = 2.29076 3.55454 2.99018
# Velocity P-wave (km/s) = 3.51039 6.91974 5.48660
#
# Compressibility (1/GPa) = 0.10717537
#
# Stress axis : x y z
#
# Youngs Moduli (GPa) = 7.71196 60.86853 66.14078
#
# Poissons Ratio (x) = 1.23624 -0.02895
# Poissons Ratio (y) = 0.15663 0.47280
# Poissons Ratio (z) = -0.00338 0.43511
#
# Static dielectric constant tensor:
#      x y z
#    x 1.583800 0.000000 0.004350 
#    y 0.000000 1.604630 0.000000 
#    z 0.004350 0.000000 1.625630 
# 
# From -- ./inp_files/187519.got.cif
#   From: 2010.05.17/outbox.cif.g08.bks.cpg/sg12_94_cif.got.tgz:187519.got - 2010.06.03 13:09:07.
