data_PCOD9181759
_publ_section_title
;
Structure prediction by ZEFSAII (Michael W. Deem and Ramdas Pophale) SiO2 
 PCOD9181759
Probable space group: C 2/M
;
_chemical_formula_sum "Si O2"
_cell_formula_units_Z 56
_cell_length_a 34.278967
_cell_length_b 7.959632
_cell_length_c 12.745806
_cell_angle_alpha 90.000000
_cell_angle_beta 55.988700
_cell_angle_gamma 90.000000
_cell_volume 2882.733182
_symmetry_space_group_name_H-M "C 2/M"
_symmetry_group_IT_number 12
_symmetry_cell_setting 'monoclinic'
loop_
_space_group_symop_operation_xyz
x,y,z
-x,y,-z
-x,-y,-z
x,-y,z
1/2+x,1/2+y,z
1/2-x,1/2+y,-z
1/2-x,1/2-y,-z
1/2+x,1/2-y,z
loop_
_atom_site_type_symbol
_atom_site_label
_atom_site_fract_x
_atom_site_fract_y
_atom_site_fract_z
Si Si1 0.955306 0.297151 0.704155
Si Si2 0.625976 0.698919 0.021855
Si Si3 0.061375 0.294645 0.506925
Si Si4 0.847194 0.203336 0.249001
Si Si5 0.273513 0.806221 0.072345
Si Si6 0.745719 0.804389 0.340115
Si Si7 0.142439 0.700828 0.539312
O O1 0.954772 0.500000 0.706638
O O2 0.922224 0.234861 0.846446
O O3 0.935670 0.243537 0.619411
O O4 0.009842 0.243371 0.626170
O O5 0.635021 0.500000 0.009056
O O6 0.628107 0.754639 0.897024
O O7 0.670180 0.782660 0.014022
O O8 0.061741 0.500000 0.507129
O O9 0.103796 0.233845 0.515810
O O10 0.792915 0.267142 0.322587
O O11 0.870113 0.266273 0.321127
O O12 0.846423 0.000000 0.252742
O O13 0.254872 0.706821 0.201733
O O14 0.262450 0.000000 0.107766
O O15 0.250000 0.750000 0.000000
O O16 0.695051 0.728230 0.442346
O O17 0.744191 0.000000 0.373043
O O18 0.144817 0.500000 0.518845
#
# Coordination Sequence:
#
# PCOD9181759 Si02
#       7
#     8   8   8   8   8   8   8
#     4   9  17  34  58  79 104 139 175 214 271 331
#     4  10  21  37  55  77 106 139 178 221 268 315
#     4   8  17  33  53  81 109 133 171 222 270 320
#     4   9  19  35  50  71 107 143 175 221 268 315
#     4  11  22  35  52  77 109 142 178 217 259 314
#     4   9  19  34  51  75 108 142 176 219 266 309
#     4  10  19  32  54  79 105 138 179 224 264 312
#
# _framework density 19.426007999999999
#
# number of rings (size 3 to 8) (size 9 to 14) (size 15 to 20)
#    0.000    2.571    0.000    3.857    2.000    3.429 
#    0.000    3.571    0.000    4.286    0.000    0.000 
#    0.000    0.000    0.000    0.000    0.000    0.000 
#
# Total GULP energy -156219.935266 kJ/mol
# GULP energy per Si atom -5579.283402 kJ/mol
# Density = 1.938179 g / cm^3
# Si number density = 19.426008 Si / 1000 Ang^3
#
#
#
# Elastic Constant Matrix: (Units=GPa)
#
#
# Indices 1 2 3 4 5 6 
#
# 1 98.9386 3.7420 58.6048 0.0000 9.9221 0.0000
# 2 3.7420 21.1905 -1.0220 0.0000 -3.4317 0.0000
# 3 58.6048 -1.0220 101.6881 0.0000 -13.5596 0.0000
# 4 0.0000 0.0000 0.0000 25.3686 0.0000 0.4703
# 5 9.9221 -3.4317 -13.5596 0.0000 19.1336 0.0000
# 6 0.0000 0.0000 0.0000 0.4703 0.0000 13.4024
#
#
#
# Elastic Compliance Matrix: (Units=1/GPa)
#
#
# Indices 1 2 3 4 5 6 
#
# 1 0.022785 -0.008897 -0.016576 0.000000 -0.025158 0.000000
# 2 -0.008897 0.052385 0.008307 0.000000 0.019897 0.000000
# 3 -0.016576 0.008307 0.022987 0.000000 0.026376 0.000000
# 4 0.000000 0.000000 0.000000 0.039444 0.000000 -0.001384
# 5 -0.025158 0.019897 0.026376 0.000000 0.087571 0.000000
# 6 0.000000 0.000000 0.000000 -0.001384 0.000000 0.074662
#
#
# Mechanical properties :
#
#
# Convention : Reuss Voigt Hill
#
# Bulk Modulus (GPa) = 15.66756 38.27408 26.97082
# Shear Modulus (GPa) = 14.06697 22.28041 18.17369
#
# Velocity S-wave (km/s) = 2.69389 3.39032 3.06197
# Velocity P-wave (km/s) = 4.21412 5.92207 5.13954
#
# Compressibility (1/GPa) = 0.06382616
#
# Stress axis : x y z
#
# Youngs Moduli (GPa) = 43.88827 19.08949 43.50191
#
# Poissons Ratio (x) = 0.16984 0.72107
# Poissons Ratio (y) = 0.39049 -0.36138
# Poissons Ratio (z) = 0.72748 -0.15858
#
# Static dielectric constant tensor:
#      x y z
#    x 1.676770 0.000000 -0.001700 
#    y 0.000000 1.705770 0.000000 
#    z -0.001700 0.000000 1.684300 
# 
# From -- ./inp_files/187170.got.cif
#   From: 2010.05.17/outbox.cif.g08.bks.cpg/sg12_94_cif.got.tgz:187170.got - 2010.06.03 13:09:07.
