data_PCOD9181964
_publ_section_title
;
Structure prediction by ZEFSAII (Michael W. Deem and Ramdas Pophale) SiO2 
 PCOD9181964
Probable space group: C 2/M
;
_chemical_formula_sum "Si O2"
_cell_formula_units_Z 40
_cell_length_a 9.388470
_cell_length_b 25.600268
_cell_length_c 8.463947
_cell_angle_alpha 90.000000
_cell_angle_beta 78.476346
_cell_angle_gamma 90.000000
_cell_volume 1993.280693
_symmetry_space_group_name_H-M "C 2/M"
_symmetry_group_IT_number 12
_symmetry_cell_setting 'monoclinic'
loop_
_space_group_symop_operation_xyz
x,y,z
-x,y,-z
-x,-y,-z
x,-y,z
1/2+x,1/2+y,z
1/2-x,1/2+y,-z
1/2-x,1/2-y,-z
1/2+x,1/2-y,z
loop_
_atom_site_type_symbol
_atom_site_label
_atom_site_fract_x
_atom_site_fract_y
_atom_site_fract_z
Si Si1 0.168413 0.695336 0.517364
Si Si2 0.726597 0.103421 0.277731
Si Si3 0.705864 0.560156 0.051038
Si Si4 0.567770 0.866562 0.830465
Si Si5 0.903054 0.000000 0.674698
Si Si6 0.172951 0.500000 0.480653
O O1 0.250000 0.750000 0.500000
O O2 0.245706 0.654415 0.380956
O O3 0.159275 0.669583 0.693082
O O4 0.000000 0.701655 0.500000
O O5 0.562006 0.109288 0.245168
O O6 0.730929 0.052174 0.384241
O O7 0.820296 0.093937 0.099083
O O8 0.742473 0.500000 0.992469
O O9 0.835336 0.588304 0.114571
O O10 0.583717 0.549178 0.210884
O O11 0.500000 0.838225 0.000000
O O12 0.000000 0.000000 0.500000
O O13 0.738787 0.000000 0.641707
O O14 0.000000 0.500000 0.500000
#
# Coordination Sequence:
#
# PCOD9181964 Si02
#       6
#     8   8   8   8   4   4
#     4  10  21  40  60  85 116 155 198 248 293 340
#     4  10  19  32  54  88 116 145 191 243 290 338
#     4   9  18  33  53  83 120 156 187 223 294 352
#     4   9  18  33  58  87 119 145 193 244 296 338
#     4  10  21  34  49  74 118 170 191 215 276 347
#     4  12  19  30  57  88 114 144 188 231 287 349
#
# _framework density 20.067419000000001
#
# number of rings (size 3 to 8) (size 9 to 14) (size 15 to 20)
#    0.600    1.600    1.000    4.200    1.400    1.200 
#    0.000   15.000    0.000    2.400    0.000    0.000 
#    0.000    0.000    0.000    0.000    0.000    0.000 
#
# Total GULP energy -111476.362538 kJ/mol
# GULP energy per Si atom -5573.818127 kJ/mol
# Density = 2.002175 g / cm^3
# Si number density = 20.067419 Si / 1000 Ang^3
#
#
#
# Elastic Constant Matrix: (Units=GPa)
#
#
# Indices 1 2 3 4 5 6 
#
# 1 48.4807 22.0765 28.6301 0.0000 2.7870 0.0000
# 2 22.0765 135.7934 87.9755 0.0000 -1.2761 0.0000
# 3 28.6301 87.9755 179.7457 0.0000 -17.8221 0.0000
# 4 0.0000 0.0000 0.0000 12.9983 0.0000 -0.9319
# 5 2.7870 -1.2761 -17.8221 0.0000 32.8562 0.0000
# 6 0.0000 0.0000 0.0000 -0.9319 0.0000 20.8236
#
#
#
# Elastic Compliance Matrix: (Units=1/GPa)
#
#
# Indices 1 2 3 4 5 6 
#
# 1 0.023581 -0.001741 -0.003286 0.000000 -0.003850 0.000000
# 2 -0.001741 0.011124 -0.005400 0.000000 -0.002349 0.000000
# 3 -0.003286 -0.005400 0.009233 0.000000 0.005077 0.000000
# 4 0.000000 0.000000 0.000000 0.077181 0.000000 0.003454
# 5 -0.003850 -0.002349 0.005077 0.000000 0.033425 0.000000
# 6 0.000000 0.000000 0.000000 0.003454 0.000000 0.048177
#
#
# Mechanical properties :
#
#
# Convention : Reuss Voigt Hill
#
# Bulk Modulus (GPa) = 43.31932 71.26490 57.29211
# Shear Modulus (GPa) = 21.61982 28.35811 24.98897
#
# Velocity S-wave (km/s) = 3.28588 3.76326 3.53264
# Velocity P-wave (km/s) = 6.00248 7.38056 6.72690
#
# Compressibility (1/GPa) = 0.02308439
#
# Stress axis : x y z
#
# Youngs Moduli (GPa) = 42.40655 89.89920 108.30568
#
# Poissons Ratio (x) = 0.15654 0.35584
# Poissons Ratio (y) = 0.07384 0.58484
# Poissons Ratio (z) = 0.13933 0.48545
#
# Static dielectric constant tensor:
#      x y z
#    x 1.782200 0.000000 -0.041120 
#    y 0.000000 1.669790 0.000000 
#    z -0.041120 0.000000 1.772150 
# 
# From -- ./inp_files/49957.got.cif
#   From: 2010.05.17/outbox.cif.g08.bks.cpg/sg12_25_cif.got.tgz:49957.got - 2010.06.03 13:09:07.
