data_PCOD9181555
_publ_section_title
;
Structure prediction by ZEFSAII (Michael W. Deem and Ramdas Pophale) SiO2 
 PCOD9181555
Probable space group: C 2/M
;
_chemical_formula_sum "Si O2"
_cell_formula_units_Z 48
_cell_length_a 19.587381
_cell_length_b 7.731050
_cell_length_c 30.739607
_cell_angle_alpha 90.000000
_cell_angle_beta 31.202746
_cell_angle_gamma 90.000000
_cell_volume 2411.570344
_symmetry_space_group_name_H-M "C 2/M"
_symmetry_group_IT_number 12
_symmetry_cell_setting 'monoclinic'
loop_
_space_group_symop_operation_xyz
x,y,z
-x,y,-z
-x,-y,-z
x,-y,z
1/2+x,1/2+y,z
1/2-x,1/2+y,-z
1/2-x,1/2-y,-z
1/2+x,1/2-y,z
loop_
_atom_site_type_symbol
_atom_site_label
_atom_site_fract_x
_atom_site_fract_y
_atom_site_fract_z
Si Si1 0.806063 0.204919 0.230924
Si Si2 0.114807 0.211965 0.471047
Si Si3 0.487008 0.300059 0.626642
Si Si4 0.397514 0.295443 0.767159
Si Si5 0.610506 0.792952 0.720348
Si Si6 0.105589 0.798488 0.909233
O O1 0.661867 0.291223 0.311251
O O2 0.882684 0.233586 0.233654
O O3 0.880543 0.272821 0.147341
O O4 0.782245 0.000000 0.238043
O O5 0.256045 0.268680 0.376368
O O6 0.000000 0.264423 0.500000
O O7 0.080328 0.275215 0.538409
O O8 0.113326 0.000000 0.472729
O O9 0.526528 0.500000 0.610336
O O10 0.473088 0.225114 0.682787
O O11 0.377196 0.500000 0.771294
O O12 0.485184 0.267233 0.761513
O O13 0.253020 0.213875 0.847902
O O14 0.612572 0.000000 0.718998
O O15 0.068879 0.000000 0.923785
O O16 0.000000 0.719896 0.000000
#
# Coordination Sequence:
#
# PCOD9181555 Si02
#       6
#     8   8   8   8   8   8
#     4  10  19  32  53  80 107 133 169 216 262 308
#     4   9  16  29  51  75 100 137 186 222 248 298
#     4   9  17  33  53  73 101 142 182 215 256 305
#     4  10  21  35  53  79 111 138 170 218 266 309
#     4  11  21  34  53  75 106 146 181 214 258 308
#     4   9  19  38  62  83 103 132 170 210 257 320
#
# _framework density 19.904043000000001
#
# number of rings (size 3 to 8) (size 9 to 14) (size 15 to 20)
#    0.000    2.333    1.667    1.500    0.000    2.333 
#    0.000    3.333    0.000    0.000    0.000    0.000 
#    0.000    0.000    0.000    0.000    0.000    0.000 
#
# Total GULP energy -133915.912170 kJ/mol
# GULP energy per Si atom -5579.829674 kJ/mol
# Density = 1.985874 g / cm^3
# Si number density = 19.904043 Si / 1000 Ang^3
#
#
#
# Elastic Constant Matrix: (Units=GPa)
#
#
# Indices 1 2 3 4 5 6 
#
# 1 126.1833 -18.1103 54.8057 -0.0017 11.1395 -0.0075
# 2 -18.1103 37.7709 -4.3036 -0.0023 5.3858 -0.0148
# 3 54.8057 -4.3036 129.7185 0.0001 29.9550 -0.0052
# 4 -0.0017 -0.0023 0.0001 9.9014 0.0008 -4.0032
# 5 11.1395 5.3858 29.9550 0.0008 20.6259 0.0001
# 6 -0.0075 -0.0148 -0.0052 -4.0032 0.0001 15.1550
#
#
#
# Elastic Compliance Matrix: (Units=1/GPa)
#
#
# Indices 1 2 3 4 5 6 
#
# 1 0.010433 0.004692 -0.004014 0.000007 -0.001029 0.000010
# 2 0.004692 0.030962 0.002253 0.000025 -0.013890 0.000040
# 3 -0.004014 0.002253 0.013714 0.000003 -0.018337 0.000006
# 4 0.000007 0.000025 0.000003 0.113072 -0.000020 0.029868
# 5 -0.001029 -0.013890 -0.018337 -0.000020 0.079297 -0.000026
# 6 0.000010 0.000040 0.000006 0.029868 -0.000026 0.073875
#
#
# Mechanical properties :
#
#
# Convention : Reuss Voigt Hill
#
# Bulk Modulus (GPa) = 16.40180 39.82847 28.11513
# Shear Modulus (GPa) = 14.88908 26.55519 20.72214
#
# Velocity S-wave (km/s) = 2.73800 3.65658 3.23011
# Velocity P-wave (km/s) = 4.27246 6.15476 5.29788
#
# Compressibility (1/GPa) = 0.06096891
#
# Stress axis : x y z
#
# Youngs Moduli (GPa) = 95.85115 32.29742 72.91617
#
# Poissons Ratio (x) = -0.15153 0.29272
# Poissons Ratio (y) = -0.44970 -0.16425
# Poissons Ratio (z) = 0.38479 -0.07275
#
# Static dielectric constant tensor:
#      x y z
#    x 1.689610 0.000000 0.045230 
#    y 0.000000 1.746150 0.000000 
#    z 0.045230 0.000000 1.705940 
# 
# From -- ./inp_files/274057.got.cif
#   From: 2010.05.17/outbox.cif.g08.bks.cpg/sg12_138_cif.got.tgz:274057.got - 2010.06.03 13:09:07.
