data_PCOD9181294
_publ_section_title
;
Structure prediction by ZEFSAII (Michael W. Deem and Ramdas Pophale) SiO2 
 PCOD9181294
Probable space group: C 2/M
;
_chemical_formula_sum "Si O2"
_cell_formula_units_Z 48
_cell_length_a 29.943451
_cell_length_b 7.847528
_cell_length_c 8.100736
_cell_angle_alpha 90.000000
_cell_angle_beta 103.307011
_cell_angle_gamma 90.000000
_cell_volume 1852.419358
_symmetry_space_group_name_H-M "C 2/M"
_symmetry_group_IT_number 12
_symmetry_cell_setting 'monoclinic'
loop_
_space_group_symop_operation_xyz
x,y,z
-x,y,-z
-x,-y,-z
x,-y,z
1/2+x,1/2+y,z
1/2-x,1/2+y,-z
1/2-x,1/2-y,-z
1/2+x,1/2-y,z
loop_
_atom_site_type_symbol
_atom_site_label
_atom_site_fract_x
_atom_site_fract_y
_atom_site_fract_z
Si Si1 0.445777 0.793178 0.295042
Si Si2 0.642578 0.794305 0.960564
Si Si3 0.969413 0.801364 0.823591
Si Si4 0.802620 0.804117 0.668466
Si Si5 0.277654 0.204825 0.191075
Si Si6 0.111649 0.693840 0.449939
O O1 0.410235 0.754425 0.116266
O O2 0.494972 0.717490 0.297762
O O3 0.418399 0.723343 0.430646
O O4 0.451753 0.000000 0.311073
O O5 0.671436 0.742166 0.820563
O O6 0.646998 0.000000 0.981263
O O7 0.666356 0.712981 0.138876
O O8 0.922087 0.710958 0.736286
O O9 0.959554 0.000000 0.846151
O O10 0.000000 0.729898 0.000000
O O11 0.753752 0.724924 0.685603
O O12 0.836794 0.740035 0.556557
O O13 0.794561 0.000000 0.627676
O O14 0.278285 0.000000 0.209983
O O15 0.250000 0.250000 0.000000
O O16 0.115295 0.500000 0.505957
#
# Coordination Sequence:
#
# PCOD9181294 Si02
#       6
#     8   8   8   8   8   8
#     4  10  22  38  56  79 107 140 177 215 256 309
#     4   9  17  33  56  79 105 140 179 218 262 309
#     4  11  24  40  59  83 107 132 168 215 264 314
#     4  10  19  32  52  80 110 139 177 222 264 307
#     4   8  15  28  49  76 105 137 174 217 261 305
#     4  11  23  38  55  77 107 142 178 214 257 311
#
# _framework density 25.912061000000001
#
# number of rings (size 3 to 8) (size 9 to 14) (size 15 to 20)
#    0.000    2.167    0.000    3.000    0.000    8.667 
#    0.000    0.833    0.000    0.000    0.000    0.000 
#    0.000    0.000    0.000    0.000    0.000    0.000 
#
# Total GULP energy -134173.969694 kJ/mol
# GULP energy per Si atom -5590.582071 kJ/mol
# Density = 2.585308 g / cm^3
# Si number density = 25.912061 Si / 1000 Ang^3
#
#
#
# Elastic Constant Matrix: (Units=GPa)
#
#
# Indices 1 2 3 4 5 6 
#
# 1 185.1325 9.4301 17.0518 0.0000 -8.9229 0.0000
# 2 9.4301 45.5607 -0.8229 0.0000 -1.8548 0.0000
# 3 17.0518 -0.8229 90.9290 0.0000 -16.3788 0.0000
# 4 0.0000 0.0000 0.0000 44.1708 0.0000 12.7637
# 5 -8.9229 -1.8548 -16.3788 0.0000 53.2705 0.0000
# 6 0.0000 0.0000 0.0000 12.7637 0.0000 45.7839
#
#
#
# Elastic Compliance Matrix: (Units=1/GPa)
#
#
# Indices 1 2 3 4 5 6 
#
# 1 0.005576 -0.001147 -0.000948 0.000000 0.000603 0.000000
# 2 -0.001147 0.022227 0.000552 0.000000 0.000751 0.000000
# 3 -0.000948 0.000552 0.011809 0.000000 0.003491 0.000000
# 4 0.000000 0.000000 0.000000 0.024623 0.000000 -0.006864
# 5 0.000603 0.000751 0.003491 0.000000 0.019973 0.000000
# 6 0.000000 0.000000 0.000000 -0.006864 0.000000 0.023755
#
#
# Mechanical properties :
#
#
# Convention : Reuss Voigt Hill
#
# Bulk Modulus (GPa) = 27.37724 41.43777 34.40751
# Shear Modulus (GPa) = 40.57647 48.37593 44.47620
#
# Velocity S-wave (km/s) = 3.96148 4.32548 4.14747
# Velocity P-wave (km/s) = 5.61362 6.40100 6.02020
#
# Compressibility (1/GPa) = 0.03652669
#
# Stress axis : x y z
#
# Youngs Moduli (GPa) = 179.33126 44.99104 84.67993
#
# Poissons Ratio (x) = 0.05159 0.08024
# Poissons Ratio (y) = 0.20565 -0.04671
# Poissons Ratio (z) = 0.16992 -0.02481
#
# Static dielectric constant tensor:
#      x y z
#    x 2.042780 0.000000 -0.063680 
#    y 0.000000 1.924600 0.000000 
#    z -0.063680 0.000000 2.205110 
# 
# From -- ./inp_files/108667.got.cif
#   From: 2010.05.17/outbox.cif.g08.bks.cpg/sg12_55_cif.got.tgz:108667.got - 2010.06.03 13:09:07.
