data_PCOD9181998
_publ_section_title
;
Structure prediction by ZEFSAII (Michael W. Deem and Ramdas Pophale) SiO2 
 PCOD9181998
Probable space group: C 2/M
;
_chemical_formula_sum "Si O2"
_cell_formula_units_Z 48
_cell_length_a 12.267557
_cell_length_b 13.226527
_cell_length_c 20.532550
_cell_angle_alpha 90.000000
_cell_angle_beta 38.466949
_cell_angle_gamma 90.000000
_cell_volume 2072.436475
_symmetry_space_group_name_H-M "C 2/M"
_symmetry_group_IT_number 12
_symmetry_cell_setting 'monoclinic'
loop_
_space_group_symop_operation_xyz
x,y,z
-x,y,-z
-x,-y,-z
x,-y,z
1/2+x,1/2+y,z
1/2-x,1/2+y,-z
1/2-x,1/2-y,-z
1/2+x,1/2-y,z
loop_
_atom_site_type_symbol
_atom_site_label
_atom_site_fract_x
_atom_site_fract_y
_atom_site_fract_z
Si Si1 0.815382 0.303974 0.163082
Si Si2 0.316377 0.118803 0.018776
Si Si3 0.913667 0.110638 0.624093
Si Si4 0.076590 0.882195 0.816074
Si Si5 0.331073 0.885839 0.450044
Si Si6 0.279050 0.727300 0.375403
O O1 0.807069 0.319805 0.090404
O O2 0.669107 0.369970 0.266810
O O3 0.814144 0.188708 0.186927
O O4 0.004762 0.346941 0.098917
O O5 0.130080 0.130851 0.071277
O O6 0.332872 0.000000 0.027193
O O7 0.834938 0.197862 0.616134
O O8 0.121976 0.110660 0.533098
O O9 0.858627 0.000000 0.624993
O O10 0.115452 0.841710 0.724798
O O11 0.119797 0.000000 0.799797
O O12 0.393079 0.802449 0.368628
O O13 0.334405 0.840413 0.521330
O O14 0.401095 0.000000 0.412915
#
# Coordination Sequence:
#
# PCOD9181998 Si02
#       6
#     8   8   8   8   8   8
#     4  10  19  32  55  82 107 132 172 218 255 297
#     4  10  19  34  56  81 106 135 172 213 257 303
#     4  10  19  33  55  80 104 133 171 214 260 307
#     4  10  21  36  54  75 105 143 175 206 254 312
#     4  10  20  35  55  77 102 135 173 213 260 310
#     4  10  20  32  53  77 102 133 173 214 251 302
#
# _framework density 23.161144
#
# number of rings (size 3 to 8) (size 9 to 14) (size 15 to 20)
#    0.000    2.000    0.000    5.000    0.000    4.000 
#    0.000    1.667    0.000   72.000    0.000    0.000 
#    0.000    0.000    0.000    0.000    0.000    0.000 
#
# Total GULP energy -134218.173883 kJ/mol
# GULP energy per Si atom -5592.423912 kJ/mol
# Density = 2.310843 g / cm^3
# Si number density = 23.161144 Si / 1000 Ang^3
#
#
#
# Elastic Constant Matrix: (Units=GPa)
#
#
# Indices 1 2 3 4 5 6 
#
# 1 47.4504 26.0438 0.1508 -0.0001 -9.3364 0.0000
# 2 26.0438 161.0429 9.2003 -0.0001 0.0922 0.0001
# 3 0.1508 9.2003 57.0377 -0.0003 -9.1254 0.0001
# 4 -0.0001 -0.0001 -0.0003 26.5873 0.0001 -0.1277
# 5 -9.3364 0.0922 -9.1254 0.0001 25.2676 0.0000
# 6 0.0000 0.0001 0.0001 -0.1277 0.0000 26.6034
#
#
#
# Elastic Compliance Matrix: (Units=1/GPa)
#
#
# Indices 1 2 3 4 5 6 
#
# 1 0.025407 -0.004243 0.002252 0.000000 0.010217 0.000000
# 2 -0.004243 0.006980 -0.001454 0.000000 -0.002118 0.000000
# 3 0.002252 -0.001454 0.018992 0.000000 0.007696 0.000000
# 4 0.000000 0.000000 0.000000 0.037613 0.000000 0.000181
# 5 0.010217 -0.002118 0.007696 0.000000 0.046139 0.000000
# 6 0.000000 0.000000 0.000000 0.000181 0.000000 0.037590
#
#
# Mechanical properties :
#
#
# Convention : Reuss Voigt Hill
#
# Bulk Modulus (GPa) = 22.47758 37.36896 29.92327
# Shear Modulus (GPa) = 25.71486 31.03405 28.37445
#
# Velocity S-wave (km/s) = 3.33567 3.66446 3.50392
# Velocity P-wave (km/s) = 4.95596 5.83727 5.41457
#
# Compressibility (1/GPa) = 0.04448878
#
# Stress axis : x y z
#
# Youngs Moduli (GPa) = 39.35968 143.26652 52.65347
#
# Poissons Ratio (x) = 0.60792 -0.11857
# Poissons Ratio (y) = 0.16701 0.07654
# Poissons Ratio (z) = -0.08863 0.20825
#
# Static dielectric constant tensor:
#      x y z
#    x 1.902290 0.000000 -0.024280 
#    y 0.000000 1.883610 0.000000 
#    z -0.024280 0.000000 1.904280 
# 
# From -- ./inp_files/212628.got.cif
#   From: 2010.05.17/outbox.cif.g08.bks.cpg/sg12_107_cif.got.tgz:212628.got - 2010.06.03 13:09:07.
