data_PCOD9181369
_publ_section_title
;
Structure prediction by ZEFSAII (Michael W. Deem and Ramdas Pophale) SiO2 
 PCOD9181369
Probable space group: C 2/M
;
_chemical_formula_sum "Si O2"
_cell_formula_units_Z 42
_cell_length_a 14.973677
_cell_length_b 7.540172
_cell_length_c 18.956694
_cell_angle_alpha 90.000000
_cell_angle_beta 130.699251
_cell_angle_gamma 90.000000
_cell_volume 1622.644428
_symmetry_space_group_name_H-M "C 2/M"
_symmetry_group_IT_number 12
_symmetry_cell_setting 'monoclinic'
loop_
_space_group_symop_operation_xyz
x,y,z
-x,y,-z
-x,-y,-z
x,-y,z
1/2+x,1/2+y,z
1/2-x,1/2+y,-z
1/2-x,1/2-y,-z
1/2+x,1/2-y,z
loop_
_atom_site_type_symbol
_atom_site_label
_atom_site_fract_x
_atom_site_fract_y
_atom_site_fract_z
Si Si1 0.543370 0.701378 0.409250
Si Si2 0.818274 0.285400 0.934279
Si Si3 0.837324 0.299222 0.667954
Si Si4 0.722016 0.713558 0.742787
Si Si5 0.933950 0.206423 0.131752
Si Si6 0.500000 0.000000 0.500000
O O1 0.538481 0.500000 0.433383
O O2 0.634340 0.711823 0.391649
O O3 0.413860 0.744778 0.309501
O O4 0.555154 0.844480 0.475835
O O5 0.823742 0.500000 0.936688
O O6 0.807942 0.222055 0.848604
O O7 0.691787 0.231416 0.902319
O O8 0.918408 0.224395 0.039509
O O9 0.799462 0.500000 0.632810
O O10 0.749424 0.213242 0.679538
O O11 0.957420 0.302388 0.776317
O O12 0.737010 0.500000 0.746726
O O13 0.947040 0.000000 0.157244
#
# Coordination Sequence:
#
# PCOD9181369 Si02
#       6
#     8   8   8   8   8   2
#     4  11  23  47  73  98 133 167 209 263 326 395
#     4   9  17  33  54  81 120 172 223 266 315 371
#     4  11  21  38  65  96 128 171 220 265 320 387
#     4   9  20  39  66  92 128 173 216 264 322 384
#     4  10  19  32  52  85 125 171 221 270 318 365
#     4  12  26  48  76 106 124 166 214 256 336 402
#
# _framework density 25.883673999999999
#
# number of rings (size 3 to 8) (size 9 to 14) (size 15 to 20)
#    0.000    1.905    2.857    1.429    0.000    1.524 
#    5.143    4.762    0.000    0.000    0.000    0.000 
#    0.000    0.000    0.000    0.000    0.000    0.000 
#
# Total GULP energy -117298.186955 kJ/mol
# GULP energy per Si atom -5585.627950 kJ/mol
# Density = 2.582476 g / cm^3
# Si number density = 25.883674 Si / 1000 Ang^3
#
#
#
# Elastic Constant Matrix: (Units=GPa)
#
#
# Indices 1 2 3 4 5 6 
#
# 1 96.5733 2.7580 44.8561 0.0000 -31.8900 0.0000
# 2 2.7580 104.1067 18.3003 0.0000 -19.7463 0.0000
# 3 44.8561 18.3003 149.7646 0.0000 -12.9948 0.0000
# 4 0.0000 0.0000 0.0000 11.7560 0.0000 -9.8241
# 5 -31.8900 -19.7463 -12.9948 0.0000 56.1923 0.0000
# 6 0.0000 0.0000 0.0000 -9.8241 0.0000 5.3648
#
#
#
# Elastic Compliance Matrix: (Units=1/GPa)
#
#
# Indices 1 2 3 4 5 6 
#
# 1 0.014834 0.001850 -0.003962 0.000000 0.008152 0.000000
# 2 0.001850 0.010660 -0.001470 0.000000 0.004456 0.000000
# 3 -0.003962 -0.001470 0.007963 0.000000 -0.000923 0.000000
# 4 0.000000 0.000000 0.000000 -0.160414 0.000000 -0.293751
# 5 0.008152 0.004456 -0.000923 0.000000 0.023775 0.000000
# 6 0.000000 0.000000 0.000000 -0.293751 0.000000 -0.351518
#
#
# Mechanical properties :
#
#
# Convention : Reuss Voigt Hill
#
# Bulk Modulus (GPa) = 38.03200 53.58593 45.80897
# Shear Modulus (GPa) = -11.39545 33.63130 11.11792
#
# Velocity S-wave (km/s) = -2.10050 3.60853 2.07477
# Velocity P-wave (km/s) = 2.97363 6.17329 4.84520
#
# Compressibility (1/GPa) = 0.02629364
#
# Stress axis : x y z
#
# Youngs Moduli (GPa) = 67.41195 93.80794 125.57755
#
# Poissons Ratio (x) = -0.17352 0.49749
# Poissons Ratio (y) = -0.12469 0.18460
# Poissons Ratio (z) = 0.26706 0.13790
#
# Static dielectric constant tensor:
#      x y z
#    x 2.055130 0.000000 0.011450 
#    y 0.000000 1.959860 0.000000 
#    z 0.011450 0.000000 2.046330 
# 
# From -- ./inp_files/267031.got.cif
#   From: 2010.05.17/outbox.cif.g08.bks.cpg/sg12_134_cif.got.tgz:267031.got - 2010.06.03 13:09:07.
