data_PCOD9181881
_publ_section_title
;
Structure prediction by ZEFSAII (Michael W. Deem and Ramdas Pophale) SiO2 
 PCOD9181881
Probable space group: C 2/M
;
_chemical_formula_sum "Si O2"
_cell_formula_units_Z 56
_cell_length_a 21.449128
_cell_length_b 13.606135
_cell_length_c 15.894723
_cell_angle_alpha 90.000000
_cell_angle_beta 35.875742
_cell_angle_gamma 90.000000
_cell_volume 2718.421182
_symmetry_space_group_name_H-M "C 2/M"
_symmetry_group_IT_number 12
_symmetry_cell_setting 'monoclinic'
loop_
_space_group_symop_operation_xyz
x,y,z
-x,y,-z
-x,-y,-z
x,-y,z
1/2+x,1/2+y,z
1/2-x,1/2+y,-z
1/2-x,1/2-y,-z
1/2+x,1/2-y,z
loop_
_atom_site_type_symbol
_atom_site_label
_atom_site_fract_x
_atom_site_fract_y
_atom_site_fract_z
Si Si1 0.292797 0.112175 0.308490
Si Si2 0.178032 0.390838 0.326519
Si Si3 0.611109 0.616269 0.631330
Si Si4 0.605522 0.306739 0.192315
Si Si5 0.103812 0.183899 0.830928
Si Si6 0.801306 0.394670 0.897322
Si Si7 0.117478 0.822777 0.372686
O O1 0.226882 0.138402 0.465564
O O2 0.374804 0.198863 0.198998
O O3 0.202861 0.120093 0.334177
O O4 0.332439 0.000000 0.270218
O O5 0.140172 0.500000 0.396734
O O6 0.293457 0.367168 0.238921
O O7 0.186189 0.395570 0.216748
O O8 0.112605 0.290120 0.413878
O O9 0.596664 0.500000 0.636761
O O10 0.517475 0.668792 0.682125
O O11 0.597430 0.644610 0.743092
O O12 0.630554 0.194633 0.140981
O O13 0.647462 0.319108 0.241654
O O14 0.678591 0.374156 0.053779
O O15 0.000000 0.163880 0.000000
O O16 0.834359 0.500000 0.895248
O O17 0.000000 0.866586 0.500000
#
# Coordination Sequence:
#
# PCOD9181881 Si02
#       7
#     8   8   8   8   8   8   8
#     4  10  23  41  60  83 114 152 193 235 282 340
#     4   9  19  35  56  82 110 142 180 225 278 331
#     4  11  22  37  60  85 112 148 190 235 286 337
#     4  10  19  32  54  82 111 145 184 230 277 332
#     4  11  23  39  60  85 114 149 191 240 286 333
#     4   9  18  33  52  79 115 146 179 226 283 338
#     4  10  19  35  56  81 112 142 181 227 271 329
#
# _framework density 20.600193000000001
#
# number of rings (size 3 to 8) (size 9 to 14) (size 15 to 20)
#    0.000    2.000    1.429    2.143    0.000    5.429 
#    0.000    0.714    0.000    0.000    0.000    0.000 
#    0.000    0.000    0.000    0.000    0.000    0.000 
#
# Total GULP energy -156271.863143 kJ/mol
# GULP energy per Si atom -5581.137969 kJ/mol
# Density = 2.055331 g / cm^3
# Si number density = 20.600193 Si / 1000 Ang^3
#
#
#
# Elastic Constant Matrix: (Units=GPa)
#
#
# Indices 1 2 3 4 5 6 
#
# 1 42.9655 -1.9440 -0.9393 0.0000 -2.6887 0.0000
# 2 -1.9440 83.6567 -3.7847 0.0000 1.9011 0.0000
# 3 -0.9393 -3.7847 28.6547 0.0000 1.6368 0.0000
# 4 0.0000 0.0000 0.0000 17.1249 0.0000 8.2704
# 5 -2.6887 1.9011 1.6368 0.0000 15.5620 0.0000
# 6 0.0000 0.0000 0.0000 8.2704 0.0000 9.2149
#
#
#
# Elastic Compliance Matrix: (Units=1/GPa)
#
#
# Indices 1 2 3 4 5 6 
#
# 1 0.023557 0.000485 0.000611 0.000000 0.003946 0.000000
# 2 0.000485 0.012078 0.001701 0.000000 -0.001570 0.000000
# 3 0.000611 0.001701 0.035361 0.000000 -0.003821 0.000000
# 4 0.000000 0.000000 0.000000 0.103069 0.000000 -0.092505
# 5 0.003946 -0.001570 -0.003821 0.000000 0.065535 0.000000
# 6 0.000000 0.000000 0.000000 -0.092505 0.000000 0.191544
#
#
# Mechanical properties :
#
#
# Convention : Reuss Voigt Hill
#
# Bulk Modulus (GPa) = 13.05660 15.77122 14.41391
# Shear Modulus (GPa) = 11.08453 19.17668 15.13060
#
# Velocity S-wave (km/s) = 2.32217 3.05437 2.71308
# Velocity P-wave (km/s) = 3.67992 4.48457 4.10202
#
# Compressibility (1/GPa) = 0.07658960
#
# Stress axis : x y z
#
# Youngs Moduli (GPa) = 42.45066 82.79840 28.27953
#
# Poissons Ratio (x) = -0.04019 -0.01727
# Poissons Ratio (y) = -0.02060 -0.04810
# Poissons Ratio (z) = -0.02593 -0.14082
#
# Static dielectric constant tensor:
#      x y z
#    x 1.716050 0.000000 0.008830 
#    y 0.000000 1.776000 0.000000 
#    z 0.008830 0.000000 1.748010 
# 
# From -- ./inp_files/233671.got.cif
#   From: 2010.05.17/outbox.cif.g08.bks.cpg/sg12_117_cif.got.tgz:233671.got - 2010.06.03 13:09:07.
