data_PCOD9181151
_publ_section_title
;
Structure prediction by ZEFSAII (Michael W. Deem and Ramdas Pophale) SiO2 
 PCOD9181151
Probable space group: C 2/M
;
_chemical_formula_sum "Si O2"
_cell_formula_units_Z 64
_cell_length_a 19.700933
_cell_length_b 9.327699
_cell_length_c 21.750285
_cell_angle_alpha 90.000000
_cell_angle_beta 70.441486
_cell_angle_gamma 90.000000
_cell_volume 3766.305152
_symmetry_space_group_name_H-M "C 2/M"
_symmetry_group_IT_number 12
_symmetry_cell_setting 'monoclinic'
loop_
_space_group_symop_operation_xyz
x,y,z
-x,y,-z
-x,-y,-z
x,-y,z
1/2+x,1/2+y,z
1/2-x,1/2+y,-z
1/2-x,1/2-y,-z
1/2+x,1/2-y,z
loop_
_atom_site_type_symbol
_atom_site_label
_atom_site_fract_x
_atom_site_fract_y
_atom_site_fract_z
Si Si1 0.414933 0.665056 0.535066
Si Si2 0.729374 0.828196 0.943169
Si Si3 0.675476 0.171018 0.536415
Si Si4 0.930471 0.329345 0.060701
Si Si5 0.172443 0.169211 0.319513
Si Si6 0.665488 0.830994 0.680201
Si Si7 0.884001 0.836285 0.191224
Si Si8 0.719534 0.165253 0.189755
O O1 0.500000 0.667529 0.500000
O O2 0.389293 0.500000 0.532455
O O3 0.379654 0.770117 0.496804
O O4 0.388556 0.702703 0.611790
O O5 0.645040 0.801929 0.951783
O O6 0.775372 0.759219 0.873481
O O7 0.739854 0.000000 0.943584
O O8 0.750000 0.750000 0.000000
O O9 0.750000 0.250000 0.500000
O O10 0.652734 0.205553 0.613175
O O11 0.684406 0.000000 0.529661
O O12 0.066371 0.500000 0.929060
O O13 0.927785 0.247943 0.126170
O O14 0.000000 0.287613 0.000000
O O15 0.249782 0.192951 0.329684
O O16 0.172428 0.262343 0.257694
O O17 0.168890 0.000000 0.304994
O O18 0.619031 0.741461 0.742449
O O19 0.652236 0.000000 0.693501
O O20 0.801207 0.834954 0.191893
O O21 0.907573 0.000000 0.189318
O O22 0.699402 0.000000 0.183729
#
# Coordination Sequence:
#
# PCOD9181151 Si02
#       8
#     8   8   8   8   8   8   8   8
#     4  10  21  37  55  76 106 142 176 214 264 319
#     4  10  19  32  52  77 104 133 165 206 253 297
#     4  11  21  34  54  80 107 135 175 219 264 312
#     4   9  18  33  53  75 101 136 171 201 243 300
#     4   9  16  30  50  73 100 132 170 208 255 307
#     4   9  17  30  49  73 101 132 167 211 257 304
#     4   9  17  28  46  75 104 130 164 208 253 296
#     4   9  17  29  47  74 102 129 167 210 251 296
#
# _framework density 16.992781000000001
#
# number of rings (size 3 to 8) (size 9 to 14) (size 15 to 20)
#    0.000    2.500    1.250    1.500    0.000    5.500 
#    0.000    0.000    2.750    0.000    0.000    0.000 
#    0.000    0.000    0.000    0.000    0.000    0.000 
#
# Total GULP energy -178416.444151 kJ/mol
# GULP energy per Si atom -5575.513880 kJ/mol
# Density = 1.695410 g / cm^3
# Si number density = 16.992781 Si / 1000 Ang^3
#
#
#
# Elastic Constant Matrix: (Units=GPa)
#
#
# Indices 1 2 3 4 5 6 
#
# 1 30.7518 35.4715 45.7395 0.0000 0.5702 0.0000
# 2 35.4715 93.0485 98.2383 0.0000 7.3956 0.0000
# 3 45.7395 98.2383 191.0023 0.0000 1.3158 0.0000
# 4 0.0000 0.0000 0.0000 34.1576 0.0000 6.1415
# 5 0.5702 7.3956 1.3158 0.0000 25.5600 0.0000
# 6 0.0000 0.0000 0.0000 6.1415 0.0000 18.2999
#
#
#
# Elastic Compliance Matrix: (Units=1/GPa)
#
#
# Indices 1 2 3 4 5 6 
#
# 1 0.061224 -0.017845 -0.005511 0.000000 0.004081 0.000000
# 2 -0.017845 0.029739 -0.010969 0.000000 -0.007642 0.000000
# 3 -0.005511 -0.010969 0.012179 0.000000 0.002670 0.000000
# 4 0.000000 0.000000 0.000000 0.031156 0.000000 -0.010456
# 5 0.004081 -0.007642 0.002670 0.000000 0.041106 0.000000
# 6 0.000000 0.000000 0.000000 -0.010456 0.000000 0.058154
#
#
# Mechanical properties :
#
#
# Convention : Reuss Voigt Hill
#
# Bulk Modulus (GPa) = 28.99424 74.85568 51.92496
# Shear Modulus (GPa) = 15.93851 24.62706 20.28278
#
# Velocity S-wave (km/s) = 3.06593 3.81105 3.45862
# Velocity P-wave (km/s) = 5.44362 7.96948 6.82443
#
# Compressibility (1/GPa) = 0.03448961
#
# Stress axis : x y z
#
# Youngs Moduli (GPa) = 16.33349 33.62642 82.11033
#
# Poissons Ratio (x) = 0.60008 0.45251
# Poissons Ratio (y) = 0.29148 0.90069
# Poissons Ratio (z) = 0.09001 0.36886
#
# Static dielectric constant tensor:
#      x y z
#    x 1.560450 0.000000 -0.003160 
#    y 0.000000 1.573130 0.000000 
#    z -0.003160 0.000000 1.562830 
# 
# From -- ./inp_files/319942.got.cif
#   From: 2010.05.17/outbox.cif.g08.bks.cpg/sg12_160_cif.got.tgz:319942.got - 2010.06.03 13:09:07.
