data_PCOD9181727
_publ_section_title
;
Structure prediction by ZEFSAII (Michael W. Deem and Ramdas Pophale) SiO2 
 PCOD9181727
Probable space group: C 2/M
;
_chemical_formula_sum "Si O2"
_cell_formula_units_Z 32
_cell_length_a 24.093992
_cell_length_b 12.039127
_cell_length_c 17.531139
_cell_angle_alpha 90.000000
_cell_angle_beta 166.999536
_cell_angle_gamma 90.000000
_cell_volume 1143.976644
_symmetry_space_group_name_H-M "C 2/M"
_symmetry_group_IT_number 12
_symmetry_cell_setting 'monoclinic'
loop_
_space_group_symop_operation_xyz
x,y,z
-x,y,-z
-x,-y,-z
x,-y,z
1/2+x,1/2+y,z
1/2-x,1/2+y,-z
1/2-x,1/2-y,-z
1/2+x,1/2-y,z
loop_
_atom_site_type_symbol
_atom_site_label
_atom_site_fract_x
_atom_site_fract_y
_atom_site_fract_z
Si Si1 0.940935 0.127803 0.678207
Si Si2 0.811036 0.845580 0.345501
Si Si3 0.117097 0.881087 0.073770
Si Si4 0.124874 0.619575 0.936335
O O1 0.753725 0.129314 0.356602
O O2 0.052007 0.000000 0.818752
O O3 0.914290 0.132224 0.734834
O O4 0.049996 0.254470 0.812209
O O5 0.813817 0.714602 0.332857
O O6 0.632235 0.884759 0.038662
O O7 0.088161 0.885585 0.703563
O O8 0.235234 0.000000 0.222273
O O9 0.000000 0.873586 0.000000
O O10 0.012111 0.500000 0.758301
#
# Coordination Sequence:
#
# PCOD9181727 Si02
#       4
#     8   8   8   8
#     4  10  20  34  55  80 106 137 175 214 256 312
#     4  10  19  32  54  77 103 138 173 210 258 309
#     4   9  20  37  53  74 106 140 176 220 263 303
#     4  10  20  34  53  79 112 139 166 210 262 314
#
# _framework density 27.972601000000001
#
# number of rings (size 3 to 8) (size 9 to 14) (size 15 to 20)
#    0.000    2.250    0.000    3.750    0.000    3.000 
#    0.000    5.000    0.000   27.000    0.000    0.000 
#    0.000    0.000    0.000    0.000    0.000    0.000 
#
# Total GULP energy -89147.041766 kJ/mol
# GULP energy per Si atom -5571.690110 kJ/mol
# Density = 2.790893 g / cm^3
# Si number density = 27.972601 Si / 1000 Ang^3
#
#
#
# Elastic Constant Matrix: (Units=GPa)
#
#
# Indices 1 2 3 4 5 6 
#
# 1 150.4654 8.6801 69.3066 0.0080 -51.3218 -0.0025
# 2 8.6801 360.3004 54.8834 0.0186 12.0277 0.0058
# 3 69.3066 54.8834 119.4221 0.0822 -46.6551 0.0475
# 4 0.0080 0.0186 0.0822 43.0345 0.1005 -4.0943
# 5 -51.3218 12.0277 -46.6551 0.1005 54.3100 0.0277
# 6 -0.0025 0.0058 0.0475 -4.0943 0.0277 24.7420
#
#
#
# Elastic Compliance Matrix: (Units=1/GPa)
#
#
# Indices 1 2 3 4 5 6 
#
# 1 0.010644 0.000024 -0.003403 -0.000012 0.007130 -0.000002
# 2 0.000024 0.003289 -0.002711 0.000012 -0.003035 0.000010
# 3 -0.003403 -0.002711 0.015914 -0.000059 0.011056 -0.000052
# 4 -0.000012 0.000012 -0.000059 0.023609 -0.000111 0.003907
# 5 0.007130 -0.003035 0.011056 -0.000111 0.035320 -0.000078
# 6 -0.000002 0.000010 -0.000052 0.003907 -0.000078 0.041064
#
#
# Mechanical properties :
#
#
# Convention : Reuss Voigt Hill
#
# Bulk Modulus (GPa) = 56.60329 99.54758 78.07543
# Shear Modulus (GPa) = 33.80455 57.57181 45.68818
#
# Velocity S-wave (km/s) = 3.48010 4.54161 4.04582
# Velocity P-wave (km/s) = 6.03551 7.94773 7.05669
#
# Compressibility (1/GPa) = 0.01766682
#
# Stress axis : x y z
#
# Youngs Moduli (GPa) = 93.95033 304.02692 62.83914
#
# Poissons Ratio (x) = -0.00726 0.21382
# Poissons Ratio (y) = -0.00224 0.17037
# Poissons Ratio (z) = 0.31968 0.82427
#
# Static dielectric constant tensor:
#      x y z
#    x 2.245130 -0.000010 0.042890 
#    y -0.000010 2.196210 -0.000020 
#    z 0.042890 -0.000020 2.161540 
# 
# From -- ./inp_files/139095.got.cif
#   From: 2010.05.17/outbox.cif.g08.bks.cpg/sg12_70_cif.got.tgz:139095.got - 2010.06.03 13:09:07.
