data_PCOD9181027
_publ_section_title
;
Structure prediction by ZEFSAII (Michael W. Deem and Ramdas Pophale) SiO2 
 PCOD9181027
Probable space group: C 2/M
;
_chemical_formula_sum "Si O2"
_cell_formula_units_Z 52
_cell_length_a 5.180387
_cell_length_b 15.565304
_cell_length_c 33.140888
_cell_angle_alpha 90.000000
_cell_angle_beta 85.535510
_cell_angle_gamma 90.000000
_cell_volume 2664.183902
_symmetry_space_group_name_H-M "C 2/M"
_symmetry_group_IT_number 12
_symmetry_cell_setting 'monoclinic'
loop_
_space_group_symop_operation_xyz
x,y,z
-x,y,-z
-x,-y,-z
x,-y,z
1/2+x,1/2+y,z
1/2-x,1/2+y,-z
1/2-x,1/2-y,-z
1/2+x,1/2-y,z
loop_
_atom_site_type_symbol
_atom_site_label
_atom_site_fract_x
_atom_site_fract_y
_atom_site_fract_z
Si Si1 0.004061 0.603626 0.366362
Si Si2 0.162534 0.692600 0.282485
Si Si3 0.500000 0.690608 0.500000
Si Si4 0.250913 0.192473 0.889872
Si Si5 0.095946 0.691968 0.196205
Si Si6 0.019024 0.896366 0.585799
Si Si7 0.736788 0.103624 0.024848
O O1 0.003410 0.500000 0.365851
O O2 0.720968 0.633370 0.383725
O O3 0.087595 0.636782 0.321794
O O4 0.213807 0.632527 0.397020
O O5 0.451231 0.730173 0.283366
O O6 0.131382 0.647478 0.239096
O O7 0.250000 0.750000 0.500000
O O8 0.512941 0.635210 0.459200
O O9 0.462072 0.269274 0.890601
O O10 0.325376 0.146995 0.846577
O O11 0.278268 0.137274 0.929631
O O12 0.305496 0.770676 0.196168
O O13 0.017904 0.000000 0.585708
O O14 0.733445 0.000000 0.025732
O O15 0.500000 0.133595 0.000000
O O16 0.000000 0.131919 0.000000
#
# Coordination Sequence:
#
# PCOD9181027 Si02
#       7
#     8   8   4   8   8   8   8
#     4  10  21  36  55  79 105 135 172 210 246 293
#     4  10  19  32  53  77 103 135 167 203 251 301
#     4  12  25  38  57  84 108 130 170 222 253 286
#     4  10  19  32  52  74  97 127 168 211 243 289
#     4   8  16  30  47  71 100 129 161 200 249 296
#     4  10  22  40  57  74 105 144 171 199 253 310
#     4  10  21  35  49  69 100 132 161 201 255 305
#
# _framework density 19.518172
#
# number of rings (size 3 to 8) (size 9 to 14) (size 15 to 20)
#    0.000    2.154    0.000    3.000    0.000    5.538 
#    0.000    3.846    0.000    0.000    0.000   19.385 
#    0.000    0.000    0.000    0.000    0.000    0.000 
#
# Total GULP energy -145120.563412 kJ/mol
# GULP energy per Si atom -5581.560131 kJ/mol
# Density = 1.947375 g / cm^3
# Si number density = 19.518172 Si / 1000 Ang^3
#
#
#
# Elastic Constant Matrix: (Units=GPa)
#
#
# Indices 1 2 3 4 5 6 
#
# 1 97.6687 4.2575 -3.9918 0.0000 -0.5323 0.0000
# 2 4.2575 9.3876 10.3326 0.0000 0.2003 0.0000
# 3 -3.9918 10.3326 138.2275 0.0000 2.0990 0.0000
# 4 0.0000 0.0000 0.0000-1698.9127 0.0000 85.8743
# 5 -0.5323 0.2003 2.0990 0.0000 33.5568 0.0000
# 6 0.0000 0.0000 0.0000 85.8743 0.0000 -3.0507
#
#
#
# Elastic Compliance Matrix: (Units=1/GPa)
#
#
# Indices 1 2 3 4 5 6 
#
# 1 0.010511 -0.005559 0.000717 0.000000 0.000155 0.000000
# 2 -0.005559 0.119015 -0.009053 0.000000 -0.000232 0.000000
# 3 0.000717 -0.009053 0.007938 0.000000 -0.000431 0.000000
# 4 0.000000 0.000000 0.000000 0.001392 0.000000 0.039184
# 5 0.000155 -0.000232 -0.000431 0.000000 0.029831 0.000000
# 6 0.000000 0.000000 0.000000 0.039184 0.000000 0.775200
#
#
# Mechanical properties :
#
#
# Convention : Reuss Voigt Hill
#
# Bulk Modulus (GPa) = 9.11805 29.60890 19.36348
# Shear Modulus (GPa) = 4.95915 -318.03560 -156.53822
#
# Velocity S-wave (km/s) = 1.59571 -12.77877 -8.96523
# Velocity P-wave (km/s) = 2.84197 14.23118 9.86027
#
# Compressibility (1/GPa) = 0.10967259
#
# Stress axis : x y z
#
# Youngs Moduli (GPa) = 95.13695 8.40232 125.96928
#
# Poissons Ratio (x) = 0.04671 -0.09029
# Poissons Ratio (y) = 0.52889 1.14045
# Poissons Ratio (z) = -0.06819 0.07607
#
# Static dielectric constant tensor:
#      x y z
#    x 1.672170 0.000000 0.000830 
#    y 0.000000 1.656580 0.000000 
#    z 0.000830 0.000000 1.703630 
# 
# From -- ./inp_files/354885.got.cif
#   From: 2010.05.17/outbox.cif.g08.bks.cpg/sg12_178_cif.got.tgz:354885.got - 2010.06.03 13:09:07.
