data_PCOD9181698
_publ_section_title
;
Structure prediction by ZEFSAII (Michael W. Deem and Ramdas Pophale) SiO2 
 PCOD9181698
Probable space group: C 2/M
;
_chemical_formula_sum "Si O2"
_cell_formula_units_Z 64
_cell_length_a 29.660484
_cell_length_b 8.182168
_cell_length_c 23.986745
_cell_angle_alpha 90.000000
_cell_angle_beta 150.931496
_cell_angle_gamma 90.000000
_cell_volume 2828.294368
_symmetry_space_group_name_H-M "C 2/M"
_symmetry_group_IT_number 12
_symmetry_cell_setting 'monoclinic'
loop_
_space_group_symop_operation_xyz
x,y,z
-x,y,-z
-x,-y,-z
x,-y,z
1/2+x,1/2+y,z
1/2-x,1/2+y,-z
1/2-x,1/2-y,-z
1/2+x,1/2-y,z
loop_
_atom_site_type_symbol
_atom_site_label
_atom_site_fract_x
_atom_site_fract_y
_atom_site_fract_z
Si Si1 0.763504 0.191831 0.791508
Si Si2 0.762368 0.695452 0.449647
Si Si3 0.971755 0.301315 0.645254
Si Si4 0.892864 0.313855 0.300901
Si Si5 0.745197 0.683645 0.933137
Si Si6 0.161601 0.686712 0.235648
Si Si7 0.466187 0.310241 0.047609
Si Si8 0.038330 0.685947 0.839068
O O1 0.667140 0.261744 0.712822
O O2 0.775462 0.209542 0.738508
O O3 0.760890 0.000000 0.803684
O O4 0.862589 0.257139 0.922404
O O5 0.752612 0.500000 0.436525
O O6 0.750000 0.750000 0.500000
O O7 0.690833 0.777495 0.330315
O O8 0.864552 0.740014 0.537262
O O9 0.981123 0.500000 0.653610
O O10 0.020865 0.240896 0.641316
O O11 0.018872 0.251940 0.755350
O O12 0.919064 0.500000 0.344609
O O13 0.813237 0.306064 0.167413
O O14 0.705364 0.500000 0.886336
O O15 0.750000 0.750000 0.000000
O O16 0.852087 0.674556 0.033094
O O17 0.178163 0.500000 0.239449
O O18 0.053206 0.727108 0.111859
O O19 0.465217 0.500000 0.030758
O O20 0.490310 0.293203 0.139382
O O21 0.999030 0.500000 0.800727
#
# Coordination Sequence:
#
# PCOD9181698 Si02
#       8
#     8   8   8   8   8   8   8   8
#     4  10  22  39  62  90 122 158 199 248 302 363
#     4  11  23  43  70  96 121 154 200 252 307 358
#     4   9  19  36  60  88 119 157 200 248 298 353
#     4  10  19  37  59  85 121 159 198 245 300 360
#     4  11  20  30  49  78 119 165 203 243 288 348
#     4  12  26  43  63  86 119 161 204 251 304 361
#     4  11  22  37  60  91 123 156 201 253 306 362
#     4  10  19  32  53  84 124 161 198 240 294 361
#
# _framework density 22.628481000000001
#
# number of rings (size 3 to 8) (size 9 to 14) (size 15 to 20)
#    0.000    1.500    2.500    3.375    0.000    4.500 
#    0.000    2.500    0.000    3.750    0.000    0.000 
#    0.000    0.000    0.000    0.000    0.000    0.000 
#
# Total GULP energy -178555.453701 kJ/mol
# GULP energy per Si atom -5579.857928 kJ/mol
# Density = 2.257698 g / cm^3
# Si number density = 22.628481 Si / 1000 Ang^3
#
#
#
# Elastic Constant Matrix: (Units=GPa)
#
#
# Indices 1 2 3 4 5 6 
#
# 1 149.5016 4.6379 24.5773 0.0000 13.4882 0.0000
# 2 4.6379 36.4891 0.9992 0.0000 6.8166 0.0000
# 3 24.5773 0.9992 53.6865 0.0000 12.4365 0.0000
# 4 0.0000 0.0000 0.0000 13.7526 0.0000 -6.5017
# 5 13.4882 6.8166 12.4365 0.0000 39.2456 0.0000
# 6 0.0000 0.0000 0.0000 -6.5017 0.0000 24.2834
#
#
#
# Elastic Compliance Matrix: (Units=1/GPa)
#
#
# Indices 1 2 3 4 5 6 
#
# 1 0.007333 -0.000576 -0.003006 0.000000 -0.001468 0.000000
# 2 -0.000576 0.028391 0.000897 0.000000 -0.005018 0.000000
# 3 -0.003006 0.000897 0.021350 0.000000 -0.005888 0.000000
# 4 0.000000 0.000000 0.000000 0.083251 0.000000 0.022290
# 5 -0.001468 -0.005018 -0.005888 0.000000 0.028723 0.000000
# 6 0.000000 0.000000 0.000000 0.022290 0.000000 0.047148
#
#
# Mechanical properties :
#
#
# Convention : Reuss Voigt Hill
#
# Bulk Modulus (GPa) = 19.34011 33.34510 26.34261
# Shear Modulus (GPa) = 20.93787 29.42052 25.17919
#
# Velocity S-wave (km/s) = 3.04516 3.60968 3.33937
# Velocity P-wave (km/s) = 4.57486 5.66930 5.15122
#
# Compressibility (1/GPa) = 0.05170601
#
# Stress axis : x y z
#
# Youngs Moduli (GPa) = 136.36212 35.22187 46.83774
#
# Poissons Ratio (x) = 0.02027 0.14082
# Poissons Ratio (y) = 0.07849 -0.04204
# Poissons Ratio (z) = 0.40997 -0.03161
#
# Static dielectric constant tensor:
#      x y z
#    x 1.924120 0.000000 0.040460 
#    y 0.000000 1.841030 0.000000 
#    z 0.040460 0.000000 1.842600 
# 
# From -- ./inp_files/353516.got.cif
#   From: 2010.05.17/outbox.cif.g08.bks.cpg/sg12_177_cif.got.tgz:353516.got - 2010.06.03 13:09:07.
