data_PCOD9181513
_publ_section_title
;
Structure prediction by ZEFSAII (Michael W. Deem and Ramdas Pophale) SiO2 
 PCOD9181513
Probable space group: C 2/M
;
_chemical_formula_sum "Si O2"
_cell_formula_units_Z 56
_cell_length_a 18.274011
_cell_length_b 7.578270
_cell_length_c 29.259876
_cell_angle_alpha 90.000000
_cell_angle_beta 139.397591
_cell_angle_gamma 90.000000
_cell_volume 2637.108991
_symmetry_space_group_name_H-M "C 2/M"
_symmetry_group_IT_number 12
_symmetry_cell_setting 'monoclinic'
loop_
_space_group_symop_operation_xyz
x,y,z
-x,y,-z
-x,-y,-z
x,-y,z
1/2+x,1/2+y,z
1/2-x,1/2+y,-z
1/2-x,1/2-y,-z
1/2+x,1/2-y,z
loop_
_atom_site_type_symbol
_atom_site_label
_atom_site_fract_x
_atom_site_fract_y
_atom_site_fract_z
Si Si1 0.471403 0.209422 0.353567
Si Si2 0.127268 0.216571 0.070336
Si Si3 0.830317 0.288484 0.494744
Si Si4 0.449794 0.793955 0.796390
Si Si5 0.297369 0.211450 0.072449
Si Si6 0.130135 0.787586 0.342577
Si Si7 0.728948 0.704306 0.213691
O O1 0.548259 0.281291 0.431682
O O2 0.543539 0.231624 0.341323
O O3 0.347312 0.284030 0.286349
O O4 0.460073 0.000000 0.357124
O O5 0.211748 0.275349 0.070601
O O6 0.174318 0.278013 0.141551
O O7 0.124850 0.000000 0.069426
O O8 0.000000 0.273746 0.000000
O O9 0.840379 0.500000 0.494606
O O10 0.750000 0.250000 0.500000
O O11 0.755475 0.224880 0.416696
O O12 0.575809 0.720470 0.861503
O O13 0.409682 0.776358 0.725342
O O14 0.361302 0.709130 0.788783
O O15 0.452731 0.000000 0.810116
O O16 0.302997 0.000000 0.080755
O O17 0.250000 0.250000 0.000000
O O18 0.131214 0.000000 0.342412
O O19 0.754627 0.500000 0.214654
#
# Coordination Sequence:
#
# PCOD9181513 Si02
#       7
#     8   8   8   8   8   8   8
#     4   9  17  32  54  78 105 136 173 222 274 318
#     4   9  17  31  53  78 102 129 164 206 251 304
#     4   8  15  28  48  75 103 132 170 217 266 315
#     4  11  23  37  52  74 108 144 177 218 264 308
#     4  10  21  37  57  81 107 136 170 210 259 312
#     4  10  19  32  53  79 105 137 178 218 261 320
#     4  10  20  35  55  76 101 139 182 219 261 314
#
# _framework density 21.235375999999999
#
# number of rings (size 3 to 8) (size 9 to 14) (size 15 to 20)
#    0.000    2.429    0.000    2.571    0.000    5.714 
#    0.000    1.429    0.000    6.857    0.000    0.000 
#    0.000    0.000    0.000    0.000    0.000    0.000 
#
# Total GULP energy -156250.076342 kJ/mol
# GULP energy per Si atom -5580.359869 kJ/mol
# Density = 2.118704 g / cm^3
# Si number density = 21.235376 Si / 1000 Ang^3
#
#
#
# Elastic Constant Matrix: (Units=GPa)
#
#
# Indices 1 2 3 4 5 6 
#
# 1 102.6219 -15.2501 99.2908 -0.0002 17.3280 0.0004
# 2 -15.2501 47.8347 0.3211 -0.0003 9.6469 0.0008
# 3 99.2908 0.3211 244.8819 -0.0001 21.5112 0.0001
# 4 -0.0002 -0.0003 -0.0001 -4.1400 0.0000 -7.7289
# 5 17.3280 9.6469 21.5112 0.0000 34.3438 -0.0001
# 6 0.0004 0.0008 0.0001 -7.7289 -0.0001 17.7428
#
#
#
# Elastic Compliance Matrix: (Units=1/GPa)
#
#
# Indices 1 2 3 4 5 6 
#
# 1 0.018892 0.007530 -0.007034 0.000000 -0.007241 -0.000001
# 2 0.007530 0.025232 -0.002254 0.000000 -0.009475 -0.000001
# 3 -0.007034 -0.002254 0.006954 0.000000 -0.000173 0.000000
# 4 0.000000 0.000000 0.000000 -0.133213 0.000000 -0.058029
# 5 -0.007241 -0.009475 -0.000173 0.000000 0.035541 0.000001
# 6 -0.000001 -0.000001 0.000000 -0.058029 0.000001 0.031083
#
#
# Mechanical properties :
#
#
# Convention : Reuss Voigt Hill
#
# Bulk Modulus (GPa) = 21.02485 62.67357 41.84921
# Shear Modulus (GPa) = 1296.22042 30.32110 663.27076
#
# Velocity S-wave (km/s) = 24.73320 3.78280 17.69238
# Velocity P-wave (km/s) = 28.73263 6.97548 20.90719
#
# Compressibility (1/GPa) = 0.04756276
#
# Stress axis : x y z
#
# Youngs Moduli (GPa) = 52.93349 39.63211 143.80854
#
# Poissons Ratio (x) = -0.29845 1.01150
# Poissons Ratio (y) = -0.39861 0.32416
# Poissons Ratio (z) = 0.37232 0.08933
#
# Static dielectric constant tensor:
#      x y z
#    x 1.699610 0.000000 0.021140 
#    y 0.000000 1.571370 0.000000 
#    z 0.021140 0.000000 1.801210 
# 
# From -- ./inp_files/280407.got.cif
#   From: 2010.05.17/outbox.cif.g08.bks.cpg/sg12_141_cif.got.tgz:280407.got - 2010.06.03 13:09:07.
