data_PCOD9181639
_publ_section_title
;
Structure prediction by ZEFSAII (Michael W. Deem and Ramdas Pophale) SiO2 
 PCOD9181639
Probable space group: C 2/M
;
_chemical_formula_sum "Si O2"
_cell_formula_units_Z 56
_cell_length_a 25.391278
_cell_length_b 9.099853
_cell_length_c 13.652843
_cell_angle_alpha 90.000000
_cell_angle_beta 69.802200
_cell_angle_gamma 90.000000
_cell_volume 2960.596467
_symmetry_space_group_name_H-M "C 2/M"
_symmetry_group_IT_number 12
_symmetry_cell_setting 'monoclinic'
loop_
_space_group_symop_operation_xyz
x,y,z
-x,y,-z
-x,-y,-z
x,-y,z
1/2+x,1/2+y,z
1/2-x,1/2+y,-z
1/2-x,1/2-y,-z
1/2+x,1/2-y,z
loop_
_atom_site_type_symbol
_atom_site_label
_atom_site_fract_x
_atom_site_fract_y
_atom_site_fract_z
Si Si1 0.796300 0.171054 0.906199
Si Si2 0.562973 0.334829 0.918424
Si Si3 0.604088 0.833707 0.068361
Si Si4 0.690983 0.323188 0.509874
Si Si5 0.644513 0.677314 0.324396
Si Si6 0.534795 0.169956 0.307262
Si Si7 0.075030 0.174608 0.680106
O O1 0.853891 0.208434 0.923507
O O2 0.809750 0.223055 0.787247
O O3 0.783791 0.000000 0.910623
O O4 0.750000 0.250000 0.000000
O O5 0.587654 0.500000 0.917293
O O6 0.565363 0.303223 0.801963
O O7 0.500000 0.342654 0.000000
O O8 0.589696 0.208209 0.967244
O O9 0.554164 0.826301 0.180069
O O10 0.627141 0.000000 0.060638
O O11 0.697678 0.500000 0.511414
O O12 0.750000 0.250000 0.500000
O O13 0.669305 0.286814 0.414400
O O14 0.638176 0.279682 0.611926
O O15 0.637381 0.500000 0.322348
O O16 0.584868 0.750915 0.335178
O O17 0.474121 0.245768 0.348907
O O18 0.531601 0.000000 0.339032
O O19 0.070351 0.000000 0.663334
#
# Coordination Sequence:
#
# PCOD9181639 Si02
#       7
#     8   8   8   8   8   8   8
#     4  10  20  35  56  81 110 144 186 231 279 333
#     4  10  19  32  53  81 114 150 185 222 274 334
#     4  10  20  33  51  78 114 150 184 226 277 331
#     4  10  23  43  63  83 110 148 194 238 282 334
#     4   9  20  39  61  82 111 151 188 229 284 340
#     4  10  20  34  56  87 117 145 184 232 284 336
#     4  10  21  37  58  84 115 153 193 233 283 342
#
# _framework density 18.915106999999999
#
# number of rings (size 3 to 8) (size 9 to 14) (size 15 to 20)
#    0.000    2.143    1.429    1.286    0.000    5.429 
#    0.000    5.714    0.000    0.000    0.000    0.000 
#    0.000    0.000    0.000    0.000    0.000    0.000 
#
# Total GULP energy -156076.860880 kJ/mol
# GULP energy per Si atom -5574.173603 kJ/mol
# Density = 1.887206 g / cm^3
# Si number density = 18.915107 Si / 1000 Ang^3
#
#
#
# Elastic Constant Matrix: (Units=GPa)
#
#
# Indices 1 2 3 4 5 6 
#
# 1 112.4369 43.7637 71.8606 0.0000 -8.9790 0.0000
# 2 43.7637 35.9442 38.8295 0.0000 3.2442 0.0000
# 3 71.8606 38.8295 107.8603 0.0000 -6.3132 0.0000
# 4 0.0000 0.0000 0.0000 20.0611 0.0000 -2.4250
# 5 -8.9790 3.2442 -6.3132 0.0000 29.5157 0.0000
# 6 0.0000 0.0000 0.0000 -2.4250 0.0000 34.9111
#
#
#
# Elastic Compliance Matrix: (Units=1/GPa)
#
#
# Indices 1 2 3 4 5 6 
#
# 1 0.021327 -0.019162 -0.006894 0.000000 0.007119 0.000000
# 2 -0.019162 0.065014 -0.011543 0.000000 -0.015444 0.000000
# 3 -0.006894 -0.011543 0.018199 0.000000 0.003064 0.000000
# 4 0.000000 0.000000 0.000000 0.050270 0.000000 0.003492
# 5 0.007119 -0.015444 0.003064 0.000000 0.038399 0.000000
# 6 0.000000 0.000000 0.000000 0.003492 0.000000 0.028887
#
#
# Mechanical properties :
#
#
# Convention : Reuss Voigt Hill
#
# Bulk Modulus (GPa) = 34.07905 62.79434 48.43670
# Shear Modulus (GPa) = 16.28276 23.68342 19.98309
#
# Velocity S-wave (km/s) = 2.93718 3.54233 3.25385
# Velocity P-wave (km/s) = 5.43679 7.07113 6.30712
#
# Compressibility (1/GPa) = 0.02934354
#
# Stress axis : x y z
#
# Youngs Moduli (GPa) = 46.88980 15.38119 54.94847
#
# Poissons Ratio (x) = 0.29473 0.37880
# Poissons Ratio (y) = 0.89848 0.63426
# Poissons Ratio (z) = 0.32325 0.17754
#
# Static dielectric constant tensor:
#      x y z
#    x 1.670040 0.000000 -0.015440 
#    y 0.000000 1.657330 0.000000 
#    z -0.015440 0.000000 1.712090 
# 
# From -- ./inp_files/237441.got.cif
#   From: 2010.05.17/outbox.cif.g08.bks.cpg/sg12_119_cif.got.tgz:237441.got - 2010.06.03 13:09:07.
