data_PCOD9181760
_publ_section_title
;
Structure prediction by ZEFSAII (Michael W. Deem and Ramdas Pophale) SiO2 
 PCOD9181760
Probable space group: C 2/M
;
_chemical_formula_sum "Si O2"
_cell_formula_units_Z 42
_cell_length_a 24.645763
_cell_length_b 9.528826
_cell_length_c 8.047936
_cell_angle_alpha 90.000000
_cell_angle_beta 71.737934
_cell_angle_gamma 90.000000
_cell_volume 1794.824742
_symmetry_space_group_name_H-M "C 2/M"
_symmetry_group_IT_number 12
_symmetry_cell_setting 'monoclinic'
loop_
_space_group_symop_operation_xyz
x,y,z
-x,y,-z
-x,-y,-z
x,-y,z
1/2+x,1/2+y,z
1/2-x,1/2+y,-z
1/2-x,1/2-y,-z
1/2+x,1/2-y,z
loop_
_atom_site_type_symbol
_atom_site_label
_atom_site_fract_x
_atom_site_fract_y
_atom_site_fract_z
Si Si1 0.263282 0.661623 0.231204
Si Si2 0.433777 0.234426 0.211860
Si Si3 0.000000 0.000000 0.000000
Si Si4 0.832750 0.162204 0.515908
Si Si5 0.141430 0.661488 0.023853
Si Si6 0.463352 0.839840 0.678778
O O1 0.254764 0.500000 0.192565
O O2 0.204928 0.744560 0.323602
O O3 0.297423 0.660018 0.374975
O O4 0.303845 0.744539 0.065374
O O5 0.392459 0.267257 0.407742
O O6 0.395060 0.159669 0.112295
O O7 0.490666 0.156726 0.216895
O O8 0.456185 0.378457 0.111673
O O9 0.839092 0.000000 0.563577
O O10 0.155592 0.500000 0.049174
O O11 0.095829 0.722382 0.199988
O O12 0.500000 0.766259 0.500000
O O13 0.450239 0.000000 0.639076
#
# Coordination Sequence:
#
# PCOD9181760 Si02
#       6
#     8   8   2   8   8   8
#     4   9  18  29  48  74 105 136 169 215 265 311
#     4  11  20  32  56  76 111 138 179 214 267 308
#     4  12  20  32  52  84 108 144 172 224 256 324
#     4   9  17  29  46  73 105 137 168 211 260 311
#     4  10  19  32  54  79 105 139 178 216 262 316
#     4  10  21  36  53  77 107 139 177 220 267 317
#
# _framework density 23.400611000000001
#
# number of rings (size 3 to 8) (size 9 to 14) (size 15 to 20)
#    0.000    2.095    2.857    1.143    1.333    6.857 
#    0.000    0.476    0.000    1.143    0.000    0.000 
#    0.000    0.000    0.000    0.000    0.000    0.000 
#
# Total GULP energy -117113.875582 kJ/mol
# GULP energy per Si atom -5576.851218 kJ/mol
# Density = 2.334735 g / cm^3
# Si number density = 23.400611 Si / 1000 Ang^3
#
#
#
# Elastic Constant Matrix: (Units=GPa)
#
#
# Indices 1 2 3 4 5 6 
#
# 1 116.5400 23.7251 56.9082 0.0000 -31.0177 0.0000
# 2 23.7251 122.5983 61.6935 0.0000 -42.8426 0.0000
# 3 56.9082 61.6935 163.6484 0.0000 -65.1190 0.0000
# 4 0.0000 0.0000 0.0000 -353.4397 0.0000 -809.0838
# 5 -31.0177 -42.8426 -65.1190 0.0000 63.5795 0.0000
# 6 0.0000 0.0000 0.0000 -809.0838 0.0000-1665.2319
#
#
#
# Elastic Compliance Matrix: (Units=1/GPa)
#
#
# Indices 1 2 3 4 5 6 
#
# 1 0.010543 0.000209 -0.002772 0.000000 0.002445 0.000000
# 2 0.000209 0.011059 -0.002086 0.000000 0.005418 0.000000
# 3 -0.002772 -0.002086 0.011416 0.000000 0.008935 0.000000
# 4 0.000000 0.000000 0.000000 0.025209 0.000000 -0.012248
# 5 0.002445 0.005418 0.008935 0.000000 0.029723 0.000000
# 6 0.000000 0.000000 0.000000 -0.012248 0.000000 0.005350
#
#
# Mechanical properties :
#
#
# Convention : Reuss Voigt Hill
#
# Bulk Modulus (GPa) = 42.15843 76.38224 59.27034
# Shear Modulus (GPa) = 45.24678 -373.65443 -164.20382
#
# Velocity S-wave (km/s) = 4.40201 -12.65005 -8.38589
# Velocity P-wave (km/s) = 6.62510 13.44073 8.26925
#
# Compressibility (1/GPa) = 0.02372005
#
# Stress axis : x y z
#
# Youngs Moduli (GPa) = 94.85363 90.42221 87.59326
#
# Poissons Ratio (x) = -0.01892 0.24282
# Poissons Ratio (y) = -0.01984 0.18274
# Poissons Ratio (z) = 0.26294 0.18864
#
# Static dielectric constant tensor:
#      x y z
#    x 1.886280 0.000000 0.044190 
#    y 0.000000 1.816410 0.000000 
#    z 0.044190 0.000000 1.943720 
# 
# From -- ./inp_files/108487.got.cif
#   From: 2010.05.17/outbox.cif.g08.bks.cpg/sg12_55_cif.got.tgz:108487.got - 2010.06.03 13:09:07.
