data_PCOD9181046
_publ_section_title
;
Structure prediction by ZEFSAII (Michael W. Deem and Ramdas Pophale) SiO2 
 PCOD9181046
Probable space group: C 2/M
;
_chemical_formula_sum "Si O2"
_cell_formula_units_Z 56
_cell_length_a 23.089068
_cell_length_b 8.621327
_cell_length_c 18.056135
_cell_angle_alpha 90.000000
_cell_angle_beta 121.696468
_cell_angle_gamma 90.000000
_cell_volume 3058.123355
_symmetry_space_group_name_H-M "C 2/M"
_symmetry_group_IT_number 12
_symmetry_cell_setting 'monoclinic'
loop_
_space_group_symop_operation_xyz
x,y,z
-x,y,-z
-x,-y,-z
x,-y,z
1/2+x,1/2+y,z
1/2-x,1/2+y,-z
1/2-x,1/2-y,-z
1/2+x,1/2-y,z
loop_
_atom_site_type_symbol
_atom_site_label
_atom_site_fract_x
_atom_site_fract_y
_atom_site_fract_z
Si Si1 0.449193 0.680452 0.031252
Si Si2 0.582623 0.313701 0.755953
Si Si3 0.322005 0.817702 0.629858
Si Si4 0.319667 0.185048 0.459614
Si Si5 0.955504 0.821810 0.760875
Si Si6 0.327997 0.185901 0.048427
Si Si7 0.572214 0.187960 0.585423
O O1 0.433689 0.500000 0.001764
O O2 0.498100 0.683165 0.135493
O O3 0.378063 0.755745 0.014081
O O4 0.500000 0.742640 0.000000
O O5 0.588771 0.500000 0.766504
O O6 0.506000 0.270508 0.729643
O O7 0.634100 0.239427 0.850207
O O8 0.588724 0.258491 0.676253
O O9 0.332538 0.760173 0.552213
O O10 0.255981 0.730688 0.614073
O O11 0.389349 0.782081 0.720255
O O12 0.307911 0.000000 0.618381
O O13 0.372532 0.245195 0.436137
O O14 0.326411 0.000000 0.465943
O O15 0.934256 0.000000 0.734254
O O16 0.325409 0.000000 0.043051
O O17 0.250000 0.250000 0.000000
O O18 0.500000 0.227870 0.500000
O O19 0.574430 0.000000 0.593950
#
# Coordination Sequence:
#
# PCOD9181046 Si02
#       7
#     8   8   8   8   8   8   8
#     4   9  19  38  61  86 116 149 188 234 285 343
#     4  10  21  37  57  83 113 145 187 233 279 336
#     4  10  19  32  52  75 100 137 181 224 266 316
#     4   9  19  34  50  71 104 141 177 219 269 324
#     4   9  18  33  54  78 105 139 175 217 271 328
#     4  11  22  39  63  88 117 155 196 240 294 351
#     4  10  20  35  55  80 111 147 186 228 278 333
#
# _framework density 18.311883999999999
#
# number of rings (size 3 to 8) (size 9 to 14) (size 15 to 20)
#    0.000    2.286    0.000    3.857    0.000    5.714 
#    2.571    0.000    0.000    0.000    0.000    0.000 
#    0.000    0.000    0.000    0.000    0.000    0.000 
#
# Total GULP energy -156013.446518 kJ/mol
# GULP energy per Si atom -5571.908804 kJ/mol
# Density = 1.827021 g / cm^3
# Si number density = 18.311884 Si / 1000 Ang^3
#
#
#
# Elastic Constant Matrix: (Units=GPa)
#
#
# Indices 1 2 3 4 5 6 
#
# 1 156.9676 32.4825 48.2005 0.0000 -6.8395 0.0000
# 2 32.4825 36.6139 15.2750 0.0000 1.0369 0.0000
# 3 48.2005 15.2750 44.5209 0.0000 6.5313 0.0000
# 4 0.0000 0.0000 0.0000 20.1517 0.0000 -6.4034
# 5 -6.8395 1.0369 6.5313 0.0000 24.7551 0.0000
# 6 0.0000 0.0000 0.0000 -6.4034 0.0000 18.7356
#
#
#
# Elastic Compliance Matrix: (Units=1/GPa)
#
#
# Indices 1 2 3 4 5 6 
#
# 1 0.011207 -0.005455 -0.011182 0.000000 0.006275 0.000000
# 2 -0.005455 0.034592 -0.005752 0.000000 -0.001439 0.000000
# 3 -0.011182 -0.005752 0.038447 0.000000 -0.012992 0.000000
# 4 0.000000 0.000000 0.000000 0.055669 0.000000 0.019026
# 5 0.006275 -0.001439 -0.012992 0.000000 0.045618 0.000000
# 6 0.000000 0.000000 0.000000 0.019026 0.000000 0.059877
#
#
# Mechanical properties :
#
#
# Convention : Reuss Voigt Hill
#
# Bulk Modulus (GPa) = 25.33670 47.77983 36.55826
# Shear Modulus (GPa) = 16.48307 22.20477 19.34392
#
# Velocity S-wave (km/s) = 3.00347 3.48600 3.25369
# Velocity P-wave (km/s) = 5.08862 6.50783 5.84148
#
# Compressibility (1/GPa) = 0.03946844
#
# Stress axis : x y z
#
# Youngs Moduli (GPa) = 89.23312 28.90870 26.01008
#
# Poissons Ratio (x) = 0.15769 0.29084
# Poissons Ratio (y) = 0.48675 0.14960
# Poissons Ratio (z) = 0.99779 0.16627
#
# Static dielectric constant tensor:
#      x y z
#    x 1.657910 0.000000 -0.014410 
#    y 0.000000 1.633380 0.000000 
#    z -0.014410 0.000000 1.611940 
# 
# From -- ./inp_files/281616.got.cif
#   From: 2010.05.17/outbox.cif.g08.bks.cpg/sg12_141_cif.got.tgz:281616.got - 2010.06.03 13:09:07.
