data_PCOD9181356
_publ_section_title
;
Structure prediction by ZEFSAII (Michael W. Deem and Ramdas Pophale) SiO2 
 PCOD9181356
Probable space group: C 2/M
;
_chemical_formula_sum "Si O2"
_cell_formula_units_Z 48
_cell_length_a 22.900697
_cell_length_b 11.417650
_cell_length_c 19.748591
_cell_angle_alpha 90.000000
_cell_angle_beta 157.568509
_cell_angle_gamma 90.000000
_cell_volume 1970.359188
_symmetry_space_group_name_H-M "C 2/M"
_symmetry_group_IT_number 12
_symmetry_cell_setting 'monoclinic'
loop_
_space_group_symop_operation_xyz
x,y,z
-x,y,-z
-x,-y,-z
x,-y,z
1/2+x,1/2+y,z
1/2-x,1/2+y,-z
1/2-x,1/2-y,-z
1/2+x,1/2-y,z
loop_
_atom_site_type_symbol
_atom_site_label
_atom_site_fract_x
_atom_site_fract_y
_atom_site_fract_z
Si Si1 0.825205 0.000000 0.396036
Si Si2 0.918583 0.626133 0.708676
Si Si3 0.140513 0.128319 0.312945
Si Si4 0.314615 0.758433 0.226850
Si Si5 0.177892 0.000000 0.772341
Si Si6 0.201196 0.624318 0.920814
Si Si7 0.686459 0.757650 0.619657
O O1 0.825709 0.000000 0.314161
O O2 0.760586 0.126618 0.346373
O O3 0.002087 0.000000 0.608015
O O4 0.943975 0.500000 0.771290
O O5 0.951698 0.750222 0.779460
O O6 0.746676 0.626759 0.494228
O O7 0.026343 0.621419 0.757961
O O8 0.245743 0.150304 0.359849
O O9 0.067179 0.000000 0.229945
O O10 0.258184 0.628679 0.142342
O O11 0.276692 0.861433 0.135249
O O12 0.501363 0.752937 0.424124
O O13 0.264519 0.777430 0.250199
O O14 0.270960 0.500000 0.019274
O O15 0.250000 0.750000 0.000000
#
# Coordination Sequence:
#
# PCOD9181356 Si02
#       7
#     4   8   8   8   4   8   8
#     4   7  12  22  38  72 107 137 169 194 252 327
#     4   9  20  38  53  74 109 147 186 223 262 324
#     4  10  19  32  52  83 114 141 175 220 277 334
#     4   9  17  31  51  80 114 142 178 224 279 331
#     4   7  12  24  42  68 105 135 167 212 250 313
#     4  11  24  40  57  79 109 148 192 229 267 321
#     4   9  16  28  52  83 114 144 169 221 286 335
#
# _framework density 24.361039999999999
#
# number of rings (size 3 to 8) (size 9 to 14) (size 15 to 20)
#    0.000    2.833    1.667    2.000    2.333    1.333 
#    0.000    1.667    0.000    1.000    0.000    4.667 
#    0.000    0.000    0.000    0.000    0.000    0.000 
#
# Total GULP energy -133854.874455 kJ/mol
# GULP energy per Si atom -5577.286436 kJ/mol
# Density = 2.430559 g / cm^3
# Si number density = 24.361040 Si / 1000 Ang^3
#
#
#
# Elastic Constant Matrix: (Units=GPa)
#
#
# Indices 1 2 3 4 5 6 
#
# 1 84.7964 54.7687 12.9459 -0.0003 -6.7055 -0.0002
# 2 54.7687 234.0122 38.5898 -0.0002 -9.6849 -0.0002
# 3 12.9459 38.5898 25.9220 -0.0003 2.5721 -0.0003
# 4 -0.0003 -0.0002 -0.0003 23.3811 -0.0002 -4.4212
# 5 -6.7055 -9.6849 2.5721 -0.0002 22.3269 -0.0002
# 6 -0.0002 -0.0002 -0.0003 -4.4212 -0.0002 40.7821
#
#
#
# Elastic Compliance Matrix: (Units=1/GPa)
#
#
# Indices 1 2 3 4 5 6 
#
# 1 0.014312 -0.002603 -0.003629 0.000000 0.003587 0.000000
# 2 -0.002603 0.006415 -0.008547 0.000000 0.002986 0.000000
# 3 -0.003629 -0.008547 0.054209 0.000000 -0.011042 0.000000
# 4 0.000000 0.000000 0.000000 0.043665 0.000000 0.004734
# 5 0.003587 0.002986 -0.011042 0.000000 0.048434 0.000000
# 6 0.000000 0.000000 0.000000 0.004734 0.000000 0.025034
#
#
# Mechanical properties :
#
#
# Convention : Reuss Voigt Hill
#
# Bulk Modulus (GPa) = 22.03661 61.92661 41.98161
# Shear Modulus (GPa) = 21.11914 33.19310 27.15612
#
# Velocity S-wave (km/s) = 2.94755 3.69528 3.34239
# Velocity P-wave (km/s) = 4.54418 6.60926 5.67150
#
# Compressibility (1/GPa) = 0.04537904
#
# Stress axis : x y z
#
# Youngs Moduli (GPa) = 69.87304 155.87412 18.44705
#
# Poissons Ratio (x) = 0.40568 0.06694
# Poissons Ratio (y) = 0.18185 0.15767
# Poissons Ratio (z) = 0.25357 1.33226
#
# Static dielectric constant tensor:
#      x y z
#    x 1.922410 0.000000 -0.003750 
#    y 0.000000 1.995640 0.000000 
#    z -0.003750 0.000000 1.973870 
# 
# From -- ./inp_files/94943.got.cif
#   From: 2010.05.17/outbox.cif.g08.bks.cpg/sg12_48_cif.got.tgz:94943.got - 2010.06.03 13:09:07.
