data_PCOD9181932
_publ_section_title
;
Structure prediction by ZEFSAII (Michael W. Deem and Ramdas Pophale) SiO2 
 PCOD9181932
Probable space group: C 2/M
;
_chemical_formula_sum "Si O2"
_cell_formula_units_Z 64
_cell_length_a 9.259118
_cell_length_b 29.641008
_cell_length_c 13.726319
_cell_angle_alpha 90.000000
_cell_angle_beta 125.526238
_cell_angle_gamma 90.000000
_cell_volume 3065.919724
_symmetry_space_group_name_H-M "C 2/M"
_symmetry_group_IT_number 12
_symmetry_cell_setting 'monoclinic'
loop_
_space_group_symop_operation_xyz
x,y,z
-x,y,-z
-x,-y,-z
x,-y,z
1/2+x,1/2+y,z
1/2-x,1/2+y,-z
1/2-x,1/2-y,-z
1/2+x,1/2-y,z
loop_
_atom_site_type_symbol
_atom_site_label
_atom_site_fract_x
_atom_site_fract_y
_atom_site_fract_z
Si Si1 0.510561 0.761256 0.277179
Si Si2 0.381944 0.946695 0.710202
Si Si3 0.691205 0.393333 0.781563
Si Si4 0.634268 0.309158 0.631123
Si Si5 0.142873 0.946435 0.436043
Si Si6 0.873402 0.802778 0.856000
Si Si7 0.163144 0.552059 0.669754
Si Si8 0.981838 0.097731 0.878546
O O1 0.473924 0.731159 0.358746
O O2 0.686452 0.791926 0.350422
O O3 0.326445 0.788541 0.194350
O O4 0.550901 0.729163 0.199993
O O5 0.353965 0.919897 0.798175
O O6 0.210067 0.941702 0.572276
O O7 0.538033 0.927490 0.703408
O O8 0.405025 0.000000 0.738707
O O9 0.690464 0.343032 0.739156
O O10 0.517805 0.416867 0.665379
O O11 0.660028 0.397796 0.884350
O O12 0.500000 0.330381 0.500000
O O13 0.308795 0.933287 0.430680
O O14 0.106210 0.000000 0.406820
O O15 0.882281 0.854436 0.823292
O O16 0.000000 0.799366 0.000000
O O17 0.107042 0.500000 0.643275
O O18 0.360798 0.557973 0.789637
O O19 0.000000 0.091894 0.000000
#
# Coordination Sequence:
#
# PCOD9181932 Si02
#       8
#     8   8   8   8   8   8   8   8
#     4  10  22  38  61  85 115 151 185 236 280 342
#     4  10  19  32  54  84 117 145 179 229 277 324
#     4  11  21  35  55  82 112 143 189 234 274 332
#     4  11  22  38  57  84 120 157 188 221 273 346
#     4   9  17  32  54  82 114 151 182 218 275 329
#     4  10  20  39  63  87 111 142 189 244 292 333
#     4   9  19  34  55  81 113 148 186 223 268 336
#     4  10  22  40  59  76 108 144 186 237 286 337
#
# _framework density 20.874649999999999
#
# number of rings (size 3 to 8) (size 9 to 14) (size 15 to 20)
#    0.000    2.000    1.250    2.625    1.750    3.250 
#    0.000    0.625    0.000    1.500    0.000    0.000 
#    0.000    0.000    0.000    0.000    0.000    0.000 
#
# Total GULP energy -178479.888587 kJ/mol
# GULP energy per Si atom -5577.496518 kJ/mol
# Density = 2.082714 g / cm^3
# Si number density = 20.874650 Si / 1000 Ang^3
#
#
#
# Elastic Constant Matrix: (Units=GPa)
#
#
# Indices 1 2 3 4 5 6 
#
# 1 153.5197 24.4898 19.5516 0.0000 -22.8886 0.0000
# 2 24.4898 33.1925 3.4348 0.0000 -3.8742 0.0000
# 3 19.5516 3.4348 38.0912 0.0000 -17.3731 0.0000
# 4 0.0000 0.0000 0.0000 -69.4521 0.0000 -63.6002
# 5 -22.8886 -3.8742 -17.3731 0.0000 34.0009 0.0000
# 6 0.0000 0.0000 0.0000 -63.6002 0.0000 -13.9002
#
#
#
# Elastic Compliance Matrix: (Units=1/GPa)
#
#
# Indices 1 2 3 4 5 6 
#
# 1 0.008206 -0.005396 -0.001938 0.000000 0.003919 0.000000
# 2 -0.005396 0.034150 -0.000250 0.000000 0.000131 0.000000
# 3 -0.001938 -0.000250 0.034763 0.000000 0.016430 0.000000
# 4 0.000000 0.000000 0.000000 0.004514 0.000000 -0.020652
# 5 0.003919 0.000131 0.016430 0.000000 0.040459 0.000000
# 6 0.000000 0.000000 0.000000 -0.020652 0.000000 0.022552
#
#
# Mechanical properties :
#
#
# Convention : Reuss Voigt Hill
#
# Bulk Modulus (GPa) = 16.14186 35.52843 25.83514
# Shear Modulus (GPa) = 27.70658 1.95153 14.82905
#
# Velocity S-wave (km/s) = 3.64714 0.96794 2.66820
# Velocity P-wave (km/s) = 5.04827 4.27856 4.67927
#
# Compressibility (1/GPa) = 0.06195074
#
# Stress axis : x y z
#
# Youngs Moduli (GPa) = 121.86601 29.28269 28.76583
#
# Poissons Ratio (x) = 0.15802 0.05575
# Poissons Ratio (y) = 0.65763 0.00719
# Poissons Ratio (z) = 0.23617 0.00732
#
# Static dielectric constant tensor:
#      x y z
#    x 1.825980 0.000000 -0.003890 
#    y 0.000000 1.755000 0.000000 
#    z -0.003890 0.000000 1.748230 
# 
# From -- ./inp_files/200953.got.cif
#   From: 2010.05.17/outbox.cif.g08.bks.cpg/sg12_101_cif.got.tgz:200953.got - 2010.06.03 13:09:07.
