data_PCOD9181820
_publ_section_title
;
Structure prediction by ZEFSAII (Michael W. Deem and Ramdas Pophale) SiO2 
 PCOD9181820
Probable space group: C 2/M
;
_chemical_formula_sum "Si O2"
_cell_formula_units_Z 64
_cell_length_a 15.078358
_cell_length_b 7.566906
_cell_length_c 22.234905
_cell_angle_alpha 90.000000
_cell_angle_beta 102.734174
_cell_angle_gamma 90.000000
_cell_volume 2474.525098
_symmetry_space_group_name_H-M "C 2/M"
_symmetry_group_IT_number 12
_symmetry_cell_setting 'monoclinic'
loop_
_space_group_symop_operation_xyz
x,y,z
-x,y,-z
-x,-y,-z
x,-y,z
1/2+x,1/2+y,z
1/2-x,1/2+y,-z
1/2-x,1/2-y,-z
1/2+x,1/2-y,z
loop_
_atom_site_type_symbol
_atom_site_label
_atom_site_fract_x
_atom_site_fract_y
_atom_site_fract_z
Si Si1 0.464394 0.784582 0.089406
Si Si2 0.142989 0.711461 0.674185
Si Si3 0.472497 0.789592 0.713008
Si Si4 0.138982 0.286475 0.049535
Si Si5 0.812701 0.787452 0.765981
Si Si6 0.852890 0.292856 0.585387
Si Si7 0.352699 0.290970 0.456412
Si Si8 0.306480 0.796562 0.142347
O O1 0.567110 0.726928 0.090686
O O2 0.402315 0.719394 0.135108
O O3 0.466902 0.000000 0.093498
O O4 0.408078 0.740377 0.020409
O O5 0.148234 0.500000 0.677623
O O6 0.245132 0.774944 0.702171
O O7 0.106389 0.756575 0.602899
O O8 0.074319 0.775800 0.715809
O O9 0.414770 0.763202 0.764565
O O10 0.412679 0.716779 0.648186
O O11 0.479344 0.000000 0.707404
O O12 0.146114 0.500000 0.052708
O O13 0.237401 0.206208 0.075553
O O14 0.758069 0.718139 0.815711
O O15 0.813869 0.000000 0.769482
O O16 0.842387 0.500000 0.596915
O O17 0.750823 0.216564 0.564855
O O18 0.894101 0.279116 0.524461
O O19 0.348953 0.500000 0.464038
O O20 0.325278 0.000000 0.162924
#
# Coordination Sequence:
#
# PCOD9181820 Si02
#       8
#     8   8   8   8   8   8   8   8
#     4   8  16  32  54  79 111 143 174 214 262 314
#     4  10  21  37  57  78 103 138 177 217 265 319
#     4  10  21  38  59  80 102 135 179 223 265 310
#     4   9  17  32  55  82 107 140 181 217 255 307
#     4  10  22  38  54  75 105 140 178 219 266 314
#     4   9  18  33  53  78 107 137 169 211 265 319
#     4  10  19  32  54  81 108 138 171 211 262 318
#     4  10  20  34  52  76 108 143 175 216 267 314
#
# _framework density 25.863545999999999
#
# number of rings (size 3 to 8) (size 9 to 14) (size 15 to 20)
#    0.000    2.500    1.250    1.500    0.000    3.500 
#    0.000    6.875    0.000    0.000    0.000    0.000 
#    0.000    0.000    0.000    0.000    0.000    0.000 
#
# Total GULP energy -178807.363503 kJ/mol
# GULP energy per Si atom -5587.730109 kJ/mol
# Density = 2.580468 g / cm^3
# Si number density = 25.863546 Si / 1000 Ang^3
#
#
#
# Elastic Constant Matrix: (Units=GPa)
#
#
# Indices 1 2 3 4 5 6 
#
# 1 152.1082 -2.4598 32.1783 0.0000 -28.4746 0.0000
# 2 -2.4598 63.6921 -7.1880 0.0000 1.7434 0.0000
# 3 32.1783 -7.1880 80.6535 0.0000 -25.3928 0.0000
# 4 0.0000 0.0000 0.0000 13.3483 0.0000 -3.2266
# 5 -28.4746 1.7434 -25.3928 0.0000 51.6145 0.0000
# 6 0.0000 0.0000 0.0000 -3.2266 0.0000 5.8420
#
#
#
# Elastic Compliance Matrix: (Units=1/GPa)
#
#
# Indices 1 2 3 4 5 6 
#
# 1 0.007601 -0.000023 -0.002028 0.000000 0.003196 0.000000
# 2 -0.000023 0.015862 0.001479 0.000000 0.000179 0.000000
# 3 -0.002028 0.001479 0.015349 0.000000 0.006382 0.000000
# 4 0.000000 0.000000 0.000000 0.086459 0.000000 0.047752
# 5 0.003196 0.000179 0.006382 0.000000 0.024272 0.000000
# 6 0.000000 0.000000 0.000000 0.047752 0.000000 0.197549
#
#
# Mechanical properties :
#
#
# Convention : Reuss Voigt Hill
#
# Bulk Modulus (GPa) = 26.54760 37.94607 32.24683
# Shear Modulus (GPa) = 13.85842 32.42250 23.14046
#
# Velocity S-wave (km/s) = 2.31731 3.54446 2.99442
# Velocity P-wave (km/s) = 4.17692 5.60842 4.94475
#
# Compressibility (1/GPa) = 0.03766819
#
# Stress axis : x y z
#
# Youngs Moduli (GPa) = 131.55531 63.04501 65.14982
#
# Poissons Ratio (x) = 0.00144 0.13215
# Poissons Ratio (y) = 0.00301 -0.09637
# Poissons Ratio (z) = 0.26685 -0.09326
#
# Static dielectric constant tensor:
#      x y z
#    x 2.042170 0.000000 -0.022410 
#    y 0.000000 1.950870 0.000000 
#    z -0.022410 0.000000 2.119150 
# 
# From -- ./inp_files/338762.got.cif
#   From: 2010.05.17/outbox.cif.g08.bks.cpg/sg12_170_cif.got.tgz:338762.got - 2010.06.03 13:09:07.
