data_PCOD9181934
_publ_section_title
;
Structure prediction by ZEFSAII (Michael W. Deem and Ramdas Pophale) SiO2 
 PCOD9181934
Probable space group: C 2/M
;
_chemical_formula_sum "Si O2"
_cell_formula_units_Z 56
_cell_length_a 30.609012
_cell_length_b 8.994516
_cell_length_c 12.015817
_cell_angle_alpha 90.000000
_cell_angle_beta 64.314152
_cell_angle_gamma 90.000000
_cell_volume 2981.219408
_symmetry_space_group_name_H-M "C 2/M"
_symmetry_group_IT_number 12
_symmetry_cell_setting 'monoclinic'
loop_
_space_group_symop_operation_xyz
x,y,z
-x,y,-z
-x,-y,-z
x,-y,z
1/2+x,1/2+y,z
1/2-x,1/2+y,-z
1/2-x,1/2-y,-z
1/2+x,1/2-y,z
loop_
_atom_site_type_symbol
_atom_site_label
_atom_site_fract_x
_atom_site_fract_y
_atom_site_fract_z
Si Si1 0.363840 0.677493 0.549504
Si Si2 0.711344 0.676248 0.188704
Si Si3 0.979147 0.323866 0.817999
Si Si4 0.407142 0.823102 0.287888
Si Si5 0.820931 0.324270 0.000739
Si Si6 0.549489 0.674881 0.375711
Si Si7 0.904227 0.823245 0.053683
O O1 0.366282 0.500000 0.525652
O O2 0.313490 0.712706 0.666720
O O3 0.374953 0.763504 0.424633
O O4 0.405848 0.712512 0.593412
O O5 0.702675 0.500000 0.177808
O O6 0.768815 0.700813 0.117525
O O7 0.686507 0.767267 0.116670
O O8 0.973081 0.500000 0.839318
O O9 0.953993 0.269917 0.732068
O O10 0.036309 0.290456 0.747357
O O11 0.954081 0.240236 0.947787
O O12 0.395525 0.743654 0.185022
O O13 0.402016 0.000000 0.281378
O O14 0.831642 0.500000 0.990590
O O15 0.862356 0.234793 0.017769
O O16 0.500000 0.694567 0.500000
O O17 0.553499 0.500000 0.341014
O O18 0.905381 0.000000 0.055752
#
# Coordination Sequence:
#
# PCOD9181934 Si02
#       7
#     8   8   8   8   8   8   8
#     4  10  20  36  57  83 117 154 192 229 274 334
#     4   9  19  36  61  91 120 152 187 230 283 340
#     4  11  23  38  58  84 115 150 190 238 289 338
#     4  11  24  40  57  81 115 151 190 236 284 338
#     4  10  20  37  61  89 119 148 187 238 288 335
#     4  10  19  32  54  84 118 153 187 226 273 329
#     4  12  25  40  60  82 109 149 196 239 286 343
#
# _framework density 18.784261000000001
#
# number of rings (size 3 to 8) (size 9 to 14) (size 15 to 20)
#    0.000    1.571    1.429    3.857    0.000    6.571 
#    0.000    0.714    0.000    0.000    0.000    0.000 
#    0.000    0.000    0.000    0.000    0.000    0.000 
#
# Total GULP energy -156543.067071 kJ/mol
# GULP energy per Si atom -5590.823824 kJ/mol
# Density = 1.874151 g / cm^3
# Si number density = 18.784261 Si / 1000 Ang^3
#
#
#
# Elastic Constant Matrix: (Units=GPa)
#
#
# Indices 1 2 3 4 5 6 
#
# 1 25.3911 27.2666 27.4224 0.0000 1.8209 0.0000
# 2 27.2666 71.9561 62.5399 0.0000 -0.3260 0.0000
# 3 27.4224 62.5399 136.2508 0.0000 -8.3362 0.0000
# 4 0.0000 0.0000 0.0000 33.1369 0.0000 0.7148
# 5 1.8209 -0.3260 -8.3362 0.0000 21.0157 0.0000
# 6 0.0000 0.0000 0.0000 0.7148 0.0000 21.9383
#
#
#
# Elastic Compliance Matrix: (Units=1/GPa)
#
#
# Indices 1 2 3 4 5 6 
#
# 1 0.068373 -0.022575 -0.003877 0.000000 -0.007812 0.000000
# 2 -0.022575 0.030899 -0.009726 0.000000 -0.001423 0.000000
# 3 -0.003877 -0.009726 0.012909 0.000000 0.005306 0.000000
# 4 0.000000 0.000000 0.000000 0.030199 0.000000 -0.000984
# 5 -0.007812 -0.001423 0.005306 0.000000 0.050343 0.000000
# 6 0.000000 0.000000 0.000000 -0.000984 0.000000 0.045614
#
#
# Mechanical properties :
#
#
# Convention : Reuss Voigt Hill
#
# Bulk Modulus (GPa) = 25.10999 52.00619 38.55809
# Shear Modulus (GPa) = 15.43362 22.97614 19.20488
#
# Velocity S-wave (km/s) = 2.86951 3.50116 3.20096
# Velocity P-wave (km/s) = 4.93714 6.64006 5.85089
#
# Compressibility (1/GPa) = 0.03982478
#
# Stress axis : x y z
#
# Youngs Moduli (GPa) = 14.62556 32.36387 77.46667
#
# Poissons Ratio (x) = 0.73060 0.30036
# Poissons Ratio (y) = 0.33017 0.75346
# Poissons Ratio (z) = 0.05671 0.31478
#
# Static dielectric constant tensor:
#      x y z
#    x 1.637930 0.000000 -0.025570 
#    y 0.000000 1.625440 0.000000 
#    z -0.025570 0.000000 1.643300 
# 
# From -- ./inp_files/180857.got.cif
#   From: 2010.05.17/outbox.cif.g08.bks.cpg/sg12_91_cif.got.tgz:180857.got - 2010.06.03 13:09:07.
