data_PCOD9181350
_publ_section_title
;
Structure prediction by ZEFSAII (Michael W. Deem and Ramdas Pophale) SiO2 
 PCOD9181350
Probable space group: C 2/M
;
_chemical_formula_sum "Si O2"
_cell_formula_units_Z 48
_cell_length_a 12.834666
_cell_length_b 23.032201
_cell_length_c 28.472057
_cell_angle_alpha 90.000000
_cell_angle_beta 161.954945
_cell_angle_gamma 90.000000
_cell_volume 2607.179188
_symmetry_space_group_name_H-M "C 2/M"
_symmetry_group_IT_number 12
_symmetry_cell_setting 'monoclinic'
loop_
_space_group_symop_operation_xyz
x,y,z
-x,y,-z
-x,-y,-z
x,-y,z
1/2+x,1/2+y,z
1/2-x,1/2+y,-z
1/2-x,1/2-y,-z
1/2+x,1/2-y,z
loop_
_atom_site_type_symbol
_atom_site_label
_atom_site_fract_x
_atom_site_fract_y
_atom_site_fract_z
Si Si1 0.702812 0.324783 0.910303
Si Si2 0.368230 0.680165 0.496258
Si Si3 0.873969 0.934925 0.558025
Si Si4 0.303681 0.113538 0.820470
Si Si5 0.765677 0.764338 0.258488
Si Si6 0.713668 0.115318 0.633542
O O1 0.593661 0.265932 0.888663
O O2 0.370246 0.343296 0.739446
O O3 0.000000 0.315864 0.000000
O O4 0.832622 0.376513 0.000189
O O5 0.500000 0.680268 0.500000
O O6 0.339558 0.615059 0.504510
O O7 0.607796 0.712596 0.636635
O O8 0.021470 0.715718 0.349683
O O9 0.553436 0.926359 0.455711
O O10 0.206798 0.922350 0.732620
O O11 0.880238 0.000000 0.542410
O O12 0.222077 0.180227 0.770542
O O13 0.043893 0.090953 0.748820
O O14 0.500000 0.144934 0.500000
#
# Coordination Sequence:
#
# PCOD9181350 Si02
#       6
#     8   8   8   8   8   8
#     4  10  19  32  52  82 117 149 176 214 277 342
#     4  10  22  33  56  86 110 143 187 233 272 325
#     4  10  20  38  57  76 105 148 196 237 277 317
#     4   9  20  32  52  81 114 145 179 225 276 333
#     4  10  20  34  54  82 117 148 178 221 278 337
#     4   9  18  32  53  79 110 139 178 228 269 321
#
# _framework density 18.410702000000001
#
# number of rings (size 3 to 8) (size 9 to 14) (size 15 to 20)
#    0.000    2.333    1.667    0.500    7.000    3.333 
#    0.000    0.833    0.000    6.000    0.000    1.167 
#    0.000    0.000    0.000    0.000    0.000    0.000 
#
# Total GULP energy -133626.007859 kJ/mol
# GULP energy per Si atom -5567.750327 kJ/mol
# Density = 1.836880 g / cm^3
# Si number density = 18.410702 Si / 1000 Ang^3
#
#
#
# Elastic Constant Matrix: (Units=GPa)
#
#
# Indices 1 2 3 4 5 6 
#
# 1 91.1885 34.0165 14.4346 -0.0071 -5.0360 -0.0235
# 2 34.0165 99.8939 25.5233 -0.0562 -1.6268 -0.0171
# 3 14.4346 25.5233 69.8254 0.0860 -6.3268 -0.1013
# 4 -0.0071 -0.0562 0.0860 11.9811 -0.0622 2.2693
# 5 -5.0360 -1.6268 -6.3268 -0.0622 22.3349 -0.0152
# 6 -0.0235 -0.0171 -0.1013 2.2693 -0.0152 7.6322
#
#
#
# Elastic Compliance Matrix: (Units=1/GPa)
#
#
# Indices 1 2 3 4 5 6 
#
# 1 0.012760 -0.004067 -0.000942 0.000003 0.002314 0.000021
# 2 -0.004067 0.012341 -0.003769 0.000089 -0.001086 -0.000063
# 3 -0.000942 -0.003769 0.016268 -0.000163 0.004121 0.000261
# 4 0.000003 0.000089 -0.000163 0.088449 0.000189 -0.026300
# 5 0.002314 -0.001086 0.004121 0.000189 0.046384 0.000096
# 6 0.000021 -0.000063 0.000261 -0.026300 0.000096 0.138847
#
#
# Mechanical properties :
#
#
# Convention : Reuss Voigt Hill
#
# Bulk Modulus (GPa) = 41.99173 45.42852 43.71012
# Shear Modulus (GPa) = 14.68255 20.85187 17.76721
#
# Velocity S-wave (km/s) = 2.82707 3.36906 3.10989
# Velocity P-wave (km/s) = 5.78915 6.31369 6.05710
#
# Compressibility (1/GPa) = 0.02381421
#
# Stress axis : x y z
#
# Youngs Moduli (GPa) = 78.36830 81.03187 61.47162
#
# Poissons Ratio (x) = 0.32955 0.05788
# Poissons Ratio (y) = 0.31872 0.23167
# Poissons Ratio (z) = 0.07379 0.30539
#
# Static dielectric constant tensor:
#      x y z
#    x 1.646530 0.000010 -0.023760 
#    y 0.000010 1.631210 -0.000050 
#    z -0.023760 -0.000050 1.706390 
# 
# From -- ./inp_files/99743.got.cif
#   From: 2010.05.17/outbox.cif.g08.bks.cpg/sg12_50_cif.got.tgz:99743.got - 2010.06.03 13:09:07.
