data_PCOD9181951
_publ_section_title
;
Structure prediction by ZEFSAII (Michael W. Deem and Ramdas Pophale) SiO2 
 PCOD9181951
Probable space group: C 2/M
;
_chemical_formula_sum "Si O2"
_cell_formula_units_Z 48
_cell_length_a 14.142254
_cell_length_b 11.496567
_cell_length_c 19.985336
_cell_angle_alpha 90.000000
_cell_angle_beta 41.412109
_cell_angle_gamma 90.000000
_cell_volume 2149.357533
_symmetry_space_group_name_H-M "C 2/M"
_symmetry_group_IT_number 12
_symmetry_cell_setting 'monoclinic'
loop_
_space_group_symop_operation_xyz
x,y,z
-x,y,-z
-x,-y,-z
x,-y,z
1/2+x,1/2+y,z
1/2-x,1/2+y,-z
1/2-x,1/2-y,-z
1/2+x,1/2-y,z
loop_
_atom_site_type_symbol
_atom_site_label
_atom_site_fract_x
_atom_site_fract_y
_atom_site_fract_z
Si Si1 0.903307 0.630645 0.455230
Si Si2 0.197438 0.236879 0.288958
Si Si3 0.836881 0.281052 0.348747
Si Si4 0.465549 0.630719 0.098008
Si Si5 0.610514 0.372295 0.200783
Si Si6 0.086416 0.627269 0.024982
O O1 0.934717 0.500000 0.458346
O O2 0.857854 0.635714 0.400999
O O3 0.773061 0.683194 0.566198
O O4 0.043982 0.709279 0.388257
O O5 0.269820 0.178195 0.314827
O O6 0.302116 0.338287 0.204340
O O7 0.174319 0.148663 0.240731
O O8 0.989454 0.222491 0.254579
O O9 0.501703 0.500000 0.103646
O O10 0.500000 0.626875 0.000000
O O11 0.543985 0.749501 0.079562
O O12 0.544716 0.500000 0.232586
O O13 0.746349 0.366563 0.080556
O O14 0.058273 0.500000 0.072710
O O15 0.000000 0.624273 0.000000
#
# Coordination Sequence:
#
# PCOD9181951 Si02
#       6
#     8   8   8   8   8   8
#     4  10  22  41  61  83 119 157 189 242 305 359
#     4  11  21  37  61  89 117 156 200 243 294 361
#     4  10  23  39  59  90 119 148 198 248 297 358
#     4  10  19  32  54  85 119 156 197 245 298 351
#     4  10  20  36  60  85 116 155 196 246 298 350
#     4   9  16  32  56  79 110 158 202 238 291 354
#
# _framework density 22.332253999999999
#
# number of rings (size 3 to 8) (size 9 to 14) (size 15 to 20)
#    0.000    2.000    3.333    1.500    0.000    4.000 
#    0.000    0.833    0.000    6.000    0.000    0.000 
#    0.000    0.000    0.000    0.000    0.000    0.000 
#
# Total GULP energy -133985.507874 kJ/mol
# GULP energy per Si atom -5582.729495 kJ/mol
# Density = 2.228142 g / cm^3
# Si number density = 22.332254 Si / 1000 Ang^3
#
#
#
# Elastic Constant Matrix: (Units=GPa)
#
#
# Indices 1 2 3 4 5 6 
#
# 1 120.4908 -1.7603 17.1575 0.0000 18.6932 0.0000
# 2 -1.7603 116.2168 14.4992 0.0000 -0.5288 0.0000
# 3 17.1575 14.4992 84.6636 0.0000 -10.5983 0.0000
# 4 0.0000 0.0000 0.0000 -3.4352 0.0000 -2.9781
# 5 18.6932 -0.5288 -10.5983 0.0000 35.2849 0.0000
# 6 0.0000 0.0000 0.0000 -2.9781 0.0000 -20.4997
#
#
#
# Elastic Compliance Matrix: (Units=1/GPa)
#
#
# Indices 1 2 3 4 5 6 
#
# 1 0.009619 0.000464 -0.002770 0.000000 -0.005921 0.000000
# 2 0.000464 0.008819 -0.001682 0.000000 -0.000619 0.000000
# 3 -0.002770 -0.001682 0.013343 0.000000 0.005450 0.000000
# 4 0.000000 0.000000 0.000000 -0.333051 0.000000 0.048385
# 5 -0.005921 -0.000619 0.005450 0.000000 0.033105 0.000000
# 6 0.000000 0.000000 0.000000 0.048385 0.000000 -0.055810
#
#
# Mechanical properties :
#
#
# Convention : Reuss Voigt Hill
#
# Bulk Modulus (GPa) = 42.00659 42.35154 42.17906
# Shear Modulus (GPa) = -16.23038 21.70165 2.73563
#
# Velocity S-wave (km/s) = -2.69879 3.12069 1.10798
# Velocity P-wave (km/s) = 3.02314 5.65601 4.53485
#
# Compressibility (1/GPa) = 0.02380579
#
# Stress axis : x y z
#
# Youngs Moduli (GPa) = 103.95813 113.39599 74.94498
#
# Poissons Ratio (x) = -0.05266 0.20761
# Poissons Ratio (y) = -0.04827 0.12605
# Poissons Ratio (z) = 0.28798 0.19071
#
# Static dielectric constant tensor:
#      x y z
#    x 1.857510 0.000000 0.023770 
#    y 0.000000 1.785270 0.000000 
#    z 0.023770 0.000000 1.796400 
# 
# From -- ./inp_files/310192.got.cif
#   From: 2010.05.17/outbox.cif.g08.bks.cpg/sg12_156_cif.got.tgz:310192.got - 2010.06.03 13:09:07.
