data_PCOD9181648
_publ_section_title
;
Structure prediction by ZEFSAII (Michael W. Deem and Ramdas Pophale) SiO2 
 PCOD9181648
Probable space group: C 2/M
;
_chemical_formula_sum "Si O2"
_cell_formula_units_Z 56
_cell_length_a 26.297268
_cell_length_b 9.465617
_cell_length_c 17.638962
_cell_angle_alpha 90.000000
_cell_angle_beta 137.253123
_cell_angle_gamma 90.000000
_cell_volume 2980.226595
_symmetry_space_group_name_H-M "C 2/M"
_symmetry_group_IT_number 12
_symmetry_cell_setting 'monoclinic'
loop_
_space_group_symop_operation_xyz
x,y,z
-x,y,-z
-x,-y,-z
x,-y,z
1/2+x,1/2+y,z
1/2-x,1/2+y,-z
1/2-x,1/2-y,-z
1/2+x,1/2-y,z
loop_
_atom_site_type_symbol
_atom_site_label
_atom_site_fract_x
_atom_site_fract_y
_atom_site_fract_z
Si Si1 0.581737 0.834008 0.824861
Si Si2 0.317124 0.669212 0.765184
Si Si3 0.194807 0.337724 0.822212
Si Si4 0.667074 0.331716 0.647011
Si Si5 0.871908 0.163645 0.984874
Si Si6 0.051465 0.167373 0.389835
Si Si7 0.325260 0.667355 0.602982
O O1 0.660722 0.813878 0.867651
O O2 0.520430 0.761189 0.704441
O O3 0.568063 0.000000 0.817637
O O4 0.583068 0.759275 0.907698
O O5 0.302289 0.500000 0.755636
O O6 0.239616 0.753522 0.691147
O O7 0.370600 0.704837 0.894727
O O8 0.347205 0.697520 0.714095
O O9 0.175734 0.500000 0.780020
O O10 0.160073 0.230986 0.723291
O O11 0.284335 0.326185 0.913508
O O12 0.679662 0.500000 0.662053
O O13 0.595343 0.304106 0.515842
O O14 0.895368 0.000000 0.017520
O O15 0.110004 0.198601 0.386124
O O16 0.033104 0.000000 0.367096
O O17 0.309648 0.500000 0.580432
O O18 0.250000 0.750000 0.500000
#
# Coordination Sequence:
#
# PCOD9181648 Si02
#       7
#     8   8   8   8   8   8   8
#     4  11  23  37  54  77 105 143 185 224 266 313
#     4   9  18  33  56  83 109 139 174 217 268 316
#     4   9  20  37  56  79 106 138 180 222 267 322
#     4  10  19  32  53  82 110 138 176 220 266 314
#     4   9  18  35  57  79 105 137 175 221 270 318
#     4  10  22  37  52  77 113 146 177 215 264 322
#     4  10  19  34  57  83 110 140 177 217 261 316
#
# _framework density 18.790517999999999
#
# number of rings (size 3 to 8) (size 9 to 14) (size 15 to 20)
#    0.000    2.286    1.429    2.143    0.000    5.714 
#    0.000    3.571    0.000    4.286    0.000    0.000 
#    0.000    0.000    0.000    0.000    0.000    0.000 
#
# Total GULP energy -156228.579933 kJ/mol
# GULP energy per Si atom -5579.592140 kJ/mol
# Density = 1.874775 g / cm^3
# Si number density = 18.790518 Si / 1000 Ang^3
#
#
#
# Elastic Constant Matrix: (Units=GPa)
#
#
# Indices 1 2 3 4 5 6 
#
# 1 15.8153 5.5798 -10.3200 0.0000 -13.2102 0.0000
# 2 5.5798 48.8036 40.4836 0.0000 -10.9667 0.0000
# 3 -10.3200 40.4836 58.5688 0.0000 -21.6227 0.0000
# 4 0.0000 0.0000 0.0000 34.5560 0.0000 -2.4480
# 5 -13.2102 -10.9667 -21.6227 0.0000 24.4466 0.0000
# 6 0.0000 0.0000 0.0000 -2.4480 0.0000 21.1383
#
#
#
# Elastic Compliance Matrix: (Units=1/GPa)
#
#
# Indices 1 2 3 4 5 6 
#
# 1 -0.056004 0.047453 -0.068277 0.000000 -0.069365 0.000000
# 2 0.047453 0.010148 0.018552 0.000000 0.046603 0.000000
# 3 -0.068277 0.018552 -0.027216 0.000000 -0.052644 0.000000
# 4 0.000000 0.000000 0.000000 0.029178 0.000000 0.003379
# 5 -0.069365 0.046603 -0.052644 0.000000 -0.022234 0.000000
# 6 0.000000 0.000000 0.000000 0.003379 0.000000 0.047699
#
#
# Mechanical properties :
#
#
# Convention : Reuss Voigt Hill
#
# Bulk Modulus (GPa) = -12.88412 21.63049 4.37318
# Shear Modulus (GPa) = -125.76224 21.85781 -51.95221
#
# Velocity S-wave (km/s) = -8.18986 3.41432 -5.26385
# Velocity P-wave (km/s) = 9.81343 5.20383 5.88318
#
# Compressibility (1/GPa) = -0.07761490
#
# Stress axis : x y z
#
# Youngs Moduli (GPa) = -17.85585 98.54507 -36.74376
#
# Poissons Ratio (x) = -4.67624 -2.50874
# Poissons Ratio (y) = 0.84731 0.68168
# Poissons Ratio (z) = -1.21914 -1.82825
#
# Static dielectric constant tensor:
#      x y z
#    x 1.669000 0.000000 -0.016320 
#    y 0.000000 1.629140 0.000000 
#    z -0.016320 0.000000 1.645190 
# 
# From -- ./inp_files/280917.got.cif
#   From: 2010.05.17/outbox.cif.g08.bks.cpg/sg12_141_cif.got.tgz:280917.got - 2010.06.03 13:09:07.
