data_PCOD9181486
_publ_section_title
;
Structure prediction by ZEFSAII (Michael W. Deem and Ramdas Pophale) SiO2 
 PCOD9181486
Probable space group: C 2/M
;
_chemical_formula_sum "Si O2"
_cell_formula_units_Z 64
_cell_length_a 30.005186
_cell_length_b 7.487780
_cell_length_c 15.673198
_cell_angle_alpha 90.000000
_cell_angle_beta 130.658065
_cell_angle_gamma 90.000000
_cell_volume 2671.322903
_symmetry_space_group_name_H-M "C 2/M"
_symmetry_group_IT_number 12
_symmetry_cell_setting 'monoclinic'
loop_
_space_group_symop_operation_xyz
x,y,z
-x,y,-z
-x,-y,-z
x,-y,z
1/2+x,1/2+y,z
1/2-x,1/2+y,-z
1/2-x,1/2-y,-z
1/2+x,1/2-y,z
loop_
_atom_site_type_symbol
_atom_site_label
_atom_site_fract_x
_atom_site_fract_y
_atom_site_fract_z
Si Si1 0.708787 0.714826 0.579857
Si Si2 0.125226 0.217289 0.631264
Si Si3 0.979403 0.796457 0.605171
Si Si4 0.609514 0.283103 0.800326
Si Si5 0.184996 0.280376 0.184264
Si Si6 0.714435 0.197596 0.039790
Si Si7 0.935276 0.281859 0.892769
Si Si8 0.102380 0.291614 0.341725
O O1 0.708325 0.500000 0.575787
O O2 0.670983 0.772416 0.616092
O O3 0.774578 0.772068 0.684849
O O4 0.671152 0.776141 0.451922
O O5 0.060821 0.281217 0.520340
O O6 0.137393 0.267967 0.743379
O O7 0.124054 0.000000 0.627933
O O8 0.935723 0.798388 0.631488
O O9 0.042082 0.721268 0.710518
O O10 0.993108 0.000000 0.596527
O O11 0.612046 0.500000 0.812282
O O12 0.647289 0.203363 0.923451
O O13 0.185176 0.500000 0.182464
O O14 0.213077 0.213281 0.130713
O O15 0.117797 0.225292 0.112006
O O16 0.736790 0.000000 0.085691
O O17 0.750000 0.250000 0.000000
O O18 0.936099 0.500000 0.894163
O O19 0.916297 0.225539 0.774130
O O20 0.000000 0.221388 0.000000
O O21 0.087231 0.500000 0.327077
#
# Coordination Sequence:
#
# PCOD9181486 Si02
#       8
#     8   8   8   8   8   8   8   8
#     4   9  17  33  57  79 104 139 182 228 272 330
#     4   8  14  28  50  74 101 140 183 218 259 317
#     4   9  18  32  52  77 108 146 185 225 270 328
#     4  10  19  32  53  78 106 141 187 234 274 321
#     4   9  19  36  58  81 105 147 197 229 266 331
#     4  11  23  38  57  80 110 144 185 230 277 331
#     4   9  19  35  56  82 112 145 185 232 273 323
#     4  10  20  33  54  83 112 141 178 229 283 328
#
# _framework density 23.958168000000001
#
# number of rings (size 3 to 8) (size 9 to 14) (size 15 to 20)
#    0.000    2.625    0.000    2.625    1.750    4.500 
#    0.000    6.250    0.000    9.000    0.000    0.000 
#    0.000    0.000    0.000    0.000    0.000    0.000 
#
# Total GULP energy -178688.685529 kJ/mol
# GULP energy per Si atom -5584.021423 kJ/mol
# Density = 2.390364 g / cm^3
# Si number density = 23.958168 Si / 1000 Ang^3
#
#
#
# Elastic Constant Matrix: (Units=GPa)
#
#
# Indices 1 2 3 4 5 6 
#
# 1 92.9438 2.5556 55.9430 0.0000 7.7779 0.0000
# 2 2.5556 65.6881 -4.9374 0.0000 -1.2636 0.0000
# 3 55.9430 -4.9374 168.1755 0.0000 8.4408 0.0000
# 4 0.0000 0.0000 0.0000 17.0020 0.0000 3.0858
# 5 7.7779 -1.2636 8.4408 0.0000 44.5329 0.0000
# 6 0.0000 0.0000 0.0000 3.0858 0.0000 1.0216
#
#
#
# Elastic Compliance Matrix: (Units=1/GPa)
#
#
# Indices 1 2 3 4 5 6 
#
# 1 0.013607 -0.000896 -0.004475 0.000000 -0.001554 0.000000
# 2 -0.000896 0.015322 0.000725 0.000000 0.000454 -0.000001
# 3 -0.004475 0.000725 0.007487 0.000000 -0.000617 0.000000
# 4 0.000000 0.000000 0.000000 0.130198 0.000000 -0.393289
# 5 -0.001554 0.000454 -0.000617 0.000000 0.022857 0.000000
# 6 0.000000 -0.000001 0.000000 -0.393289 0.000000 2.166910
#
#
# Mechanical properties :
#
#
# Convention : Reuss Voigt Hill
#
# Bulk Modulus (GPa) = 36.86645 48.21442 42.54043
# Shear Modulus (GPa) = 2.10552 30.72770 16.41661
#
# Velocity S-wave (km/s) = 0.93848 3.58516 2.62051
# Velocity P-wave (km/s) = 4.07377 6.10786 5.19141
#
# Compressibility (1/GPa) = 0.02712493
#
# Stress axis : x y z
#
# Youngs Moduli (GPa) = 73.49068 65.26772 133.56648
#
# Poissons Ratio (x) = 0.05845 0.59767
# Poissons Ratio (y) = 0.06582 -0.09683
# Poissons Ratio (z) = 0.32885 -0.04732
#
# Static dielectric constant tensor:
#      x y z
#    x 1.925350 0.000000 0.016520 
#    y 0.000000 1.894960 0.000000 
#    z 0.016520 0.000000 1.901710 
# 
# From -- ./inp_files/250086.got.cif
#   From: 2010.05.17/outbox.cif.g08.bks.cpg/sg12_126_cif.got.tgz:250086.got - 2010.06.03 13:09:07.
