data_PCOD9181774
_publ_section_title
;
Structure prediction by ZEFSAII (Michael W. Deem and Ramdas Pophale) SiO2 
 PCOD9181774
Probable space group: C 2/M
;
_chemical_formula_sum "Si O2"
_cell_formula_units_Z 48
_cell_length_a 5.344745
_cell_length_b 18.640801
_cell_length_c 27.408857
_cell_angle_alpha 90.000000
_cell_angle_beta 72.989101
_cell_angle_gamma 90.000000
_cell_volume 2611.280554
_symmetry_space_group_name_H-M "C 2/M"
_symmetry_group_IT_number 12
_symmetry_cell_setting 'monoclinic'
loop_
_space_group_symop_operation_xyz
x,y,z
-x,y,-z
-x,-y,-z
x,-y,z
1/2+x,1/2+y,z
1/2-x,1/2+y,-z
1/2-x,1/2-y,-z
1/2+x,1/2-y,z
loop_
_atom_site_type_symbol
_atom_site_label
_atom_site_fract_x
_atom_site_fract_y
_atom_site_fract_z
Si Si1 0.081283 0.914984 0.112564
Si Si2 0.409351 0.203630 0.560436
Si Si3 0.986744 0.586687 0.175568
Si Si4 0.663754 0.280415 0.057500
Si Si5 0.719163 0.913380 0.353992
Si Si6 0.687169 0.913043 0.708443
O O1 0.279976 0.896141 0.144983
O O2 0.156543 0.865746 0.062366
O O3 0.785308 0.896161 0.144989
O O4 0.096960 0.000000 0.102134
O O5 0.500000 0.186981 0.500000
O O6 0.643148 0.249986 0.571257
O O7 0.358402 0.132223 0.594357
O O8 0.981336 0.500000 0.179138
O O9 0.899904 0.614588 0.233469
O O10 0.376485 0.250019 0.082324
O O11 0.750000 0.250000 0.000000
O O12 0.519313 0.893928 0.321799
O O13 0.015643 0.893925 0.321822
O O14 0.706749 0.000000 0.362263
O O15 0.683166 0.000000 0.711115
#
# Coordination Sequence:
#
# PCOD9181774 Si02
#       6
#     8   8   8   8   8   8
#     4  10  19  33  56  82 104 134 180 222 250 295
#     4  10  21  37  55  74 101 141 181 218 269 323
#     4   9  17  30  52  81 109 136 171 217 260 304
#     4  10  21  38  56  76 105 142 171 204 265 320
#     4  10  19  32  54  80 105 136 175 220 263 311
#     4   9  17  30  50  79 110 137 168 210 267 319
#
# _framework density 18.381786000000002
#
# number of rings (size 3 to 8) (size 9 to 14) (size 15 to 20)
#    0.000    2.333    0.000    3.000    0.000    4.333 
#    0.000    3.333    0.000   26.000    0.000    0.000 
#    0.000    0.000    0.000    0.000    0.000    0.000 
#
# Total GULP energy -133750.934123 kJ/mol
# GULP energy per Si atom -5572.955588 kJ/mol
# Density = 1.833995 g / cm^3
# Si number density = 18.381786 Si / 1000 Ang^3
#
#
#
# Elastic Constant Matrix: (Units=GPa)
#
#
# Indices 1 2 3 4 5 6 
#
# 1 182.4480 45.5160 48.9273 0.0000 1.2142 0.0000
# 2 45.5160 82.1002 67.1432 0.0000 -0.3717 0.0000
# 3 48.9273 67.1432 100.7355 0.0000 -0.0194 0.0000
# 4 0.0000 0.0000 0.0000 20.9259 0.0000 -0.2001
# 5 1.2142 -0.3717 -0.0194 0.0000 26.3135 0.0000
# 6 0.0000 0.0000 0.0000 -0.2001 0.0000 7.2819
#
#
#
# Elastic Compliance Matrix: (Units=1/GPa)
#
#
# Indices 1 2 3 4 5 6 
#
# 1 0.006487 -0.002245 -0.001655 0.000000 -0.000332 0.000000
# 2 -0.002245 0.027556 -0.017277 0.000000 0.000480 0.000000
# 3 -0.001655 -0.017277 0.022246 0.000000 -0.000151 0.000000
# 4 0.000000 0.000000 0.000000 0.047800 0.000000 0.001314
# 5 -0.000332 0.000480 -0.000151 0.000000 0.038025 0.000000
# 6 0.000000 0.000000 0.000000 0.001314 0.000000 0.137363
#
#
# Mechanical properties :
#
#
# Convention : Reuss Voigt Hill
#
# Bulk Modulus (GPa) = 71.75057 76.49520 74.12289
# Shear Modulus (GPa) = 15.31513 24.48408 19.89960
#
# Velocity S-wave (km/s) = 2.88960 3.65358 3.29382
# Velocity P-wave (km/s) = 7.08881 7.71383 7.40792
#
# Compressibility (1/GPa) = 0.01393717
#
# Stress axis : x y z
#
# Youngs Moduli (GPa) = 154.15608 36.28988 44.95204
#
# Poissons Ratio (x) = 0.08146 0.07438
# Poissons Ratio (y) = 0.34602 0.77661
# Poissons Ratio (z) = 0.25508 0.62696
#
# Static dielectric constant tensor:
#      x y z
#    x 1.665350 0.000000 0.000750 
#    y 0.000000 1.622660 0.000000 
#    z 0.000750 0.000000 1.616930 
# 
# From -- ./inp_files/331050.got.cif
#   From: 2010.05.17/outbox.cif.g08.bks.cpg/sg12_166_cif.got.tgz:331050.got - 2010.06.03 13:09:07.
