data_PCOD9181884
_publ_section_title
;
Structure prediction by ZEFSAII (Michael W. Deem and Ramdas Pophale) SiO2 
 PCOD9181884
Probable space group: C 2/M
;
_chemical_formula_sum "Si O2"
_cell_formula_units_Z 56
_cell_length_a 30.820833
_cell_length_b 8.801868
_cell_length_c 12.605970
_cell_angle_alpha 90.000000
_cell_angle_beta 74.247852
_cell_angle_gamma 90.000000
_cell_volume 3291.330091
_symmetry_space_group_name_H-M "C 2/M"
_symmetry_group_IT_number 12
_symmetry_cell_setting 'monoclinic'
loop_
_space_group_symop_operation_xyz
x,y,z
-x,y,-z
-x,-y,-z
x,-y,z
1/2+x,1/2+y,z
1/2-x,1/2+y,-z
1/2-x,1/2-y,-z
1/2+x,1/2-y,z
loop_
_atom_site_type_symbol
_atom_site_label
_atom_site_fract_x
_atom_site_fract_y
_atom_site_fract_z
Si Si1 0.610062 0.319559 0.401685
Si Si2 0.039526 0.181160 0.266293
Si Si3 0.943741 0.681271 0.365376
Si Si4 0.199222 0.319363 0.408685
Si Si5 0.047173 0.318364 0.028079
Si Si6 0.698859 0.681781 0.642477
Si Si7 0.394680 0.318145 0.192197
O O1 0.608873 0.500000 0.422100
O O2 0.581728 0.287118 0.314724
O O3 0.585623 0.237074 0.516012
O O4 0.661374 0.263266 0.365228
O O5 0.994771 0.260082 0.341773
O O6 0.032209 0.000000 0.268779
O O7 0.047154 0.242599 0.143132
O O8 0.942822 0.500000 0.357842
O O9 0.923223 0.752994 0.271935
O O10 0.193343 0.500000 0.405118
O O11 0.251238 0.281268 0.348217
O O12 0.192453 0.267219 0.535257
O O13 0.049983 0.500000 0.036885
O O14 0.086556 0.255956 0.926875
O O15 0.000000 0.282566 0.000000
O O16 0.697904 0.500000 0.621256
O O17 0.657531 0.716293 0.747363
O O18 0.400266 0.500000 0.184257
#
# Coordination Sequence:
#
# PCOD9181884 Si02
#       7
#     8   8   8   8   8   8   8
#     4  11  23  38  55  80 113 149 187 225 272 332
#     4  11  24  40  58  78 107 150 191 226 272 330
#     4  12  23  35  54  83 114 146 184 225 274 326
#     4  10  19  32  54  82 112 145 181 224 276 327
#     4  11  23  38  57  82 111 142 183 234 277 318
#     4   9  19  34  53  81 113 145 181 224 274 329
#     4  11  21  35  58  82 112 148 183 224 273 326
#
# _framework density 17.014399000000001
#
# number of rings (size 3 to 8) (size 9 to 14) (size 15 to 20)
#    0.000    1.286    2.857    3.857    0.000    5.714 
#    0.000    0.000    0.000    0.857    0.000    0.000 
#    0.000    0.000    0.000    0.000    0.000    0.000 
#
# Total GULP energy -156473.871747 kJ/mol
# GULP energy per Si atom -5588.352562 kJ/mol
# Density = 1.697567 g / cm^3
# Si number density = 17.014399 Si / 1000 Ang^3
#
#
#
# Elastic Constant Matrix: (Units=GPa)
#
#
# Indices 1 2 3 4 5 6 
#
# 1 123.5950 41.9999 33.2175 0.0000 -7.9356 0.0000
# 2 41.9999 47.9893 23.4569 0.0000 -1.4849 0.0000
# 3 33.2175 23.4569 44.7302 0.0000 -2.8869 0.0000
# 4 0.0000 0.0000 0.0000 1.6450 0.0000 -5.0041
# 5 -7.9356 -1.4849 -2.8869 0.0000 26.9616 0.0000
# 6 0.0000 0.0000 0.0000 -5.0041 0.0000 28.5412
#
#
#
# Elastic Compliance Matrix: (Units=1/GPa)
#
#
# Indices 1 2 3 4 5 6 
#
# 1 0.012386 -0.008533 -0.004550 0.000000 0.002688 0.000000
# 2 -0.008533 0.033899 -0.011562 0.000000 -0.001882 0.000000
# 3 -0.004550 -0.011562 0.031891 0.000000 0.001439 0.000000
# 4 0.000000 0.000000 0.000000 1.302645 0.000000 0.228392
# 5 0.002688 -0.001882 0.001439 0.000000 0.037931 0.000000
# 6 0.000000 0.000000 0.000000 0.228392 0.000000 0.075081
#
#
# Mechanical properties :
#
#
# Convention : Reuss Voigt Hill
#
# Bulk Modulus (GPa) = 34.61759 45.96256 40.29007
# Shear Modulus (GPa) = 3.22009 19.27225 11.24617
#
# Velocity S-wave (km/s) = 1.37720 3.36922 2.57374
# Velocity P-wave (km/s) = 4.78739 6.49677 5.70645
#
# Compressibility (1/GPa) = 0.02888705
#
# Stress axis : x y z
#
# Youngs Moduli (GPa) = 80.73574 29.49927 31.35689
#
# Poissons Ratio (x) = 0.25172 0.14267
# Poissons Ratio (y) = 0.68893 0.36254
# Poissons Ratio (z) = 0.36733 0.34106
#
# Static dielectric constant tensor:
#      x y z
#    x 1.586610 0.000000 -0.012680 
#    y 0.000000 1.567940 0.000000 
#    z -0.012680 0.000000 1.539340 
# 
# From -- ./inp_files/186382.got.cif
#   From: 2010.05.17/outbox.cif.g08.bks.cpg/sg12_94_cif.got.tgz:186382.got - 2010.06.03 13:09:07.
