data_PCOD9181215
_publ_section_title
;
Structure prediction by ZEFSAII (Michael W. Deem and Ramdas Pophale) SiO2 
 PCOD9181215
Probable space group: C 2/M
;
_chemical_formula_sum "Si O2"
_cell_formula_units_Z 48
_cell_length_a 19.778000
_cell_length_b 8.914822
_cell_length_c 30.655062
_cell_angle_alpha 90.000000
_cell_angle_beta 30.863563
_cell_angle_gamma 90.000000
_cell_volume 2772.750383
_symmetry_space_group_name_H-M "C 2/M"
_symmetry_group_IT_number 12
_symmetry_cell_setting 'monoclinic'
loop_
_space_group_symop_operation_xyz
x,y,z
-x,y,-z
-x,-y,-z
x,-y,z
1/2+x,1/2+y,z
1/2-x,1/2+y,-z
1/2-x,1/2-y,-z
1/2+x,1/2-y,z
loop_
_atom_site_type_symbol
_atom_site_label
_atom_site_fract_x
_atom_site_fract_y
_atom_site_fract_z
Si Si1 0.165024 0.679515 0.256476
Si Si2 0.212845 0.179579 0.138903
Si Si3 0.431241 0.819528 0.274433
Si Si4 0.352983 0.180308 0.221618
Si Si5 0.141889 0.680459 0.027620
Si Si6 0.137375 0.679537 0.591741
O O1 0.171190 0.500000 0.250920
O O2 0.230053 0.747429 0.176717
O O3 0.239172 0.740688 0.257533
O O4 0.010596 0.724029 0.340808
O O5 0.072323 0.238586 0.198805
O O6 0.209781 0.000000 0.145008
O O7 0.320778 0.220384 0.042700
O O8 0.358197 0.782772 0.270045
O O9 0.354503 0.781044 0.361360
O O10 0.455441 0.000000 0.261437
O O11 0.495152 0.224654 0.122961
O O12 0.339970 0.000000 0.224519
O O13 0.150223 0.500000 0.026881
O O14 0.250000 0.750000 0.000000
O O15 0.146057 0.500000 0.583587
O O16 0.250000 0.750000 0.500000
#
# Coordination Sequence:
#
# PCOD9181215 Si02
#       6
#     8   8   8   8   8   8
#     4  10  22  38  54  76 108 141 175 217 266 317
#     4  10  19  32  52  78 105 140 184 222 258 306
#     4   9  18  34  55  78 107 140 175 214 261 314
#     4  10  20  35  54  77 108 144 177 218 264 306
#     4  10  20  32  51  78 107 141 183 223 258 303
#     4   9  19  36  58  81 102 131 171 214 261 319
#
# _framework density 17.311332
#
# number of rings (size 3 to 8) (size 9 to 14) (size 15 to 20)
#    0.000    2.333    1.667    2.000    0.000    6.000 
#    0.000    4.167    0.000    5.000    0.000    0.000 
#    0.000    0.000    0.000    0.000    0.000    0.000 
#
# Total GULP energy -133894.712294 kJ/mol
# GULP energy per Si atom -5578.946346 kJ/mol
# Density = 1.727193 g / cm^3
# Si number density = 17.311332 Si / 1000 Ang^3
#
#
#
# Elastic Constant Matrix: (Units=GPa)
#
#
# Indices 1 2 3 4 5 6 
#
# 1 154.8837 44.0216 73.0376 0.0000 12.6867 0.0001
# 2 44.0216 26.2133 33.5111 0.0000 6.1388 0.0002
# 3 73.0376 33.5111 124.8073 -0.0001 24.6259 0.0000
# 4 0.0000 0.0000 -0.0001 24.5077 0.0000 -1.2781
# 5 12.6867 6.1388 24.6259 0.0000 20.0915 0.0000
# 6 0.0001 0.0002 0.0000 -1.2781 0.0000 33.6632
#
#
#
# Elastic Compliance Matrix: (Units=1/GPa)
#
#
# Indices 1 2 3 4 5 6 
#
# 1 0.012911 -0.018282 -0.002823 0.000000 0.000894 0.000000
# 2 -0.018282 0.084026 -0.011969 0.000000 0.000541 0.000000
# 3 -0.002823 -0.011969 0.015570 0.000000 -0.013645 0.000000
# 4 0.000000 0.000000 0.000000 0.040884 0.000000 0.001552
# 5 0.000894 0.000541 -0.013645 0.000000 0.065767 0.000000
# 6 0.000000 0.000000 0.000000 0.001552 0.000000 0.029765
#
#
# Mechanical properties :
#
#
# Convention : Reuss Voigt Hill
#
# Bulk Modulus (GPa) = 21.57114 67.44943 44.51029
# Shear Modulus (GPa) = 15.12749 26.00808 20.56779
#
# Velocity S-wave (km/s) = 2.95930 3.88025 3.45064
# Velocity P-wave (km/s) = 4.91573 7.68910 6.45317
#
# Compressibility (1/GPa) = 0.04635824
#
# Stress axis : x y z
#
# Youngs Moduli (GPa) = 77.45547 11.90114 64.22480
#
# Poissons Ratio (x) = 0.21758 0.18130
# Poissons Ratio (y) = 1.41606 0.76871
# Poissons Ratio (z) = 0.21864 0.14245
#
# Static dielectric constant tensor:
#      x y z
#    x 1.583220 0.000000 0.018720 
#    y 0.000000 1.581140 0.000000 
#    z 0.018720 0.000000 1.573860 
# 
# From -- ./inp_files/248776.got.cif
#   From: 2010.05.17/outbox.cif.g08.bks.cpg/sg12_125_cif.got.tgz:248776.got - 2010.06.03 13:09:07.
