data_PCOD9181679
_publ_section_title
;
Structure prediction by ZEFSAII (Michael W. Deem and Ramdas Pophale) SiO2 
 PCOD9181679
Probable space group: C 2/M
;
_chemical_formula_sum "Si O2"
_cell_formula_units_Z 48
_cell_length_a 15.364666
_cell_length_b 14.139194
_cell_length_c 9.925762
_cell_angle_alpha 90.000000
_cell_angle_beta 88.758905
_cell_angle_gamma 90.000000
_cell_volume 2155.806315
_symmetry_space_group_name_H-M "C 2/M"
_symmetry_group_IT_number 12
_symmetry_cell_setting 'monoclinic'
loop_
_space_group_symop_operation_xyz
x,y,z
-x,y,-z
-x,-y,-z
x,-y,z
1/2+x,1/2+y,z
1/2-x,1/2+y,-z
1/2-x,1/2-y,-z
1/2+x,1/2-y,z
loop_
_atom_site_type_symbol
_atom_site_label
_atom_site_fract_x
_atom_site_fract_y
_atom_site_fract_z
Si Si1 0.093409 0.889327 0.059777
Si Si2 0.120258 0.609899 0.734088
Si Si3 0.791415 0.198896 0.729274
Si Si4 0.063793 0.611013 0.207208
Si Si5 0.749726 0.107257 0.156643
Si Si6 0.906139 0.737900 0.526751
O O1 0.171344 0.882859 0.948951
O O2 0.087105 0.000000 0.102391
O O3 0.124936 0.823230 0.179866
O O4 0.000000 0.863285 0.000000
O O5 0.114554 0.500000 0.698043
O O6 0.217113 0.628274 0.782311
O O7 0.114616 0.675324 0.602006
O O8 0.035800 0.634370 0.828206
O O9 0.747427 0.301942 0.747539
O O10 0.829739 0.192878 0.577820
O O11 0.062025 0.500000 0.239768
O O12 0.148943 0.618813 0.109234
O O13 0.081952 0.666747 0.345941
O O14 0.755683 0.000000 0.212541
O O15 0.000000 0.785107 0.500000
#
# Coordination Sequence:
#
# PCOD9181679 Si02
#       6
#     8   8   8   8   8   8
#     4  10  22  40  59  78 106 147 190 229 271 320
#     4  10  19  32  53  83 118 148 176 217 271 329
#     4  11  21  35  57  83 110 144 186 228 271 321
#     4   8  15  30  52  77 105 137 172 215 270 327
#     4   9  19  36  56  80 108 139 180 227 274 324
#     4   9  18  32  51  76 107 144 182 221 267 320
#
# _framework density 22.265450000000001
#
# number of rings (size 3 to 8) (size 9 to 14) (size 15 to 20)
#    0.000    2.500    0.000    2.000    0.000    6.667 
#    0.000    0.833    0.000    6.500    0.000    0.000 
#    0.000    0.000    0.000    0.000    0.000    0.000 
#
# Total GULP energy -133617.297103 kJ/mol
# GULP energy per Si atom -5567.387379 kJ/mol
# Density = 2.221477 g / cm^3
# Si number density = 22.265450 Si / 1000 Ang^3
#
#
#
# Elastic Constant Matrix: (Units=GPa)
#
#
# Indices 1 2 3 4 5 6 
#
# 1 181.2346 30.5113 47.5105 0.0000 -22.5970 0.0000
# 2 30.5113 58.8175 23.8266 0.0000 -9.2338 0.0000
# 3 47.5105 23.8266 43.8020 0.0000 -6.0801 0.0000
# 4 0.0000 0.0000 0.0000 11.5930 0.0000 0.9851
# 5 -22.5970 -9.2338 -6.0801 0.0000 38.5136 0.0000
# 6 0.0000 0.0000 0.0000 0.9851 0.0000 30.9425
#
#
#
# Elastic Compliance Matrix: (Units=1/GPa)
#
#
# Indices 1 2 3 4 5 6 
#
# 1 0.008143 -0.000390 -0.008149 0.000000 0.003398 0.000000
# 2 -0.000390 0.022278 -0.011232 0.000000 0.003339 0.000000
# 3 -0.008149 -0.011232 0.037565 0.000000 -0.001544 0.000000
# 4 0.000000 0.000000 0.000000 0.086493 0.000000 -0.002754
# 5 0.003398 0.003339 -0.001544 0.000000 0.028515 0.000000
# 6 0.000000 0.000000 0.000000 -0.002754 0.000000 0.032406
#
#
# Mechanical properties :
#
#
# Convention : Reuss Voigt Hill
#
# Bulk Modulus (GPa) = 35.15673 54.17233 44.66453
# Shear Modulus (GPa) = 18.90904 28.34353 23.62628
#
# Velocity S-wave (km/s) = 2.91736 3.57176 3.26102
# Velocity P-wave (km/s) = 5.21268 6.43374 5.85513
#
# Compressibility (1/GPa) = 0.02844406
#
# Stress axis : x y z
#
# Youngs Moduli (GPa) = 122.80112 44.88676 26.62081
#
# Poissons Ratio (x) = 0.01749 0.21693
# Poissons Ratio (y) = 0.04785 0.29901
# Poissons Ratio (z) = 1.00071 0.50418
#
# Static dielectric constant tensor:
#      x y z
#    x 1.977330 0.000000 0.003330 
#    y 0.000000 1.840200 0.000000 
#    z 0.003330 0.000000 1.808460 
# 
# From -- ./inp_files/142983.got.cif
#   From: 2010.05.17/outbox.cif.g08.bks.cpg/sg12_72_cif.got.tgz:142983.got - 2010.06.03 13:09:07.
