data_PCOD9181447
_publ_section_title
;
Structure prediction by ZEFSAII (Michael W. Deem and Ramdas Pophale) SiO2 
 PCOD9181447
Probable space group: C 2/M
;
_chemical_formula_sum "Si O2"
_cell_formula_units_Z 64
_cell_length_a 21.623010
_cell_length_b 8.502364
_cell_length_c 21.678092
_cell_angle_alpha 90.000000
_cell_angle_beta 60.403962
_cell_angle_gamma 90.000000
_cell_volume 3465.460960
_symmetry_space_group_name_H-M "C 2/M"
_symmetry_group_IT_number 12
_symmetry_cell_setting 'monoclinic'
loop_
_space_group_symop_operation_xyz
x,y,z
-x,y,-z
-x,-y,-z
x,-y,z
1/2+x,1/2+y,z
1/2-x,1/2+y,-z
1/2-x,1/2-y,-z
1/2+x,1/2-y,z
loop_
_atom_site_type_symbol
_atom_site_label
_atom_site_fract_x
_atom_site_fract_y
_atom_site_fract_z
Si Si1 0.296560 0.690590 0.671180
Si Si2 0.957238 0.810458 0.580709
Si Si3 0.790873 0.313363 0.920316
Si Si4 0.082084 0.185520 0.838908
Si Si5 0.657832 0.810189 0.679442
Si Si6 0.027042 0.687202 0.669807
Si Si7 0.714503 0.812419 0.836899
Si Si8 0.950271 0.188757 0.830738
O O1 0.300021 0.500000 0.671547
O O2 0.376136 0.750293 0.623306
O O3 0.240765 0.730747 0.644335
O O4 0.260691 0.738477 0.753913
O O5 0.000000 0.752089 0.500000
O O6 0.997131 0.766828 0.623744
O O7 0.953872 0.000000 0.578346
O O8 0.797405 0.500000 0.920536
O O9 0.746815 0.266438 0.881193
O O10 0.869461 0.239862 0.878414
O O11 0.750000 0.250000 0.000000
O O12 0.120944 0.222968 0.754881
O O13 0.132271 0.269518 0.863904
O O14 0.001336 0.236471 0.863139
O O15 0.082710 0.000000 0.851311
O O16 0.609515 0.772702 0.644419
O O17 0.651561 0.000000 0.692886
O O18 0.021284 0.500000 0.666198
O O19 0.982082 0.738966 0.752102
O O20 0.721001 0.000000 0.839103
O O21 0.954882 0.000000 0.823370
#
# Coordination Sequence:
#
# PCOD9181447 Si02
#       8
#     8   8   8   8   8   8   8   8
#     4   8  15  30  52  74  97 130 171 211 252 306
#     4  10  20  33  49  70 100 139 179 219 266 321
#     4  12  25  40  57  79 110 145 183 223 264 313
#     4   9  17  30  52  82 111 136 168 216 267 316
#     4   8  15  29  49  72  98 130 169 213 262 315
#     4  10  19  32  53  78 102 132 172 218 266 316
#     4  10  19  34  57  81 107 140 178 221 270 322
#     4  10  20  36  58  83 111 141 175 217 267 321
#
# _framework density 18.467963000000001
#
# number of rings (size 3 to 8) (size 9 to 14) (size 15 to 20)
#    0.000    2.375    0.000    4.125    0.000    3.250 
#    0.000    3.750    0.000    3.750    0.000    0.000 
#    0.000    0.000    0.000    0.000    0.000    0.000 
#
# Total GULP energy -178403.882942 kJ/mol
# GULP energy per Si atom -5575.121342 kJ/mol
# Density = 1.842593 g / cm^3
# Si number density = 18.467963 Si / 1000 Ang^3
#
#
#
# Elastic Constant Matrix: (Units=GPa)
#
#
# Indices 1 2 3 4 5 6 
#
# 1 146.7589 -4.4890 55.7457 -0.0003 0.8640 0.0002
# 2 -4.4890 12.8948 -1.1255 -0.0005 -2.0275 0.0008
# 3 55.7457 -1.1255 65.7000 -0.0001 -0.6591 0.0002
# 4 -0.0003 -0.0005 -0.0001 16.1346 0.0002 4.0632
# 5 0.8640 -2.0275 -0.6591 0.0002 -7.1692 -0.0003
# 6 0.0002 0.0008 0.0002 4.0632 -0.0003 26.6619
#
#
#
# Elastic Compliance Matrix: (Units=1/GPa)
#
#
# Indices 1 2 3 4 5 6 
#
# 1 0.010143 0.002969 -0.008544 0.000000 0.001168 0.000000
# 2 0.002969 0.075192 -0.001439 0.000003 -0.020775 -0.000003
# 3 -0.008544 -0.001439 0.022418 0.000000 -0.002684 0.000000
# 4 0.000000 0.000003 0.000000 0.064452 0.000001 -0.009822
# 5 0.001168 -0.020775 -0.002684 0.000001 -0.133223 -0.000001
# 6 0.000000 -0.000003 0.000000 -0.009822 -0.000001 0.039004
#
#
# Mechanical properties :
#
#
# Convention : Reuss Voigt Hill
#
# Bulk Modulus (GPa) = 10.66952 36.17959 23.42455
# Shear Modulus (GPa) = 40.56607 18.80697 29.68652
#
# Velocity S-wave (km/s) = 4.69184 3.19463 4.01366
# Velocity P-wave (km/s) = 5.92798 5.76546 5.84729
#
# Compressibility (1/GPa) = 0.09372491
#
# Stress axis : x y z
#
# Youngs Moduli (GPa) = 98.58884 13.29933 44.60625
#
# Poissons Ratio (x) = -0.03949 0.38110
# Poissons Ratio (y) = -0.29271 0.06421
# Poissons Ratio (z) = 0.84232 0.01914
#
# Static dielectric constant tensor:
#      x y z
#    x 1.676260 0.000000 -0.011020 
#    y 0.000000 1.626230 0.000000 
#    z -0.011020 0.000000 1.595510 
# 
# From -- ./inp_files/319965.got.cif
#   From: 2010.05.17/outbox.cif.g08.bks.cpg/sg12_160_cif.got.tgz:319965.got - 2010.06.03 13:09:07.
