data_PCOD9181481
_publ_section_title
;
Structure prediction by ZEFSAII (Michael W. Deem and Ramdas Pophale) SiO2 
 PCOD9181481
Probable space group: C 2/M
;
_chemical_formula_sum "Si O2"
_cell_formula_units_Z 56
_cell_length_a 30.521458
_cell_length_b 8.910729
_cell_length_c 17.235365
_cell_angle_alpha 90.000000
_cell_angle_beta 133.594071
_cell_angle_gamma 90.000000
_cell_volume 3394.872239
_symmetry_space_group_name_H-M "C 2/M"
_symmetry_group_IT_number 12
_symmetry_cell_setting 'monoclinic'
loop_
_space_group_symop_operation_xyz
x,y,z
-x,y,-z
-x,-y,-z
x,-y,z
1/2+x,1/2+y,z
1/2-x,1/2+y,-z
1/2-x,1/2-y,-z
1/2+x,1/2-y,z
loop_
_atom_site_type_symbol
_atom_site_label
_atom_site_fract_x
_atom_site_fract_y
_atom_site_fract_z
Si Si1 0.421991 0.819983 0.247590
Si Si2 0.448149 0.679071 0.595418
Si Si3 0.742423 0.820400 0.213209
Si Si4 0.802541 0.680739 0.011253
Si Si5 0.624063 0.820447 0.634645
Si Si6 0.219795 0.178459 0.343290
Si Si7 0.163394 0.820710 0.434376
O O1 0.485167 0.740627 0.308484
O O2 0.400789 0.787049 0.309720
O O3 0.429794 0.000000 0.251296
O O4 0.367682 0.773498 0.124190
O O5 0.449435 0.500000 0.586615
O O6 0.420238 0.754167 0.484358
O O7 0.401400 0.713720 0.608005
O O8 0.709449 0.778881 0.092720
O O9 0.809651 0.750677 0.293836
O O10 0.709425 0.759100 0.249233
O O11 0.747474 0.000000 0.223556
O O12 0.798874 0.500000 0.013324
O O13 0.750000 0.750000 0.000000
O O14 0.628160 0.000000 0.631034
O O15 0.172880 0.214201 0.355245
O O16 0.284649 0.234067 0.455066
O O17 0.221288 0.000000 0.333924
O O18 0.174300 0.000000 0.457179
#
# Coordination Sequence:
#
# PCOD9181481 Si02
#       7
#     8   8   8   8   8   8   8
#     4  10  22  38  53  74 106 142 181 218 257 313
#     4  11  22  35  53  78 109 141 175 216 264 316
#     4  11  21  33  53  80 110 138 172 220 267 311
#     4  10  21  37  56  77 104 139 178 223 265 306
#     4  11  21  34  53  77 107 143 178 213 258 314
#     4  10  19  32  53  78 105 139 174 212 266 321
#     4   9  19  34  51  76 108 137 172 218 263 314
#
# _framework density 16.495466
#
# number of rings (size 3 to 8) (size 9 to 14) (size 15 to 20)
#    0.000    1.714    2.857    2.143    0.000    5.143 
#    0.000    0.000    0.000    0.857    0.000    6.000 
#    0.000    0.000    0.000    0.000    0.000    0.000 
#
# Total GULP energy -156343.135059 kJ/mol
# GULP energy per Si atom -5583.683395 kJ/mol
# Density = 1.645792 g / cm^3
# Si number density = 16.495466 Si / 1000 Ang^3
#
#
#
# Elastic Constant Matrix: (Units=GPa)
#
#
# Indices 1 2 3 4 5 6 
#
# 1 110.3797 50.5994 79.5930 0.0000 -17.8135 0.0000
# 2 50.5994 39.8598 44.6929 0.0000 -6.8444 0.0000
# 3 79.5930 44.6929 141.9471 0.0000 -5.4540 0.0000
# 4 0.0000 0.0000 0.0000 21.5374 0.0000 0.8240
# 5 -17.8135 -6.8444 -5.4540 0.0000 25.8560 0.0000
# 6 0.0000 0.0000 0.0000 0.8240 0.0000 28.8142
#
#
#
# Elastic Compliance Matrix: (Units=1/GPa)
#
#
# Indices 1 2 3 4 5 6 
#
# 1 0.027282 -0.024887 -0.007050 0.000000 0.010721 0.000000
# 2 -0.024887 0.063085 -0.005974 0.000000 -0.001707 0.000000
# 3 -0.007050 -0.005974 0.012735 0.000000 -0.003752 0.000000
# 4 0.000000 0.000000 0.000000 0.046482 0.000000 -0.001329
# 5 0.010721 -0.001707 -0.003752 0.000000 0.044819 0.000000
# 6 0.000000 0.000000 0.000000 -0.001329 0.000000 0.034743
#
#
# Mechanical properties :
#
#
# Convention : Reuss Voigt Hill
#
# Bulk Modulus (GPa) = 36.65584 71.32858 53.99221
# Shear Modulus (GPa) = 15.92057 23.06161 19.49109
#
# Velocity S-wave (km/s) = 3.11005 3.74312 3.44117
# Velocity P-wave (km/s) = 5.93014 7.87505 6.97076
#
# Compressibility (1/GPa) = 0.02728078
#
# Stress axis : x y z
#
# Youngs Moduli (GPa) = 36.65459 15.85158 78.52663
#
# Poissons Ratio (x) = 0.39450 0.55360
# Poissons Ratio (y) = 0.91222 0.46909
# Poissons Ratio (z) = 0.25841 0.09469
#
# Static dielectric constant tensor:
#      x y z
#    x 1.555590 0.000000 -0.017070 
#    y 0.000000 1.553400 0.000000 
#    z -0.017070 0.000000 1.530620 
# 
# From -- ./inp_files/287332.got.cif
#   From: 2010.05.17/outbox.cif.g08.bks.cpg/sg12_144_cif.got.tgz:287332.got - 2010.06.03 13:09:07.
