data_PCOD9181038
_publ_section_title
;
Structure prediction by ZEFSAII (Michael W. Deem and Ramdas Pophale) SiO2 
 PCOD9181038
Probable space group: C 2/M
;
_chemical_formula_sum "Si O2"
_cell_formula_units_Z 40
_cell_length_a 14.541726
_cell_length_b 9.469754
_cell_length_c 20.203545
_cell_angle_alpha 90.000000
_cell_angle_beta 139.075763
_cell_angle_gamma 90.000000
_cell_volume 1822.483653
_symmetry_space_group_name_H-M "C 2/M"
_symmetry_group_IT_number 12
_symmetry_cell_setting 'monoclinic'
loop_
_space_group_symop_operation_xyz
x,y,z
-x,y,-z
-x,-y,-z
x,-y,z
1/2+x,1/2+y,z
1/2-x,1/2+y,-z
1/2-x,1/2-y,-z
1/2+x,1/2-y,z
loop_
_atom_site_type_symbol
_atom_site_label
_atom_site_fract_x
_atom_site_fract_y
_atom_site_fract_z
Si Si1 0.458792 0.659099 0.600768
Si Si2 0.116834 0.661416 0.003974
Si Si3 0.275384 0.159782 0.413282
Si Si4 0.808730 0.340336 0.196877
Si Si5 0.920221 0.159942 0.812117
O O1 0.509968 0.500000 0.614894
O O2 0.399614 0.739605 0.504552
O O3 0.328942 0.647737 0.581049
O O4 0.572241 0.753675 0.700296
O O5 0.155111 0.500000 0.010504
O O6 0.043942 0.738857 0.902726
O O7 0.245992 0.751923 0.102122
O O8 0.000000 0.658300 0.000000
O O9 0.178470 0.213927 0.300755
O O10 0.322940 0.000000 0.421798
O O11 0.853140 0.500000 0.203647
O O12 0.681288 0.351810 0.179762
O O13 0.967570 0.000000 0.820314
#
# Coordination Sequence:
#
# PCOD9181038 Si02
#       5
#     8   8   8   8   8
#     4  10  20  34  52  73  99 130 164 203 246 291
#     4   9  17  30  49  74 103 130 158 198 247 292
#     4   9  19  36  54  71  96 131 167 202 243 291
#     4  10  19  32  52  75 100 130 164 201 241 290
#     4   9  18  33  53  75  98 128 166 203 240 287
#
# _framework density 21.948070999999999
#
# number of rings (size 3 to 8) (size 9 to 14) (size 15 to 20)
#    0.000    2.600    0.000    1.800    0.000    5.600 
#    0.000    5.000    0.000    0.000    0.000    0.000 
#    0.000    0.000    0.000    0.000    0.000    0.000 
#
# Total GULP energy -111724.259698 kJ/mol
# GULP energy per Si atom -5586.212985 kJ/mol
# Density = 2.189812 g / cm^3
# Si number density = 21.948071 Si / 1000 Ang^3
#
#
#
# Elastic Constant Matrix: (Units=GPa)
#
#
# Indices 1 2 3 4 5 6 
#
# 1 45.2092 1.2462 -1.7004 0.0000 -3.2036 0.0000
# 2 1.2462 210.6372 154.3621 0.0000 11.6987 0.0000
# 3 -1.7004 154.3621 252.1129 0.0000 -14.0566 0.0000
# 4 0.0000 0.0000 0.0000 -158.9688 0.0000 97.1617
# 5 -3.2036 11.6987 -14.0566 0.0000 32.0323 0.0000
# 6 0.0000 0.0000 0.0000 97.1617 0.0000 -43.3138
#
#
#
# Elastic Compliance Matrix: (Units=1/GPa)
#
#
# Indices 1 2 3 4 5 6 
#
# 1 0.022392 -0.000964 0.000908 0.000000 0.002990 0.000000
# 2 -0.000964 0.009757 -0.006339 0.000000 -0.006442 0.000000
# 3 0.000908 -0.006339 0.008189 0.000000 0.005999 0.000000
# 4 0.000000 0.000000 0.000000 0.016954 0.000000 0.038030
# 5 0.002990 -0.006442 0.005999 0.000000 0.036503 0.000000
# 6 0.000000 0.000000 0.000000 0.038030 0.000000 0.062222
#
#
# Mechanical properties :
#
#
# Convention : Reuss Voigt Hill
#
# Bulk Modulus (GPa) = 36.30235 90.64167 63.47201
# Shear Modulus (GPa) = 28.09164 -10.44663 8.82251
#
# Velocity S-wave (km/s) = 3.58147 -2.18404 2.00710
# Velocity P-wave (km/s) = 5.80332 5.91843 5.86116
#
# Compressibility (1/GPa) = 0.02754643
#
# Stress axis : x y z
#
# Youngs Moduli (GPa) = 44.65885 102.49350 122.12146
#
# Poissons Ratio (x) = 0.09879 -0.11087
# Poissons Ratio (y) = 0.04304 0.77418
# Poissons Ratio (z) = -0.04054 0.64975
#
# Static dielectric constant tensor:
#      x y z
#    x 1.847940 0.000000 -0.000450 
#    y 0.000000 1.797670 0.000000 
#    z -0.000450 0.000000 1.760740 
# 
# From -- ./inp_files/92937.got.cif
#   From: 2010.05.17/outbox.cif.g08.bks.cpg/sg12_47_cif.got.tgz:92937.got - 2010.06.03 13:09:07.
