data_PCOD9181057
_publ_section_title
;
Structure prediction by ZEFSAII (Michael W. Deem and Ramdas Pophale) SiO2 
 PCOD9181057
Probable space group: C 2/M
;
_chemical_formula_sum "Si O2"
_cell_formula_units_Z 56
_cell_length_a 21.194719
_cell_length_b 7.500355
_cell_length_c 17.453076
_cell_angle_alpha 90.000000
_cell_angle_beta 89.324597
_cell_angle_gamma 90.000000
_cell_volume 2774.286366
_symmetry_space_group_name_H-M "C 2/M"
_symmetry_group_IT_number 12
_symmetry_cell_setting 'monoclinic'
loop_
_space_group_symop_operation_xyz
x,y,z
-x,y,-z
-x,-y,-z
x,-y,z
1/2+x,1/2+y,z
1/2-x,1/2+y,-z
1/2-x,1/2-y,-z
1/2+x,1/2-y,z
loop_
_atom_site_type_symbol
_atom_site_label
_atom_site_fract_x
_atom_site_fract_y
_atom_site_fract_z
Si Si1 0.073230 0.214857 0.833860
Si Si2 0.990428 0.284055 0.587929
Si Si3 0.864017 0.791403 0.679807
Si Si4 0.923277 0.207506 0.000044
Si Si5 0.615883 0.211363 0.669381
Si Si6 0.427244 0.719206 0.832389
Si Si7 0.243358 0.285481 0.590114
O O1 0.114996 0.262442 0.760455
O O2 0.000609 0.273836 0.820767
O O3 0.070998 0.000000 0.839140
O O4 0.095434 0.283187 0.916898
O O5 0.988914 0.500000 0.590234
O O6 0.924806 0.222036 0.624280
O O7 0.000000 0.229941 0.500000
O O8 0.050054 0.218212 0.636326
O O9 0.885434 0.717782 0.761952
O O10 0.803164 0.715762 0.637455
O O11 0.850999 0.000000 0.693343
O O12 0.905295 0.280773 0.917040
O O13 0.903896 0.000000 0.999758
O O14 0.000000 0.211193 0.000000
O O15 0.677586 0.282952 0.625976
O O16 0.614804 0.000000 0.654560
O O17 0.427520 0.500000 0.832877
O O18 0.243091 0.500000 0.597972
O O19 0.250000 0.250000 0.500000
#
# Coordination Sequence:
#
# PCOD9181057 Si02
#       7
#     8   8   8   8   8   8   8
#     4   9  15  26  47  73  97 123 159 197 233 275
#     4  10  20  33  49  68  93 126 157 190 240 295
#     4  10  19  32  52  75  95 118 157 207 244 273
#     4   7  11  20  39  68  98 124 149 187 235 279
#     4  10  20  33  48  68  98 130 158 191 238 294
#     4   8  13  24  44  72 100 120 149 198 244 274
#     4  10  22  38  53  70  94 128 166 199 238 288
#
# _framework density 20.185372000000001
#
# number of rings (size 3 to 8) (size 9 to 14) (size 15 to 20)
#    0.000    2.857    1.429    2.571    0.000    2.571 
#    0.000    0.000    0.000    5.571    0.000    0.000 
#    0.000    0.000    0.000    0.000    0.000    0.000 
#
# Total GULP energy -156135.130153 kJ/mol
# GULP energy per Si atom -5576.254648 kJ/mol
# Density = 2.013943 g / cm^3
# Si number density = 20.185372 Si / 1000 Ang^3
#
#
#
# Elastic Constant Matrix: (Units=GPa)
#
#
# Indices 1 2 3 4 5 6 
#
# 1 75.4818 -2.0746 27.1116 0.0000 -4.5792 0.0000
# 2 -2.0746 52.7974 -9.3475 0.0000 4.8883 0.0000
# 3 27.1116 -9.3475 131.2830 0.0000 -5.8044 0.0000
# 4 0.0000 0.0000 0.0000 63.8908 0.0000 -41.1946
# 5 -4.5792 4.8883 -5.8044 0.0000 29.0849 0.0000
# 6 0.0000 0.0000 0.0000 -41.1946 0.0000 34.7809
#
#
#
# Elastic Compliance Matrix: (Units=1/GPa)
#
#
# Indices 1 2 3 4 5 6 
#
# 1 0.014392 -0.000106 -0.002904 0.000000 0.001704 0.000000
# 2 -0.000106 0.019442 0.001272 0.000000 -0.003030 0.000000
# 3 -0.002904 0.001272 0.008352 0.000000 0.000996 0.000000
# 4 0.000000 0.000000 0.000000 0.066226 0.000000 0.078438
# 5 0.001704 -0.003030 0.000996 0.000000 0.035358 0.000000
# 6 0.000000 0.000000 0.000000 0.078438 0.000000 0.121654
#
#
# Mechanical properties :
#
#
# Convention : Reuss Voigt Hill
#
# Bulk Modulus (GPa) = 25.83423 32.32680 29.08052
# Shear Modulus (GPa) = 17.74287 41.80950 29.77619
#
# Velocity S-wave (km/s) = 2.96800 4.55607 3.84492
# Velocity P-wave (km/s) = 4.95698 6.61262 5.84373
#
# Compressibility (1/GPa) = 0.03870833
#
# Stress axis : x y z
#
# Youngs Moduli (GPa) = 69.48365 51.43509 119.73867
#
# Poissons Ratio (x) = 0.00548 0.34776
# Poissons Ratio (y) = 0.00740 -0.15234
# Poissons Ratio (z) = 0.20180 -0.06544
#
# Static dielectric constant tensor:
#      x y z
#    x 1.681190 0.000000 0.012920 
#    y 0.000000 1.786110 0.000000 
#    z 0.012920 0.000000 1.746750 
# 
# From -- ./inp_files/280241.got.cif
#   From: 2010.05.17/outbox.cif.g08.bks.cpg/sg12_141_cif.got.tgz:280241.got - 2010.06.03 13:09:07.
