data_PCOD9181656
_publ_section_title
;
Structure prediction by ZEFSAII (Michael W. Deem and Ramdas Pophale) SiO2 
 PCOD9181656
Probable space group: C 2/M
;
_chemical_formula_sum "Si O2"
_cell_formula_units_Z 56
_cell_length_a 29.295197
_cell_length_b 7.729104
_cell_length_c 17.826704
_cell_angle_alpha 90.000000
_cell_angle_beta 140.930353
_cell_angle_gamma 90.000000
_cell_volume 2544.014268
_symmetry_space_group_name_H-M "C 2/M"
_symmetry_group_IT_number 12
_symmetry_cell_setting 'monoclinic'
loop_
_space_group_symop_operation_xyz
x,y,z
-x,y,-z
-x,-y,-z
x,-y,z
1/2+x,1/2+y,z
1/2-x,1/2+y,-z
1/2-x,1/2-y,-z
1/2+x,1/2-y,z
loop_
_atom_site_type_symbol
_atom_site_label
_atom_site_fract_x
_atom_site_fract_y
_atom_site_fract_z
Si Si1 0.205055 0.791411 0.207452
Si Si2 0.351260 0.303389 0.183068
Si Si3 0.142275 0.210974 0.970840
Si Si4 0.853824 0.205132 0.348613
Si Si5 0.011777 0.694476 0.385404
Si Si6 0.472646 0.291675 0.756232
Si Si7 0.571882 0.711795 0.138308
O O1 0.288415 0.741185 0.322120
O O2 0.145166 0.731459 0.190491
O O3 0.201125 0.000000 0.201636
O O4 0.181711 0.726081 0.095287
O O5 0.323787 0.500000 0.148566
O O6 0.331434 0.224699 0.076941
O O7 0.333665 0.219656 0.240671
O O8 0.439591 0.308762 0.295612
O O9 0.057608 0.253950 0.871728
O O10 0.146518 0.000000 0.974350
O O11 0.929578 0.273683 0.475894
O O12 0.862027 0.000000 0.350741
O O13 0.984312 0.500000 0.355222
O O14 0.050003 0.721862 0.353591
O O15 0.467468 0.500000 0.746573
O O16 0.433939 0.232113 0.782717
O O17 0.571053 0.500000 0.137102
O O18 0.500000 0.764084 0.000000
#
# Coordination Sequence:
#
# PCOD9181656 Si02
#       7
#     8   8   8   8   8   8   8
#     4  10  19  32  53  82 113 141 177 219 259 309
#     4   9  19  36  58  80 103 139 182 219 261 319
#     4   8  14  28  52  80 107 136 171 212 258 310
#     4  11  23  38  53  73 107 148 184 217 264 321
#     4  11  22  36  56  81 106 134 178 228 272 313
#     4   9  16  31  56  83 110 139 175 216 262 315
#     4   9  15  28  56  88 109 137 179 216 255 315
#
# _framework density 22.012454999999999
#
# number of rings (size 3 to 8) (size 9 to 14) (size 15 to 20)
#    0.000    2.429    1.429    3.000    0.000    3.429 
#    0.000    4.286    0.000    0.857    0.000    0.000 
#    0.000    0.000    0.000    0.000    0.000    0.000 
#
# Total GULP energy -156335.535347 kJ/mol
# GULP energy per Si atom -5583.411977 kJ/mol
# Density = 2.196235 g / cm^3
# Si number density = 22.012455 Si / 1000 Ang^3
#
#
#
# Elastic Constant Matrix: (Units=GPa)
#
#
# Indices 1 2 3 4 5 6 
#
# 1 145.4146 4.7462 24.1948 0.0000 -5.4186 0.0000
# 2 4.7462 53.6781 4.7421 -0.0001 -2.3019 0.0000
# 3 24.1948 4.7421 22.2493 0.0000 -0.9573 0.0000
# 4 0.0000 -0.0001 0.0000 -26.6593 0.0000 29.4480
# 5 -5.4186 -2.3019 -0.9573 0.0000 27.8556 0.0000
# 6 0.0000 0.0000 0.0000 29.4480 0.0000 -3.6828
#
#
#
# Elastic Compliance Matrix: (Units=1/GPa)
#
#
# Indices 1 2 3 4 5 6 
#
# 1 0.008446 0.000119 -0.009152 0.000000 0.001338 0.000000
# 2 0.000119 0.019046 -0.004126 0.000000 0.001455 0.000000
# 3 -0.009152 -0.004126 0.055768 0.000000 -0.000205 0.000000
# 4 0.000000 0.000000 0.000000 0.004789 0.000000 0.038294
# 5 0.001338 0.001455 -0.000205 0.000000 0.036273 0.000000
# 6 0.000000 0.000000 0.000000 0.038294 0.000000 0.034667
#
#
# Mechanical properties :
#
#
# Convention : Reuss Voigt Hill
#
# Bulk Modulus (GPa) = 17.56188 32.07868 24.82028
# Shear Modulus (GPa) = 24.47528 12.01328 18.24428
#
# Velocity S-wave (km/s) = 3.33811 2.33866 2.88204
# Velocity P-wave (km/s) = 4.78046 4.67943 4.73021
#
# Compressibility (1/GPa) = 0.05694152
#
# Stress axis : x y z
#
# Youngs Moduli (GPa) = 118.40477 52.50454 17.93141
#
# Poissons Ratio (x) = -0.00626 0.16411
# Poissons Ratio (y) = -0.01411 0.07399
# Poissons Ratio (z) = 1.08363 0.21665
#
# Static dielectric constant tensor:
#      x y z
#    x 1.833080 0.000000 -0.029000 
#    y 0.000000 1.802400 0.000000 
#    z -0.029000 0.000000 1.786290 
# 
# From -- ./inp_files/295164.got.cif
#   From: 2010.05.17/outbox.cif.g08.bks.cpg/sg12_148_cif.got.tgz:295164.got - 2010.06.03 13:09:07.
