data_PCOD9181037
_publ_section_title
;
Structure prediction by ZEFSAII (Michael W. Deem and Ramdas Pophale) SiO2 
 PCOD9181037
Probable space group: C 2/M
;
_chemical_formula_sum "Si O2"
_cell_formula_units_Z 56
_cell_length_a 11.743198
_cell_length_b 15.934157
_cell_length_c 15.994415
_cell_angle_alpha 90.000000
_cell_angle_beta 113.642482
_cell_angle_gamma 90.000000
_cell_volume 2741.640007
_symmetry_space_group_name_H-M "C 2/M"
_symmetry_group_IT_number 12
_symmetry_cell_setting 'monoclinic'
loop_
_space_group_symop_operation_xyz
x,y,z
-x,y,-z
-x,-y,-z
x,-y,z
1/2+x,1/2+y,z
1/2-x,1/2+y,-z
1/2-x,1/2-y,-z
1/2+x,1/2-y,z
loop_
_atom_site_type_symbol
_atom_site_label
_atom_site_fract_x
_atom_site_fract_y
_atom_site_fract_z
Si Si1 0.763535 0.597933 0.614870
Si Si2 0.764931 0.343687 0.265783
Si Si3 0.597539 0.806622 0.205585
Si Si4 0.320751 0.404888 0.588759
Si Si5 0.650315 0.097367 0.883737
Si Si6 0.350592 0.094703 0.936311
Si Si7 0.959880 0.785506 0.397879
O O1 0.769355 0.500000 0.636021
O O2 0.863964 0.647156 0.697951
O O3 0.770101 0.608989 0.517145
O O4 0.633926 0.639171 0.604648
O O5 0.640134 0.288138 0.222794
O O6 0.748325 0.398539 0.343705
O O7 0.780346 0.391234 0.183129
O O8 0.879799 0.279944 0.319799
O O9 0.456802 0.832719 0.149968
O O10 0.672208 0.844884 0.147873
O O11 0.372388 0.500000 0.593412
O O12 0.423949 0.331683 0.611143
O O13 0.603016 0.000000 0.873134
O O14 0.714007 0.110691 0.993127
O O15 0.321527 0.000000 0.901195
O O16 0.500000 0.097895 0.000000
O O17 0.000000 0.748177 0.500000
#
# Coordination Sequence:
#
# PCOD9181037 Si02
#       7
#     8   8   8   8   8   8   8
#     4   9  17  30  51  76  97 126 169 208 240 281
#     4  11  22  32  49  77 103 130 162 200 246 290
#     4  10  19  32  52  75 100 125 161 210 249 282
#     4  10  20  35  51  69 100 137 167 196 237 293
#     4  10  20  35  53  73 100 132 163 197 243 298
#     4   8  15  30  52  74  96 126 161 199 245 291
#     4   9  19  33  50  70  98 132 167 205 244 283
#
# _framework density 20.425729
#
# number of rings (size 3 to 8) (size 9 to 14) (size 15 to 20)
#    0.000    2.429    0.000    3.857    0.000    8.571 
#    0.000    0.000    0.000    3.429    0.000    0.000 
#    0.000   28.571    0.000    0.000    0.000    0.000 
#
# Total GULP energy -156098.323172 kJ/mol
# GULP energy per Si atom -5574.940113 kJ/mol
# Density = 2.037924 g / cm^3
# Si number density = 20.425729 Si / 1000 Ang^3
#
#
#
# Elastic Constant Matrix: (Units=GPa)
#
#
# Indices 1 2 3 4 5 6 
#
# 1 27.4430 7.5579 20.6172 0.0000 -20.9389 0.0000
# 2 7.5579 56.8334 25.7365 0.0000 -8.0940 0.0000
# 3 20.6172 25.7365 73.3589 0.0000 -41.9764 0.0000
# 4 0.0000 0.0000 0.0000 28.7273 0.0000 -8.2521
# 5 -20.9389 -8.0940 -41.9764 0.0000 39.7260 0.0000
# 6 0.0000 0.0000 0.0000 -8.2521 0.0000 11.1364
#
#
#
# Elastic Compliance Matrix: (Units=1/GPa)
#
#
# Indices 1 2 3 4 5 6 
#
# 1 0.062740 -0.005834 0.006718 0.000000 0.038979 0.000000
# 2 -0.005834 0.022763 -0.013789 0.000000 -0.013008 0.000000
# 3 0.006718 -0.013789 0.042996 0.000000 0.046163 0.000000
# 4 0.000000 0.000000 0.000000 0.044223 0.000000 0.032770
# 5 0.038979 -0.013008 0.046163 0.000000 0.091846 0.000000
# 6 0.000000 0.000000 0.000000 0.032770 0.000000 0.114078
#
#
# Mechanical properties :
#
#
# Convention : Reuss Voigt Hill
#
# Bulk Modulus (GPa) = 9.73824 29.49540 19.61682
# Shear Modulus (GPa) = 11.39765 22.83286 17.11526
#
# Velocity S-wave (km/s) = 2.36477 3.34705 2.89784
# Velocity P-wave (km/s) = 3.49774 5.42298 4.56305
#
# Compressibility (1/GPa) = 0.10268792
#
# Stress axis : x y z
#
# Youngs Moduli (GPa) = 15.93885 43.93079 23.25786
#
# Poissons Ratio (x) = 0.25631 -0.15625
# Poissons Ratio (y) = 0.09299 0.32071
# Poissons Ratio (z) = -0.10708 0.60578
#
# Static dielectric constant tensor:
#      x y z
#    x 1.774140 0.000000 -0.026350 
#    y 0.000000 1.703900 0.000000 
#    z -0.026350 0.000000 1.753970 
# 
# From -- ./inp_files/206254.got.cif
#   From: 2010.05.17/outbox.cif.g08.bks.cpg/sg12_104_cif.got.tgz:206254.got - 2010.06.03 13:09:07.
