data_PCOD9181846
_publ_section_title
;
Structure prediction by ZEFSAII (Michael W. Deem and Ramdas Pophale) SiO2 
 PCOD9181846
Probable space group: C 2/M
;
_chemical_formula_sum "Si O2"
_cell_formula_units_Z 56
_cell_length_a 14.576119
_cell_length_b 14.019537
_cell_length_c 26.767093
_cell_angle_alpha 90.000000
_cell_angle_beta 148.360027
_cell_angle_gamma 90.000000
_cell_volume 2869.382918
_symmetry_space_group_name_H-M "C 2/M"
_symmetry_group_IT_number 12
_symmetry_cell_setting 'monoclinic'
loop_
_space_group_symop_operation_xyz
x,y,z
-x,y,-z
-x,-y,-z
x,-y,z
1/2+x,1/2+y,z
1/2-x,1/2+y,-z
1/2-x,1/2-y,-z
1/2+x,1/2-y,z
loop_
_atom_site_type_symbol
_atom_site_label
_atom_site_fract_x
_atom_site_fract_y
_atom_site_fract_z
Si Si1 0.402307 0.114001 0.575217
Si Si2 0.291975 0.889202 0.009096
Si Si3 0.752812 0.110836 0.678561
Si Si4 0.936699 0.750613 0.151856
Si Si5 0.102130 0.714340 0.752993
Si Si6 0.602807 0.610442 0.364439
Si Si7 0.447978 0.390949 0.919205
O O1 0.561143 0.133904 0.610180
O O2 0.458843 0.158937 0.653696
O O3 0.219827 0.143195 0.465436
O O4 0.394680 0.000000 0.577012
O O5 0.430810 0.828757 0.105750
O O6 0.334455 0.000000 0.017844
O O7 0.227253 0.823015 0.933382
O O8 0.119580 0.888774 0.964764
O O9 0.777842 0.117412 0.630378
O O10 0.893985 0.182354 0.766968
O O11 0.792041 0.000000 0.710627
O O12 0.921752 0.701691 0.198878
O O13 0.293248 0.676136 0.829352
O O14 0.064068 0.824043 0.722455
O O15 0.556621 0.500000 0.349203
O O16 0.380491 0.500000 0.887964
O O17 0.500000 0.366784 0.000000
#
# Coordination Sequence:
#
# PCOD9181846 Si02
#       7
#     8   8   8   8   8   8   8
#     4  10  19  32  54  82 105 131 169 215 264 303
#     4  10  20  35  53  72 101 134 172 214 256 301
#     4   9  17  32  54  78 104 132 167 209 254 303
#     4  10  20  31  48  76 103 135 168 208 258 307
#     4  11  20  31  50  78 109 135 169 210 260 307
#     4   9  19  34  52  76 108 141 171 205 249 306
#     4  10  19  33  54  80 105 129 163 215 267 301
#
# _framework density 19.516392
#
# number of rings (size 3 to 8) (size 9 to 14) (size 15 to 20)
#    0.000    2.143    1.429    2.571    0.000    5.143 
#    0.000    0.000    0.000    9.000    0.000    0.000 
#    0.000   24.000    0.000    0.000    0.000    0.000 
#
# Total GULP energy -156275.756126 kJ/mol
# GULP energy per Si atom -5581.277005 kJ/mol
# Density = 1.947197 g / cm^3
# Si number density = 19.516392 Si / 1000 Ang^3
#
#
#
# Elastic Constant Matrix: (Units=GPa)
#
#
# Indices 1 2 3 4 5 6 
#
# 1 33.6665 -0.7650 16.7953 -0.0001 -15.1124 -0.0001
# 2 -0.7650 72.6491 40.9423 0.0000 -5.1647 -0.0001
# 3 16.7953 40.9423 93.3422 -0.0002 -18.8247 0.0000
# 4 -0.0001 0.0000 -0.0002 37.1590 0.0000 -0.5814
# 5 -15.1124 -5.1647 -18.8247 0.0000 27.4270 0.0000
# 6 -0.0001 -0.0001 0.0000 -0.5814 0.0000 13.4360
#
#
#
# Elastic Compliance Matrix: (Units=1/GPa)
#
#
# Indices 1 2 3 4 5 6 
#
# 1 0.041624 0.005059 -0.005677 0.000000 0.019991 0.000000
# 2 0.005059 0.019036 -0.009256 0.000000 0.000019 0.000000
# 3 -0.005677 -0.009256 0.017192 0.000000 0.006929 0.000000
# 4 0.000000 0.000000 0.000000 0.026930 0.000000 0.001165
# 5 0.019991 0.000019 0.006929 0.000000 0.052235 0.000000
# 6 0.000000 0.000000 0.000000 0.001165 0.000000 0.074477
#
#
# Mechanical properties :
#
#
# Convention : Reuss Voigt Hill
#
# Bulk Modulus (GPa) = 17.21061 34.84477 26.02769
# Shear Modulus (GPa) = 18.47682 25.11674 21.79678
#
# Velocity S-wave (km/s) = 3.08024 3.59131 3.34555
# Velocity P-wave (km/s) = 4.63554 5.92364 5.31873
#
# Compressibility (1/GPa) = 0.05810370
#
# Stress axis : x y z
#
# Youngs Moduli (GPa) = 24.02473 52.53285 58.16676
#
# Poissons Ratio (x) = -0.26574 0.33019
# Poissons Ratio (y) = -0.12153 0.53839
# Poissons Ratio (z) = 0.13638 0.48624
#
# Static dielectric constant tensor:
#      x y z
#    x 1.698990 0.000000 -0.029050 
#    y 0.000000 1.704530 0.000000 
#    z -0.029050 0.000000 1.690020 
# 
# From -- ./inp_files/246578.got.cif
#   From: 2010.05.17/outbox.cif.g08.bks.cpg/sg12_124_cif.got.tgz:246578.got - 2010.06.03 13:09:07.
