data_PCOD9181850
_publ_section_title
;
Structure prediction by ZEFSAII (Michael W. Deem and Ramdas Pophale) SiO2 
 PCOD9181850
Probable space group: C 2/M
;
_chemical_formula_sum "Si O2"
_cell_formula_units_Z 56
_cell_length_a 16.239236
_cell_length_b 8.997237
_cell_length_c 20.364805
_cell_angle_alpha 90.000000
_cell_angle_beta 55.461444
_cell_angle_gamma 90.000000
_cell_volume 2451.024897
_symmetry_space_group_name_H-M "C 2/M"
_symmetry_group_IT_number 12
_symmetry_cell_setting 'monoclinic'
loop_
_space_group_symop_operation_xyz
x,y,z
-x,y,-z
-x,-y,-z
x,-y,z
1/2+x,1/2+y,z
1/2-x,1/2+y,-z
1/2-x,1/2-y,-z
1/2+x,1/2-y,z
loop_
_atom_site_type_symbol
_atom_site_label
_atom_site_fract_x
_atom_site_fract_y
_atom_site_fract_z
Si Si1 0.200092 0.322047 0.458393
Si Si2 0.193379 0.173320 0.264133
Si Si3 0.497559 0.176587 0.602573
Si Si4 0.592423 0.326866 0.834480
Si Si5 0.593196 0.325696 0.685273
Si Si6 0.904599 0.326533 0.964024
Si Si7 0.804774 0.173474 0.886986
O O1 0.195252 0.500000 0.467909
O O2 0.250000 0.250000 0.500000
O O3 0.084254 0.273839 0.512069
O O4 0.286749 0.294332 0.366161
O O5 0.302601 0.243753 0.213014
O O6 0.158014 0.187854 0.203987
O O7 0.110754 0.248980 0.347426
O O8 0.200208 0.000000 0.276977
O O9 0.545500 0.221199 0.651734
O O10 0.483553 0.000000 0.602826
O O11 0.609129 0.500000 0.839659
O O12 0.553510 0.310837 0.776707
O O13 0.507179 0.262983 0.919914
O O14 0.580483 0.500000 0.670894
O O15 0.928859 0.500000 0.955253
O O16 0.853983 0.281714 0.917365
O O17 0.814981 0.297786 0.055643
O O18 0.819328 0.000000 0.901030
#
# Coordination Sequence:
#
# PCOD9181850 Si02
#       7
#     8   8   8   8   8   8   8
#     4   8  15  29  50  76 103 132 168 210 256 304
#     4  11  23  38  54  73 104 143 178 212 255 308
#     4  10  19  32  54  82 107 132 170 218 261 305
#     4  11  23  37  53  76 107 140 176 215 256 306
#     4   9  18  34  55  77 104 139 174 210 256 309
#     4  10  20  36  59  83 106 133 169 213 259 307
#     4   9  20  38  58  80 105 136 173 211 254 307
#
# _framework density 22.847584999999999
#
# number of rings (size 3 to 8) (size 9 to 14) (size 15 to 20)
#    0.000    2.286    0.000    2.571    0.000    7.429 
#    0.000    3.571    0.000    4.286    0.000    0.000 
#    0.000    0.000    0.000    0.000    0.000    0.000 
#
# Total GULP energy -156434.708499 kJ/mol
# GULP energy per Si atom -5586.953875 kJ/mol
# Density = 2.279558 g / cm^3
# Si number density = 22.847585 Si / 1000 Ang^3
#
#
#
# Elastic Constant Matrix: (Units=GPa)
#
#
# Indices 1 2 3 4 5 6 
#
# 1 74.2859 26.5300 14.8869 0.0000 -27.1854 0.0000
# 2 26.5300 59.8711 52.7058 0.0000 -22.3371 0.0001
# 3 14.8869 52.7058 144.4703 0.0000 -34.0413 0.0000
# 4 0.0000 0.0000 0.0000 26.8121 0.0000 -18.2141
# 5 -27.1854 -22.3371 -34.0413 0.0000 45.7809 0.0000
# 6 0.0000 0.0001 0.0000 -18.2141 0.0000 30.0421
#
#
#
# Elastic Compliance Matrix: (Units=1/GPa)
#
#
# Indices 1 2 3 4 5 6 
#
# 1 0.019200 -0.007511 0.003134 0.000000 0.010067 0.000000
# 2 -0.007511 0.029228 -0.009190 0.000000 0.002967 0.000000
# 3 0.003134 -0.009190 0.011316 0.000000 0.005791 0.000000
# 4 0.000000 0.000000 0.000000 0.063415 0.000000 0.038448
# 5 0.010067 0.002967 0.005791 0.000000 0.033575 0.000000
# 6 0.000000 0.000000 0.000000 0.038448 0.000000 0.056597
#
#
# Mechanical properties :
#
#
# Convention : Reuss Voigt Hill
#
# Bulk Modulus (GPa) = 30.66541 51.87475 41.27008
# Shear Modulus (GPa) = 19.89386 32.82734 26.36060
#
# Velocity S-wave (km/s) = 2.95400 3.79462 3.40039
# Velocity P-wave (km/s) = 5.00856 6.47710 5.78958
#
# Compressibility (1/GPa) = 0.03261003
#
# Stress axis : x y z
#
# Youngs Moduli (GPa) = 52.08400 34.21418 88.36934
#
# Poissons Ratio (x) = 0.25697 -0.27691
# Poissons Ratio (y) = 0.39118 0.81209
# Poissons Ratio (z) = -0.16321 0.31442
#
# Static dielectric constant tensor:
#      x y z
#    x 1.916870 0.000000 -0.013650 
#    y 0.000000 1.762230 0.000000 
#    z -0.013650 0.000000 1.869830 
# 
# From -- ./inp_files/342235.got.cif
#   From: 2010.05.17/outbox.cif.g08.bks.cpg/sg12_172_cif.got.tgz:342235.got - 2010.06.03 13:09:07.
