data_PCOD9181696
_publ_section_title
;
Structure prediction by ZEFSAII (Michael W. Deem and Ramdas Pophale) SiO2 
 PCOD9181696
Probable space group: C 2/M
;
_chemical_formula_sum "Si O2"
_cell_formula_units_Z 40
_cell_length_a 29.896471
_cell_length_b 8.779957
_cell_length_c 23.186451
_cell_angle_alpha 90.000000
_cell_angle_beta 20.036886
_cell_angle_gamma 90.000000
_cell_volume 2085.286258
_symmetry_space_group_name_H-M "C 2/M"
_symmetry_group_IT_number 12
_symmetry_cell_setting 'monoclinic'
loop_
_space_group_symop_operation_xyz
x,y,z
-x,y,-z
-x,-y,-z
x,-y,z
1/2+x,1/2+y,z
1/2-x,1/2+y,-z
1/2-x,1/2-y,-z
1/2+x,1/2-y,z
loop_
_atom_site_type_symbol
_atom_site_label
_atom_site_fract_x
_atom_site_fract_y
_atom_site_fract_z
Si Si1 0.882091 0.819473 0.371342
Si Si2 0.460016 0.335742 0.114058
Si Si3 0.355956 0.682587 0.650054
Si Si4 0.156035 0.326944 0.463004
Si Si5 0.891758 0.674230 0.977800
O O1 0.750000 0.750000 0.500000
O O2 0.900908 0.770271 0.415310
O O3 0.015407 0.764377 0.178666
O O4 0.867300 0.000000 0.385026
O O5 0.506346 0.500000 0.083005
O O6 0.306020 0.335005 0.301177
O O7 0.520132 0.191209 0.071831
O O8 0.500000 0.334476 0.000000
O O9 0.500000 0.710795 0.500000
O O10 0.337610 0.500000 0.665378
O O11 0.345184 0.758511 0.599998
O O12 0.247624 0.732572 0.828859
O O13 0.103549 0.500000 0.525449
O O14 0.877048 0.500000 0.976453
#
# Coordination Sequence:
#
# PCOD9181696 Si02
#       5
#     8   8   8   8   8
#     4  12  24  38  58  88 127 162 194 237 297 363
#     4  10  19  32  53  84 121 154 187 238 299 355
#     4  10  23  43  64  87 118 158 205 254 298 345
#     4  11  22  37  60  90 123 157 197 245 297 355
#     4  11  22  36  59  88 120 157 198 242 294 356
#
# _framework density 19.182017999999999
#
# number of rings (size 3 to 8) (size 9 to 14) (size 15 to 20)
#    0.000    1.200    4.000    3.000    0.000    2.400 
#    0.000    1.000    0.000    0.000    0.000    0.000 
#    0.000    0.000    0.000    0.000    0.000    0.000 
#
# Total GULP energy -111404.665015 kJ/mol
# GULP energy per Si atom -5570.233251 kJ/mol
# Density = 1.913836 g / cm^3
# Si number density = 19.182018 Si / 1000 Ang^3
#
#
#
# Elastic Constant Matrix: (Units=GPa)
#
#
# Indices 1 2 3 4 5 6 
#
# 1 36.6401 29.6592 56.2332 -0.0063 19.1938 0.0012
# 2 29.6592 94.9884 57.2096 0.0050 14.3511 0.0001
# 3 56.2332 57.2096 135.4704 0.0129 27.3221 -0.0018
# 4 -0.0063 0.0050 0.0129 24.2367 -0.0014 9.2830
# 5 19.1938 14.3511 27.3221 -0.0014 37.3571 -0.0005
# 6 0.0012 0.0001 -0.0018 9.2830 -0.0005 30.8569
#
#
#
# Elastic Compliance Matrix: (Units=1/GPa)
#
#
# Indices 1 2 3 4 5 6 
#
# 1 0.091108 -0.006736 -0.030563 0.000048 -0.021870 -0.000020
# 2 -0.006736 0.014666 -0.003471 -0.000003 0.000365 0.000001
# 3 -0.030563 -0.003471 0.021230 -0.000022 0.001510 0.000009
# 4 0.000048 -0.000003 -0.000022 0.046633 -0.000006 -0.014029
# 5 -0.021870 0.000365 0.001510 -0.000006 0.036761 0.000003
# 6 -0.000020 0.000001 0.000009 -0.014029 0.000003 0.036628
#
#
# Mechanical properties :
#
#
# Convention : Reuss Voigt Hill
#
# Bulk Modulus (GPa) = 21.99561 61.47810 41.73686
# Shear Modulus (GPa) = 14.54663 26.75659 20.65161
#
# Velocity S-wave (km/s) = 2.75680 3.73886 3.28474
# Velocity P-wave (km/s) = 4.65026 7.12448 6.01594
#
# Compressibility (1/GPa) = 0.04546361
#
# Stress axis : x y z
#
# Youngs Moduli (GPa) = 10.97593 68.18361 47.10351
#
# Poissons Ratio (x) = 0.45927 1.43964
# Poissons Ratio (y) = 0.07393 0.16351
# Poissons Ratio (z) = 0.33546 0.23669
#
# Static dielectric constant tensor:
#      x y z
#    x 1.671740 0.000000 0.041170 
#    y 0.000000 1.742920 0.000000 
#    z 0.041170 0.000000 1.704020 
# 
# From -- ./inp_files/162519.got.cif
#   From: 2010.05.17/outbox.cif.g08.bks.cpg/sg12_82_cif.got.tgz:162519.got - 2010.06.03 13:09:07.
