data_PCOD9181425
_publ_section_title
;
Structure prediction by ZEFSAII (Michael W. Deem and Ramdas Pophale) SiO2 
 PCOD9181425
Probable space group: C 2/M
;
_chemical_formula_sum "Si O2"
_cell_formula_units_Z 64
_cell_length_a 31.793887
_cell_length_b 13.816938
_cell_length_c 9.648243
_cell_angle_alpha 90.000000
_cell_angle_beta 117.494172
_cell_angle_gamma 90.000000
_cell_volume 3759.720718
_symmetry_space_group_name_H-M "C 2/M"
_symmetry_group_IT_number 12
_symmetry_cell_setting 'monoclinic'
loop_
_space_group_symop_operation_xyz
x,y,z
-x,y,-z
-x,-y,-z
x,-y,z
1/2+x,1/2+y,z
1/2-x,1/2+y,-z
1/2-x,1/2-y,-z
1/2+x,1/2-y,z
loop_
_atom_site_type_symbol
_atom_site_label
_atom_site_fract_x
_atom_site_fract_y
_atom_site_fract_z
Si Si1 0.949077 0.617424 0.346448
Si Si2 0.200088 0.725456 0.126894
Si Si3 0.823326 0.389855 0.442344
Si Si4 0.033541 0.611255 0.939734
Si Si5 0.297537 0.383247 0.322559
Si Si6 0.782468 0.888608 0.622510
Si Si7 0.647979 0.236459 0.753379
Si Si8 0.865140 0.610201 0.766726
O O1 0.937089 0.500000 0.333993
O O2 0.959305 0.647796 0.203388
O O3 0.904148 0.684451 0.324019
O O4 0.000000 0.628880 0.500000
O O5 0.250901 0.671533 0.190493
O O6 0.202603 0.821037 0.227194
O O7 0.168888 0.655748 0.174084
O O8 0.172214 0.741209 0.941095
O O9 0.834355 0.500000 0.421882
O O10 0.774608 0.384859 0.453789
O O11 0.820918 0.333336 0.297063
O O12 0.862006 0.347147 0.607502
O O13 0.015880 0.500000 0.892564
O O14 0.083440 0.609727 0.091413
O O15 0.000000 0.661989 0.000000
O O16 0.293811 0.500000 0.303385
O O17 0.297498 0.360233 0.488794
O O18 0.343026 0.338854 0.311396
O O19 0.797150 0.000000 0.666391
O O20 0.849684 0.500000 0.723002
#
# Coordination Sequence:
#
# PCOD9181425 Si02
#       8
#     8   8   8   8   8   8   8   8
#     4  10  22  39  57  82 117 147 177 226 284 339
#     4  12  21  36  54  81 115 151 188 229 276 326
#     4  10  20  33  52  78 107 148 191 225 268 320
#     4   9  18  33  52  76 106 141 183 225 271 326
#     4  11  23  38  56  80 113 153 194 234 271 318
#     4  10  21  38  56  76 108 149 193 236 270 313
#     4  12  24  36  53  83 116 151 185 225 281 345
#     4  10  19  32  53  77 107 149 191 227 267 321
#
# _framework density 17.022542000000001
#
# number of rings (size 3 to 8) (size 9 to 14) (size 15 to 20)
#    0.000    1.500    3.750    2.250    1.750    2.000 
#    0.000    0.000    0.000    0.375    0.000    0.000 
#    0.000    3.000    0.000    0.000    0.000    0.000 
#
# Total GULP energy -178143.600551 kJ/mol
# GULP energy per Si atom -5566.987517 kJ/mol
# Density = 1.698380 g / cm^3
# Si number density = 17.022542 Si / 1000 Ang^3
#
#
#
# Elastic Constant Matrix: (Units=GPa)
#
#
# Indices 1 2 3 4 5 6 
#
# 1 91.2707 36.6386 35.3394 0.0000 -3.8889 0.0000
# 2 36.6386 71.4945 40.7822 0.0000 2.1251 0.0000
# 3 35.3394 40.7822 120.3026 0.0000 -5.8406 0.0000
# 4 0.0000 0.0000 0.0000 15.7136 0.0000 -6.1163
# 5 -3.8889 2.1251 -5.8406 0.0000 19.3114 0.0000
# 6 0.0000 0.0000 0.0000 -6.1163 0.0000 33.4438
#
#
#
# Elastic Compliance Matrix: (Units=1/GPa)
#
#
# Indices 1 2 3 4 5 6 
#
# 1 0.014384 -0.006365 -0.001921 0.000000 0.003016 0.000000
# 2 -0.006365 0.020427 -0.005304 0.000000 -0.005134 0.000000
# 3 -0.001921 -0.005304 0.010844 0.000000 0.003476 0.000000
# 4 0.000000 0.000000 0.000000 0.068517 0.000000 0.012531
# 5 0.003016 -0.005134 0.003476 0.000000 0.054007 0.000000
# 6 0.000000 0.000000 0.000000 0.012531 0.000000 0.032193
#
#
# Mechanical properties :
#
#
# Convention : Reuss Voigt Hill
#
# Bulk Modulus (GPa) = 54.13069 56.50981 55.32025
# Shear Modulus (GPa) = 21.39407 25.04759 23.22083
#
# Velocity S-wave (km/s) = 3.54900 3.84009 3.69741
# Velocity P-wave (km/s) = 6.97583 7.27536 7.12717
#
# Compressibility (1/GPa) = 0.01847381
#
# Stress axis : x y z
#
# Youngs Moduli (GPa) = 69.52213 48.95417 92.22005
#
# Poissons Ratio (x) = 0.31160 0.17717
# Poissons Ratio (y) = 0.44251 0.48916
# Poissons Ratio (z) = 0.13356 0.25967
#
# Static dielectric constant tensor:
#      x y z
#    x 1.624510 0.000000 0.017130 
#    y 0.000000 1.620170 0.000000 
#    z 0.017130 0.000000 1.626180 
# 
# From -- ./inp_files/111668.got.cif
#   From: 2010.05.17/outbox.cif.g08.bks.cpg/sg12_56_cif.got.tgz:111668.got - 2010.06.03 13:09:07.
