data_PCOD9181181
_publ_section_title
;
Structure prediction by ZEFSAII (Michael W. Deem and Ramdas Pophale) SiO2 
 PCOD9181181
Probable space group: C 2/M
;
_chemical_formula_sum "Si O2"
_cell_formula_units_Z 64
_cell_length_a 21.806641
_cell_length_b 14.250102
_cell_length_c 8.290093
_cell_angle_alpha 90.000000
_cell_angle_beta 75.539642
_cell_angle_gamma 90.000000
_cell_volume 2494.510519
_symmetry_space_group_name_H-M "C 2/M"
_symmetry_group_IT_number 12
_symmetry_cell_setting 'monoclinic'
loop_
_space_group_symop_operation_xyz
x,y,z
-x,y,-z
-x,-y,-z
x,-y,z
1/2+x,1/2+y,z
1/2-x,1/2+y,-z
1/2-x,1/2-y,-z
1/2+x,1/2-y,z
loop_
_atom_site_type_symbol
_atom_site_label
_atom_site_fract_x
_atom_site_fract_y
_atom_site_fract_z
Si Si1 0.313596 0.348794 0.571095
Si Si2 0.869807 0.809938 0.059442
Si Si3 0.263194 0.608576 0.964936
Si Si4 0.570664 0.898715 0.375491
Si Si5 0.130391 0.397666 0.915679
Si Si6 0.312456 0.131364 0.474703
Si Si7 0.927011 0.819899 0.689496
Si Si8 0.465348 0.609562 0.196290
O O1 0.282993 0.360441 0.771055
O O2 0.313577 0.241860 0.511880
O O3 0.261863 0.396868 0.487211
O O4 0.386810 0.368106 0.572700
O O5 0.794940 0.822899 0.076251
O O6 0.895033 0.855909 0.877551
O O7 0.899124 0.705431 0.050799
O O8 0.893870 0.861244 0.202586
O O9 0.282824 0.500000 0.980080
O O10 0.186939 0.606619 0.010467
O O11 0.500000 0.894623 0.500000
O O12 0.633102 0.906390 0.445043
O O13 0.579232 0.792897 0.305177
O O14 0.568908 0.000000 0.286373
O O15 0.098383 0.500000 0.941288
O O16 0.161299 0.391588 0.719230
O O17 0.999967 0.839596 0.679937
O O18 0.470928 0.500000 0.218929
O O19 0.500000 0.631590 0.000000
#
# Coordination Sequence:
#
# PCOD9181181 Si02
#       8
#     8   8   8   8   8   8   8   8
#     4   8  16  31  54  77 100 130 170 226 270 305
#     4  10  19  32  52  77 106 143 176 218 265 317
#     4   9  17  31  52  79 107 139 180 219 264 320
#     4  10  21  35  53  75 105 143 182 220 262 318
#     4  10  20  31  49  78 111 145 178 215 260 318
#     4   9  17  33  52  75 102 133 176 219 263 311
#     4   9  19  34  52  78 104 133 179 222 272 314
#     4   9  18  33  53  76  99 129 172 216 260 314
#
# _framework density 25.656336
#
# number of rings (size 3 to 8) (size 9 to 14) (size 15 to 20)
#    0.000    2.750    0.000    1.125    1.750    4.000 
#    0.000    0.000    0.000    4.125    0.000    5.250 
#    0.000    0.000    0.000    0.000    0.000    0.000 
#
# Total GULP energy -178215.049650 kJ/mol
# GULP energy per Si atom -5569.220302 kJ/mol
# Density = 2.559794 g / cm^3
# Si number density = 25.656336 Si / 1000 Ang^3
#
#
#
# Elastic Constant Matrix: (Units=GPa)
#
#
# Indices 1 2 3 4 5 6 
#
# 1 112.5001 25.5702 46.5541 0.0000 37.6831 0.0000
# 2 25.5702 125.6883 30.0616 0.0000 26.1374 0.0000
# 3 46.5541 30.0616 81.2800 0.0000 28.8149 0.0000
# 4 0.0000 0.0000 0.0000 1.7469 0.0000 -2.4027
# 5 37.6831 26.1374 28.8149 0.0000 49.0650 0.0000
# 6 0.0000 0.0000 0.0000 -2.4027 0.0000 44.6307
#
#
#
# Elastic Compliance Matrix: (Units=1/GPa)
#
#
# Indices 1 2 3 4 5 6 
#
# 1 0.013461 0.000011 -0.005111 0.000000 -0.007343 0.000000
# 2 0.000011 0.009225 -0.002113 0.000000 -0.003682 0.000000
# 3 -0.005111 -0.002113 0.017961 0.000000 -0.005497 0.000000
# 4 0.000000 0.000000 0.000000 0.618219 0.000000 0.033281
# 5 -0.007343 -0.003682 -0.005497 0.000000 0.031210 0.000000
# 6 0.000000 0.000000 0.000000 0.033281 0.000000 0.024198
#
#
# Mechanical properties :
#
#
# Convention : Reuss Voigt Hill
#
# Bulk Modulus (GPa) = 38.13779 58.20449 48.17114
# Shear Modulus (GPa) = 6.78022 33.57402 20.17712
#
# Velocity S-wave (km/s) = 1.62740 3.62139 2.80739
# Velocity P-wave (km/s) = 4.29283 6.34203 5.41525
#
# Compressibility (1/GPa) = 0.02622071
#
# Stress axis : x y z
#
# Youngs Moduli (GPa) = 74.28978 108.40155 55.67709
#
# Poissons Ratio (x) = -0.00117 0.28456
# Poissons Ratio (y) = -0.00080 0.11764
# Poissons Ratio (z) = 0.37968 0.22904
#
# Static dielectric constant tensor:
#      x y z
#    x 2.196530 0.000000 -0.040990 
#    y 0.000000 1.972160 0.000000 
#    z -0.040990 0.000000 2.035040 
# 
# From -- ./inp_files/174727.got.cif
#   From: 2010.05.17/outbox.cif.g08.bks.cpg/sg12_88_cif.got.tgz:174727.got - 2010.06.03 13:09:07.
