data_PCOD9181827
_publ_section_title
;
Structure prediction by ZEFSAII (Michael W. Deem and Ramdas Pophale) SiO2 
 PCOD9181827
Probable space group: C 2/M
;
_chemical_formula_sum "Si O2"
_cell_formula_units_Z 64
_cell_length_a 22.526216
_cell_length_b 7.641379
_cell_length_c 17.344259
_cell_angle_alpha 90.000000
_cell_angle_beta 119.249754
_cell_angle_gamma 90.000000
_cell_volume 2604.835051
_symmetry_space_group_name_H-M "C 2/M"
_symmetry_group_IT_number 12
_symmetry_cell_setting 'monoclinic'
loop_
_space_group_symop_operation_xyz
x,y,z
-x,y,-z
-x,-y,-z
x,-y,z
1/2+x,1/2+y,z
1/2-x,1/2+y,-z
1/2-x,1/2-y,-z
1/2+x,1/2-y,z
loop_
_atom_site_type_symbol
_atom_site_label
_atom_site_fract_x
_atom_site_fract_y
_atom_site_fract_z
Si Si1 0.040821 0.714839 0.449985
Si Si2 0.707842 0.301263 0.735235
Si Si3 0.721690 0.302395 0.066396
Si Si4 0.170063 0.290444 0.447056
Si Si5 0.404872 0.796489 0.093154
Si Si6 0.041469 0.294626 0.097431
Si Si7 0.923167 0.298035 0.269470
Si Si8 0.834623 0.284682 0.727370
O O1 0.040586 0.500000 0.452421
O O2 0.117782 0.773151 0.479813
O O3 0.000000 0.773031 0.500000
O O4 0.992322 0.772376 0.348582
O O5 0.691345 0.500000 0.704294
O O6 0.750379 0.300942 0.842787
O O7 0.636867 0.208251 0.706228
O O8 0.759337 0.226917 0.704617
O O9 0.243358 0.000000 0.095647
O O10 0.750000 0.250000 0.000000
O O11 0.640924 0.290322 0.001528
O O12 0.164710 0.500000 0.444980
O O13 0.250000 0.250000 0.500000
O O14 0.146835 0.231051 0.347066
O O15 0.484778 0.790682 0.128063
O O16 0.395010 0.719027 0.172095
O O17 0.383124 0.000000 0.076137
O O18 0.055174 0.500000 0.085641
O O19 0.110818 0.221858 0.175310
O O20 0.000000 0.215572 0.000000
O O21 0.936973 0.500000 0.258530
O O22 0.834849 0.500000 0.729811
#
# Coordination Sequence:
#
# PCOD9181827 Si02
#       8
#     8   8   8   8   8   8   8   8
#     4   9  19  36  60  90 121 156 199 248 297 355
#     4  11  22  36  56  82 115 155 197 244 296 348
#     4  12  23  36  53  78 114 154 195 240 290 348
#     4  10  21  39  63  90 123 160 202 248 302 361
#     4  10  19  32  54  81 109 144 190 242 289 340
#     4   9  16  29  53  81 106 141 191 240 285 340
#     4  10  20  34  55  82 113 149 195 243 293 348
#     4   9  19  35  56  84 118 154 196 245 293 352
#
# _framework density 24.569692
#
# number of rings (size 3 to 8) (size 9 to 14) (size 15 to 20)
#    0.000    2.000    1.250    3.000    1.750    5.000 
#    0.000    1.250    0.000    7.125    0.000    0.000 
#    0.000    0.000    0.000    0.000    0.000    0.000 
#
# Total GULP energy -178791.121917 kJ/mol
# GULP energy per Si atom -5587.222560 kJ/mol
# Density = 2.451377 g / cm^3
# Si number density = 24.569692 Si / 1000 Ang^3
#
#
#
# Elastic Constant Matrix: (Units=GPa)
#
#
# Indices 1 2 3 4 5 6 
#
# 1 149.4084 0.8044 41.4418 0.0000 1.4712 0.0000
# 2 0.8044 55.3054 -4.7902 0.0000 -4.6781 0.0000
# 3 41.4418 -4.7902 79.6993 0.0000 6.5515 0.0000
# 4 0.0000 0.0000 0.0000 2.2220 0.0000 0.7576
# 5 1.4712 -4.6781 6.5515 0.0000 41.2801 0.0000
# 6 0.0000 0.0000 0.0000 0.7576 0.0000 12.3502
#
#
#
# Elastic Compliance Matrix: (Units=1/GPa)
#
#
# Indices 1 2 3 4 5 6 
#
# 1 0.007837 -0.000444 -0.004129 0.000000 0.000326 0.000000
# 2 -0.000444 0.018351 0.001177 0.000000 0.001909 0.000000
# 3 -0.004129 0.001177 0.014937 0.000000 -0.002090 0.000000
# 4 0.000000 0.000000 0.000000 0.459663 0.000000 -0.028196
# 5 0.000326 0.001909 -0.002090 0.000000 0.024761 0.000000
# 6 0.000000 0.000000 0.000000 -0.028196 0.000000 0.082700
#
#
# Mechanical properties :
#
#
# Convention : Reuss Voigt Hill
#
# Bulk Modulus (GPa) = 29.12598 39.92502 34.52550
# Shear Modulus (GPa) = 7.98103 27.63426 17.80765
#
# Velocity S-wave (km/s) = 1.80427 3.35734 2.69510
# Velocity P-wave (km/s) = 4.02749 5.59589 4.87517
#
# Compressibility (1/GPa) = 0.03433361
#
# Stress axis : x y z
#
# Youngs Moduli (GPa) = 127.59253 54.49219 66.94980
#
# Poissons Ratio (x) = 0.02420 0.27642
# Poissons Ratio (y) = 0.05666 -0.07880
# Poissons Ratio (z) = 0.52680 -0.06414
#
# Static dielectric constant tensor:
#      x y z
#    x 1.998390 0.000000 -0.019580 
#    y 0.000000 1.943770 0.000000 
#    z -0.019580 0.000000 1.967560 
# 
# From -- ./inp_files/282912.got.cif
#   From: 2010.05.17/outbox.cif.g08.bks.cpg/sg12_142_cif.got.tgz:282912.got - 2010.06.03 13:09:07.
