data_PCOD9181739
_publ_section_title
;
Structure prediction by ZEFSAII (Michael W. Deem and Ramdas Pophale) SiO2 
 PCOD9181739
Probable space group: C 2/M
;
_chemical_formula_sum "Si O2"
_cell_formula_units_Z 48
_cell_length_a 19.890234
_cell_length_b 8.627258
_cell_length_c 22.701311
_cell_angle_alpha 90.000000
_cell_angle_beta 135.907007
_cell_angle_gamma 90.000000
_cell_volume 2710.588710
_symmetry_space_group_name_H-M "C 2/M"
_symmetry_group_IT_number 12
_symmetry_cell_setting 'monoclinic'
loop_
_space_group_symop_operation_xyz
x,y,z
-x,y,-z
-x,-y,-z
x,-y,z
1/2+x,1/2+y,z
1/2-x,1/2+y,-z
1/2-x,1/2-y,-z
1/2+x,1/2-y,z
loop_
_atom_site_type_symbol
_atom_site_label
_atom_site_fract_x
_atom_site_fract_y
_atom_site_fract_z
Si Si1 0.844457 0.314336 0.026398
Si Si2 0.971316 0.313046 0.778600
Si Si3 0.067196 0.814425 0.726649
Si Si4 0.782796 0.184443 0.867093
Si Si5 0.207979 0.312486 0.255657
Si Si6 0.428948 0.311608 0.404406
O O1 0.838919 0.500000 0.021837
O O2 0.843576 0.251624 0.959480
O O3 0.750000 0.250000 0.000000
O O4 0.939654 0.269069 0.122667
O O5 0.971832 0.500000 0.773435
O O6 0.992297 0.240627 0.728417
O O7 0.871779 0.265712 0.747018
O O8 0.171940 0.740692 0.805940
O O9 0.040874 0.768910 0.643123
O O10 0.077998 0.000000 0.735368
O O11 0.814115 0.246668 0.822985
O O12 0.785531 0.000000 0.869986
O O13 0.207023 0.500000 0.250702
O O14 0.317042 0.264039 0.340950
O O15 0.500000 0.253878 0.500000
O O16 0.429950 0.500000 0.407478
#
# Coordination Sequence:
#
# PCOD9181739 Si02
#       6
#     8   8   8   8   8   8
#     4  11  21  33  51  75 103 139 182 222 257 300
#     4  10  21  35  52  75 106 140 173 215 262 307
#     4  10  19  32  54  78 103 137 175 214 257 311
#     4  11  21  34  52  75 104 139 178 221 261 303
#     4   9  19  36  55  76 104 139 174 211 261 313
#     4   8  15  31  56  81 101 129 172 214 254 309
#
# _framework density 17.708331000000001
#
# number of rings (size 3 to 8) (size 9 to 14) (size 15 to 20)
#    0.000    2.167    1.667    3.500    0.000    2.000 
#    0.000    4.167    0.000   12.500    0.000    0.000 
#    0.000    0.000    0.000    0.000    0.000    0.000 
#
# Total GULP energy -133947.552885 kJ/mol
# GULP energy per Si atom -5581.148037 kJ/mol
# Density = 1.766803 g / cm^3
# Si number density = 17.708331 Si / 1000 Ang^3
#
#
#
# Elastic Constant Matrix: (Units=GPa)
#
#
# Indices 1 2 3 4 5 6 
#
# 1 164.3158 35.3340 77.2067 0.0000 -11.9624 0.0000
# 2 35.3340 36.3629 30.2246 0.0000 -2.8814 0.0000
# 3 77.2067 30.2246 138.1517 0.0000 -16.8388 0.0000
# 4 0.0000 0.0000 0.0000 13.1169 0.0000 -6.1496
# 5 -11.9624 -2.8814 -16.8388 0.0000 16.4145 0.0000
# 6 0.0000 0.0000 0.0000 -6.1496 0.0000 28.6918
#
#
#
# Elastic Compliance Matrix: (Units=1/GPa)
#
#
# Indices 1 2 3 4 5 6 
#
# 1 0.009167 -0.005735 -0.003631 0.000000 0.001949 0.000000
# 2 -0.005735 0.037252 -0.005323 0.000000 -0.003101 0.000000
# 3 -0.003631 -0.005323 0.011424 0.000000 0.008139 0.000000
# 4 0.000000 0.000000 0.000000 0.084754 0.000000 0.018165
# 5 0.001949 -0.003101 0.008139 0.000000 0.070148 0.000000
# 6 0.000000 0.000000 0.000000 0.018165 0.000000 0.038747
#
#
# Mechanical properties :
#
#
# Convention : Reuss Voigt Hill
#
# Bulk Modulus (GPa) = 35.13004 69.37345 52.25174
# Shear Modulus (GPa) = 17.22020 24.71566 20.96793
#
# Velocity S-wave (km/s) = 3.12177 3.73997 3.44477
# Velocity P-wave (km/s) = 5.73369 7.60989 6.73742
#
# Compressibility (1/GPa) = 0.02846567
#
# Stress axis : x y z
#
# Youngs Moduli (GPa) = 109.08710 26.84417 87.53546
#
# Poissons Ratio (x) = 0.15396 0.31781
# Poissons Ratio (y) = 0.62565 0.46592
# Poissons Ratio (z) = 0.39606 0.14288
#
# Static dielectric constant tensor:
#      x y z
#    x 1.599240 0.000000 -0.005260 
#    y 0.000000 1.601820 0.000000 
#    z -0.005260 0.000000 1.594730 
# 
# From -- ./inp_files/230422.got.cif
#   From: 2010.05.17/outbox.cif.g08.bks.cpg/sg12_116_cif.got.tgz:230422.got - 2010.06.03 13:09:07.
