data_PCOD9181722
_publ_section_title
;
Structure prediction by ZEFSAII (Michael W. Deem and Ramdas Pophale) SiO2 
 PCOD9181722
Probable space group: C 2/M
;
_chemical_formula_sum "Si O2"
_cell_formula_units_Z 56
_cell_length_a 32.928129
_cell_length_b 10.828883
_cell_length_c 9.291241
_cell_angle_alpha 90.000000
_cell_angle_beta 70.203897
_cell_angle_gamma 90.000000
_cell_volume 3117.235880
_symmetry_space_group_name_H-M "C 2/M"
_symmetry_group_IT_number 12
_symmetry_cell_setting 'monoclinic'
loop_
_space_group_symop_operation_xyz
x,y,z
-x,y,-z
-x,-y,-z
x,-y,z
1/2+x,1/2+y,z
1/2-x,1/2+y,-z
1/2-x,1/2-y,-z
1/2+x,1/2-y,z
loop_
_atom_site_type_symbol
_atom_site_label
_atom_site_fract_x
_atom_site_fract_y
_atom_site_fract_z
Si Si1 0.485738 0.860320 0.850918
Si Si2 0.884284 0.362924 0.012553
Si Si3 0.473280 0.642167 0.384179
Si Si4 0.656161 0.646893 0.743559
Si Si5 0.820617 0.706440 0.845709
Si Si6 0.128107 0.854716 0.454525
Si Si7 0.230611 0.862377 0.855467
O O1 0.508145 0.748570 0.740210
O O2 0.496606 0.000000 0.784516
O O3 0.500000 0.854907 0.000000
O O4 0.434009 0.846624 0.908632
O O5 0.880423 0.500000 0.087658
O O6 0.870062 0.246955 0.129192
O O7 0.854054 0.364913 0.907516
O O8 0.500000 0.645156 0.500000
O O9 0.476312 0.500000 0.323016
O O10 0.423057 0.668223 0.475367
O O11 0.644160 0.500000 0.780936
O O12 0.648270 0.674778 0.586261
O O13 0.705879 0.660560 0.735233
O O14 0.849002 0.784797 0.702040
O O15 0.782126 0.646958 0.798143
O O16 0.792701 0.779240 0.998333
O O17 0.134203 0.000000 0.422861
O O18 0.219161 0.000000 0.913870
#
# Coordination Sequence:
#
# PCOD9181722 Si02
#       7
#     8   8   8   8   8   8   8
#     4  10  21  36  54  77 106 140 177 216 259 309
#     4  10  20  35  54  78 107 138 176 218 258 306
#     4  10  21  36  54  78 107 137 174 219 261 307
#     4   9  19  35  55  78 106 139 174 214 259 309
#     4  10  19  32  54  76 102 137 172 211 260 309
#     4  10  20  35  54  78 106 136 174 217 261 309
#     4   9  18  33  51  74 102 133 173 215 254 303
#
# _framework density 17.964632999999999
#
# number of rings (size 3 to 8) (size 9 to 14) (size 15 to 20)
#    0.000    2.286    0.000    2.571    0.000    2.286 
#    0.000    3.571    0.000    0.000    0.000    0.000 
#    0.000    0.000    0.000    0.000    0.000    0.000 
#
# Total GULP energy -155884.746660 kJ/mol
# GULP energy per Si atom -5567.312381 kJ/mol
# Density = 1.792374 g / cm^3
# Si number density = 17.964633 Si / 1000 Ang^3
#
#
#
# Elastic Constant Matrix: (Units=GPa)
#
#
# Indices 1 2 3 4 5 6 
#
# 1 122.5439 31.7547 31.3954 0.0000 0.0613 0.0000
# 2 31.7547 84.8849 46.1824 0.0000 -6.4557 0.0000
# 3 31.3954 46.1824 55.9983 0.0000 0.9826 0.0000
# 4 0.0000 0.0000 0.0000 23.3547 0.0000 1.1476
# 5 0.0613 -6.4557 0.9826 0.0000 19.3702 0.0000
# 6 0.0000 0.0000 0.0000 1.1476 0.0000 23.1325
#
#
#
# Elastic Compliance Matrix: (Units=1/GPa)
#
#
# Indices 1 2 3 4 5 6 
#
# 1 0.009597 -0.001237 -0.004357 0.000000 -0.000222 0.000000
# 2 -0.001237 0.022851 -0.018302 0.000000 0.008548 0.000000
# 3 -0.004357 -0.018302 0.035533 0.000000 -0.007888 0.000000
# 4 0.000000 0.000000 0.000000 0.042923 0.000000 -0.002129
# 5 -0.000222 0.008548 -0.007888 0.000000 0.054875 0.000000
# 6 0.000000 0.000000 0.000000 -0.002129 0.000000 0.043335
#
#
# Mechanical properties :
#
#
# Convention : Reuss Voigt Hill
#
# Bulk Modulus (GPa) = 49.53051 53.56579 51.54815
# Shear Modulus (GPa) = 18.96570 23.44445 21.20507
#
# Velocity S-wave (km/s) = 3.25272 3.61644 3.43939
# Velocity P-wave (km/s) = 6.46048 6.87898 6.67301
#
# Compressibility (1/GPa) = 0.02018957
#
# Stress axis : x y z
#
# Youngs Moduli (GPa) = 104.19798 43.76235 28.14323
#
# Poissons Ratio (x) = 0.05412 0.12262
# Poissons Ratio (y) = 0.12886 0.51507
# Poissons Ratio (z) = 0.45397 0.80093
#
# Static dielectric constant tensor:
#      x y z
#    x 1.639250 0.000000 0.015400 
#    y 0.000000 1.643170 0.000000 
#    z 0.015400 0.000000 1.562580 
# 
# From -- ./inp_files/110084.got.cif
#   From: 2010.05.17/outbox.cif.g08.bks.cpg/sg12_56_cif.got.tgz:110084.got - 2010.06.03 13:09:07.
