data_PCOD9181348
_publ_section_title
;
Structure prediction by ZEFSAII (Michael W. Deem and Ramdas Pophale) SiO2 
 PCOD9181348
Probable space group: C 2/M
;
_chemical_formula_sum "Si O2"
_cell_formula_units_Z 56
_cell_length_a 26.561661
_cell_length_b 8.360673
_cell_length_c 14.993997
_cell_angle_alpha 90.000000
_cell_angle_beta 123.867614
_cell_angle_gamma 90.000000
_cell_volume 2764.797089
_symmetry_space_group_name_H-M "C 2/M"
_symmetry_group_IT_number 12
_symmetry_cell_setting 'monoclinic'
loop_
_space_group_symop_operation_xyz
x,y,z
-x,y,-z
-x,-y,-z
x,-y,z
1/2+x,1/2+y,z
1/2-x,1/2+y,-z
1/2-x,1/2-y,-z
1/2+x,1/2-y,z
loop_
_atom_site_type_symbol
_atom_site_label
_atom_site_fract_x
_atom_site_fract_y
_atom_site_fract_z
Si Si1 0.214560 0.808794 0.298627
Si Si2 0.876639 0.814402 0.088004
Si Si3 0.769339 0.684486 0.873837
Si Si4 0.109616 0.306371 0.322728
Si Si5 0.636100 0.812985 0.737389
Si Si6 0.355472 0.805687 0.450767
Si Si7 0.008421 0.306427 0.905559
O O1 0.199044 0.724869 0.189468
O O2 0.168609 0.756598 0.329607
O O3 0.284221 0.762962 0.388597
O O4 0.212215 0.000000 0.284609
O O5 0.891510 0.775432 0.205217
O O6 0.931736 0.764616 0.079394
O O7 0.862877 0.000000 0.064002
O O8 0.816893 0.719405 0.998276
O O9 0.750391 0.500000 0.857348
O O10 0.708977 0.790895 0.817276
O O11 0.112139 0.500000 0.324466
O O12 0.110663 0.252635 0.426695
O O13 0.049996 0.257500 0.209864
O O14 0.621234 0.751262 0.623140
O O15 0.620742 0.000000 0.728180
O O16 0.357670 0.000000 0.449973
O O17 0.013078 0.500000 0.907485
O O18 0.000000 0.258491 0.000000
#
# Coordination Sequence:
#
# PCOD9181348 Si02
#       7
#     8   8   8   8   8   8   8
#     4  10  19  32  52  82 117 148 182 224 275 330
#     4  12  24  38  57  81 110 145 184 224 274 330
#     4  11  21  35  56  83 114 146 182 223 273 328
#     4  10  19  34  56  80 109 147 190 231 276 326
#     4  10  20  37  58  82 113 144 181 227 274 325
#     4   8  17  33  54  81 111 145 184 227 272 324
#     4  10  22  39  58  81 109 143 184 228 273 324
#
# _framework density 20.254649000000001
#
# number of rings (size 3 to 8) (size 9 to 14) (size 15 to 20)
#    0.000    1.857    0.000    6.000    0.000    2.000 
#    0.000    4.286    0.000    4.286    0.000    0.000 
#    0.000    0.000    0.000    0.000    0.000    0.000 
#
# Total GULP energy -156452.904859 kJ/mol
# GULP energy per Si atom -5587.603745 kJ/mol
# Density = 2.020855 g / cm^3
# Si number density = 20.254649 Si / 1000 Ang^3
#
#
#
# Elastic Constant Matrix: (Units=GPa)
#
#
# Indices 1 2 3 4 5 6 
#
# 1 65.4236 -0.7813 27.2701 0.0000 -28.8255 0.0000
# 2 -0.7813 25.2615 9.2484 0.0000 -0.2097 0.0000
# 3 27.2701 9.2484 127.7610 0.0000 -26.6356 0.0000
# 4 0.0000 0.0000 0.0000 14.2881 0.0000 -5.3877
# 5 -28.8255 -0.2097 -26.6356 0.0000 30.1085 0.0000
# 6 0.0000 0.0000 0.0000 -5.3877 0.0000 29.8337
#
#
#
# Elastic Compliance Matrix: (Units=1/GPa)
#
#
# Indices 1 2 3 4 5 6 
#
# 1 0.026494 0.001230 -0.000557 0.000000 0.024881 0.000000
# 2 0.001230 0.040920 -0.003580 0.000000 -0.001705 0.000000
# 3 -0.000557 -0.003580 0.009918 0.000000 0.008216 0.000000
# 4 0.000000 0.000000 0.000000 0.075103 0.000000 0.013563
# 5 0.024881 -0.001705 0.008216 0.000000 0.064291 0.000000
# 6 0.000000 0.000000 0.000000 0.013563 0.000000 0.035969
#
#
# Mechanical properties :
#
#
# Convention : Reuss Voigt Hill
#
# Bulk Modulus (GPa) = 13.98234 32.21340 23.09787
# Shear Modulus (GPa) = 17.70861 27.02664 22.36763
#
# Velocity S-wave (km/s) = 2.96006 3.65683 3.32674
# Velocity P-wave (km/s) = 4.31287 5.81107 5.11710
#
# Compressibility (1/GPa) = 0.07151881
#
# Stress axis : x y z
#
# Youngs Moduli (GPa) = 37.74372 24.43768 100.82706
#
# Poissons Ratio (x) = -0.03006 0.05615
# Poissons Ratio (y) = -0.04642 0.36096
# Poissons Ratio (z) = 0.02102 0.08749
#
# Static dielectric constant tensor:
#      x y z
#    x 1.691980 0.000000 -0.029180 
#    y 0.000000 1.683490 0.000000 
#    z -0.029180 0.000000 1.735770 
# 
# From -- ./inp_files/239035.got.cif
#   From: 2010.05.17/outbox.cif.g08.bks.cpg/sg12_120_cif.got.tgz:239035.got - 2010.06.03 13:09:07.
