data_PCOD9181807
_publ_section_title
;
Structure prediction by ZEFSAII (Michael W. Deem and Ramdas Pophale) SiO2 
 PCOD9181807
Probable space group: C 2/M
;
_chemical_formula_sum "Si O2"
_cell_formula_units_Z 48
_cell_length_a 20.686664
_cell_length_b 8.794238
_cell_length_c 18.853267
_cell_angle_alpha 90.000000
_cell_angle_beta 34.819516
_cell_angle_gamma 90.000000
_cell_volume 1958.421890
_symmetry_space_group_name_H-M "C 2/M"
_symmetry_group_IT_number 12
_symmetry_cell_setting 'monoclinic'
loop_
_space_group_symop_operation_xyz
x,y,z
-x,y,-z
-x,-y,-z
x,-y,z
1/2+x,1/2+y,z
1/2-x,1/2+y,-z
1/2-x,1/2-y,-z
1/2+x,1/2-y,z
loop_
_atom_site_type_symbol
_atom_site_label
_atom_site_fract_x
_atom_site_fract_y
_atom_site_fract_z
Si Si1 0.309374 0.825556 0.308787
Si Si2 0.278358 0.327154 0.758024
Si Si3 0.905038 0.683025 0.364944
Si Si4 0.496974 0.817672 0.583586
Si Si5 0.370439 0.669232 0.895345
Si Si6 0.453681 0.743147 0.969059
O O1 0.242581 0.756473 0.301925
O O2 0.325602 0.753628 0.372679
O O3 0.271471 0.000000 0.351261
O O4 0.438037 0.829640 0.161030
O O5 0.319694 0.500000 0.713797
O O6 0.369394 0.230240 0.718857
O O7 0.156756 0.332288 0.905018
O O8 0.890312 0.500000 0.378434
O O9 0.911948 0.738980 0.440448
O O10 0.031283 0.726671 0.225954
O O11 0.500000 0.759255 0.500000
O O12 0.506825 0.000000 0.573270
O O13 0.368027 0.500000 0.864745
O O14 0.250000 0.750000 0.000000
O O15 0.406691 0.653030 0.944733
O O16 0.500000 0.668452 0.000000
#
# Coordination Sequence:
#
# PCOD9181807 Si02
#       6
#     8   8   8   8   8   8
#     4   8  15  30  52  79 108 137 168 202 248 306
#     4  10  19  32  54  81 106 135 174 217 254 296
#     4   9  18  35  56  73  96 133 173 212 254 305
#     4  10  22  39  56  74  99 134 175 219 268 315
#     4  11  22  33  48  74 107 140 173 209 251 302
#     4   9  18  32  51  78 111 143 170 202 247 304
#
# _framework density 24.509530999999999
#
# number of rings (size 3 to 8) (size 9 to 14) (size 15 to 20)
#    0.000    2.500    0.000    2.000    0.000    8.667 
#    0.000    7.500    0.000    0.000    0.000    0.000 
#    0.000    0.000    0.000    0.000    0.000    0.000 
#
# Total GULP energy -133780.213381 kJ/mol
# GULP energy per Si atom -5574.175558 kJ/mol
# Density = 2.445375 g / cm^3
# Si number density = 24.509531 Si / 1000 Ang^3
#
#
#
# Elastic Constant Matrix: (Units=GPa)
#
#
# Indices 1 2 3 4 5 6 
#
# 1 224.2464 9.3140 28.2156 0.0001 3.6525 0.0000
# 2 9.3140 31.7179 -14.7059 0.0001 1.0021 -0.0001
# 3 28.2156 -14.7059 51.5872 0.0000 10.5165 0.0000
# 4 0.0001 0.0001 0.0000 -3.4335 0.0000 2.6762
# 5 3.6525 1.0021 10.5165 0.0000 52.5437 0.0000
# 6 0.0000 -0.0001 0.0000 2.6762 0.0000 16.5153
#
#
#
# Elastic Compliance Matrix: (Units=1/GPa)
#
#
# Indices 1 2 3 4 5 6 
#
# 1 0.005065 -0.003262 -0.003796 0.000000 0.000470 0.000000
# 2 -0.003262 0.038854 0.013517 0.000001 -0.003220 0.000000
# 3 -0.003796 0.013517 0.026390 0.000000 -0.005276 0.000000
# 4 0.000000 0.000001 0.000000 -0.258588 0.000000 0.041902
# 5 0.000470 -0.003220 -0.005276 0.000000 0.020116 0.000000
# 6 0.000000 0.000000 0.000000 0.041902 0.000000 0.053760
#
#
# Mechanical properties :
#
#
# Convention : Reuss Voigt Hill
#
# Bulk Modulus (GPa) = 12.01543 39.24433 25.62988
# Shear Modulus (GPa) = -50.21211 32.10694 -9.05258
#
# Velocity S-wave (km/s) = -4.53114 3.62329 -1.92393
# Velocity P-wave (km/s) = 4.73941 5.79232 2.35467
#
# Compressibility (1/GPa) = 0.08322629
#
# Stress axis : x y z
#
# Youngs Moduli (GPa) = 197.43968 25.73705 37.89379
#
# Poissons Ratio (x) = 0.08396 0.14384
# Poissons Ratio (y) = 0.64407 -0.51220
# Poissons Ratio (z) = 0.74947 -0.34788
#
# Static dielectric constant tensor:
#      x y z
#    x 1.999050 0.000000 0.060670 
#    y 0.000000 1.884390 0.000000 
#    z 0.060670 0.000000 2.039900 
# 
# From -- ./inp_files/319580.got.cif
#   From: 2010.05.17/outbox.cif.g08.bks.cpg/sg12_160_cif.got.tgz:319580.got - 2010.06.03 13:09:07.
