data_PCOD9181920
_publ_section_title
;
Structure prediction by ZEFSAII (Michael W. Deem and Ramdas Pophale) SiO2 
 PCOD9181920
Probable space group: C 2/M
;
_chemical_formula_sum "Si O2"
_cell_formula_units_Z 60
_cell_length_a 13.415158
_cell_length_b 31.877679
_cell_length_c 7.797241
_cell_angle_alpha 90.000000
_cell_angle_beta 60.292870
_cell_angle_gamma 90.000000
_cell_volume 2896.197630
_symmetry_space_group_name_H-M "C 2/M"
_symmetry_group_IT_number 12
_symmetry_cell_setting 'monoclinic'
loop_
_space_group_symop_operation_xyz
x,y,z
-x,y,-z
-x,-y,-z
x,-y,z
1/2+x,1/2+y,z
1/2-x,1/2+y,-z
1/2-x,1/2-y,-z
1/2+x,1/2-y,z
loop_
_atom_site_type_symbol
_atom_site_label
_atom_site_fract_x
_atom_site_fract_y
_atom_site_fract_z
Si Si1 0.724195 0.289603 0.216960
Si Si2 0.208430 0.046785 0.721017
Si Si3 0.387246 0.629953 0.312467
Si Si4 0.633544 0.711238 0.903336
Si Si5 0.173442 0.545796 0.011084
Si Si6 0.000000 0.829205 0.500000
Si Si7 0.947616 0.423285 0.362800
Si Si8 0.683252 0.873592 0.764053
O O1 0.785168 0.248187 0.235007
O O2 0.610844 0.300314 0.421507
O O3 0.810967 0.328972 0.150159
O O4 0.674683 0.288729 0.065811
O O5 0.118912 0.083998 0.763592
O O6 0.250665 0.048588 0.881671
O O7 0.325628 0.055073 0.510305
O O8 0.165634 0.000000 0.720018
O O9 0.358998 0.666299 0.198796
O O10 0.499255 0.642580 0.328106
O O11 0.288613 0.627923 0.540903
O O12 0.500000 0.723201 0.000000
O O13 0.193007 0.500000 0.912760
O O14 0.041405 0.548404 0.188306
O O15 0.195818 0.586099 0.875274
O O16 0.926244 0.383667 0.259168
O O17 0.000000 0.410601 0.500000
#
# Coordination Sequence:
#
# PCOD9181920 Si02
#       8
#     8   8   8   8   8   4   8   8
#     4  10  23  41  66  94 123 154 209 251 310 374
#     4   9  18  34  57  85 117 162 212 262 309 364
#     4  10  21  38  61  84 119 159 201 246 309 369
#     4  11  22  42  68  94 118 161 201 257 315 373
#     4  10  19  32  54  83 121 164 210 258 315 372
#     4  10  20  40  63  92 122 170 195 248 314 372
#     4   9  18  32  52  80 119 165 208 251 316 375
#     4  10  21  34  53  83 120 160 195 253 300 363
#
# _framework density 20.716819999999998
#
# number of rings (size 3 to 8) (size 9 to 14) (size 15 to 20)
#    0.000    2.133    1.333    1.600    0.000    8.000 
#    0.000    3.000    8.800    1.200    0.000    0.000 
#    0.000    0.000    0.000    0.000    0.000    0.000 
#
# Total GULP energy -167257.400667 kJ/mol
# GULP energy per Si atom -5575.246689 kJ/mol
# Density = 2.066967 g / cm^3
# Si number density = 20.716820 Si / 1000 Ang^3
#
#
#
# Elastic Constant Matrix: (Units=GPa)
#
#
# Indices 1 2 3 4 5 6 
#
# 1 72.5741 65.6546 11.7339 0.0000 6.3943 0.0000
# 2 65.6546 146.0979 17.4238 0.0000 1.4375 0.0000
# 3 11.7339 17.4238 44.5215 0.0000 2.8179 0.0000
# 4 0.0000 0.0000 0.0000 23.2480 0.0000 1.6584
# 5 6.3943 1.4375 2.8179 0.0000 22.9587 0.0000
# 6 0.0000 0.0000 0.0000 1.6584 0.0000 15.9967
#
#
#
# Elastic Compliance Matrix: (Units=1/GPa)
#
#
# Indices 1 2 3 4 5 6 
#
# 1 0.024166 -0.010581 -0.001859 0.000000 -0.005840 0.000000
# 2 -0.010581 0.011813 -0.001990 0.000000 0.002451 0.000000
# 3 -0.001859 -0.001990 0.023874 0.000000 -0.002288 0.000000
# 4 0.000000 0.000000 0.000000 0.043335 0.000000 -0.004493
# 5 -0.005840 0.002451 -0.002288 0.000000 0.045310 0.000000
# 6 0.000000 0.000000 0.000000 -0.004493 0.000000 0.062978
#
#
# Mechanical properties :
#
#
# Convention : Reuss Voigt Hill
#
# Bulk Modulus (GPa) = 32.26299 50.31313 41.28806
# Shear Modulus (GPa) = 19.94681 23.66609 21.80645
#
# Velocity S-wave (km/s) = 3.10632 3.38355 3.24789
# Velocity P-wave (km/s) = 5.33599 6.29312 5.83422
#
# Compressibility (1/GPa) = 0.03099526
#
# Stress axis : x y z
#
# Youngs Moduli (GPa) = 41.38035 84.65412 41.88600
#
# Poissons Ratio (x) = 0.89571 0.07785
# Poissons Ratio (y) = 0.43784 0.08333
# Poissons Ratio (z) = 0.07691 0.16842
#
# Static dielectric constant tensor:
#      x y z
#    x 1.769660 0.000000 0.002510 
#    y 0.000000 1.780800 0.000000 
#    z 0.002510 0.000000 1.797980 
# 
# From -- ./inp_files/67818.got.cif
#   From: 2010.05.17/outbox.cif.g08.bks.cpg/sg12_34_cif.got.tgz:67818.got - 2010.06.03 13:09:07.
