data_PCOD9181166
_publ_section_title
;
Structure prediction by ZEFSAII (Michael W. Deem and Ramdas Pophale) SiO2 
 PCOD9181166
Probable space group: C 2/M
;
_chemical_formula_sum "Si O2"
_cell_formula_units_Z 56
_cell_length_a 19.238585
_cell_length_b 8.988361
_cell_length_c 19.525899
_cell_angle_alpha 90.000000
_cell_angle_beta 121.026420
_cell_angle_gamma 90.000000
_cell_volume 2893.409317
_symmetry_space_group_name_H-M "C 2/M"
_symmetry_group_IT_number 12
_symmetry_cell_setting 'monoclinic'
loop_
_space_group_symop_operation_xyz
x,y,z
-x,y,-z
-x,-y,-z
x,-y,z
1/2+x,1/2+y,z
1/2-x,1/2+y,-z
1/2-x,1/2-y,-z
1/2+x,1/2-y,z
loop_
_atom_site_type_symbol
_atom_site_label
_atom_site_fract_x
_atom_site_fract_y
_atom_site_fract_z
Si Si1 0.488881 0.673249 0.668241
Si Si2 0.743746 0.323171 0.071737
Si Si3 0.167140 0.820985 0.759727
Si Si4 0.579121 0.174199 0.993368
Si Si5 0.513060 0.672244 0.168011
Si Si6 0.318917 0.176678 0.740421
Si Si7 0.320743 0.824189 0.579424
O O1 0.476850 0.500000 0.644216
O O2 0.577632 0.722874 0.688579
O O3 0.494363 0.683084 0.753868
O O4 0.409857 0.763015 0.606070
O O5 0.749265 0.500000 0.069533
O O6 0.809240 0.258344 0.157682
O O7 0.750000 0.250000 0.000000
O O8 0.655785 0.270690 0.054473
O O9 0.238101 0.788938 0.741581
O O10 0.165141 0.000000 0.770254
O O11 0.551318 0.226936 0.904203
O O12 0.601007 0.000000 0.005920
O O13 0.500000 0.196285 0.000000
O O14 0.502180 0.500000 0.142556
O O15 0.602993 0.730925 0.196339
O O16 0.307909 0.205863 0.653984
O O17 0.336715 0.000000 0.758203
O O18 0.250000 0.750000 0.500000
O O19 0.318622 0.000000 0.568524
#
# Coordination Sequence:
#
# PCOD9181166 Si02
#       7
#     8   8   8   8   8   8   8
#     4   9  19  35  56  80 105 136 173 214 263 320
#     4  12  25  39  56  79 110 149 192 237 284 333
#     4  10  20  37  58  80 109 143 182 228 276 328
#     4  11  23  37  53  75 106 144 186 234 285 333
#     4  10  19  32  52  77 104 137 180 227 273 325
#     4   9  19  35  56  81 109 144 182 222 273 329
#     4  10  20  36  59  85 112 142 177 216 261 318
#
# _framework density 19.354329
#
# number of rings (size 3 to 8) (size 9 to 14) (size 15 to 20)
#    0.000    1.857    0.000    4.286    0.000    8.000 
#    0.000    0.714    0.000    4.286    0.000    0.000 
#    0.000    0.000    0.000    0.000    0.000    0.000 
#
# Total GULP energy -156486.058071 kJ/mol
# GULP energy per Si atom -5588.787788 kJ/mol
# Density = 1.931028 g / cm^3
# Si number density = 19.354329 Si / 1000 Ang^3
#
#
#
# Elastic Constant Matrix: (Units=GPa)
#
#
# Indices 1 2 3 4 5 6 
#
# 1 96.2857 31.5509 16.0907 0.0000 21.8118 0.0000
# 2 31.5509 55.3660 35.5729 0.0000 11.4155 0.0000
# 3 16.0907 35.5729 66.8322 0.0000 29.6184 0.0000
# 4 0.0000 0.0000 0.0000 32.4308 0.0000 8.4752
# 5 21.8118 11.4155 29.6184 0.0000 28.8254 0.0000
# 6 0.0000 0.0000 0.0000 8.4752 0.0000 25.9121
#
#
#
# Elastic Compliance Matrix: (Units=1/GPa)
#
#
# Indices 1 2 3 4 5 6 
#
# 1 0.017269 -0.013263 0.011687 0.000000 -0.019823 0.000000
# 2 -0.013263 0.038573 -0.027571 0.000000 0.023089 0.000000
# 3 0.011687 -0.027571 0.047563 0.000000 -0.046796 0.000000
# 4 0.000000 0.000000 0.000000 0.033717 0.000000 -0.011028
# 5 -0.019823 0.023089 -0.046796 0.000000 0.088631 0.000000
# 6 0.000000 0.000000 0.000000 -0.011028 0.000000 0.042199
#
#
# Mechanical properties :
#
#
# Convention : Reuss Voigt Hill
#
# Bulk Modulus (GPa) = 22.16689 42.76810 32.46749
# Shear Modulus (GPa) = 14.65060 26.45162 20.55111
#
# Velocity S-wave (km/s) = 2.75429 3.70091 3.26212
# Velocity P-wave (km/s) = 4.64681 6.35670 5.56779
#
# Compressibility (1/GPa) = 0.04511232
#
# Stress axis : x y z
#
# Youngs Moduli (GPa) = 57.90645 25.92476 21.02475
#
# Poissons Ratio (x) = 0.34383 -0.24571
# Poissons Ratio (y) = 0.76799 0.57967
# Poissons Ratio (z) = -0.67673 0.71476
#
# Static dielectric constant tensor:
#      x y z
#    x 1.717480 0.000000 -0.006840 
#    y 0.000000 1.650150 0.000000 
#    z -0.006840 0.000000 1.658980 
# 
# From -- ./inp_files/275495.got.cif
#   From: 2010.05.17/outbox.cif.g08.bks.cpg/sg12_138_cif.got.tgz:275495.got - 2010.06.03 13:09:07.
