data_PCOD9181605
_publ_section_title
;
Structure prediction by ZEFSAII (Michael W. Deem and Ramdas Pophale) SiO2 
 PCOD9181605
Probable space group: C 2/M
;
_chemical_formula_sum "Si O2"
_cell_formula_units_Z 48
_cell_length_a 17.324134
_cell_length_b 17.174056
_cell_length_c 16.377175
_cell_angle_alpha 90.000000
_cell_angle_beta 145.837501
_cell_angle_gamma 90.000000
_cell_volume 2736.185779
_symmetry_space_group_name_H-M "C 2/M"
_symmetry_group_IT_number 12
_symmetry_cell_setting 'monoclinic'
loop_
_space_group_symop_operation_xyz
x,y,z
-x,y,-z
-x,-y,-z
x,-y,z
1/2+x,1/2+y,z
1/2-x,1/2+y,-z
1/2-x,1/2-y,-z
1/2+x,1/2-y,z
loop_
_atom_site_type_symbol
_atom_site_label
_atom_site_fract_x
_atom_site_fract_y
_atom_site_fract_z
Si Si1 0.660632 0.278903 0.619626
Si Si2 0.961746 0.084299 0.060912
Si Si3 0.814893 0.166839 0.640785
Si Si4 0.038061 0.304353 0.816119
Si Si5 0.238935 0.770208 0.116223
Si Si6 0.292795 0.907531 0.621085
O O1 0.500000 0.286115 0.500000
O O2 0.693309 0.208215 0.585263
O O3 0.739990 0.258212 0.773148
O O4 0.720817 0.356913 0.629908
O O5 0.098942 0.106869 0.229459
O O6 0.909996 0.000000 0.043238
O O7 0.850672 0.151849 0.970301
O O8 0.000000 0.080880 0.000000
O O9 0.769126 0.125553 0.518013
O O10 0.922254 0.237047 0.718944
O O11 0.117409 0.290347 0.801227
O O12 0.953320 0.382981 0.756135
O O13 0.152682 0.291328 0.986509
O O14 0.273806 0.000000 0.612616
#
# Coordination Sequence:
#
# PCOD9181605 Si02
#       6
#     8   8   8   8   8   8
#     4  11  21  36  59  82 107 141 188 228 265 319
#     4  10  19  32  53  81 109 136 171 221 276 321
#     4  10  19  36  57  78 107 148 181 220 268 323
#     4   9  20  36  59  80 107 143 185 220 268 320
#     4  10  19  36  58  83 106 142 183 226 262 321
#     4  11  23  37  54  80 115 147 178 223 273 323
#
# _framework density 17.542667999999999
#
# number of rings (size 3 to 8) (size 9 to 14) (size 15 to 20)
#    0.000    1.833    1.667    4.500    0.000    1.000 
#    0.000    1.667    0.000    3.500    0.000    0.000 
#    0.000    0.000    0.000    0.000    0.000    0.000 
#
# Total GULP energy -133843.683698 kJ/mol
# GULP energy per Si atom -5576.820154 kJ/mol
# Density = 1.750274 g / cm^3
# Si number density = 17.542668 Si / 1000 Ang^3
#
#
#
# Elastic Constant Matrix: (Units=GPa)
#
#
# Indices 1 2 3 4 5 6 
#
# 1 112.5013 47.9331 48.6685 0.0000 1.0905 0.0000
# 2 47.9331 103.7549 46.5567 0.0000 -12.9823 0.0000
# 3 48.6685 46.5567 90.5372 0.0000 -6.1951 0.0001
# 4 0.0000 0.0000 0.0000 37.7119 0.0000 -7.6739
# 5 1.0905 -12.9823 -6.1951 0.0000 32.0144 0.0000
# 6 0.0000 0.0000 0.0001 -7.6739 0.0000 11.8607
#
#
#
# Elastic Compliance Matrix: (Units=1/GPa)
#
#
# Indices 1 2 3 4 5 6 
#
# 1 0.012813 -0.004052 -0.005013 0.000000 -0.003050 0.000000
# 2 -0.004052 0.014306 -0.004836 0.000000 0.005003 0.000000
# 3 -0.005013 -0.004836 0.016320 0.000000 0.001368 0.000000
# 4 0.000000 0.000000 0.000000 0.030537 0.000000 0.019758
# 5 -0.003050 0.005003 0.001368 0.000000 0.033633 0.000000
# 6 0.000000 0.000000 0.000000 0.019758 0.000000 0.097095
#
#
# Mechanical properties :
#
#
# Convention : Reuss Voigt Hill
#
# Bulk Modulus (GPa) = 63.94679 65.90114 64.92396
# Shear Modulus (GPa) = 21.03313 27.22641 24.12977
#
# Velocity S-wave (km/s) = 3.46637 3.94383 3.71278
# Velocity P-wave (km/s) = 7.24929 7.64108 7.44776
#
# Compressibility (1/GPa) = 0.01563800
#
# Stress axis : x y z
#
# Youngs Moduli (GPa) = 78.04406 69.90039 61.27287
#
# Poissons Ratio (x) = 0.28321 0.30716
# Poissons Ratio (y) = 0.31621 0.29633
# Poissons Ratio (z) = 0.39123 0.33805
#
# Static dielectric constant tensor:
#      x y z
#    x 1.602470 0.000000 0.003980 
#    y 0.000000 1.610850 0.000000 
#    z 0.003980 0.000000 1.623870 
# 
# From -- ./inp_files/216483.got.cif
#   From: 2010.05.17/outbox.cif.g08.bks.cpg/sg12_109_cif.got.tgz:216483.got - 2010.06.03 13:09:07.
