data_PCOD9181726
_publ_section_title
;
Structure prediction by ZEFSAII (Michael W. Deem and Ramdas Pophale) SiO2 
 PCOD9181726
Probable space group: C 2/M
;
_chemical_formula_sum "Si O2"
_cell_formula_units_Z 56
_cell_length_a 19.964594
_cell_length_b 9.127151
_cell_length_c 19.396439
_cell_angle_alpha 90.000000
_cell_angle_beta 118.060193
_cell_angle_gamma 90.000000
_cell_volume 3118.959587
_symmetry_space_group_name_H-M "C 2/M"
_symmetry_group_IT_number 12
_symmetry_cell_setting 'monoclinic'
loop_
_space_group_symop_operation_xyz
x,y,z
-x,y,-z
-x,-y,-z
x,-y,z
1/2+x,1/2+y,z
1/2-x,1/2+y,-z
1/2-x,1/2-y,-z
1/2+x,1/2-y,z
loop_
_atom_site_type_symbol
_atom_site_label
_atom_site_fract_x
_atom_site_fract_y
_atom_site_fract_z
Si Si1 0.055272 0.828534 0.312370
Si Si2 0.750508 0.170310 0.178248
Si Si3 0.178473 0.329854 0.997977
Si Si4 0.366652 0.823645 0.764740
Si Si5 0.488498 0.821264 0.073829
Si Si6 0.981745 0.827382 0.413335
Si Si7 0.904426 0.673359 0.258873
O O1 0.121991 0.750765 0.303498
O O2 0.052787 0.813329 0.394555
O O3 0.975380 0.749435 0.254734
O O4 0.052389 0.000000 0.294680
O O5 0.690957 0.176129 0.086619
O O6 0.707558 0.215576 0.227147
O O7 0.823333 0.267326 0.196893
O O8 0.774574 0.000000 0.196218
O O9 0.181301 0.500000 0.978328
O O10 0.250000 0.250000 0.000000
O O11 0.094582 0.271070 0.941333
O O12 0.440227 0.777650 0.845388
O O13 0.367885 0.000000 0.759081
O O14 0.486357 0.000000 0.073197
O O15 0.500000 0.776255 0.000000
O O16 0.918588 0.730138 0.344351
O O17 0.000000 0.785626 0.500000
O O18 0.959817 0.000000 0.401601
O O19 0.909998 0.500000 0.255710
#
# Coordination Sequence:
#
# PCOD9181726 Si02
#       7
#     8   8   8   8   8   8   8
#     4   9  19  34  52  78 107 135 168 210 259 309
#     4  10  20  35  51  71 104 142 175 212 263 318
#     4  10  21  34  50  72  99 130 171 219 266 316
#     4  10  19  32  54  77 101 136 178 219 262 313
#     4   9  16  32  53  72  94 128 174 217 258 308
#     4   8  16  33  56  81 109 139 167 201 254 312
#     4  10  20  33  52  78 105 134 174 215 251 298
#
# _framework density 17.954704
#
# number of rings (size 3 to 8) (size 9 to 14) (size 15 to 20)
#    0.857    1.714    1.429    1.286    2.000    1.429 
#    0.000    0.000    0.000    1.714    0.000    0.000 
#    0.000    0.000    0.000    0.000    0.000    0.000 
#
# Total GULP energy -155904.459743 kJ/mol
# GULP energy per Si atom -5568.016419 kJ/mol
# Density = 1.791384 g / cm^3
# Si number density = 17.954704 Si / 1000 Ang^3
#
#
#
# Elastic Constant Matrix: (Units=GPa)
#
#
# Indices 1 2 3 4 5 6 
#
# 1 72.7151 18.8884 -11.4865 0.0000 -14.1436 0.0000
# 2 18.8884 37.7360 0.1867 0.0000 -5.2744 0.0000
# 3 -11.4865 0.1867 25.8334 0.0000 -11.7939 0.0000
# 4 0.0000 0.0000 0.0000 12.9382 0.0000 5.1541
# 5 -14.1436 -5.2744 -11.7939 0.0000 23.6471 0.0000
# 6 0.0000 0.0000 0.0000 5.1541 0.0000 17.7943
#
#
#
# Elastic Compliance Matrix: (Units=1/GPa)
#
#
# Indices 1 2 3 4 5 6 
#
# 1 0.023794 -0.008834 0.021029 0.000000 0.022749 0.000000
# 2 -0.008834 0.030858 -0.004430 0.000000 -0.000610 0.000000
# 3 0.021029 -0.004430 0.069122 0.000000 0.046064 0.000000
# 4 0.000000 0.000000 0.000000 0.087372 0.000000 -0.025307
# 5 0.022749 -0.000610 0.046064 0.000000 0.078733 0.000000
# 6 0.000000 0.000000 0.000000 -0.025307 0.000000 0.063528
#
#
# Mechanical properties :
#
#
# Convention : Reuss Voigt Hill
#
# Bulk Modulus (GPa) = 7.17850 16.82910 12.00380
# Shear Modulus (GPa) = 13.01028 19.45564 16.23296
#
# Velocity S-wave (km/s) = 2.69479 3.29537 3.01010
# Velocity P-wave (km/s) = 3.69991 4.88597 4.33371
#
# Compressibility (1/GPa) = 0.13930485
#
# Stress axis : x y z
#
# Youngs Moduli (GPa) = 42.02757 32.40607 14.46722
#
# Poissons Ratio (x) = 0.28628 -0.30424
# Poissons Ratio (y) = 0.37128 0.06409
# Poissons Ratio (z) = -0.88381 0.14355
#
# Static dielectric constant tensor:
#      x y z
#    x 1.627040 0.000000 -0.021950 
#    y 0.000000 1.599590 0.000000 
#    z -0.021950 0.000000 1.644080 
# 
# From -- ./inp_files/319336.got.cif
#   From: 2010.05.17/outbox.cif.g08.bks.cpg/sg12_160_cif.got.tgz:319336.got - 2010.06.03 13:09:07.
