data_PCOD9181127
_publ_section_title
;
Structure prediction by ZEFSAII (Michael W. Deem and Ramdas Pophale) SiO2 
 PCOD9181127
Probable space group: C 2/M
;
_chemical_formula_sum "Si O2"
_cell_formula_units_Z 64
_cell_length_a 20.778617
_cell_length_b 7.344527
_cell_length_c 20.271097
_cell_angle_alpha 90.000000
_cell_angle_beta 110.116105
_cell_angle_gamma 90.000000
_cell_volume 2904.839971
_symmetry_space_group_name_H-M "C 2/M"
_symmetry_group_IT_number 12
_symmetry_cell_setting 'monoclinic'
loop_
_space_group_symop_operation_xyz
x,y,z
-x,y,-z
-x,-y,-z
x,-y,z
1/2+x,1/2+y,z
1/2-x,1/2+y,-z
1/2-x,1/2-y,-z
1/2+x,1/2-y,z
loop_
_atom_site_type_symbol
_atom_site_label
_atom_site_fract_x
_atom_site_fract_y
_atom_site_fract_z
Si Si1 0.191400 0.282908 0.532529
Si Si2 0.936846 0.721694 0.298897
Si Si3 0.448603 0.220634 0.151564
Si Si4 0.708135 0.777952 0.687769
Si Si5 0.799288 0.222898 0.837240
Si Si6 0.550592 0.708694 0.073199
Si Si7 0.460063 0.221891 0.552232
Si Si8 0.797187 0.716218 0.079207
O O1 0.183884 0.500000 0.536812
O O2 0.250000 0.250000 0.500000
O O3 0.208531 0.215315 0.612214
O O4 0.117966 0.214962 0.480997
O O5 0.935624 0.500000 0.298238
O O6 0.949816 0.777291 0.228366
O O7 0.863007 0.777180 0.301920
O O8 0.996803 0.781246 0.369268
O O9 0.509142 0.289119 0.126894
O O10 0.374555 0.282675 0.098225
O O11 0.452217 0.000000 0.150528
O O12 0.772134 0.721619 0.755705
O O13 0.708150 0.000000 0.687393
O O14 0.742223 0.282701 0.869926
O O15 0.874018 0.287056 0.886892
O O16 0.801221 0.000000 0.837849
O O17 0.562670 0.500000 0.055848
O O18 0.500000 0.791338 0.000000
O O19 0.500000 0.274308 0.500000
O O20 0.459845 0.000000 0.553941
O O21 0.803594 0.500000 0.090628
O O22 0.750000 0.750000 0.000000
#
# Coordination Sequence:
#
# PCOD9181127 Si02
#       8
#     8   8   8   8   8   8   8   8
#     4  10  20  32  50  77 106 134 166 206 249 294
#     4   9  15  27  49  77 103 125 162 214 255 286
#     4  10  20  33  52  78 103 127 161 210 258 294
#     4   9  15  28  51  75  98 128 169 211 244 288
#     4   9  17  31  51  72  95 130 173 206 240 293
#     4  10  21  36  52  71 100 137 170 203 246 300
#     4   9  15  26  48  76 100 128 170 212 244 283
#     4  10  19  32  52  76  99 125 163 209 250 291
#
# _framework density 22.032194
#
# number of rings (size 3 to 8) (size 9 to 14) (size 15 to 20)
#    0.000    2.500    2.500    0.750    0.000    2.750 
#    0.000    0.625    0.000    1.875    0.000    0.000 
#    0.000    0.000    0.000    0.000    0.000    0.000 
#
# Total GULP energy -178772.805391 kJ/mol
# GULP energy per Si atom -5586.650168 kJ/mol
# Density = 2.198205 g / cm^3
# Si number density = 22.032194 Si / 1000 Ang^3
#
#
#
# Elastic Constant Matrix: (Units=GPa)
#
#
# Indices 1 2 3 4 5 6 
#
# 1 102.2925 -2.2114 15.5439 0.0000 12.4796 0.0000
# 2 -2.2114 82.5634 -2.8583 0.0000 5.7261 0.0000
# 3 15.5439 -2.8583 111.9121 0.0000 14.8143 0.0000
# 4 0.0000 0.0000 0.0000 1.9531 0.0000 -11.4380
# 5 12.4796 5.7261 14.8143 0.0000 44.3741 0.0000
# 6 0.0000 0.0000 0.0000 -11.4380 0.0000 4.6756
#
#
#
# Elastic Compliance Matrix: (Units=1/GPa)
#
#
# Indices 1 2 3 4 5 6 
#
# 1 0.010263 0.000417 -0.001073 0.000000 -0.002582 0.000000
# 2 0.000417 0.012270 0.000503 0.000000 -0.001868 0.000000
# 3 -0.001073 0.000503 0.009485 0.000000 -0.002930 0.000000
# 4 0.000000 0.000000 0.000000 -0.038420 0.000000 -0.093988
# 5 -0.002582 -0.001868 -0.002930 0.000000 0.024481 0.000000
# 6 0.000000 0.000000 0.000000 -0.093988 0.000000 -0.016049
#
#
# Mechanical properties :
#
#
# Convention : Reuss Voigt Hill
#
# Bulk Modulus (GPa) = 31.53437 35.30183 33.41810
# Shear Modulus (GPa) = 387.35940 29.28680 208.32310
#
# Velocity S-wave (km/s) = 13.27392 3.64988 9.73443
# Velocity P-wave (km/s) = 15.78838 5.81547 11.89733
#
# Compressibility (1/GPa) = 0.03171143
#
# Stress axis : x y z
#
# Youngs Moduli (GPa) = 97.43802 81.49925 105.42638
#
# Poissons Ratio (x) = -0.03397 0.11313
# Poissons Ratio (y) = -0.04061 -0.05301
# Poissons Ratio (z) = 0.10456 -0.04098
#
# Static dielectric constant tensor:
#      x y z
#    x 1.755580 0.000000 0.007290 
#    y 0.000000 1.884300 0.000000 
#    z 0.007290 0.000000 1.777810 
# 
# From -- ./inp_files/276563.got.cif
#   From: 2010.05.17/outbox.cif.g08.bks.cpg/sg12_139_cif.got.tgz:276563.got - 2010.06.03 13:09:07.
