data_PCOD9181026
_publ_section_title
;
Structure prediction by ZEFSAII (Michael W. Deem and Ramdas Pophale) SiO2 
 PCOD9181026
Probable space group: C 2/M
;
_chemical_formula_sum "Si O2"
_cell_formula_units_Z 56
_cell_length_a 13.390734
_cell_length_b 12.554600
_cell_length_c 21.437420
_cell_angle_alpha 90.000000
_cell_angle_beta 62.665132
_cell_angle_gamma 90.000000
_cell_volume 3201.533102
_symmetry_space_group_name_H-M "C 2/M"
_symmetry_group_IT_number 12
_symmetry_cell_setting 'monoclinic'
loop_
_space_group_symop_operation_xyz
x,y,z
-x,y,-z
-x,-y,-z
x,-y,z
1/2+x,1/2+y,z
1/2-x,1/2+y,-z
1/2-x,1/2-y,-z
1/2+x,1/2-y,z
loop_
_atom_site_type_symbol
_atom_site_label
_atom_site_fract_x
_atom_site_fract_y
_atom_site_fract_z
Si Si1 0.937708 0.240645 0.956655
Si Si2 0.957358 0.127549 0.580116
Si Si3 0.933387 0.126064 0.323255
Si Si4 0.361154 0.759503 0.790617
Si Si5 0.258857 0.375406 0.928251
Si Si6 0.463710 0.122985 0.179130
Si Si7 0.258019 0.760726 0.299721
O O1 0.865248 0.151465 0.942084
O O2 0.019504 0.298037 0.884056
O O3 0.850228 0.331054 0.005022
O O4 0.000000 0.199683 0.000000
O O5 0.842351 0.183067 0.634245
O O6 0.000000 0.161496 0.500000
O O7 0.047909 0.149327 0.608831
O O8 0.939537 0.000000 0.583983
O O9 0.824777 0.179404 0.324196
O O10 0.041856 0.176428 0.258046
O O11 0.932384 0.000000 0.314797
O O12 0.280718 0.696698 0.861157
O O13 0.428484 0.851599 0.807641
O O14 0.295599 0.791568 0.747038
O O15 0.250552 0.500000 0.916565
O O16 0.350811 0.155095 0.248252
O O17 0.461233 0.000000 0.161217
#
# Coordination Sequence:
#
# PCOD9181026 Si02
#       7
#     8   8   8   8   8   8   8
#     4  10  21  34  48  71  98 123 159 203 243 285
#     4   9  18  33  52  74 100 128 158 194 235 279
#     4   9  18  32  50  73  99 127 161 197 233 278
#     4   9  19  33  48  70  97 125 161 200 236 281
#     4  10  20  34  51  69  94 129 163 197 240 288
#     4  10  20  33  49  71  97 124 158 199 242 287
#     4  10  19  32  52  74  96 126 161 196 236 282
#
# _framework density 17.491620000000001
#
# number of rings (size 3 to 8) (size 9 to 14) (size 15 to 20)
#    0.000    2.429    0.000    2.143    0.000    5.429 
#    0.000    0.000    0.000   10.714    0.000    0.000 
#    0.000    0.000    0.000    0.000    0.000    0.000 
#
# Total GULP energy -156208.056136 kJ/mol
# GULP energy per Si atom -5578.859148 kJ/mol
# Density = 1.745181 g / cm^3
# Si number density = 17.491620 Si / 1000 Ang^3
#
#
#
# Elastic Constant Matrix: (Units=GPa)
#
#
# Indices 1 2 3 4 5 6 
#
# 1 100.0641 12.7382 35.7256 0.0000 13.1463 0.0000
# 2 12.7382 19.0709 7.0503 0.0000 2.4770 0.0000
# 3 35.7256 7.0503 101.4024 0.0000 3.0172 0.0000
# 4 0.0000 0.0000 0.0000 14.6121 0.0000 2.4048
# 5 13.1463 2.4770 3.0172 0.0000 24.8796 0.0000
# 6 0.0000 0.0000 0.0000 2.4048 0.0000 11.2792
#
#
#
# Elastic Compliance Matrix: (Units=1/GPa)
#
#
# Indices 1 2 3 4 5 6 
#
# 1 0.012982 -0.006464 -0.003953 0.000000 -0.005736 0.000000
# 2 -0.006464 0.057646 -0.001667 0.000000 -0.002121 0.000000
# 3 -0.003953 -0.001667 0.011344 0.000000 0.000879 0.000000
# 4 0.000000 0.000000 0.000000 0.070925 0.000000 -0.015122
# 5 -0.005736 -0.002121 0.000879 0.000000 0.043329 0.000000
# 6 0.000000 0.000000 0.000000 -0.015122 0.000000 0.091882
#
#
# Mechanical properties :
#
#
# Convention : Reuss Voigt Hill
#
# Bulk Modulus (GPa) = 17.30069 36.84062 27.07065
# Shear Modulus (GPa) = 15.08088 21.15576 18.11832
#
# Velocity S-wave (km/s) = 2.93947 3.48153 3.22192
# Velocity P-wave (km/s) = 4.62958 6.10483 5.41765
#
# Compressibility (1/GPa) = 0.05780117
#
# Stress axis : x y z
#
# Youngs Moduli (GPa) = 77.03184 17.34740 88.14965
#
# Poissons Ratio (x) = 0.11214 0.34850
# Poissons Ratio (y) = 0.49796 0.14698
# Poissons Ratio (z) = 0.30455 0.02892
#
# Static dielectric constant tensor:
#      x y z
#    x 1.618890 0.000000 0.023800 
#    y 0.000000 1.545840 0.000000 
#    z 0.023800 0.000000 1.593280 
# 
# From -- ./inp_files/304180.got.cif
#   From: 2010.05.17/outbox.cif.g08.bks.cpg/sg12_153_cif.got.tgz:304180.got - 2010.06.03 13:09:07.
