data_PCOD9181783
_publ_section_title
;
Structure prediction by ZEFSAII (Michael W. Deem and Ramdas Pophale) SiO2 
 PCOD9181783
Probable space group: C 2/M
;
_chemical_formula_sum "Si O2"
_cell_formula_units_Z 56
_cell_length_a 18.236116
_cell_length_b 7.830145
_cell_length_c 19.284331
_cell_angle_alpha 90.000000
_cell_angle_beta 75.734865
_cell_angle_gamma 90.000000
_cell_volume 2668.731193
_symmetry_space_group_name_H-M "C 2/M"
_symmetry_group_IT_number 12
_symmetry_cell_setting 'monoclinic'
loop_
_space_group_symop_operation_xyz
x,y,z
-x,y,-z
-x,-y,-z
x,-y,z
1/2+x,1/2+y,z
1/2-x,1/2+y,-z
1/2-x,1/2-y,-z
1/2+x,1/2-y,z
loop_
_atom_site_type_symbol
_atom_site_label
_atom_site_fract_x
_atom_site_fract_y
_atom_site_fract_z
Si Si1 0.878010 0.709476 0.643141
Si Si2 0.313077 0.205032 0.928833
Si Si3 0.234246 0.701285 0.211498
Si Si4 0.952945 0.709161 0.354136
Si Si5 0.664320 0.794479 0.501111
Si Si6 0.017471 0.799493 0.072916
Si Si7 0.599982 0.800962 0.784070
O O1 0.876629 0.500000 0.642260
O O2 0.816873 0.770021 0.713813
O O3 0.857643 0.767719 0.570459
O O4 0.962096 0.761233 0.646260
O O5 0.287872 0.270626 0.858879
O O6 0.394564 0.276455 0.930731
O O7 0.319640 0.000000 0.925001
O O8 0.250000 0.250000 0.000000
O O9 0.217373 0.500000 0.212311
O O10 0.322495 0.720529 0.207100
O O11 0.953124 0.500000 0.353257
O O12 0.893622 0.766425 0.426343
O O13 0.927703 0.767995 0.283758
O O14 0.750000 0.750000 0.500000
O O15 0.658096 0.000000 0.501335
O O16 0.965757 0.717204 0.143973
O O17 0.998153 0.000000 0.077441
O O18 0.000000 0.731063 0.000000
O O19 0.616902 0.000000 0.770200
#
# Coordination Sequence:
#
# PCOD9181783 Si02
#       7
#     8   8   8   8   8   8   8
#     4   9  17  32  55  79 104 141 186 225 267 322
#     4  11  23  39  60  85 114 148 185 228 276 326
#     4  10  21  37  56  80 112 146 182 227 275 325
#     4   9  18  33  53  80 110 140 181 229 271 318
#     4  10  19  32  54  80 107 141 180 223 270 323
#     4  11  24  41  60  83 112 145 183 229 278 327
#     4  11  22  36  57  83 112 146 183 226 275 328
#
# _framework density 20.983753
#
# number of rings (size 3 to 8) (size 9 to 14) (size 15 to 20)
#    0.000    1.857    0.000    4.286    0.000    9.714 
#    0.000    0.714    0.000    4.286    0.000    0.000 
#    0.000    0.000    0.000    0.000    0.000    0.000 
#
# Total GULP energy -156527.492259 kJ/mol
# GULP energy per Si atom -5590.267581 kJ/mol
# Density = 2.093599 g / cm^3
# Si number density = 20.983753 Si / 1000 Ang^3
#
#
#
# Elastic Constant Matrix: (Units=GPa)
#
#
# Indices 1 2 3 4 5 6 
#
# 1 174.0796 -20.9376 107.3486 0.0000 11.5263 0.0000
# 2 -20.9376 23.9979 -4.9989 0.0000 5.6687 0.0000
# 3 107.3486 -4.9989 214.6254 0.0000 13.9069 0.0000
# 4 0.0000 0.0000 0.0000 9.3690 0.0000 -0.0688
# 5 11.5263 5.6687 13.9069 0.0000 48.3792 0.0000
# 6 0.0000 0.0000 0.0000 -0.0688 0.0000 28.0740
#
#
#
# Elastic Compliance Matrix: (Units=1/GPa)
#
#
# Indices 1 2 3 4 5 6 
#
# 1 0.009587 0.007882 -0.004487 0.000000 -0.001918 0.000000
# 2 0.007882 0.049724 -0.002329 0.000000 -0.007035 0.000000
# 3 -0.004487 -0.002329 0.006891 0.000000 -0.000639 0.000000
# 4 0.000000 0.000000 0.000000 0.106737 0.000000 0.000262
# 5 -0.001918 -0.007035 -0.000639 0.000000 0.022135 0.000000
# 6 0.000000 0.000000 0.000000 0.000262 0.000000 0.035621
#
#
# Mechanical properties :
#
#
# Convention : Reuss Voigt Hill
#
# Bulk Modulus (GPa) = 14.63375 63.94744 39.29060
# Shear Modulus (GPa) = 19.89350 39.25051 29.57201
#
# Velocity S-wave (km/s) = 3.08237 4.32964 3.75811
# Velocity P-wave (km/s) = 4.43362 7.45220 6.13157
#
# Compressibility (1/GPa) = 0.06833516
#
# Stress axis : x y z
#
# Youngs Moduli (GPa) = 104.31321 20.11090 145.12309
#
# Poissons Ratio (x) = -0.15852 0.65117
# Poissons Ratio (y) = -0.82223 0.33792
# Poissons Ratio (z) = 0.46805 0.04683
#
# Static dielectric constant tensor:
#      x y z
#    x 1.655060 0.000000 0.047750 
#    y 0.000000 1.789420 0.000000 
#    z 0.047750 0.000000 1.712320 
# 
# From -- ./inp_files/275239.got.cif
#   From: 2010.05.17/outbox.cif.g08.bks.cpg/sg12_138_cif.got.tgz:275239.got - 2010.06.03 13:09:07.
