data_PCOD9181113
_publ_section_title
;
Structure prediction by ZEFSAII (Michael W. Deem and Ramdas Pophale) SiO2 
 PCOD9181113
Probable space group: C 2/M
;
_chemical_formula_sum "Si O2"
_cell_formula_units_Z 50
_cell_length_a 24.741604
_cell_length_b 16.436479
_cell_length_c 9.262400
_cell_angle_alpha 90.000000
_cell_angle_beta 147.459866
_cell_angle_gamma 90.000000
_cell_volume 2026.067187
_symmetry_space_group_name_H-M "C 2/M"
_symmetry_group_IT_number 12
_symmetry_cell_setting 'monoclinic'
loop_
_space_group_symop_operation_xyz
x,y,z
-x,y,-z
-x,-y,-z
x,-y,z
1/2+x,1/2+y,z
1/2-x,1/2+y,-z
1/2-x,1/2-y,-z
1/2+x,1/2-y,z
loop_
_atom_site_type_symbol
_atom_site_label
_atom_site_fract_x
_atom_site_fract_y
_atom_site_fract_z
Si Si1 0.606721 0.274079 0.419350
Si Si2 0.794041 0.088278 0.522938
Si Si3 0.391964 0.091185 0.674164
Si Si4 0.000000 0.000000 0.500000
Si Si5 0.931647 0.241484 0.204397
Si Si6 0.821478 0.135906 0.135408
Si Si7 0.150183 0.414314 0.927043
O O1 0.642668 0.330197 0.367501
O O2 0.612674 0.177481 0.416213
O O3 0.490149 0.289058 0.197562
O O4 0.662061 0.304768 0.689759
O O5 0.704777 0.095507 0.437369
O O6 0.736306 0.079392 0.241412
O O7 0.847290 0.000000 0.669765
O O8 0.387227 0.000000 0.595170
O O9 0.500000 0.092649 0.000000
O O10 0.088511 0.929965 0.669014
O O11 0.833998 0.188529 0.018585
O O12 0.000000 0.228832 0.500000
O O13 0.911948 0.336914 0.163565
O O14 0.711868 0.099397 0.918376
O O15 0.094749 0.500000 0.802081
#
# Coordination Sequence:
#
# PCOD9181113 Si02
#       7
#     8   8   8   2   8   8   8
#     4  10  19  32  53  77 105 138 174 223 268 312
#     4   9  19  33  54  81 100 130 182 227 267 318
#     4  10  20  35  54  78 106 139 179 221 267 325
#     4  12  16  36  60  80 106 132 186 232 264 310
#     4  10  20  33  47  75 109 139 174 217 263 320
#     4  10  20  33  55  80 106 133 181 225 268 316
#     4  10  19  32  52  76 105 141 174 219 266 316
#
# _framework density 24.678350999999999
#
# number of rings (size 3 to 8) (size 9 to 14) (size 15 to 20)
#    0.000    2.080    3.200    1.920    1.120    2.240 
#    0.000    2.400    0.000    0.480    0.000    0.000 
#    0.000    0.000    0.000    0.000    0.000    0.000 
#
# Total GULP energy -139201.838941 kJ/mol
# GULP energy per Si atom -5568.073558 kJ/mol
# Density = 2.462218 g / cm^3
# Si number density = 24.678351 Si / 1000 Ang^3
#
#
#
# Elastic Constant Matrix: (Units=GPa)
#
#
# Indices 1 2 3 4 5 6 
#
# 1 87.6252 41.3041 15.9676 0.0000 27.9202 0.0000
# 2 41.3041 206.9202 29.2836 0.0000 4.2528 0.0000
# 3 15.9676 29.2836 53.4999 0.0000 1.7564 0.0000
# 4 0.0000 0.0000 0.0000 35.5866 0.0000 39.7200
# 5 27.9202 4.2528 1.7564 0.0000 23.9367 0.0000
# 6 0.0000 0.0000 0.0000 39.7200 0.0000 73.7314
#
#
#
# Elastic Compliance Matrix: (Units=1/GPa)
#
#
# Indices 1 2 3 4 5 6 
#
# 1 0.021242 -0.003211 -0.003797 0.000000 -0.023928 0.000000
# 2 -0.003211 0.005736 -0.002277 0.000000 0.002893 0.000000
# 3 -0.003797 -0.002277 0.020963 0.000000 0.003295 0.000000
# 4 0.000000 0.000000 0.000000 0.070478 0.000000 -0.037967
# 5 -0.023928 0.002893 0.003295 0.000000 0.068931 0.000000
# 6 0.000000 0.000000 0.000000 -0.037967 0.000000 0.034016
#
#
# Mechanical properties :
#
#
# Convention : Reuss Voigt Hill
#
# Bulk Modulus (GPa) = 34.04553 57.90622 45.97587
# Shear Modulus (GPa) = 20.02204 44.08360 32.05282
#
# Velocity S-wave (km/s) = 2.85146 4.23108 3.60783
# Velocity P-wave (km/s) = 4.96656 6.88366 6.00214
#
# Compressibility (1/GPa) = 0.02937243
#
# Stress axis : x y z
#
# Youngs Moduli (GPa) = 47.07688 174.32350 47.70383
#
# Poissons Ratio (x) = 0.55976 0.18112
# Poissons Ratio (y) = 0.15117 0.10860
# Poissons Ratio (z) = 0.17874 0.39685
#
# Static dielectric constant tensor:
#      x y z
#    x 2.074280 0.000000 0.055420 
#    y 0.000000 2.050360 0.000000 
#    z 0.055420 0.000000 2.043810 
# 
# From -- ./inp_files/183295.got.cif
#   From: 2010.05.17/outbox.cif.g08.bks.cpg/sg12_92_cif.got.tgz:183295.got - 2010.06.03 13:09:07.
