data_PCOD9181269
_publ_section_title
;
Structure prediction by ZEFSAII (Michael W. Deem and Ramdas Pophale) SiO2 
 PCOD9181269
Probable space group: C 2/M
;
_chemical_formula_sum "Si O2"
_cell_formula_units_Z 40
_cell_length_a 25.872352
_cell_length_b 8.879454
_cell_length_c 29.984084
_cell_angle_alpha 90.000000
_cell_angle_beta 160.380494
_cell_angle_gamma 90.000000
_cell_volume 2312.904937
_symmetry_space_group_name_H-M "C 2/M"
_symmetry_group_IT_number 12
_symmetry_cell_setting 'monoclinic'
loop_
_space_group_symop_operation_xyz
x,y,z
-x,y,-z
-x,-y,-z
x,-y,z
1/2+x,1/2+y,z
1/2-x,1/2+y,-z
1/2-x,1/2-y,-z
1/2+x,1/2-y,z
loop_
_atom_site_type_symbol
_atom_site_label
_atom_site_fract_x
_atom_site_fract_y
_atom_site_fract_z
Si Si1 0.081628 0.320553 0.360921
Si Si2 0.513307 0.681380 0.902872
Si Si3 0.580235 0.820676 0.865496
Si Si4 0.667594 0.673245 0.160320
Si Si5 0.308832 0.678862 0.193251
O O1 0.087217 0.500000 0.372490
O O2 0.250000 0.250000 0.500000
O O3 0.008762 0.292946 0.252846
O O4 0.967080 0.245761 0.303440
O O5 0.526669 0.500000 0.913343
O O6 0.498141 0.746113 0.841230
O O7 0.373838 0.721118 0.823131
O O8 0.670370 0.748411 0.051540
O O9 0.593372 0.000000 0.882775
O O10 0.750000 0.750000 0.000000
O O11 0.722008 0.500000 0.204226
O O12 0.775416 0.774010 0.217156
O O13 0.500000 0.673947 0.000000
O O14 0.304768 0.500000 0.184924
#
# Coordination Sequence:
#
# PCOD9181269 Si02
#       5
#     8   8   8   8   8
#     4  11  24  40  57  79 110 147 186 226 273 329
#     4  10  19  32  52  79 111 144 180 224 273 322
#     4  11  22  35  56  82 111 145 181 225 276 327
#     4   8  16  30  48  73 107 143 177 220 272 322
#     4  11  20  31  52  79 109 144 182 225 272 323
#
# _framework density 17.294267999999999
#
# number of rings (size 3 to 8) (size 9 to 14) (size 15 to 20)
#    0.000    1.800    2.000    4.800    0.000    6.800 
#    0.000    0.000    0.000    1.200    0.000    8.400 
#    0.000    0.000    0.000    0.000    0.000    0.000 
#
# Total GULP energy -111638.490119 kJ/mol
# GULP energy per Si atom -5581.924506 kJ/mol
# Density = 1.725491 g / cm^3
# Si number density = 17.294268 Si / 1000 Ang^3
#
#
#
# Elastic Constant Matrix: (Units=GPa)
#
#
# Indices 1 2 3 4 5 6 
#
# 1 156.3963 82.2218 51.8386 0.0001 28.1004 -0.0001
# 2 82.2218 110.4426 62.8850 -0.0011 12.8103 -0.0001
# 3 51.8386 62.8850 80.5932 0.0081 17.0153 -0.0003
# 4 0.0001 -0.0011 0.0081 23.6797 -0.0006 3.7271
# 5 28.1004 12.8103 17.0153 -0.0006 21.3946 0.0000
# 6 -0.0001 -0.0001 -0.0003 3.7271 0.0000 34.1069
#
#
#
# Elastic Compliance Matrix: (Units=1/GPa)
#
#
# Indices 1 2 3 4 5 6 
#
# 1 0.012909 -0.008882 0.001303 -0.000001 -0.012673 0.000000
# 2 -0.008882 0.022408 -0.013703 0.000006 0.009147 -0.000001
# 3 0.001303 -0.013703 0.025106 -0.000010 -0.013474 0.000001
# 4 -0.000001 0.000006 -0.000010 0.042969 0.000007 -0.004696
# 5 -0.012673 0.009147 -0.013474 0.000007 0.068625 -0.000001
# 6 0.000000 -0.000001 0.000001 -0.004696 -0.000001 0.029833
#
#
# Mechanical properties :
#
#
# Convention : Reuss Voigt Hill
#
# Bulk Modulus (GPa) = 55.99128 82.36920 69.18024
# Shear Modulus (GPa) = 19.97062 25.86869 22.91966
#
# Velocity S-wave (km/s) = 3.40185 3.87175 3.64438
# Velocity P-wave (km/s) = 6.91925 8.22914 7.60246
#
# Compressibility (1/GPa) = 0.01785992
#
# Stress axis : x y z
#
# Youngs Moduli (GPa) = 77.46687 44.62621 39.83038
#
# Poissons Ratio (x) = 0.39638 -0.05191
# Poissons Ratio (y) = 0.68809 0.54578
# Poissons Ratio (z) = -0.10095 0.61150
#
# Static dielectric constant tensor:
#      x y z
#    x 1.620250 0.000000 0.003810 
#    y 0.000000 1.575360 0.000000 
#    z 0.003810 0.000000 1.552060 
# 
# From -- ./inp_files/101095.got.cif
#   From: 2010.05.17/outbox.cif.g08.bks.cpg/sg12_51_cif.got.tgz:101095.got - 2010.06.03 13:09:07.
