data_PCOD9181565
_publ_section_title
;
Structure prediction by ZEFSAII (Michael W. Deem and Ramdas Pophale) SiO2 
 PCOD9181565
Probable space group: C 2/M
;
_chemical_formula_sum "Si O2"
_cell_formula_units_Z 64
_cell_length_a 14.908812
_cell_length_b 8.050896
_cell_length_c 27.899052
_cell_angle_alpha 90.000000
_cell_angle_beta 70.158239
_cell_angle_gamma 90.000000
_cell_volume 3149.903147
_symmetry_space_group_name_H-M "C 2/M"
_symmetry_group_IT_number 12
_symmetry_cell_setting 'monoclinic'
loop_
_space_group_symop_operation_xyz
x,y,z
-x,y,-z
-x,-y,-z
x,-y,z
1/2+x,1/2+y,z
1/2-x,1/2+y,-z
1/2-x,1/2-y,-z
1/2+x,1/2-y,z
loop_
_atom_site_type_symbol
_atom_site_label
_atom_site_fract_x
_atom_site_fract_y
_atom_site_fract_z
Si Si1 0.654729 0.201676 0.910635
Si Si2 0.532194 0.299284 0.441983
Si Si3 0.365280 0.300098 0.719253
Si Si4 0.140481 0.193166 0.017210
Si Si5 0.768495 0.796877 0.640085
Si Si6 0.935852 0.301429 0.362533
Si Si7 0.009243 0.308577 0.125450
Si Si8 0.844417 0.195214 0.829544
O O1 0.591819 0.249220 0.876255
O O2 0.761601 0.260001 0.879693
O O3 0.651284 0.000000 0.917012
O O4 0.614211 0.277855 0.966645
O O5 0.500000 0.239417 0.500000
O O6 0.533270 0.500000 0.442460
O O7 0.639448 0.245452 0.408102
O O8 0.460426 0.247263 0.412701
O O9 0.356996 0.500000 0.722148
O O10 0.294980 0.242585 0.689451
O O11 0.473629 0.261228 0.684320
O O12 0.344358 0.233400 0.776137
O O13 0.077541 0.291669 0.066639
O O14 0.133269 0.000000 0.031413
O O15 0.250000 0.250000 0.000000
O O16 0.666550 0.740032 0.638316
O O17 0.766938 0.000000 0.640233
O O18 0.934847 0.500000 0.359643
O O19 0.001204 0.500000 0.140744
O O20 0.056382 0.216362 0.161164
O O21 0.823758 0.000000 0.828790
#
# Coordination Sequence:
#
# PCOD9181565 Si02
#       8
#     8   8   8   8   8   8   8   8
#     4  10  22  39  58  82 111 143 179 217 267 330
#     4   9  18  34  54  76 107 147 184 217 260 319
#     4   9  19  37  57  76 103 142 184 221 266 322
#     4  12  23  37  59  83 110 144 180 219 267 320
#     4   8  16  32  53  76 105 141 180 217 264 324
#     4  10  19  32  53  80 108 139 178 225 273 315
#     4  11  23  38  58  84 112 142 177 219 268 325
#     4  10  21  38  59  80 106 142 180 223 271 320
#
# _framework density 20.318083999999999
#
# number of rings (size 3 to 8) (size 9 to 14) (size 15 to 20)
#    0.000    2.125    1.250    3.000    0.000    4.750 
#    0.000    7.500    0.000    0.000    0.000    0.000 
#    0.000    0.000    0.000    0.000    0.000    0.000 
#
# Total GULP energy -178609.801332 kJ/mol
# GULP energy per Si atom -5581.556292 kJ/mol
# Density = 2.027184 g / cm^3
# Si number density = 20.318084 Si / 1000 Ang^3
#
#
#
# Elastic Constant Matrix: (Units=GPa)
#
#
# Indices 1 2 3 4 5 6 
#
# 1 122.4762 0.6787 27.2874 0.0000 16.0389 0.0000
# 2 0.6787 13.9757 -4.1789 0.0000 0.9163 0.0000
# 3 27.2874 -4.1789 98.3502 0.0000 23.4089 0.0000
# 4 0.0000 0.0000 0.0000 17.3883 0.0000 5.4212
# 5 16.0389 0.9163 23.4089 0.0000 13.3216 0.0000
# 6 0.0000 0.0000 0.0000 5.4212 0.0000 24.7651
#
#
#
# Elastic Compliance Matrix: (Units=1/GPa)
#
#
# Indices 1 2 3 4 5 6 
#
# 1 0.009696 0.000375 0.000190 0.000000 -0.012033 0.000000
# 2 0.000375 0.075050 0.007599 0.000000 -0.018967 0.000000
# 3 0.000190 0.007599 0.018250 0.000000 -0.032820 0.000000
# 4 0.000000 0.000000 0.000000 0.061723 0.000000 -0.013511
# 5 -0.012033 -0.018967 -0.032820 0.000000 0.148530 0.000000
# 6 0.000000 0.000000 0.000000 -0.013511 0.000000 0.043337
#
#
# Mechanical properties :
#
#
# Convention : Reuss Voigt Hill
#
# Bulk Modulus (GPa) = 8.38054 31.37519 19.87787
# Shear Modulus (GPa) = 13.15678 25.16265 19.15971
#
# Velocity S-wave (km/s) = 2.54744 3.52296 3.07414
# Velocity P-wave (km/s) = 3.57579 5.65896 4.73340
#
# Compressibility (1/GPa) = 0.11932400
#
# Stress axis : x y z
#
# Youngs Moduli (GPa) = 103.13180 13.32440 54.79593
#
# Poissons Ratio (x) = -0.00499 -0.01040
# Poissons Ratio (y) = -0.03865 -0.41641
# Poissons Ratio (z) = -0.01958 -0.10126
#
# Static dielectric constant tensor:
#      x y z
#    x 1.747220 0.000000 0.029900 
#    y 0.000000 1.729930 0.000000 
#    z 0.029900 0.000000 1.738770 
# 
# From -- ./inp_files/359752.got.cif
#   From: 2010.05.17/outbox.cif.g08.bks.cpg/sg12_180_cif.got.tgz:359752.got - 2010.06.03 13:09:07.
