data_PCOD9181899
_publ_section_title
;
Structure prediction by ZEFSAII (Michael W. Deem and Ramdas Pophale) SiO2 
 PCOD9181899
Probable space group: C 2/M
;
_chemical_formula_sum "Si O2"
_cell_formula_units_Z 32
_cell_length_a 21.130246
_cell_length_b 8.785473
_cell_length_c 25.886715
_cell_angle_alpha 90.000000
_cell_angle_beta 157.586605
_cell_angle_gamma 90.000000
_cell_volume 1832.306352
_symmetry_space_group_name_H-M "C 2/M"
_symmetry_group_IT_number 12
_symmetry_cell_setting 'monoclinic'
loop_
_space_group_symop_operation_xyz
x,y,z
-x,y,-z
-x,-y,-z
x,-y,z
1/2+x,1/2+y,z
1/2-x,1/2+y,-z
1/2-x,1/2-y,-z
1/2+x,1/2-y,z
loop_
_atom_site_type_symbol
_atom_site_label
_atom_site_fract_x
_atom_site_fract_y
_atom_site_fract_z
Si Si1 0.988463 0.182116 0.654458
Si Si2 0.402910 0.680873 0.082724
Si Si3 0.344995 0.180931 0.650933
Si Si4 0.866030 0.683182 0.941287
O O1 0.176887 0.217203 0.781765
O O2 0.847580 0.217941 0.505957
O O3 0.940675 0.268619 0.670962
O O4 0.976913 0.000000 0.656063
O O5 0.388901 0.500000 0.072885
O O6 0.569919 0.734001 0.237538
O O7 0.250000 0.750000 0.000000
O O8 0.395628 0.742389 0.019150
O O9 0.361774 0.000000 0.670667
O O10 0.879097 0.500000 0.956995
O O11 0.000000 0.732294 0.000000
#
# Coordination Sequence:
#
# PCOD9181899 Si02
#       4
#     8   8   8   8
#     4   9  18  33  54  81 112 145 183 225 275 329
#     4  12  23  36  56  83 112 145 187 233 278 327
#     4  10  19  32  54  83 111 143 182 230 279 324
#     4  10  21  38  59  83 113 148 184 227 278 332
#
# _framework density 17.464328999999999
#
# number of rings (size 3 to 8) (size 9 to 14) (size 15 to 20)
#    0.000    1.750    2.500    3.000    0.000    1.500 
#    0.000    1.250    0.000    7.500    0.000    0.000 
#    0.000    0.000    0.000    0.000    0.000    0.000 
#
# Total GULP energy -89332.481775 kJ/mol
# GULP energy per Si atom -5583.280111 kJ/mol
# Density = 1.742458 g / cm^3
# Si number density = 17.464329 Si / 1000 Ang^3
#
#
#
# Elastic Constant Matrix: (Units=GPa)
#
#
# Indices 1 2 3 4 5 6 
#
# 1 121.2681 50.8337 87.8518 0.0003 4.8080 0.0000
# 2 50.8337 57.3386 59.1595 0.0003 1.3249 0.0000
# 3 87.8518 59.1595 162.9860 0.0000 3.0526 -0.0001
# 4 0.0003 0.0003 0.0000 25.1193 -0.0004 -7.1232
# 5 4.8080 1.3249 3.0526 -0.0004 24.5896 -0.0001
# 6 0.0000 0.0000 -0.0001 -7.1232 -0.0001 26.4405
#
#
#
# Elastic Compliance Matrix: (Units=1/GPa)
#
#
# Indices 1 2 3 4 5 6 
#
# 1 0.015741 -0.008303 -0.005434 0.000000 -0.001956 0.000000
# 2 -0.008303 0.032264 -0.007250 0.000000 0.000785 0.000000
# 3 -0.005434 -0.007250 0.011696 0.000000 0.000001 0.000000
# 4 0.000000 0.000000 0.000000 0.043103 0.000001 0.011612
# 5 -0.001956 0.000785 0.000001 0.000001 0.041008 0.000000
# 6 0.000000 0.000000 0.000000 0.011612 0.000000 0.040949
#
#
# Mechanical properties :
#
#
# Convention : Reuss Voigt Hill
#
# Bulk Modulus (GPa) = 56.41443 81.92028 69.16736
# Shear Modulus (GPa) = 21.49204 24.81304 23.15254
#
# Velocity S-wave (km/s) = 3.51183 3.77342 3.64497
# Velocity P-wave (km/s) = 6.98690 8.12367 7.57663
#
# Compressibility (1/GPa) = 0.01772596
#
# Stress axis : x y z
#
# Youngs Moduli (GPa) = 63.52780 30.99461 85.49881
#
# Poissons Ratio (x) = 0.25736 0.46461
# Poissons Ratio (y) = 0.52750 0.61986
# Poissons Ratio (z) = 0.34522 0.22471
#
# Static dielectric constant tensor:
#      x y z
#    x 1.546990 0.000000 0.001990 
#    y 0.000000 1.586940 0.000000 
#    z 0.001990 0.000000 1.624910 
# 
# From -- ./inp_files/81665.got.cif
#   From: 2010.05.17/outbox.cif.g08.bks.cpg/sg12_41_cif.got.tgz:81665.got - 2010.06.03 13:09:07.
