data_PCOD9181737
_publ_section_title
;
Structure prediction by ZEFSAII (Michael W. Deem and Ramdas Pophale) SiO2 
 PCOD9181737
Probable space group: C 2/M
;
_chemical_formula_sum "Si O2"
_cell_formula_units_Z 64
_cell_length_a 21.654420
_cell_length_b 13.619072
_cell_length_c 11.675953
_cell_angle_alpha 90.000000
_cell_angle_beta 107.792230
_cell_angle_gamma 90.000000
_cell_volume 3278.697028
_symmetry_space_group_name_H-M "C 2/M"
_symmetry_group_IT_number 12
_symmetry_cell_setting 'monoclinic'
loop_
_space_group_symop_operation_xyz
x,y,z
-x,y,-z
-x,-y,-z
x,-y,z
1/2+x,1/2+y,z
1/2-x,1/2+y,-z
1/2-x,1/2-y,-z
1/2+x,1/2-y,z
loop_
_atom_site_type_symbol
_atom_site_label
_atom_site_fract_x
_atom_site_fract_y
_atom_site_fract_z
Si Si1 0.371295 0.888914 0.757226
Si Si2 0.852480 0.888736 0.464241
Si Si3 0.369221 0.610190 0.729672
Si Si4 0.686198 0.759840 0.887178
Si Si5 0.749722 0.251585 0.319216
Si Si6 0.082102 0.885295 0.744557
Si Si7 0.974499 0.751506 0.790931
Si Si8 0.917972 0.387567 0.046750
O O1 0.302446 0.835873 0.724925
O O2 0.422570 0.826681 0.711262
O O3 0.365817 0.000000 0.714621
O O4 0.398220 0.887481 0.902583
O O5 0.888289 0.888150 0.605933
O O6 0.801917 0.798009 0.433419
O O7 0.896995 0.879055 0.376993
O O8 0.822580 0.000000 0.438968
O O9 0.368299 0.500000 0.772088
O O10 0.297518 0.656477 0.687257
O O11 0.423451 0.674987 0.823975
O O12 0.710898 0.776141 0.772848
O O13 0.641344 0.662148 0.851700
O O14 0.642080 0.846273 0.913470
O O15 0.750000 0.750000 0.000000
O O16 0.020650 0.817295 0.737783
O O17 0.071217 0.000000 0.765831
O O18 0.023869 0.686306 0.892342
O O19 0.935242 0.500000 0.086781
#
# Coordination Sequence:
#
# PCOD9181737 Si02
#       8
#     8   8   8   8   8   8   8   8
#     4  10  19  32  54  78 102 137 176 217 258 301
#     4   9  18  34  56  82 103 131 175 221 264 306
#     4  10  21  35  53  76 107 141 175 214 262 315
#     4  10  19  33  52  77 110 138 169 209 255 311
#     4  10  19  33  55  80 112 137 170 213 261 312
#     4   9  19  34  54  76 101 133 172 217 258 302
#     4  10  20  33  50  72 104 133 172 221 257 302
#     4  10  20  34  54  76 101 140 180 217 256 301
#
# _framework density 19.519950000000001
#
# number of rings (size 3 to 8) (size 9 to 14) (size 15 to 20)
#    0.000    2.250    1.250    1.875    0.000    3.000 
#    0.000    1.875    0.000    5.250    0.000   23.625 
#    0.000    0.000    0.000    0.000    0.000    0.000 
#
# Total GULP energy -178261.873624 kJ/mol
# GULP energy per Si atom -5570.683551 kJ/mol
# Density = 1.947552 g / cm^3
# Si number density = 19.519950 Si / 1000 Ang^3
#
#
#
# Elastic Constant Matrix: (Units=GPa)
#
#
# Indices 1 2 3 4 5 6 
#
# 1 96.7380 43.3475 15.7509 0.0000 6.1632 0.0000
# 2 43.3475 140.6479 14.0860 0.0000 -0.5867 0.0000
# 3 15.7509 14.0860 26.8721 0.0000 6.4386 0.0000
# 4 0.0000 0.0000 0.0000 19.6207 0.0000 1.1652
# 5 6.1632 -0.5867 6.4386 0.0000 17.0383 0.0000
# 6 0.0000 0.0000 0.0000 1.1652 0.0000 13.8876
#
#
#
# Elastic Compliance Matrix: (Units=1/GPa)
#
#
# Indices 1 2 3 4 5 6 
#
# 1 0.012903 -0.003483 -0.005047 0.000000 -0.002880 0.000000
# 2 -0.003483 0.008502 -0.003064 0.000000 0.002711 0.000000
# 3 -0.005047 -0.003064 0.045484 0.000000 -0.015468 0.000000
# 4 0.000000 0.000000 0.000000 0.051222 0.000000 -0.004298
# 5 -0.002880 0.002711 -0.015468 0.000000 0.065672 0.000000
# 6 0.000000 0.000000 0.000000 -0.004298 0.000000 0.072367
#
#
# Mechanical properties :
#
#
# Convention : Reuss Voigt Hill
#
# Bulk Modulus (GPa) = 22.88354 45.62521 34.25438
# Shear Modulus (GPa) = 17.01225 22.84756 19.92990
#
# Velocity S-wave (km/s) = 2.95537 3.42493 3.19878
# Velocity P-wave (km/s) = 4.83676 6.25016 5.58833
#
# Compressibility (1/GPa) = 0.04369954
#
# Stress axis : x y z
#
# Youngs Moduli (GPa) = 77.49933 117.62341 21.98571
#
# Poissons Ratio (x) = 0.40972 0.11097
# Poissons Ratio (y) = 0.26996 0.06737
# Poissons Ratio (z) = 0.39116 0.36043
#
# Static dielectric constant tensor:
#      x y z
#    x 1.713330 0.000000 0.007820 
#    y 0.000000 1.718100 0.000000 
#    z 0.007820 0.000000 1.696600 
# 
# From -- ./inp_files/232498.got.cif
#   From: 2010.05.17/outbox.cif.g08.bks.cpg/sg12_117_cif.got.tgz:232498.got - 2010.06.03 13:09:07.
