data_PCOD9181468
_publ_section_title
;
Structure prediction by ZEFSAII (Michael W. Deem and Ramdas Pophale) SiO2 
 PCOD9181468
Probable space group: C 2/M
;
_chemical_formula_sum "Si O2"
_cell_formula_units_Z 56
_cell_length_a 16.064161
_cell_length_b 9.693319
_cell_length_c 16.688537
_cell_angle_alpha 90.000000
_cell_angle_beta 105.607111
_cell_angle_gamma 90.000000
_cell_volume 2502.841583
_symmetry_space_group_name_H-M "C 2/M"
_symmetry_group_IT_number 12
_symmetry_cell_setting 'monoclinic'
loop_
_space_group_symop_operation_xyz
x,y,z
-x,y,-z
-x,-y,-z
x,-y,z
1/2+x,1/2+y,z
1/2-x,1/2+y,-z
1/2-x,1/2-y,-z
1/2+x,1/2-y,z
loop_
_atom_site_type_symbol
_atom_site_label
_atom_site_fract_x
_atom_site_fract_y
_atom_site_fract_z
Si Si1 0.613942 0.341141 0.975807
Si Si2 0.730720 0.843514 0.111603
Si Si3 0.694702 0.160225 0.589830
Si Si4 0.458995 0.155691 0.320043
Si Si5 0.501080 0.157500 0.843489
Si Si6 0.575755 0.657957 0.451873
Si Si7 0.308554 0.158979 0.724102
O O1 0.597262 0.500000 0.990097
O O2 0.685900 0.335085 0.923261
O O3 0.531870 0.262833 0.918315
O O4 0.659980 0.262025 0.060210
O O5 0.748505 0.823422 0.209953
O O6 0.695949 0.000000 0.094589
O O7 0.622676 0.163987 0.642482
O O8 0.652927 0.251635 0.508723
O O9 0.777720 0.233933 0.649763
O O10 0.706662 0.000000 0.571160
O O11 0.440287 0.171557 0.221407
O O12 0.529380 0.265706 0.366685
O O13 0.495504 0.000000 0.339617
O O14 0.405068 0.176757 0.783419
O O15 0.509065 0.000000 0.874833
O O16 0.500000 0.655719 0.500000
O O17 0.599877 0.500000 0.441827
O O18 0.298833 0.000000 0.693520
#
# Coordination Sequence:
#
# PCOD9181468 Si02
#       7
#     8   8   8   8   8   8   8
#     4  10  20  34  55  80 103 130 168 213 254 297
#     4   9  19  36  56  77 102 133 169 209 253 300
#     4  10  19  32  53  78 104 133 166 210 258 301
#     4   9  18  33  53  77 103 132 168 209 255 303
#     4  10  21  36  53  74 104 139 170 205 252 304
#     4   9  17  30  51  78 104 131 167 211 254 298
#     4  10  21  36  53  74 102 137 174 208 247 301
#
# _framework density 22.374568
#
# number of rings (size 3 to 8) (size 9 to 14) (size 15 to 20)
#    0.000    2.429    0.000    2.143    0.000    5.143 
#    0.000    3.571    0.000    0.000    0.000    0.000 
#    0.000    0.000    0.000    0.000    0.000    0.000 
#
# Total GULP energy -156567.593116 kJ/mol
# GULP energy per Si atom -5591.699754 kJ/mol
# Density = 2.232364 g / cm^3
# Si number density = 22.374568 Si / 1000 Ang^3
#
#
#
# Elastic Constant Matrix: (Units=GPa)
#
#
# Indices 1 2 3 4 5 6 
#
# 1 70.4692 18.9986 2.2120 0.0000 1.4731 0.0000
# 2 18.9986 210.0468 98.8252 0.0000 36.7854 0.0000
# 3 2.2120 98.8252 77.7586 0.0000 16.1154 0.0000
# 4 0.0000 0.0000 0.0000 42.4976 0.0000 13.7321
# 5 1.4731 36.7854 16.1154 0.0000 37.8619 0.0000
# 6 0.0000 0.0000 0.0000 13.7321 0.0000 13.8654
#
#
#
# Elastic Compliance Matrix: (Units=1/GPa)
#
#
# Indices 1 2 3 4 5 6 
#
# 1 0.014890 -0.003047 0.003242 0.000000 0.001002 0.000000
# 2 -0.003047 0.013653 -0.015948 0.000000 -0.006359 0.000000
# 3 0.003242 -0.015948 0.032740 0.000000 0.001433 0.000000
# 4 0.000000 0.000000 0.000000 0.034605 0.000000 -0.034272
# 5 0.001002 -0.006359 0.001433 0.000000 0.031941 0.000000
# 6 0.000000 0.000000 0.000000 -0.034272 0.000000 0.106064
#
#
# Mechanical properties :
#
#
# Convention : Reuss Voigt Hill
#
# Bulk Modulus (GPa) = 33.58446 66.48290 50.03368
# Shear Modulus (GPa) = 18.16037 34.72759 26.44398
#
# Velocity S-wave (km/s) = 2.85204 3.94395 3.44157
# Velocity P-wave (km/s) = 5.08805 7.10758 6.18085
#
# Compressibility (1/GPa) = 0.02977568
#
# Stress axis : x y z
#
# Youngs Moduli (GPa) = 67.16142 73.24149 30.54395
#
# Poissons Ratio (x) = 0.22320 -0.09902
# Poissons Ratio (y) = 0.20467 0.48711
# Poissons Ratio (z) = -0.21773 1.16805
#
# Static dielectric constant tensor:
#      x y z
#    x 1.922470 0.000000 -0.036490 
#    y 0.000000 1.770480 0.000000 
#    z -0.036490 0.000000 1.759380 
# 
# From -- ./inp_files/313705.got.cif
#   From: 2010.05.17/outbox.cif.g08.bks.cpg/sg12_157_cif.got.tgz:313705.got - 2010.06.03 13:09:07.
