data_PCOD9181010
_publ_section_title
;
Structure prediction by ZEFSAII (Michael W. Deem and Ramdas Pophale) SiO2 
 PCOD9181010
Probable space group: C 2/M
;
_chemical_formula_sum "Si O2"
_cell_formula_units_Z 64
_cell_length_a 25.922314
_cell_length_b 8.410537
_cell_length_c 20.023155
_cell_angle_alpha 90.000000
_cell_angle_beta 116.803591
_cell_angle_gamma 90.000000
_cell_volume 3896.424217
_symmetry_space_group_name_H-M "C 2/M"
_symmetry_group_IT_number 12
_symmetry_cell_setting 'monoclinic'
loop_
_space_group_symop_operation_xyz
x,y,z
-x,y,-z
-x,-y,-z
x,-y,z
1/2+x,1/2+y,z
1/2-x,1/2+y,-z
1/2-x,1/2-y,-z
1/2+x,1/2-y,z
loop_
_atom_site_type_symbol
_atom_site_label
_atom_site_fract_x
_atom_site_fract_y
_atom_site_fract_z
Si Si1 0.583773 0.307935 0.421705
Si Si2 0.189912 0.690137 0.997104
Si Si3 0.137857 0.306391 0.834129
Si Si4 0.298867 0.692393 0.579799
Si Si5 0.738131 0.308560 0.155028
Si Si6 0.956956 0.309541 0.325389
Si Si7 0.614551 0.690840 0.589963
Si Si8 0.754710 0.307578 0.312930
O O1 0.583041 0.500000 0.421103
O O2 0.638527 0.254548 0.409741
O O3 0.522456 0.248137 0.360287
O O4 0.594068 0.256328 0.504460
O O5 0.190365 0.500000 0.998868
O O6 0.191623 0.751449 0.073623
O O7 0.250000 0.750000 0.000000
O O8 0.142500 0.742379 0.914558
O O9 0.137509 0.500000 0.832936
O O10 0.197691 0.257350 0.832487
O O11 0.083407 0.251549 0.759328
O O12 0.298560 0.500000 0.579049
O O13 0.250000 0.750000 0.500000
O O14 0.281693 0.746215 0.644109
O O15 0.738006 0.500000 0.153654
O O16 0.730924 0.254656 0.227007
O O17 0.955878 0.500000 0.324617
O O18 0.927543 0.251351 0.376733
O O19 0.614857 0.500000 0.591067
O O20 0.679321 0.751688 0.640696
O O21 0.755120 0.500000 0.312970
#
# Coordination Sequence:
#
# PCOD9181010 Si02
#       8
#     8   8   8   8   8   8   8   8
#     4  10  22  37  48  68 100 129 160 207 253 284
#     4   9  16  27  43  65  94 127 156 188 235 289
#     4   8  15  28  44  64  94 124 152 193 235 273
#     4  10  20  35  54  72  95 127 164 205 250 291
#     4   9  16  29  45  67  98 124 154 198 237 281
#     4  11  21  34  51  71  95 130 170 201 234 293
#     4  11  21  33  49  70 100 131 159 203 251 286
#     4  10  19  32  52  73  96 130 167 200 240 291
#
# _framework density 16.425315999999999
#
# number of rings (size 3 to 8) (size 9 to 14) (size 15 to 20)
#    0.000    2.250    2.500    2.250    0.000    3.500 
#    0.000    1.875    0.000    0.000    0.000    0.875 
#    0.000    7.000    0.000    0.000    0.000    0.000 
#
# Total GULP energy -178400.169420 kJ/mol
# GULP energy per Si atom -5575.005294 kJ/mol
# Density = 1.638793 g / cm^3
# Si number density = 16.425316 Si / 1000 Ang^3
#
#
#
# Elastic Constant Matrix: (Units=GPa)
#
#
# Indices 1 2 3 4 5 6 
#
# 1 111.9745 13.5121 76.3321 0.0000 -2.6283 0.0000
# 2 13.5121 9.5597 22.7752 0.0000 -2.1717 0.0000
# 3 76.3321 22.7752 176.4459 0.0000 -5.1759 0.0000
# 4 0.0000 0.0000 0.0000 23.1759 0.0000 4.3157
# 5 -2.6283 -2.1717 -5.1759 0.0000 9.1140 0.0000
# 6 0.0000 0.0000 0.0000 4.3157 0.0000 17.7905
#
#
#
# Elastic Compliance Matrix: (Units=1/GPa)
#
#
# Indices 1 2 3 4 5 6 
#
# 1 0.013003 -0.007339 -0.004697 0.000000 -0.000667 0.000000
# 2 -0.007339 0.161186 -0.016847 0.000000 0.026724 0.000000
# 3 -0.004697 -0.016847 0.009881 0.000000 0.000243 0.000000
# 4 0.000000 0.000000 0.000000 0.045190 0.000000 -0.010962
# 5 -0.000667 0.026724 0.000243 0.000000 0.116035 0.000000
# 6 0.000000 0.000000 0.000000 -0.010962 0.000000 0.058869
#
#
# Mechanical properties :
#
#
# Convention : Reuss Voigt Hill
#
# Bulk Modulus (GPa) = 7.91740 58.13542 33.02641
# Shear Modulus (GPa) = 9.92003 22.37348 16.14675
#
# Velocity S-wave (km/s) = 2.46020 3.69471 3.13875
# Velocity P-wave (km/s) = 3.59177 7.32611 5.76943
#
# Compressibility (1/GPa) = 0.12630413
#
# Stress axis : x y z
#
# Youngs Moduli (GPa) = 76.90713 6.20401 101.20224
#
# Poissons Ratio (x) = 0.04553 0.47538
# Poissons Ratio (y) = 0.56442 1.70492
# Poissons Ratio (z) = 0.36126 0.10452
#
# Static dielectric constant tensor:
#      x y z
#    x 1.518790 0.000000 -0.005100 
#    y 0.000000 1.570090 0.000000 
#    z -0.005100 0.000000 1.589430 
# 
# From -- ./inp_files/287768.got.cif
#   From: 2010.05.17/outbox.cif.g08.bks.cpg/sg12_144_cif.got.tgz:287768.got - 2010.06.03 13:09:07.
