data_PCOD9181890
_publ_section_title
;
Structure prediction by ZEFSAII (Michael W. Deem and Ramdas Pophale) SiO2 
 PCOD9181890
Probable space group: C 2/M
;
_chemical_formula_sum "Si O2"
_cell_formula_units_Z 64
_cell_length_a 29.845567
_cell_length_b 8.555454
_cell_length_c 12.725287
_cell_angle_alpha 90.000000
_cell_angle_beta 89.552175
_cell_angle_gamma 90.000000
_cell_volume 3249.205763
_symmetry_space_group_name_H-M "C 2/M"
_symmetry_group_IT_number 12
_symmetry_cell_setting 'monoclinic'
loop_
_space_group_symop_operation_xyz
x,y,z
-x,y,-z
-x,-y,-z
x,-y,z
1/2+x,1/2+y,z
1/2-x,1/2+y,-z
1/2-x,1/2-y,-z
1/2+x,1/2-y,z
loop_
_atom_site_type_symbol
_atom_site_label
_atom_site_fract_x
_atom_site_fract_y
_atom_site_fract_z
Si Si1 0.005264 0.183424 0.168825
Si Si2 0.395707 0.186661 0.879269
Si Si3 0.822127 0.688643 0.709103
Si Si4 0.108938 0.689345 0.463305
Si Si5 0.590675 0.312547 0.898249
Si Si6 0.135862 0.689556 0.686420
Si Si7 0.516971 0.815470 0.381043
Si Si8 0.236295 0.686426 0.615613
O O1 0.053689 0.259397 0.149029
O O2 0.993784 0.218018 0.290906
O O3 0.961687 0.240679 0.106138
O O4 0.010175 0.000000 0.148572
O O5 0.356505 0.240264 0.799936
O O6 0.395576 0.000000 0.874167
O O7 0.387375 0.244789 0.997328
O O8 0.818433 0.500000 0.714483
O O9 0.846047 0.729785 0.598089
O O10 0.773244 0.761253 0.700216
O O11 0.105886 0.500000 0.465700
O O12 0.107961 0.740434 0.583477
O O13 0.068056 0.740345 0.391712
O O14 0.590305 0.500000 0.902808
O O15 0.616343 0.258674 0.793317
O O16 0.133659 0.500000 0.693377
O O17 0.186934 0.734538 0.656652
O O18 0.500000 0.802166 0.500000
O O19 0.514652 0.000000 0.352387
O O20 0.235545 0.500000 0.606470
O O21 0.250000 0.750000 0.500000
#
# Coordination Sequence:
#
# PCOD9181890 Si02
#       8
#     8   8   8   8   8   8   8   8
#     4  11  23  38  57  85 122 158 196 248 302 352
#     4  11  23  41  66  89 115 157 208 250 290 351
#     4  10  20  38  61  88 120 151 192 245 297 348
#     4   9  16  32  55  82 117 150 188 241 290 338
#     4  11  25  42  59  85 122 158 198 250 304 351
#     4  10  21  39  62  87 118 156 199 243 290 354
#     4  10  19  32  54  82 114 157 202 242 290 349
#     4  11  22  37  62  94 124 157 197 242 295 358
#
# _framework density 19.697120999999999
#
# number of rings (size 3 to 8) (size 9 to 14) (size 15 to 20)
#    0.000    1.625    2.500    2.625    0.000    6.750 
#    0.000    1.250    0.000    0.000    0.000    0.000 
#    0.000    0.000    0.000    0.000    0.000    0.000 
#
# Total GULP energy -178638.416436 kJ/mol
# GULP energy per Si atom -5582.450514 kJ/mol
# Density = 1.965229 g / cm^3
# Si number density = 19.697121 Si / 1000 Ang^3
#
#
#
# Elastic Constant Matrix: (Units=GPa)
#
#
# Indices 1 2 3 4 5 6 
#
# 1 85.8167 19.2166 39.0226 0.0000 15.0092 0.0000
# 2 19.2166 23.9338 18.3840 0.0000 3.3016 0.0000
# 3 39.0226 18.3840 126.4128 0.0000 15.5200 0.0000
# 4 0.0000 0.0000 0.0000 20.3846 0.0000 1.5012
# 5 15.0092 3.3016 15.5200 0.0000 27.7342 0.0000
# 6 0.0000 0.0000 0.0000 1.5012 0.0000 25.8551
#
#
#
# Elastic Compliance Matrix: (Units=1/GPa)
#
#
# Indices 1 2 3 4 5 6 
#
# 1 0.016232 -0.010044 -0.002812 0.000000 -0.006016 0.000000
# 2 -0.010044 0.053344 -0.004880 0.000000 0.001816 0.000000
# 3 -0.002812 -0.004880 0.009911 0.000000 -0.003444 0.000000
# 4 0.000000 0.000000 0.000000 0.049267 0.000000 -0.002861
# 5 -0.006016 0.001816 -0.003444 0.000000 0.041023 0.000000
# 6 0.000000 0.000000 0.000000 -0.002861 0.000000 0.038843
#
#
# Mechanical properties :
#
#
# Convention : Reuss Voigt Hill
#
# Bulk Modulus (GPa) = 22.71880 43.26775 32.99327
# Shear Modulus (GPa) = 19.32261 25.43081 22.37671
#
# Velocity S-wave (km/s) = 3.13547 3.59708 3.37418
# Velocity P-wave (km/s) = 4.96662 6.26627 5.65391
#
# Compressibility (1/GPa) = 0.04401642
#
# Stress axis : x y z
#
# Youngs Moduli (GPa) = 61.60511 18.74620 100.89760
#
# Poissons Ratio (x) = 0.18828 0.28369
# Poissons Ratio (y) = 0.61874 0.49241
# Poissons Ratio (z) = 0.17321 0.09149
#
# Static dielectric constant tensor:
#      x y z
#    x 1.745660 0.000000 -0.005530 
#    y 0.000000 1.673910 0.000000 
#    z -0.005530 0.000000 1.700990 
# 
# From -- ./inp_files/187532.got.cif
#   From: 2010.05.17/outbox.cif.g08.bks.cpg/sg12_94_cif.got.tgz:187532.got - 2010.06.03 13:09:07.
