data_PCOD9181830
_publ_section_title
;
Structure prediction by ZEFSAII (Michael W. Deem and Ramdas Pophale) SiO2 
 PCOD9181830
Probable space group: C 2/M
;
_chemical_formula_sum "Si O2"
_cell_formula_units_Z 40
_cell_length_a 21.305144
_cell_length_b 19.295121
_cell_length_c 9.201136
_cell_angle_alpha 90.000000
_cell_angle_beta 35.962127
_cell_angle_gamma 90.000000
_cell_volume 2221.246311
_symmetry_space_group_name_H-M "C 2/M"
_symmetry_group_IT_number 12
_symmetry_cell_setting 'monoclinic'
loop_
_space_group_symop_operation_xyz
x,y,z
-x,y,-z
-x,-y,-z
x,-y,z
1/2+x,1/2+y,z
1/2-x,1/2+y,-z
1/2-x,1/2-y,-z
1/2+x,1/2-y,z
loop_
_atom_site_type_symbol
_atom_site_label
_atom_site_fract_x
_atom_site_fract_y
_atom_site_fract_z
Si Si1 0.248995 0.214548 0.846502
Si Si2 0.337795 0.162970 0.191997
Si Si3 0.862268 0.079975 0.358972
Si Si4 0.554950 0.196765 0.701278
Si Si5 0.555150 0.651193 0.087536
O O1 0.219480 0.272908 0.780990
O O2 0.365027 0.187745 0.582151
O O3 0.250000 0.250000 0.000000
O O4 0.152876 0.159377 0.015256
O O5 0.251349 0.102769 0.365952
O O6 0.377276 0.183603 0.279449
O O7 0.449227 0.149220 0.900167
O O8 0.959665 0.096594 0.286156
O O9 0.864108 0.000000 0.312638
O O10 0.889081 0.128485 0.169043
O O11 0.505406 0.274451 0.801136
#
# Coordination Sequence:
#
# PCOD9181830 Si02
#       5
#     8   8   8   8   8
#     4  11  21  33  55  83 115 142 171 226 292 340
#     4  10  19  33  54  80 108 140 180 227 279 326
#     4  11  20  34  56  82 111 148 188 230 269 316
#     4  10  19  33  58  80 110 137 174 239 293 318
#     4  10  19  32  54  81 110 137 180 227 281 330
#
# _framework density 18.007908
#
# number of rings (size 3 to 8) (size 9 to 14) (size 15 to 20)
#    0.000    1.600    4.000    6.600    0.000    3.200 
#    0.000    2.000    0.000    3.600    0.000    1.400 
#    0.000    0.000    0.000    0.000    0.000    0.000 
#
# Total GULP energy -111436.947643 kJ/mol
# GULP energy per Si atom -5571.847382 kJ/mol
# Density = 1.796692 g / cm^3
# Si number density = 18.007908 Si / 1000 Ang^3
#
#
#
# Elastic Constant Matrix: (Units=GPa)
#
#
# Indices 1 2 3 4 5 6 
#
# 1 51.6810 20.1565 62.2794 0.0000 -20.7010 0.0000
# 2 20.1565 41.9396 19.5226 0.0000 -15.1025 0.0000
# 3 62.2794 19.5226 139.4735 0.0000 -31.9489 0.0000
# 4 0.0000 0.0000 0.0000 10.3713 0.0000 -2.7705
# 5 -20.7010 -15.1025 -31.9489 0.0000 24.3895 0.0000
# 6 0.0000 0.0000 0.0000 -2.7705 0.0000 11.7114
#
#
#
# Elastic Compliance Matrix: (Units=1/GPa)
#
#
# Indices 1 2 3 4 5 6 
#
# 1 0.050631 -0.011547 -0.018267 0.000000 0.011894 0.000000
# 2 -0.011547 0.033320 0.004248 0.000000 0.016397 0.000000
# 3 -0.018267 0.004248 0.016835 0.000000 0.009178 0.000000
# 4 0.000000 0.000000 0.000000 0.102924 0.000000 0.024348
# 5 0.011894 0.016397 0.009178 0.000000 0.073273 0.000000
# 6 0.000000 0.000000 0.000000 0.024348 0.000000 0.091147
#
#
# Mechanical properties :
#
#
# Convention : Reuss Voigt Hill
#
# Bulk Modulus (GPa) = 20.13967 48.55679 34.34823
# Shear Modulus (GPa) = 11.47280 18.03682 14.75481
#
# Velocity S-wave (km/s) = 2.52682 3.16825 2.86554
# Velocity P-wave (km/s) = 4.44085 6.35660 5.48304
#
# Compressibility (1/GPa) = 0.04965325
#
# Stress axis : x y z
#
# Youngs Moduli (GPa) = 19.75074 30.01160 59.40140
#
# Poissons Ratio (x) = 0.34655 1.08511
# Poissons Ratio (y) = 0.22806 -0.25234
# Poissons Ratio (z) = 0.36080 -0.12749
#
# Static dielectric constant tensor:
#      x y z
#    x 1.644030 0.000000 -0.034470 
#    y 0.000000 1.596370 0.000000 
#    z -0.034470 0.000000 1.674930 
# 
# From -- ./inp_files/88974.got.cif
#   From: 2010.05.17/outbox.cif.g08.bks.cpg/sg12_45_cif.got.tgz:88974.got - 2010.06.03 13:09:07.
