data_PCOD9181130
_publ_section_title
;
Structure prediction by ZEFSAII (Michael W. Deem and Ramdas Pophale) SiO2 
 PCOD9181130
Probable space group: C 2/M
;
_chemical_formula_sum "Si O2"
_cell_formula_units_Z 40
_cell_length_a 20.473441
_cell_length_b 7.354688
_cell_length_c 15.173725
_cell_angle_alpha 90.000000
_cell_angle_beta 50.025691
_cell_angle_gamma 90.000000
_cell_volume 1750.913123
_symmetry_space_group_name_H-M "C 2/M"
_symmetry_group_IT_number 12
_symmetry_cell_setting 'monoclinic'
loop_
_space_group_symop_operation_xyz
x,y,z
-x,y,-z
-x,-y,-z
x,-y,z
1/2+x,1/2+y,z
1/2-x,1/2+y,-z
1/2-x,1/2-y,-z
1/2+x,1/2-y,z
loop_
_atom_site_type_symbol
_atom_site_label
_atom_site_fract_x
_atom_site_fract_y
_atom_site_fract_z
Si Si1 0.085628 0.708428 0.882815
Si Si2 0.479323 0.279659 0.248901
Si Si3 0.224023 0.777480 0.262818
Si Si4 0.836192 0.215952 0.873214
Si Si5 0.429248 0.278670 0.489098
O O1 0.088698 0.500000 0.912447
O O2 0.073109 0.710865 0.788652
O O3 0.178582 0.787549 0.822542
O O4 0.000000 0.791055 0.000000
O O5 0.475151 0.500000 0.248669
O O6 0.577827 0.218023 0.155588
O O7 0.449015 0.222112 0.372322
O O8 0.176720 0.717662 0.214846
O O9 0.164029 0.723678 0.395875
O O10 0.226534 0.000000 0.261235
O O11 0.847317 0.000000 0.856326
O O12 0.750000 0.250000 0.000000
O O13 0.500000 0.221398 0.500000
O O14 0.432527 0.500000 0.485897
#
# Coordination Sequence:
#
# PCOD9181130 Si02
#       5
#     8   8   8   8   8
#     4  10  21  36  52  73 106 145 175 203 249 311
#     4  10  20  33  54  81 104 130 169 219 264 297
#     4   9  17  31  52  74  99 136 177 209 246 304
#     4  10  19  32  52  77 101 130 172 216 255 299
#     4   9  15  29  53  79 103 128 168 219 259 298
#
# _framework density 22.845222
#
# number of rings (size 3 to 8) (size 9 to 14) (size 15 to 20)
#    0.000    2.400    2.000    1.200    0.000    3.600 
#    0.000    1.000    0.000    1.800    0.000    0.000 
#    0.000    0.000    0.000    0.000    0.000    0.000 
#
# Total GULP energy -111742.123395 kJ/mol
# GULP energy per Si atom -5587.106170 kJ/mol
# Density = 2.279323 g / cm^3
# Si number density = 22.845222 Si / 1000 Ang^3
#
#
#
# Elastic Constant Matrix: (Units=GPa)
#
#
# Indices 1 2 3 4 5 6 
#
# 1 66.4305 -0.0928 -19.8918 -0.0001 -10.0228 0.0000
# 2 -0.0928 84.8989 -3.5937 -0.0005 -5.3717 0.0005
# 3 -19.8918 -3.5937 78.2806 -0.0001 -8.4127 0.0001
# 4 -0.0001 -0.0005 -0.0001 8.4856 0.0000 9.3290
# 5 -10.0228 -5.3717 -8.4127 0.0000 44.1957 0.0000
# 6 0.0000 0.0005 0.0001 9.3290 0.0000 5.8943
#
#
#
# Elastic Compliance Matrix: (Units=1/GPa)
#
#
# Indices 1 2 3 4 5 6 
#
# 1 0.017278 0.000540 0.004945 -0.000001 0.004925 0.000001
# 2 0.000540 0.011926 0.000871 -0.000002 0.001738 0.000003
# 3 0.004945 0.000871 0.014500 -0.000001 0.003987 0.000001
# 4 -0.000001 -0.000002 -0.000001 -0.159253 -0.000001 0.252050
# 5 0.004925 0.001738 0.003987 -0.000001 0.024714 0.000001
# 6 0.000001 0.000003 0.000001 0.252050 0.000001 -0.229265
#
#
# Mechanical properties :
#
#
# Convention : Reuss Voigt Hill
#
# Bulk Modulus (GPa) = 17.72581 20.27259 18.99920
# Shear Modulus (GPa) = -15.92320 28.59436 6.33558
#
# Velocity S-wave (km/s) = -2.64295 3.54171 1.66712
# Velocity P-wave (km/s) = 1.24001 5.06144 3.46991
#
# Compressibility (1/GPa) = 0.05641492
#
# Stress axis : x y z
#
# Youngs Moduli (GPa) = 57.87797 83.84936 68.96782
#
# Poissons Ratio (x) = -0.04526 -0.34101
# Poissons Ratio (y) = -0.03124 -0.06010
# Poissons Ratio (z) = -0.28618 -0.07307
#
# Static dielectric constant tensor:
#      x y z
#    x 1.772410 0.000000 0.002260 
#    y 0.000000 1.897690 0.000000 
#    z 0.002260 0.000000 1.823380 
# 
# From -- ./inp_files/153282.got.cif
#   From: 2010.05.17/outbox.cif.g08.bks.cpg/sg12_77_cif.got.tgz:153282.got - 2010.06.03 13:09:07.
