data_PCOD9181147
_publ_section_title
;
Structure prediction by ZEFSAII (Michael W. Deem and Ramdas Pophale) SiO2 
 PCOD9181147
Probable space group: C 2/M
;
_chemical_formula_sum "Si O2"
_cell_formula_units_Z 56
_cell_length_a 10.495641
_cell_length_b 14.291064
_cell_length_c 23.245788
_cell_angle_alpha 90.000000
_cell_angle_beta 47.369969
_cell_angle_gamma 90.000000
_cell_volume 2565.331393
_symmetry_space_group_name_H-M "C 2/M"
_symmetry_group_IT_number 12
_symmetry_cell_setting 'monoclinic'
loop_
_space_group_symop_operation_xyz
x,y,z
-x,y,-z
-x,-y,-z
x,-y,z
1/2+x,1/2+y,z
1/2-x,1/2+y,-z
1/2-x,1/2-y,-z
1/2+x,1/2-y,z
loop_
_atom_site_type_symbol
_atom_site_label
_atom_site_fract_x
_atom_site_fract_y
_atom_site_fract_z
Si Si1 0.108374 0.168287 0.830639
Si Si2 0.853025 0.833386 0.000000
Si Si3 0.559559 0.385808 0.626961
Si Si4 0.399707 0.831712 0.830639
Si Si5 0.666941 0.885559 0.555373
Si Si6 0.271960 0.891753 0.335326
Si Si7 0.222060 0.608247 0.335326
O O1 0.257895 0.203542 0.828069
O O2 0.203842 0.112119 0.751517
O O3 0.965585 0.118115 0.915344
O O4 0.005869 0.249999 0.829420
O O5 0.750000 0.750000 0.000000
O O6 0.711616 0.881885 0.084657
O O7 0.000000 0.797897 0.000000
O O8 0.548260 0.500000 0.634494
O O9 0.696938 0.361278 0.535375
O O10 0.371974 0.351025 0.663762
O O11 0.636744 0.351025 0.663761
O O12 0.541607 0.887880 0.751517
O O13 0.722177 0.852506 0.601951
O O14 0.471972 0.852506 0.601952
O O15 0.662119 0.000000 0.558588
O O16 0.223045 0.000000 0.358461
O O17 0.201569 0.500000 0.358462
#
# Coordination Sequence:
#
# PCOD9181147 Si02
#       7
#     8   8   8   8   8   8   8
#     4  10  20  34  54  76 101 132 166 204 248 297
#     4   8  16  32  51  73  96 126 168 203 236 291
#     4   9  18  30  49  76 101 132 170 207 245 289
#     4  10  20  34  54  76 101 132 166 204 248 297
#     4   9  16  30  51  74  99 130 170 209 245 289
#     4  10  19  32  52  77 104 130 165 210 251 293
#     4  10  19  32  52  77 104 130 165 210 251 293
#
# _framework density 21.829536999999998
#
# number of rings (size 3 to 8) (size 9 to 14) (size 15 to 20)
#    0.000    2.571    1.429    0.857    2.000    3.429 
#    0.000    0.714    0.000    7.714    0.000    3.000 
#    0.000    0.000    0.000    0.000    0.000    0.000 
#
# Total GULP energy -156086.438549 kJ/mol
# GULP energy per Si atom -5574.515662 kJ/mol
# Density = 2.177985 g / cm^3
# Si number density = 21.829537 Si / 1000 Ang^3
#
#
#
# Elastic Constant Matrix: (Units=GPa)
#
#
# Indices 1 2 3 4 5 6 
#
# 1 176.8415 5.8930 59.1259 0.0000 0.0034 0.0000
# 2 5.8930 40.8573 -21.1944 -0.0001 0.0010 0.0000
# 3 59.1259 -21.1944 126.1189 -0.0001 0.0007 0.0000
# 4 0.0000 -0.0001 -0.0001 48.2996 0.0001 -0.0030
# 5 0.0034 0.0010 0.0007 0.0001 34.7073 0.0000
# 6 0.0000 0.0000 0.0000 -0.0030 0.0000 4.9217
#
#
#
# Elastic Compliance Matrix: (Units=1/GPa)
#
#
# Indices 1 2 3 4 5 6 
#
# 1 0.007022 -0.002980 -0.003793 0.000000 -0.000001 0.000000
# 2 -0.002980 0.028078 0.006116 0.000000 -0.000001 0.000000
# 3 -0.003793 0.006116 0.010735 0.000000 0.000000 0.000000
# 4 0.000000 0.000000 0.000000 0.020704 0.000000 0.000013
# 5 -0.000001 -0.000001 0.000000 0.000000 0.028812 0.000000
# 6 0.000000 0.000000 0.000000 0.000013 0.000000 0.203182
#
#
# Mechanical properties :
#
#
# Convention : Reuss Voigt Hill
#
# Bulk Modulus (GPa) = 22.46194 47.94075 35.20135
# Shear Modulus (GPa) = 15.88873 37.58526 26.73700
#
# Velocity S-wave (km/s) = 2.70080 4.15391 3.50352
# Velocity P-wave (km/s) = 4.47636 6.70938 5.70323
#
# Compressibility (1/GPa) = 0.04451974
#
# Stress axis : x y z
#
# Youngs Moduli (GPa) = 142.40424 35.61534 93.15341
#
# Poissons Ratio (x) = 0.10615 0.35333
# Poissons Ratio (y) = 0.42443 -0.56970
# Poissons Ratio (z) = 0.54014 -0.21782
#
# Static dielectric constant tensor:
#      x y z
#    x 1.806750 0.000000 0.000000 
#    y 0.000000 1.810330 0.000000 
#    z 0.000000 0.000000 1.801740 
# 
# From -- ./inp_files/302073.got.cif
#   From: 2010.05.17/outbox.cif.g08.bks.cpg/sg12_152_cif.got.tgz:302073.got - 2010.06.03 13:09:07.
