data_PCOD9181102
_publ_section_title
;
Structure prediction by ZEFSAII (Michael W. Deem and Ramdas Pophale) SiO2 
 PCOD9181102
Probable space group: C 2/M
;
_chemical_formula_sum "Si O2"
_cell_formula_units_Z 64
_cell_length_a 21.152529
_cell_length_b 8.223804
_cell_length_c 22.401627
_cell_angle_alpha 90.000000
_cell_angle_beta 61.610648
_cell_angle_gamma 90.000000
_cell_volume 3428.210215
_symmetry_space_group_name_H-M "C 2/M"
_symmetry_group_IT_number 12
_symmetry_cell_setting 'monoclinic'
loop_
_space_group_symop_operation_xyz
x,y,z
-x,y,-z
-x,-y,-z
x,-y,z
1/2+x,1/2+y,z
1/2-x,1/2+y,-z
1/2-x,1/2-y,-z
1/2+x,1/2-y,z
loop_
_atom_site_type_symbol
_atom_site_label
_atom_site_fract_x
_atom_site_fract_y
_atom_site_fract_z
Si Si1 0.275577 0.805943 0.553248
Si Si2 0.166188 0.695997 0.158764
Si Si3 0.079800 0.806128 0.449056
Si Si4 0.669674 0.197003 0.923927
Si Si5 0.654185 0.803467 0.296971
Si Si6 0.698445 0.304135 0.706379
Si Si7 0.082930 0.304662 0.846497
Si Si8 0.918774 0.300822 0.919441
O O1 0.250000 0.750000 0.500000
O O2 0.355945 0.755272 0.536959
O O3 0.221746 0.746823 0.630036
O O4 0.273799 0.000000 0.555345
O O5 0.161932 0.500000 0.161418
O O6 0.248930 0.743028 0.112608
O O7 0.141075 0.753442 0.235479
O O8 0.119124 0.754668 0.124382
O O9 0.101831 0.760083 0.371759
O O10 0.000000 0.743201 0.500000
O O11 0.078856 0.000000 0.454841
O O12 0.628261 0.254959 0.883212
O O13 0.670518 0.000000 0.922801
O O14 0.626697 0.249285 0.002291
O O15 0.734955 0.755706 0.280654
O O16 0.651263 0.000000 0.299826
O O17 0.695344 0.500000 0.707192
O O18 0.625503 0.240179 0.767518
O O19 0.080574 0.500000 0.851674
O O20 0.001157 0.245810 0.885250
O O21 0.918992 0.500000 0.919271
#
# Coordination Sequence:
#
# PCOD9181102 Si02
#       8
#     8   8   8   8   8   8   8   8
#     4  10  21  38  60  85 114 147 183 224 271 325
#     4  10  19  34  54  74 102 137 175 221 266 315
#     4  10  21  37  58  84 114 145 181 226 274 323
#     4  10  19  32  53  77 101 135 177 220 265 316
#     4   9  18  33  54  77 103 139 181 220 264 320
#     4   9  18  34  54  77 106 137 173 217 262 309
#     4  10  19  32  52  76 103 137 179 217 259 316
#     4   9  19  34  50  73 106 138 172 219 269 315
#
# _framework density 18.668634000000001
#
# number of rings (size 3 to 8) (size 9 to 14) (size 15 to 20)
#    0.000    2.375    1.250    2.250    0.000    5.500 
#    2.250    1.250    0.000    1.500    0.000    0.000 
#    0.000    0.000    0.000    0.000    0.000    0.000 
#
# Total GULP energy -178546.992527 kJ/mol
# GULP energy per Si atom -5579.593516 kJ/mol
# Density = 1.862614 g / cm^3
# Si number density = 18.668634 Si / 1000 Ang^3
#
#
#
# Elastic Constant Matrix: (Units=GPa)
#
#
# Indices 1 2 3 4 5 6 
#
# 1 104.8408 5.1604 69.5574 -0.0009 5.4252 0.0008
# 2 5.1604 8.5770 7.8651 -0.0009 4.5066 0.0001
# 3 69.5574 7.8651 138.0857 -0.0005 6.2059 0.0009
# 4 -0.0009 -0.0009 -0.0005 29.2757 0.0002 -11.0071
# 5 5.4252 4.5066 6.2059 0.0002 33.2531 0.0000
# 6 0.0008 0.0001 0.0009 -11.0071 0.0000 28.8185
#
#
#
# Elastic Compliance Matrix: (Units=1/GPa)
#
#
# Indices 1 2 3 4 5 6 
#
# 1 0.014381 -0.001719 -0.007111 0.000000 -0.000786 0.000000
# 2 -0.001719 0.131682 -0.005895 0.000005 -0.016466 0.000002
# 3 -0.007111 -0.005895 0.011165 0.000000 -0.000125 0.000000
# 4 0.000000 0.000005 0.000000 0.039886 -0.000001 0.015234
# 5 -0.000786 -0.016466 -0.000125 -0.000001 0.032456 0.000000
# 6 0.000000 0.000002 0.000000 0.015234 0.000000 0.040519
#
#
# Mechanical properties :
#
#
# Convention : Reuss Voigt Hill
#
# Bulk Modulus (GPa) = 7.82594 46.29658 27.06126
# Shear Modulus (GPa) = 14.61428 29.53082 22.07255
#
# Velocity S-wave (km/s) = 2.80094 3.98155 3.44224
# Velocity P-wave (km/s) = 3.82903 6.78159 5.50688
#
# Compressibility (1/GPa) = 0.12778024
#
# Stress axis : x y z
#
# Youngs Moduli (GPa) = 69.53389 7.59404 89.56330
#
# Poissons Ratio (x) = 0.01305 0.63689
# Poissons Ratio (y) = 0.11950 0.52794
# Poissons Ratio (z) = 0.49446 0.04476
#
# Static dielectric constant tensor:
#      x y z
#    x 1.628250 0.000000 0.014280 
#    y 0.000000 1.654370 0.000000 
#    z 0.014280 0.000000 1.647870 
# 
# From -- ./inp_files/319768.got.cif
#   From: 2010.05.17/outbox.cif.g08.bks.cpg/sg12_160_cif.got.tgz:319768.got - 2010.06.03 13:09:07.
