data_PCOD9181423
_publ_section_title
;
Structure prediction by ZEFSAII (Michael W. Deem and Ramdas Pophale) SiO2 
 PCOD9181423
Probable space group: C 2/M
;
_chemical_formula_sum "Si O2"
_cell_formula_units_Z 56
_cell_length_a 25.100692
_cell_length_b 15.225983
_cell_length_c 9.001717
_cell_angle_alpha 90.000000
_cell_angle_beta 114.158344
_cell_angle_gamma 90.000000
_cell_volume 3138.991855
_symmetry_space_group_name_H-M "C 2/M"
_symmetry_group_IT_number 12
_symmetry_cell_setting 'monoclinic'
loop_
_space_group_symop_operation_xyz
x,y,z
-x,y,-z
-x,-y,-z
x,-y,z
1/2+x,1/2+y,z
1/2-x,1/2+y,-z
1/2-x,1/2-y,-z
1/2+x,1/2-y,z
loop_
_atom_site_type_symbol
_atom_site_label
_atom_site_fract_x
_atom_site_fract_y
_atom_site_fract_z
Si Si1 0.424915 0.737382 0.571741
Si Si2 0.215737 0.601792 0.722928
Si Si3 0.661572 0.295879 0.115770
Si Si4 0.387385 0.203328 0.222478
Si Si5 0.057414 0.896690 0.166113
Si Si6 0.310521 0.800388 0.580134
Si Si7 0.497958 0.901876 0.317482
O O1 0.423146 0.743778 0.391613
O O2 0.450730 0.654759 0.687617
O O3 0.357980 0.743720 0.545123
O O4 0.455458 0.826506 0.666933
O O5 0.220415 0.500000 0.766626
O O6 0.277184 0.651661 0.818734
O O7 0.164288 0.648655 0.757383
O O8 0.197881 0.613080 0.528184
O O9 0.612282 0.353982 0.141748
O O10 0.670798 0.208063 0.227603
O O11 0.639336 0.267120 0.930004
O O12 0.434317 0.136015 0.206741
O O13 0.067206 0.000000 0.200515
O O14 0.000000 0.884803 0.000000
O O15 0.250000 0.750000 0.500000
O O16 0.500000 0.908002 0.500000
O O17 0.508983 0.000000 0.271902
#
# Coordination Sequence:
#
# PCOD9181423 Si02
#       7
#     8   8   8   8   8   8   8
#     4   9  18  32  52  76 102 136 172 212 263 312
#     4  10  19  33  52  74 101 135 175 214 257 314
#     4  10  19  34  54  75 101 134 173 215 264 316
#     4  10  19  32  53  77 107 139 169 210 267 320
#     4  10  20  35  54  74  99 136 180 222 264 311
#     4   8  17  32  51  71  94 129 170 207 250 304
#     4   9  17  30  50  76 104 135 170 205 250 313
#
# _framework density 17.840122999999998
#
# number of rings (size 3 to 8) (size 9 to 14) (size 15 to 20)
#    0.000    2.571    0.000    2.143    0.000    3.429 
#    0.000    2.857    0.000   14.571    0.000    0.000 
#    0.000    0.000    0.000    0.000    0.000    0.000 
#
# Total GULP energy -155877.340529 kJ/mol
# GULP energy per Si atom -5567.047876 kJ/mol
# Density = 1.779952 g / cm^3
# Si number density = 17.840123 Si / 1000 Ang^3
#
#
#
# Elastic Constant Matrix: (Units=GPa)
#
#
# Indices 1 2 3 4 5 6 
#
# 1 57.4310 28.4717 17.4262 0.0000 14.2741 0.0000
# 2 28.4717 112.7467 67.3702 0.0000 3.2173 0.0000
# 3 17.4262 67.3702 107.2932 0.0000 5.2470 0.0000
# 4 0.0000 0.0000 0.0000 21.6986 0.0000 0.7478
# 5 14.2741 3.2173 5.2470 0.0000 23.0106 0.0000
# 6 0.0000 0.0000 0.0000 0.7478 0.0000 16.2814
#
#
#
# Elastic Compliance Matrix: (Units=1/GPa)
#
#
# Indices 1 2 3 4 5 6 
#
# 1 0.023641 -0.005898 0.000547 0.000000 -0.013965 0.000000
# 2 -0.005898 0.015667 -0.009052 0.000000 0.003533 0.000000
# 3 0.000547 -0.009052 0.015038 0.000000 -0.002503 0.000000
# 4 0.000000 0.000000 0.000000 0.046159 0.000000 -0.002120
# 5 -0.013965 0.003533 -0.002503 0.000000 0.052198 0.000000
# 6 0.000000 0.000000 0.000000 -0.002120 0.000000 0.061517
#
#
# Mechanical properties :
#
#
# Convention : Reuss Voigt Hill
#
# Bulk Modulus (GPa) = 39.15619 56.00081 47.57850
# Shear Modulus (GPa) = 19.87745 23.14497 21.51121
#
# Velocity S-wave (km/s) = 3.34158 3.60579 3.47620
# Velocity P-wave (km/s) = 6.07324 6.98528 6.54517
#
# Compressibility (1/GPa) = 0.02553874
#
# Stress axis : x y z
#
# Youngs Moduli (GPa) = 42.29866 63.82748 66.49883
#
# Poissons Ratio (x) = 0.37648 -0.03636
# Poissons Ratio (y) = 0.24949 0.60197
# Poissons Ratio (z) = -0.02313 0.57779
#
# Static dielectric constant tensor:
#      x y z
#    x 1.627050 0.000000 -0.004560 
#    y 0.000000 1.601830 0.000000 
#    z -0.004560 0.000000 1.640620 
# 
# From -- ./inp_files/96256.got.cif
#   From: 2010.05.17/outbox.cif.g08.bks.cpg/sg12_49_cif.got.tgz:96256.got - 2010.06.03 13:09:07.
