data_PCOD9181244
_publ_section_title
;
Structure prediction by ZEFSAII (Michael W. Deem and Ramdas Pophale) SiO2 
 PCOD9181244
Probable space group: C 2/M
;
_chemical_formula_sum "Si O2"
_cell_formula_units_Z 48
_cell_length_a 21.104811
_cell_length_b 15.409308
_cell_length_c 9.889648
_cell_angle_alpha 90.000000
_cell_angle_beta 38.415393
_cell_angle_gamma 90.000000
_cell_volume 1998.423573
_symmetry_space_group_name_H-M "C 2/M"
_symmetry_group_IT_number 12
_symmetry_cell_setting 'monoclinic'
loop_
_space_group_symop_operation_xyz
x,y,z
-x,y,-z
-x,-y,-z
x,-y,z
1/2+x,1/2+y,z
1/2-x,1/2+y,-z
1/2-x,1/2-y,-z
1/2+x,1/2-y,z
loop_
_atom_site_type_symbol
_atom_site_label
_atom_site_fract_x
_atom_site_fract_y
_atom_site_fract_z
Si Si1 0.006916 0.500000 0.210501
Si Si2 0.894111 0.356276 0.547811
Si Si3 0.572088 0.398592 0.055793
Si Si4 0.174519 0.500000 0.713692
Si Si5 0.735937 0.353852 0.015685
Si Si6 0.579995 0.650301 0.480915
Si Si7 0.225757 0.844402 0.595727
O O1 0.982426 0.416050 0.342034
O O2 0.918808 0.500000 0.240587
O O3 0.115079 0.500000 0.954923
O O4 0.923107 0.255321 0.511651
O O5 0.804499 0.360680 0.586885
O O6 0.840191 0.387864 0.776225
O O7 0.580752 0.500000 0.011325
O O8 0.649446 0.374534 0.048824
O O9 0.462098 0.379448 0.304630
O O10 0.615445 0.350601 0.851491
O O11 0.243547 0.416551 0.564831
O O12 0.688942 0.379336 0.239030
O O13 0.750000 0.250000 0.000000
O O14 0.500000 0.619798 0.500000
O O15 0.250000 0.750000 0.500000
#
# Coordination Sequence:
#
# PCOD9181244 Si02
#       7
#     4   8   8   4   8   8   8
#     4   9  18  30  51  77  99 131 168 226 246 302
#     4   9  18  33  52  76 103 132 174 209 262 306
#     4  10  19  32  52  79 103 131 179 219 251 309
#     4   9  18  34  50  75 104 125 184 214 253 316
#     4   8  16  30  49  74 104 131 164 210 254 300
#     4   9  18  32  51  77 103 134 169 212 252 306
#     4  10  20  34  55  77 102 139 172 218 265 309
#
# _framework density 24.018933000000001
#
# number of rings (size 3 to 8) (size 9 to 14) (size 15 to 20)
#    0.000    2.833    0.833    0.000    5.833    3.000 
#    0.000    0.417    1.833    1.000    6.500    0.000 
#    0.000    0.000    0.000    0.000    0.000    0.000 
#
# Total GULP energy -134055.074413 kJ/mol
# GULP energy per Si atom -5585.628101 kJ/mol
# Density = 2.396427 g / cm^3
# Si number density = 24.018933 Si / 1000 Ang^3
#
#
#
# Elastic Constant Matrix: (Units=GPa)
#
#
# Indices 1 2 3 4 5 6 
#
# 1 82.5480 -3.6779 44.6924 0.0000 1.4351 0.0000
# 2 -3.6779 112.6156 90.0433 0.0000 11.0145 0.0000
# 3 44.6924 90.0433 289.8611 0.0000 34.4645 0.0000
# 4 0.0000 0.0000 0.0000 39.6737 0.0000 2.5685
# 5 1.4351 11.0145 34.4645 0.0000 25.0031 0.0000
# 6 0.0000 0.0000 0.0000 2.5685 0.0000 15.3566
#
#
#
# Elastic Compliance Matrix: (Units=1/GPa)
#
#
# Indices 1 2 3 4 5 6 
#
# 1 0.014022 0.002900 -0.003367 0.000000 0.002559 0.000000
# 2 0.002900 0.012414 -0.004346 0.000000 0.000355 0.000000
# 3 -0.003367 -0.004346 0.006062 0.000000 -0.006248 0.000000
# 4 0.000000 0.000000 0.000000 0.025482 0.000000 -0.004262
# 5 0.002559 0.000355 -0.006248 0.000000 0.048304 0.000000
# 6 0.000000 0.000000 0.000000 -0.004262 0.000000 0.065832
#
#
# Mechanical properties :
#
#
# Convention : Reuss Voigt Hill
#
# Bulk Modulus (GPa) = 43.72102 83.01557 63.36829
# Shear Modulus (GPa) = 26.40389 39.60446 33.00418
#
# Velocity S-wave (km/s) = 3.31916 4.06505 3.71089
# Velocity P-wave (km/s) = 5.73858 7.52798 6.69335
#
# Compressibility (1/GPa) = 0.02287229
#
# Stress axis : x y z
#
# Youngs Moduli (GPa) = 71.31738 80.55112 164.96276
#
# Poissons Ratio (x) = -0.23358 0.55543
# Poissons Ratio (y) = -0.20681 0.71689
# Poissons Ratio (z) = 0.24013 0.35006
#
# Static dielectric constant tensor:
#      x y z
#    x 1.922500 0.000000 0.002600 
#    y 0.000000 -0.911880 0.000000 
#    z 0.002600 0.000000 1.949580 
# 
# From -- ./inp_files/189382.got.cif
#   From: 2010.05.17/outbox.cif.g08.bks.cpg/sg12_95_cif.got.tgz:189382.got - 2010.06.03 13:09:07.
