data_PCOD9181521
_publ_section_title
;
Structure prediction by ZEFSAII (Michael W. Deem and Ramdas Pophale) SiO2 
 PCOD9181521
Probable space group: C 2/M
;
_chemical_formula_sum "Si O2"
_cell_formula_units_Z 48
_cell_length_a 18.215453
_cell_length_b 13.568997
_cell_length_c 16.211414
_cell_angle_alpha 90.000000
_cell_angle_beta 141.669372
_cell_angle_gamma 90.000000
_cell_volume 2485.073841
_symmetry_space_group_name_H-M "C 2/M"
_symmetry_group_IT_number 12
_symmetry_cell_setting 'monoclinic'
loop_
_space_group_symop_operation_xyz
x,y,z
-x,y,-z
-x,-y,-z
x,-y,z
1/2+x,1/2+y,z
1/2-x,1/2+y,-z
1/2-x,1/2-y,-z
1/2+x,1/2-y,z
loop_
_atom_site_type_symbol
_atom_site_label
_atom_site_fract_x
_atom_site_fract_y
_atom_site_fract_z
Si Si1 0.611591 0.386300 0.783581
Si Si2 0.325855 0.736122 0.697050
Si Si3 0.299497 0.763992 0.852960
Si Si4 0.456417 0.387954 0.087096
Si Si5 0.424770 0.784708 0.610768
Si Si6 0.089493 0.388688 0.651237
O O1 0.593113 0.500000 0.742756
O O2 0.732858 0.343894 0.851262
O O3 0.607325 0.382961 0.879588
O O4 0.502892 0.314088 0.662683
O O5 0.329360 0.795799 0.785903
O O6 0.404643 0.637615 0.779936
O O7 0.387361 0.787380 0.672899
O O8 0.193088 0.715056 0.548677
O O9 0.200300 0.680905 0.751322
O O10 0.403312 0.702125 0.987732
O O11 0.440185 0.500000 0.041227
O O12 0.512118 0.872898 0.664754
O O13 0.126202 0.500000 0.671175
O O14 0.000000 0.359387 0.500000
#
# Coordination Sequence:
#
# PCOD9181521 Si02
#       6
#     8   8   8   8   8   8
#     4   9  20  38  60  81 106 145 192 235 274 320
#     4  10  20  34  53  76 111 148 178 220 273 325
#     4  11  20  34  57  82 112 143 183 230 275 326
#     4  10  21  36  56  85 115 147 183 223 278 338
#     4   9  19  37  54  75 110 145 180 226 276 324
#     4  10  19  32  53  79 106 139 179 225 276 325
#
# _framework density 19.315321000000001
#
# number of rings (size 3 to 8) (size 9 to 14) (size 15 to 20)
#    0.000    2.167    1.667    1.500    0.000    2.667 
#    0.000    5.000    0.000    3.000    0.000    0.000 
#    0.000    0.000    0.000    0.000    0.000    0.000 
#
# Total GULP energy -133750.086549 kJ/mol
# GULP energy per Si atom -5572.920273 kJ/mol
# Density = 1.927136 g / cm^3
# Si number density = 19.315321 Si / 1000 Ang^3
#
#
#
# Elastic Constant Matrix: (Units=GPa)
#
#
# Indices 1 2 3 4 5 6 
#
# 1 110.5165 19.0033 28.5930 0.0000 -7.5599 0.0000
# 2 19.0033 106.5444 -6.1472 0.0000 -19.5846 0.0000
# 3 28.5930 -6.1472 102.2961 0.0000 18.0254 0.0000
# 4 0.0000 0.0000 0.0000 19.1358 0.0000 -2.0787
# 5 -7.5599 -19.5846 18.0254 0.0000 31.9926 0.0000
# 6 0.0000 0.0000 0.0000 -2.0787 0.0000 8.5382
#
#
#
# Elastic Compliance Matrix: (Units=1/GPa)
#
#
# Indices 1 2 3 4 5 6 
#
# 1 0.010491 -0.001405 -0.003666 0.000000 0.003684 0.000000
# 2 -0.001405 0.010793 -0.000071 0.000000 0.006315 0.000000
# 3 -0.003666 -0.000071 0.012164 0.000000 -0.007763 0.000000
# 4 0.000000 0.000000 0.000000 0.053678 0.000000 0.013068
# 5 0.003684 0.006315 -0.007763 0.000000 0.040368 0.000000
# 6 0.000000 0.000000 0.000000 0.013068 0.000000 0.120302
#
#
# Mechanical properties :
#
#
# Convention : Reuss Voigt Hill
#
# Bulk Modulus (GPa) = 43.17367 44.69504 43.93435
# Shear Modulus (GPa) = 18.81105 30.46051 24.63578
#
# Velocity S-wave (km/s) = 3.12411 3.97547 3.57522
# Velocity P-wave (km/s) = 5.95096 6.65300 6.31175
#
# Compressibility (1/GPa) = 0.02316227
#
# Stress axis : x y z
#
# Youngs Moduli (GPa) = 95.32420 92.65123 82.21078
#
# Poissons Ratio (x) = 0.13021 0.30137
# Poissons Ratio (y) = 0.13397 0.00587
# Poissons Ratio (z) = 0.34944 0.00661
#
# Static dielectric constant tensor:
#      x y z
#    x 1.738980 0.000000 -0.027900 
#    y 0.000000 1.641650 0.000000 
#    z -0.027900 0.000000 1.695080 
# 
# From -- ./inp_files/225463.got.cif
#   From: 2010.05.17/outbox.cif.g08.bks.cpg/sg12_113_cif.got.tgz:225463.got - 2010.06.03 13:09:07.
