data_PCOD9181268
_publ_section_title
;
Structure prediction by ZEFSAII (Michael W. Deem and Ramdas Pophale) SiO2 
 PCOD9181268
Probable space group: C 2/M
;
_chemical_formula_sum "Si O2"
_cell_formula_units_Z 56
_cell_length_a 21.017644
_cell_length_b 8.762105
_cell_length_c 20.120590
_cell_angle_alpha 90.000000
_cell_angle_beta 58.972797
_cell_angle_gamma 90.000000
_cell_volume 3175.227376
_symmetry_space_group_name_H-M "C 2/M"
_symmetry_group_IT_number 12
_symmetry_cell_setting 'monoclinic'
loop_
_space_group_symop_operation_xyz
x,y,z
-x,y,-z
-x,-y,-z
x,-y,z
1/2+x,1/2+y,z
1/2-x,1/2+y,-z
1/2-x,1/2-y,-z
1/2+x,1/2-y,z
loop_
_atom_site_type_symbol
_atom_site_label
_atom_site_fract_x
_atom_site_fract_y
_atom_site_fract_z
Si Si1 0.845628 0.683372 0.164831
Si Si2 0.283788 0.816420 0.682526
Si Si3 0.704061 0.317286 0.585815
Si Si4 0.425975 0.824358 0.993741
Si Si5 0.486912 0.319247 0.167230
Si Si6 0.044758 0.314007 0.410532
Si Si7 0.538976 0.183301 0.678995
O O1 0.851812 0.500000 0.164930
O O2 0.767235 0.739335 0.234359
O O3 0.862890 0.728488 0.079143
O O4 0.910784 0.753198 0.175945
O O5 0.246434 0.781969 0.631612
O O6 0.369354 0.766356 0.635880
O O7 0.281601 0.000000 0.692703
O O8 0.698767 0.500000 0.582947
O O9 0.750000 0.250000 0.500000
O O10 0.622570 0.245657 0.631162
O O11 0.412503 0.000000 0.981048
O O12 0.500000 0.824216 0.000000
O O13 0.447115 0.725960 0.918627
O O14 0.479499 0.500000 0.176395
O O15 0.496643 0.246946 0.234364
O O16 0.044584 0.500000 0.412627
O O17 0.000000 0.261900 0.500000
O O18 0.004107 0.268719 0.364462
O O19 0.540373 0.000000 0.680770
#
# Coordination Sequence:
#
# PCOD9181268 Si02
#       7
#     8   8   8   8   8   8   8
#     4  10  19  32  52  79 111 144 179 219 272 325
#     4  10  20  35  56  80 108 141 182 226 269 323
#     4  11  22  35  54  80 108 139 176 224 277 326
#     4   8  16  30  48  74 108 143 177 217 266 324
#     4  11  20  31  50  79 112 144 180 222 268 321
#     4   9  19  37  58  79 104 142 186 225 271 327
#     4  11  21  35  57  80 108 143 181 226 272 325
#
# _framework density 17.636531999999999
#
# number of rings (size 3 to 8) (size 9 to 14) (size 15 to 20)
#    0.000    2.000    1.429    4.286    0.000    6.000 
#    0.000    1.429    0.000    3.857    0.000    0.000 
#    0.000    0.000    0.000    0.000    0.000    0.000 
#
# Total GULP energy -156280.137203 kJ/mol
# GULP energy per Si atom -5581.433472 kJ/mol
# Density = 1.759639 g / cm^3
# Si number density = 17.636532 Si / 1000 Ang^3
#
#
#
# Elastic Constant Matrix: (Units=GPa)
#
#
# Indices 1 2 3 4 5 6 
#
# 1 115.3961 42.3676 81.0637 0.0000 -1.4847 -0.0001
# 2 42.3676 52.3219 54.9287 0.0002 1.7673 0.0000
# 3 81.0637 54.9287 190.6093 0.0000 -5.8704 0.0000
# 4 0.0000 0.0002 0.0000 26.5163 0.0000 -7.2437
# 5 -1.4847 1.7673 -5.8704 0.0000 23.5771 0.0000
# 6 -0.0001 0.0000 0.0000 -7.2437 0.0000 14.7492
#
#
#
# Elastic Compliance Matrix: (Units=1/GPa)
#
#
# Indices 1 2 3 4 5 6 
#
# 1 0.014086 -0.007382 -0.003848 0.000000 0.000482 0.000000
# 2 -0.007382 0.031661 -0.006119 0.000000 -0.004362 0.000000
# 3 -0.003848 -0.006119 0.008720 0.000000 0.002387 0.000000
# 4 0.000000 0.000000 0.000000 0.043556 0.000000 0.021392
# 5 0.000482 -0.004362 0.002387 0.000000 0.043366 0.000000
# 6 0.000000 0.000000 0.000000 0.021392 0.000000 0.078306
#
#
# Mechanical properties :
#
#
# Convention : Reuss Voigt Hill
#
# Bulk Modulus (GPa) = 50.58626 79.44970 65.01798
# Shear Modulus (GPa) = 19.15837 24.96633 22.06235
#
# Velocity S-wave (km/s) = 3.29947 3.76653 3.54071
# Velocity P-wave (km/s) = 6.57725 8.00386 7.32537
#
# Compressibility (1/GPa) = 0.01976821
#
# Stress axis : x y z
#
# Youngs Moduli (GPa) = 70.99391 31.58459 114.68246
#
# Poissons Ratio (x) = 0.23316 0.44133
# Poissons Ratio (y) = 0.52409 0.70171
# Poissons Ratio (z) = 0.27320 0.19326
#
# Static dielectric constant tensor:
#      x y z
#    x 1.576140 0.000000 -0.007480 
#    y 0.000000 1.599380 0.000000 
#    z -0.007480 0.000000 1.620880 
# 
# From -- ./inp_files/280929.got.cif
#   From: 2010.05.17/outbox.cif.g08.bks.cpg/sg12_141_cif.got.tgz:280929.got - 2010.06.03 13:09:07.
