data_PCOD9181756
_publ_section_title
;
Structure prediction by ZEFSAII (Michael W. Deem and Ramdas Pophale) SiO2 
 PCOD9181756
Probable space group: C 2/M
;
_chemical_formula_sum "Si O2"
_cell_formula_units_Z 56
_cell_length_a 31.086652
_cell_length_b 8.856294
_cell_length_c 12.805510
_cell_angle_alpha 90.000000
_cell_angle_beta 105.700043
_cell_angle_gamma 90.000000
_cell_volume 3393.985739
_symmetry_space_group_name_H-M "C 2/M"
_symmetry_group_IT_number 12
_symmetry_cell_setting 'monoclinic'
loop_
_space_group_symop_operation_xyz
x,y,z
-x,y,-z
-x,-y,-z
x,-y,z
1/2+x,1/2+y,z
1/2-x,1/2+y,-z
1/2-x,1/2-y,-z
1/2+x,1/2-y,z
loop_
_atom_site_type_symbol
_atom_site_label
_atom_site_fract_x
_atom_site_fract_y
_atom_site_fract_z
Si Si1 0.952017 0.318037 0.015797
Si Si2 0.044916 0.319064 0.740128
Si Si3 0.297233 0.318335 0.409374
Si Si4 0.891366 0.817782 0.801150
Si Si5 0.551003 0.681930 0.365431
Si Si6 0.203300 0.181740 0.346328
Si Si7 0.107369 0.182332 0.609296
O O1 0.949932 0.500000 0.008989
O O2 0.949452 0.272954 0.135123
O O3 0.913554 0.249868 0.918440
O O4 0.000000 0.270673 0.000000
O O5 0.044230 0.500000 0.735040
O O6 0.083889 0.255012 0.693151
O O7 0.997510 0.255989 0.669101
O O8 0.294594 0.500000 0.403724
O O9 0.250402 0.249714 0.342098
O O10 0.303181 0.276319 0.535684
O O11 0.341363 0.271033 0.376008
O O12 0.921301 0.774557 0.720001
O O13 0.840426 0.769651 0.745929
O O14 0.891984 0.000000 0.807112
O O15 0.546113 0.500000 0.361580
O O16 0.578948 0.722303 0.486965
O O17 0.205732 0.000000 0.343829
O O18 0.106247 0.000000 0.617417
#
# Coordination Sequence:
#
# PCOD9181756 Si02
#       7
#     8   8   8   8   8   8   8
#     4  10  21  37  52  70 101 137 170 213 262 298
#     4  11  23  36  50  72 103 137 175 214 252 299
#     4   9  17  31  51  75 104 136 166 199 248 307
#     4  10  19  32  54  79 103 132 170 211 249 297
#     4  10  19  33  52  75 104 138 169 203 250 301
#     4   9  17  31  50  77 107 131 162 207 253 296
#     4  10  20  35  53  74 105 140 171 205 249 303
#
# _framework density 16.499773999999999
#
# number of rings (size 3 to 8) (size 9 to 14) (size 15 to 20)
#    0.000    2.143    2.857    0.857    0.000    4.857 
#    0.000    0.000    0.000    0.857    0.000    0.000 
#    0.000    0.000    0.000    0.000    0.000    0.000 
#
# Total GULP energy -156240.747297 kJ/mol
# GULP energy per Si atom -5580.026689 kJ/mol
# Density = 1.646222 g / cm^3
# Si number density = 16.499774 Si / 1000 Ang^3
#
#
#
# Elastic Constant Matrix: (Units=GPa)
#
#
# Indices 1 2 3 4 5 6 
#
# 1 178.0639 37.0734 77.5706 0.0000 7.2285 0.0000
# 2 37.0734 10.3144 22.7032 0.0000 -0.6003 0.0000
# 3 77.5706 22.7032 77.8104 0.0000 -0.0866 0.0000
# 4 0.0000 0.0000 0.0000 25.6406 0.0000 1.8274
# 5 7.2285 -0.6003 -0.0866 0.0000 31.1138 0.0000
# 6 0.0000 0.0000 0.0000 1.8274 0.0000 28.7570
#
#
#
# Elastic Compliance Matrix: (Units=1/GPa)
#
#
# Indices 1 2 3 4 5 6 
#
# 1 0.024226 -0.095964 0.003840 0.000000 -0.007469 0.000000
# 2 -0.095964 0.651903 -0.094503 0.000000 0.034609 0.000000
# 3 0.003840 -0.094503 0.036594 0.000000 -0.002614 0.000000
# 4 0.000000 0.000000 0.000000 0.039178 0.000000 -0.002490
# 5 -0.007469 0.034609 -0.002614 0.000000 0.034536 0.000000
# 6 0.000000 0.000000 0.000000 -0.002490 0.000000 0.034932
#
#
# Mechanical properties :
#
#
# Convention : Reuss Voigt Hill
#
# Bulk Modulus (GPa) = 2.94577 60.09812 31.52195
# Shear Modulus (GPa) = 3.82328 25.69172 14.75750
#
# Velocity S-wave (km/s) = 1.52388 3.95029 2.99391
# Velocity P-wave (km/s) = 2.21031 7.57027 5.57649
#
# Compressibility (1/GPa) = 0.33946968
#
# Stress axis : x y z
#
# Youngs Moduli (GPa) = 41.27746 1.53397 27.32676
#
# Poissons Ratio (x) = 0.14721 -0.10494
# Poissons Ratio (y) = 3.96116 2.58245
# Poissons Ratio (z) = -0.15851 0.14496
#
# Static dielectric constant tensor:
#      x y z
#    x 1.545940 0.000000 -0.001080 
#    y 0.000000 1.556140 0.000000 
#    z -0.001080 0.000000 1.534040 
# 
# From -- ./inp_files/186415.got.cif
#   From: 2010.05.17/outbox.cif.g08.bks.cpg/sg12_94_cif.got.tgz:186415.got - 2010.06.03 13:09:07.
