data_PCOD9181582
_publ_section_title
;
Structure prediction by ZEFSAII (Michael W. Deem and Ramdas Pophale) SiO2 
 PCOD9181582
Probable space group: C 2/M
;
_chemical_formula_sum "Si O2"
_cell_formula_units_Z 64
_cell_length_a 18.980737
_cell_length_b 12.210218
_cell_length_c 21.172912
_cell_angle_alpha 90.000000
_cell_angle_beta 136.472868
_cell_angle_gamma 90.000000
_cell_volume 3379.449026
_symmetry_space_group_name_H-M "C 2/M"
_symmetry_group_IT_number 12
_symmetry_cell_setting 'monoclinic'
loop_
_space_group_symop_operation_xyz
x,y,z
-x,y,-z
-x,-y,-z
x,-y,z
1/2+x,1/2+y,z
1/2-x,1/2+y,-z
1/2-x,1/2-y,-z
1/2+x,1/2-y,z
loop_
_atom_site_type_symbol
_atom_site_label
_atom_site_fract_x
_atom_site_fract_y
_atom_site_fract_z
Si Si1 0.103516 0.373653 0.105101
Si Si2 0.368784 0.129458 0.276968
Si Si3 0.215066 0.875582 0.554777
Si Si4 0.911559 0.289906 0.611559
Si Si5 0.922734 0.123121 0.729901
Si Si6 0.748956 0.778263 0.101541
Si Si7 0.871383 0.876070 0.064293
Si Si8 0.730871 0.252062 0.289941
O O1 0.091516 0.500000 0.117746
O O2 0.196228 0.360691 0.115788
O O3 0.141023 0.297637 0.187038
O O4 0.000000 0.342488 0.000000
O O5 0.490676 0.146767 0.351347
O O6 0.318950 0.191483 0.184431
O O7 0.316965 0.191950 0.302594
O O8 0.344898 0.000000 0.262366
O O9 0.140236 0.786714 0.474841
O O10 0.322420 0.861969 0.586310
O O11 0.230760 0.842688 0.638040
O O12 0.179085 0.000000 0.525191
O O13 0.946621 0.207814 0.690083
O O14 0.818234 0.158468 0.695302
O O15 0.010899 0.127877 0.839610
O O16 0.917444 0.000000 0.701368
O O17 0.810150 0.841837 0.087462
O O18 0.660690 0.708413 0.009951
O O19 0.844557 0.000000 0.028407
#
# Coordination Sequence:
#
# PCOD9181582 Si02
#       8
#     8   8   8   8   8   8   8   8
#     4  10  20  35  54  77 111 155 194 232 276 325
#     4  11  22  39  58  83 115 150 185 230 285 335
#     4  10  21  40  62  84 112 145 185 233 282 336
#     4  10  21  38  60  87 111 143 187 232 281 337
#     4  10  19  35  57  83 113 149 187 229 277 329
#     4  10  20  34  52  79 114 146 189 233 274 332
#     4  10  19  32  53  80 111 147 186 231 277 321
#     4  10  22  37  57  84 116 148 189 232 276 337
#
# _framework density 18.937999000000001
#
# number of rings (size 3 to 8) (size 9 to 14) (size 15 to 20)
#    0.000    1.875    1.250    3.000    0.000    0.500 
#    0.000    5.000    0.000    6.000    0.000    0.000 
#    0.000    0.000    0.000    0.000    0.000    0.000 
#
# Total GULP energy -178546.204286 kJ/mol
# GULP energy per Si atom -5579.568884 kJ/mol
# Density = 1.889489 g / cm^3
# Si number density = 18.937999 Si / 1000 Ang^3
#
#
#
# Elastic Constant Matrix: (Units=GPa)
#
#
# Indices 1 2 3 4 5 6 
#
# 1 52.1559 12.5512 4.7255 0.0000 2.5516 0.0000
# 2 12.5512 56.5367 0.0695 0.0000 2.5617 0.0000
# 3 4.7255 0.0695 57.9329 0.0000 2.2442 0.0000
# 4 0.0000 0.0000 0.0000 12.3630 0.0000 0.7275
# 5 2.5516 2.5617 2.2442 0.0000 22.9510 0.0000
# 6 0.0000 0.0000 0.0000 0.7275 0.0000 0.6541
#
#
#
# Elastic Compliance Matrix: (Units=1/GPa)
#
#
# Indices 1 2 3 4 5 6 
#
# 1 0.020473 -0.004470 -0.001602 0.000000 -0.001621 0.000000
# 2 -0.004470 0.018754 0.000405 0.000000 -0.001636 0.000000
# 3 -0.001602 0.000405 0.017452 0.000000 -0.001574 0.000000
# 4 0.000000 0.000000 0.000000 0.086551 0.000000 -0.096265
# 5 -0.001621 -0.001636 -0.001574 0.000000 0.044088 0.000000
# 6 0.000000 0.000000 0.000000 -0.096265 0.000000 1.635924
#
#
# Mechanical properties :
#
#
# Convention : Reuss Voigt Hill
#
# Bulk Modulus (GPa) = 22.05210 22.36868 22.21039
# Shear Modulus (GPa) = 2.70316 17.14557 9.92436
#
# Velocity S-wave (km/s) = 1.19602 3.01217 2.29169
# Velocity P-wave (km/s) = 3.68469 4.89232 4.33080
#
# Compressibility (1/GPa) = 0.04534715
#
# Stress axis : x y z
#
# Youngs Moduli (GPa) = 48.84401 53.32329 57.29847
#
# Poissons Ratio (x) = 0.23834 0.09178
# Poissons Ratio (y) = 0.21832 -0.02323
# Poissons Ratio (z) = 0.07824 -0.02162
#
# Static dielectric constant tensor:
#      x y z
#    x 1.635560 0.000000 0.005920 
#    y 0.000000 1.628790 0.000000 
#    z 0.005920 0.000000 1.663130 
# 
# From -- ./inp_files/250848.got.cif
#   From: 2010.05.17/outbox.cif.g08.bks.cpg/sg12_126_cif.got.tgz:250848.got - 2010.06.03 13:09:07.
