data_PCOD9181182
_publ_section_title
;
Structure prediction by ZEFSAII (Michael W. Deem and Ramdas Pophale) SiO2 
 PCOD9181182
Probable space group: C 2/M
;
_chemical_formula_sum "Si O2"
_cell_formula_units_Z 56
_cell_length_a 24.255523
_cell_length_b 20.108640
_cell_length_c 19.260930
_cell_angle_alpha 90.000000
_cell_angle_beta 159.585686
_cell_angle_gamma 90.000000
_cell_volume 3276.836587
_symmetry_space_group_name_H-M "C 2/M"
_symmetry_group_IT_number 12
_symmetry_cell_setting 'monoclinic'
loop_
_space_group_symop_operation_xyz
x,y,z
-x,y,-z
-x,-y,-z
x,-y,z
1/2+x,1/2+y,z
1/2-x,1/2+y,-z
1/2-x,1/2-y,-z
1/2+x,1/2-y,z
loop_
_atom_site_type_symbol
_atom_site_label
_atom_site_fract_x
_atom_site_fract_y
_atom_site_fract_z
Si Si1 0.110489 0.638192 0.994026
Si Si2 0.904205 0.290371 0.660067
Si Si3 0.634698 0.000000 0.103658
Si Si4 0.677222 0.317478 0.008262
Si Si5 0.897941 0.132165 0.226694
Si Si6 0.529168 0.500000 0.450644
Si Si7 0.143657 0.776142 0.115307
Si Si8 0.041499 0.272728 0.426080
O O1 0.128943 0.566953 0.051279
O O2 0.242793 0.643625 0.090387
O O3 0.130730 0.700193 0.070668
O O4 0.942913 0.650134 0.758173
O O5 0.750000 0.250000 0.500000
O O6 0.896296 0.307911 0.570386
O O7 0.058756 0.242715 0.847637
O O8 0.785458 0.000000 0.330511
O O9 0.500000 0.000000 0.000000
O O10 0.630620 0.326056 0.033950
O O11 0.863278 0.298688 0.229301
O O12 0.646296 0.367322 0.907435
O O13 0.965940 0.064428 0.337060
O O14 0.015941 0.193805 0.381584
O O15 0.500000 0.500000 0.500000
O O16 0.319660 0.782184 0.354621
O O17 0.000000 0.785761 0.000000
#
# Coordination Sequence:
#
# PCOD9181182 Si02
#       8
#     8   8   4   8   8   4   8   8
#     4  11  20  37  53  75 115 149 186 227 271 334
#     4  10  19  32  52  77 106 143 184 231 286 329
#     4  12  26  38  52  80 117 153 187 218 268 327
#     4  10  20  34  52  75 105 143 181 226 279 339
#     4  11  20  36  55  81 105 146 193 225 273 319
#     4  12  24  36  60  84 109 150 194 228 250 323
#     4  11  22  32  50  82 111 140 180 230 288 333
#     4  11  18  32  54  76 106 141 181 228 276 334
#
# _framework density 17.089653999999999
#
# number of rings (size 3 to 8) (size 9 to 14) (size 15 to 20)
#    0.000    1.143    5.714    4.286    0.000    2.286 
#    0.000    0.000    0.000    0.000    0.000    3.500 
#    0.000    0.000    0.000    0.429    0.000    0.143 
#
# Total GULP energy -155927.719731 kJ/mol
# GULP energy per Si atom -5568.847133 kJ/mol
# Density = 1.705076 g / cm^3
# Si number density = 17.089654 Si / 1000 Ang^3
#
#
#
# Elastic Constant Matrix: (Units=GPa)
#
#
# Indices 1 2 3 4 5 6 
#
# 1 129.1706 29.5376 59.4483 0.0002 -7.9196 0.0000
# 2 29.5376 57.7429 52.2501 0.0001 -9.1374 0.0000
# 3 59.4483 52.2501 99.4570 0.0003 -12.2126 0.0000
# 4 0.0002 0.0001 0.0003 27.7437 0.0002 -5.7606
# 5 -7.9196 -9.1374 -12.2126 0.0002 38.6773 0.0000
# 6 0.0000 0.0000 0.0000 -5.7606 0.0000 10.3463
#
#
#
# Elastic Compliance Matrix: (Units=1/GPa)
#
#
# Indices 1 2 3 4 5 6 
#
# 1 0.010692 0.000618 -0.006688 0.000000 0.000223 0.000000
# 2 0.000618 0.033265 -0.017545 0.000000 0.002445 0.000000
# 3 -0.006688 -0.017545 0.023504 0.000000 0.001907 0.000000
# 4 0.000000 0.000000 0.000000 0.040756 0.000000 0.022692
# 5 0.000223 0.002445 0.001907 0.000000 0.027081 0.000000
# 6 0.000000 0.000000 0.000000 0.022692 0.000000 0.109287
#
#
# Mechanical properties :
#
#
# Convention : Reuss Voigt Hill
#
# Bulk Modulus (GPa) = 49.43033 63.20474 56.31753
# Shear Modulus (GPa) = 16.74711 25.02909 20.88810
#
# Velocity S-wave (km/s) = 3.13382 3.83113 3.49988
# Velocity P-wave (km/s) = 6.48701 7.52559 7.02552
#
# Compressibility (1/GPa) = 0.02023049
#
# Stress axis : x y z
#
# Youngs Moduli (GPa) = 93.52580 30.06156 42.54623
#
# Poissons Ratio (x) = -0.01858 0.28456
# Poissons Ratio (y) = -0.05779 0.74647
# Poissons Ratio (z) = 0.62552 0.52743
#
# Static dielectric constant tensor:
#      x y z
#    x 1.631470 0.000000 -0.025410 
#    y 0.000000 1.436580 0.000000 
#    z -0.025410 0.000000 1.594870 
# 
# From -- ./inp_files/290869.got.cif
#   From: 2010.05.17/outbox.cif.g08.bks.cpg/sg12_146_cif.got.tgz:290869.got - 2010.06.03 13:09:07.
