data_PCOD9181445
_publ_section_title
;
Structure prediction by ZEFSAII (Michael W. Deem and Ramdas Pophale) SiO2 
 PCOD9181445
Probable space group: C 2/M
;
_chemical_formula_sum "Si O2"
_cell_formula_units_Z 32
_cell_length_a 15.915780
_cell_length_b 12.059788
_cell_length_c 13.004833
_cell_angle_alpha 90.000000
_cell_angle_beta 153.487131
_cell_angle_gamma 90.000000
_cell_volume 1114.282753
_symmetry_space_group_name_H-M "C 2/M"
_symmetry_group_IT_number 12
_symmetry_cell_setting 'monoclinic'
loop_
_space_group_symop_operation_xyz
x,y,z
-x,y,-z
-x,-y,-z
x,-y,z
1/2+x,1/2+y,z
1/2-x,1/2+y,-z
1/2-x,1/2-y,-z
1/2+x,1/2-y,z
loop_
_atom_site_type_symbol
_atom_site_label
_atom_site_fract_x
_atom_site_fract_y
_atom_site_fract_z
Si Si1 0.916788 0.116485 0.694345
Si Si2 0.519678 0.155921 0.740883
Si Si3 0.198011 0.376556 0.157391
Si Si4 0.745480 0.624671 0.205353
O O1 0.695438 0.120760 0.473216
O O2 0.994438 0.212756 0.710180
O O3 0.964672 0.000000 0.699276
O O4 0.032956 0.127767 0.927022
O O5 0.616945 0.118022 0.743631
O O6 0.641180 0.128451 0.974587
O O7 0.284556 0.500000 0.272279
O O8 0.278347 0.253467 0.277492
O O9 0.000000 0.379247 0.000000
O O10 0.764919 0.500000 0.275774
#
# Coordination Sequence:
#
# PCOD9181445 Si02
#       4
#     8   8   8   8
#     4   9  17  29  49  77 103 128 165 212 256 295
#     4  10  19  32  53  78 102 130 168 213 254 294
#     4  10  20  33  51  76 106 138 168 202 250 305
#     4  10  20  34  55  79 100 129 171 214 252 294
#
# _framework density 28.718022999999999
#
# number of rings (size 3 to 8) (size 9 to 14) (size 15 to 20)
#    0.000    2.250    0.000    5.250    0.000    3.500 
#    0.000    0.000    0.000   24.000    0.000   89.250 
#    0.000    0.000    0.000    0.000    0.000    0.000 
#
# Total GULP energy -89523.253904 kJ/mol
# GULP energy per Si atom -5595.203369 kJ/mol
# Density = 2.865266 g / cm^3
# Si number density = 28.718023 Si / 1000 Ang^3
#
#
#
# Elastic Constant Matrix: (Units=GPa)
#
#
# Indices 1 2 3 4 5 6 
#
# 1 112.9995 45.6732 32.4102 0.0001 7.3845 0.0000
# 2 45.6732 364.1200 22.1176 -0.0001 -7.3803 -0.0001
# 3 32.4102 22.1176 126.6613 -0.0003 6.9297 -0.0002
# 4 0.0001 -0.0001 -0.0003 27.0806 -0.0001 15.5768
# 5 7.3845 -7.3803 6.9297 -0.0001 50.2183 -0.0001
# 6 0.0000 -0.0001 -0.0002 15.5768 -0.0001 43.5499
#
#
#
# Elastic Compliance Matrix: (Units=1/GPa)
#
#
# Indices 1 2 3 4 5 6 
#
# 1 0.010061 -0.001149 -0.002301 0.000000 -0.001331 0.000000
# 2 -0.001149 0.002919 -0.000250 0.000000 0.000632 0.000000
# 3 -0.002301 -0.000250 0.008576 0.000000 -0.000882 0.000000
# 4 0.000000 0.000000 0.000000 0.046492 0.000000 -0.016629
# 5 -0.001331 0.000632 -0.000882 0.000000 0.020323 0.000000
# 6 0.000000 0.000000 0.000000 -0.016629 0.000000 0.028910
#
#
# Mechanical properties :
#
#
# Convention : Reuss Voigt Hill
#
# Bulk Modulus (GPa) = 70.64811 89.35365 80.00088
# Shear Modulus (GPa) = 38.64011 57.74176 48.19094
#
# Velocity S-wave (km/s) = 3.67209 4.48889 4.10087
# Velocity P-wave (km/s) = 6.52939 7.61896 7.09512
#
# Compressibility (1/GPa) = 0.01415466
#
# Stress axis : x y z
#
# Youngs Moduli (GPa) = 99.39362 342.64039 116.60770
#
# Poissons Ratio (x) = 0.39376 0.26831
# Poissons Ratio (y) = 0.11422 0.02917
# Poissons Ratio (z) = 0.22870 0.08572
#
# Static dielectric constant tensor:
#      x y z
#    x 2.175090 0.000000 -0.011030 
#    y 0.000000 2.247850 0.000000 
#    z -0.011030 0.000000 2.233690 
# 
# From -- ./inp_files/223606.got.cif
#   From: 2010.05.17/outbox.cif.g08.bks.cpg/sg12_112_cif.got.tgz:223606.got - 2010.06.03 13:09:07.
