data_PCOD9181054
_publ_section_title
;
Structure prediction by ZEFSAII (Michael W. Deem and Ramdas Pophale) SiO2 
 PCOD9181054
Probable space group: C 2/M
;
_chemical_formula_sum "Si O2"
_cell_formula_units_Z 64
_cell_length_a 5.285793
_cell_length_b 33.340711
_cell_length_c 19.623438
_cell_angle_alpha 90.000000
_cell_angle_beta 82.407236
_cell_angle_gamma 90.000000
_cell_volume 3427.958243
_symmetry_space_group_name_H-M "C 2/M"
_symmetry_group_IT_number 12
_symmetry_cell_setting 'monoclinic'
loop_
_space_group_symop_operation_xyz
x,y,z
-x,y,-z
-x,-y,-z
x,-y,z
1/2+x,1/2+y,z
1/2-x,1/2+y,-z
1/2-x,1/2-y,-z
1/2+x,1/2-y,z
loop_
_atom_site_type_symbol
_atom_site_label
_atom_site_fract_x
_atom_site_fract_y
_atom_site_fract_z
Si Si1 0.190143 0.141986 0.725898
Si Si2 0.619743 0.587082 0.861558
Si Si3 0.590693 0.735721 0.727327
Si Si4 0.354302 0.047088 0.183668
Si Si5 0.457288 0.231016 0.882202
Si Si6 0.717693 0.898907 0.679291
Si Si7 0.773899 0.546706 0.454059
Si Si8 0.261452 0.845545 0.957629
O O1 0.139920 0.118528 0.798181
O O2 0.478063 0.131226 0.694267
O O3 0.139292 0.188973 0.736877
O O4 0.983737 0.124156 0.680508
O O5 0.345609 0.566242 0.862930
O O6 0.673390 0.613347 0.925956
O O7 0.852983 0.556183 0.845604
O O8 0.843510 0.756579 0.691078
O O9 0.520944 0.758368 0.801309
O O10 0.305672 0.069805 0.256907
O O11 0.308239 0.000000 0.191724
O O12 0.719264 0.240983 0.911228
O O13 0.366174 0.186095 0.898211
O O14 0.706260 0.923791 0.610353
O O15 0.500000 0.551344 0.500000
O O16 0.795123 0.500000 0.430817
O O17 0.000000 0.553942 0.500000
O O18 0.500000 0.851017 0.000000
O O19 0.000000 0.829011 0.000000
#
# Coordination Sequence:
#
# PCOD9181054 Si02
#       8
#     8   8   8   8   8   8   8   8
#     4  10  20  34  54  79 108 146 181 225 276 318
#     4  10  21  37  55  76 104 136 174 221 277 328
#     4  10  19  32  52  75 106 140 172 214 272 327
#     4  10  20  35  59  83 104 134 174 226 276 319
#     4  10  21  35  52  74 102 135 170 208 254 316
#     4  10  20  34  54  83 117 146 185 223 258 316
#     4  10  20  34  54  82 121 163 191 216 257 311
#     4  12  25  39  56  76 104 141 179 216 264 336
#
# _framework density 18.670006999999998
#
# number of rings (size 3 to 8) (size 9 to 14) (size 15 to 20)
#    0.000    1.750    0.000    5.250    0.000    7.500 
#    0.000    3.750    0.000    7.500    0.000    0.000 
#    0.000   35.000    0.000    0.000    0.000    0.000 
#
# Total GULP energy -178622.521037 kJ/mol
# GULP energy per Si atom -5581.953782 kJ/mol
# Density = 1.862751 g / cm^3
# Si number density = 18.670007 Si / 1000 Ang^3
#
#
#
# Elastic Constant Matrix: (Units=GPa)
#
#
# Indices 1 2 3 4 5 6 
#
# 1 126.6565 12.8209 15.2466 0.0000 27.1107 0.0000
# 2 12.8209 75.8672 17.6520 0.0000 15.8813 0.0000
# 3 15.2466 17.6520 50.8411 0.0000 15.3414 0.0000
# 4 0.0000 0.0000 0.0000 21.4680 0.0000 1.8654
# 5 27.1107 15.8813 15.3414 0.0000 17.3467 0.0000
# 6 0.0000 0.0000 0.0000 1.8654 0.0000 21.2934
#
#
#
# Elastic Compliance Matrix: (Units=1/GPa)
#
#
# Indices 1 2 3 4 5 6 
#
# 1 0.012469 0.002281 0.002700 0.000000 -0.023963 0.000000
# 2 0.002281 0.016816 -0.001093 0.000000 -0.017994 0.000000
# 3 0.002700 -0.001093 0.027567 0.000000 -0.027599 0.000000
# 4 0.000000 0.000000 0.000000 0.046938 0.000000 -0.004112
# 5 -0.023963 -0.017994 -0.027599 0.000000 0.135981 0.000000
# 6 0.000000 0.000000 0.000000 -0.004112 0.000000 0.047323
#
#
# Mechanical properties :
#
#
# Convention : Reuss Voigt Hill
#
# Bulk Modulus (GPa) = 15.47329 38.31151 26.89240
# Shear Modulus (GPa) = 16.61894 25.86465 21.24180
#
# Velocity S-wave (km/s) = 2.98676 3.72608 3.37671
# Velocity P-wave (km/s) = 4.49445 6.25112 5.44410
#
# Compressibility (1/GPa) = 0.06462749
#
# Stress axis : x y z
#
# Youngs Moduli (GPa) = 80.20083 59.46560 36.27517
#
# Poissons Ratio (x) = -0.13563 -0.09793
# Poissons Ratio (y) = -0.18293 0.03965
# Poissons Ratio (z) = -0.21652 0.06499
#
# Static dielectric constant tensor:
#      x y z
#    x 1.707410 0.000000 0.018950 
#    y 0.000000 1.630270 0.000000 
#    z 0.018950 0.000000 1.653120 
# 
# From -- ./inp_files/298300.got.cif
#   From: 2010.05.17/outbox.cif.g08.bks.cpg/sg12_150_cif.got.tgz:298300.got - 2010.06.03 13:09:07.
