data_PCOD9181708
_publ_section_title
;
Structure prediction by ZEFSAII (Michael W. Deem and Ramdas Pophale) SiO2 
 PCOD9181708
Probable space group: C 2/M
;
_chemical_formula_sum "Si O2"
_cell_formula_units_Z 48
_cell_length_a 17.799454
_cell_length_b 28.562735
_cell_length_c 9.295042
_cell_angle_alpha 90.000000
_cell_angle_beta 149.594292
_cell_angle_gamma 90.000000
_cell_volume 2391.723988
_symmetry_space_group_name_H-M "C 2/M"
_symmetry_group_IT_number 12
_symmetry_cell_setting 'monoclinic'
loop_
_space_group_symop_operation_xyz
x,y,z
-x,y,-z
-x,-y,-z
x,-y,z
1/2+x,1/2+y,z
1/2-x,1/2+y,-z
1/2-x,1/2-y,-z
1/2+x,1/2-y,z
loop_
_atom_site_type_symbol
_atom_site_label
_atom_site_fract_x
_atom_site_fract_y
_atom_site_fract_z
Si Si1 0.388732 0.949460 0.179956
Si Si2 0.833875 0.054785 0.659364
Si Si3 0.661766 0.202557 0.328087
Si Si4 0.687780 0.619927 0.938747
Si Si5 0.616728 0.121822 0.477909
Si Si6 0.857655 0.131307 0.466904
O O1 0.500000 0.952882 0.500000
O O2 0.460673 0.905894 0.213553
O O3 0.387948 0.000000 0.105888
O O4 0.227341 0.934815 0.972861
O O5 0.729410 0.083824 0.595220
O O6 0.821429 0.081777 0.485691
O O7 0.794277 0.000000 0.584428
O O8 0.000000 0.057934 0.000000
O O9 0.750000 0.250000 0.500000
O O10 0.627004 0.169120 0.405918
O O11 0.765747 0.170300 0.399217
O O12 0.500000 0.213961 0.000000
O O13 0.537105 0.632452 0.771551
O O14 0.674480 0.638160 0.754888
O O15 0.825145 0.633769 0.266300
#
# Coordination Sequence:
#
# PCOD9181708 Si02
#       6
#     8   8   8   8   8   8
#     4   9  18  32  55  88 124 166 210 250 304 372
#     4  10  19  32  53  85 124 171 223 266 310 372
#     4  11  26  44  71  96 124 161 215 268 328 392
#     4  10  20  36  62  87 125 171 201 263 313 385
#     4  10  20  38  64  86 125 169 215 262 328 371
#     4  10  22  39  60  89 129 161 214 260 330 372
#
# _framework density 20.069205
#
# number of rings (size 3 to 8) (size 9 to 14) (size 15 to 20)
#    0.000    2.000    1.667    1.500    2.333    2.000 
#    0.000    2.500   11.000    5.500    0.000    0.000 
#    0.000    0.000    0.000    0.000    0.000    0.000 
#
# Total GULP energy -133703.745410 kJ/mol
# GULP energy per Si atom -5570.989392 kJ/mol
# Density = 2.002353 g / cm^3
# Si number density = 20.069205 Si / 1000 Ang^3
#
#
#
# Elastic Constant Matrix: (Units=GPa)
#
#
# Indices 1 2 3 4 5 6 
#
# 1 69.7074 39.9530 39.4835 0.0000 1.5233 0.0000
# 2 39.9530 151.9938 57.3722 0.0000 4.0403 0.0000
# 3 39.4835 57.3722 96.0189 0.0000 15.0536 0.0000
# 4 0.0000 0.0000 0.0000 14.0490 0.0000 6.6585
# 5 1.5233 4.0403 15.0536 0.0000 43.0914 0.0000
# 6 0.0000 0.0000 0.0000 6.6585 0.0000 15.6010
#
#
#
# Elastic Compliance Matrix: (Units=1/GPa)
#
#
# Indices 1 2 3 4 5 6 
#
# 1 0.019682 -0.002654 -0.006810 0.000000 0.001932 0.000000
# 2 -0.002654 0.008897 -0.004346 0.000000 0.000778 0.000000
# 3 -0.006810 -0.004346 0.016621 0.000000 -0.005158 0.000000
# 4 0.000000 0.000000 0.000000 0.089229 0.000000 -0.038083
# 5 0.001932 0.000778 -0.005158 0.000000 0.024867 0.000000
# 6 0.000000 0.000000 0.000000 -0.038083 0.000000 0.080352
#
#
# Mechanical properties :
#
#
# Convention : Reuss Voigt Hill
#
# Bulk Modulus (GPa) = 56.89069 65.70416 61.29742
# Shear Modulus (GPa) = 18.30629 26.60904 22.45767
#
# Velocity S-wave (km/s) = 3.02347 3.64519 3.34879
# Velocity P-wave (km/s) = 6.37160 7.10819 6.74995
#
# Compressibility (1/GPa) = 0.01757757
#
# Stress axis : x y z
#
# Youngs Moduli (GPa) = 50.80691 112.39884 60.16555
#
# Poissons Ratio (x) = 0.29835 0.40975
# Poissons Ratio (y) = 0.13486 0.26151
# Poissons Ratio (z) = 0.34602 0.48854
#
# Static dielectric constant tensor:
#      x y z
#    x 1.775990 0.000000 -0.006730 
#    y 0.000000 1.696800 0.000000 
#    z -0.006730 0.000000 1.764920 
# 
# From -- ./inp_files/80854.got.cif
#   From: 2010.05.17/outbox.cif.g08.bks.cpg/sg12_41_cif.got.tgz:80854.got - 2010.06.03 13:09:07.
