data_PCOD9181336
_publ_section_title
;
Structure prediction by ZEFSAII (Michael W. Deem and Ramdas Pophale) SiO2 
 PCOD9181336
Probable space group: C 2/M
;
_chemical_formula_sum "Si O2"
_cell_formula_units_Z 64
_cell_length_a 30.716762
_cell_length_b 8.997479
_cell_length_c 15.311546
_cell_angle_alpha 90.000000
_cell_angle_beta 138.205913
_cell_angle_gamma 90.000000
_cell_volume 2820.242776
_symmetry_space_group_name_H-M "C 2/M"
_symmetry_group_IT_number 12
_symmetry_cell_setting 'monoclinic'
loop_
_space_group_symop_operation_xyz
x,y,z
-x,y,-z
-x,-y,-z
x,-y,z
1/2+x,1/2+y,z
1/2-x,1/2+y,-z
1/2-x,1/2-y,-z
1/2+x,1/2-y,z
loop_
_atom_site_type_symbol
_atom_site_label
_atom_site_fract_x
_atom_site_fract_y
_atom_site_fract_z
Si Si1 0.496636 0.824258 0.353917
Si Si2 0.668128 0.171611 0.036956
Si Si3 0.620720 0.321007 0.605518
Si Si4 0.064257 0.173106 0.997145
Si Si5 0.732121 0.327504 0.651054
Si Si6 0.336199 0.326810 0.691618
Si Si7 0.144553 0.823553 0.835218
Si Si8 0.558889 0.826099 0.255239
O O1 0.552035 0.761804 0.501011
O O2 0.429963 0.733097 0.262539
O O3 0.528950 0.802612 0.306479
O O4 0.484834 0.000000 0.349042
O O5 0.609365 0.272234 0.985120
O O6 0.685946 0.234176 0.968819
O O7 0.646830 0.000000 0.996845
O O8 0.721786 0.177027 0.193306
O O9 0.611430 0.500000 0.584314
O O10 0.664545 0.268462 0.589492
O O11 0.656901 0.294484 0.751469
O O12 0.998293 0.266403 0.893798
O O13 0.046905 0.000000 0.963515
O O14 0.110459 0.191437 0.150319
O O15 0.724122 0.500000 0.615408
O O16 0.770712 0.247029 0.631518
O O17 0.325013 0.500000 0.661162
O O18 0.373500 0.256176 0.665487
O O19 0.149879 0.000000 0.858074
O O20 0.569254 0.000000 0.256677
#
# Coordination Sequence:
#
# PCOD9181336 Si02
#       8
#     8   8   8   8   8   8   8   8
#     4  11  24  40  59  86 117 149 192 242 288 340
#     4  10  19  33  56  86 118 153 188 231 285 342
#     4  10  23  42  62  84 111 152 198 238 288 345
#     4  10  19  32  52  81 117 152 185 230 284 340
#     4   9  20  40  61  82 116 155 193 236 283 340
#     4  10  21  35  55  85 116 148 191 235 280 339
#     4  11  22  37  60  88 118 150 188 236 291 348
#     4  11  22  35  54  82 115 151 190 232 286 346
#
# _framework density 22.693083000000001
#
# number of rings (size 3 to 8) (size 9 to 14) (size 15 to 20)
#    0.000    1.750    1.250    3.000    0.000    8.500 
#    0.000    0.625    0.000    0.000    0.000    0.000 
#    0.000    0.000    0.000    0.000    0.000    0.000 
#
# Total GULP energy -179002.670648 kJ/mol
# GULP energy per Si atom -5593.833458 kJ/mol
# Density = 2.264143 g / cm^3
# Si number density = 22.693083 Si / 1000 Ang^3
#
#
#
# Elastic Constant Matrix: (Units=GPa)
#
#
# Indices 1 2 3 4 5 6 
#
# 1 114.0178 34.1777 5.0685 0.0000 -3.9204 0.0000
# 2 34.1777 41.2855 1.6212 0.0000 -13.0103 0.0000
# 3 5.0685 1.6212 71.4503 0.0000 -13.4620 0.0000
# 4 0.0000 0.0000 0.0000 14.2119 0.0000 -9.1634
# 5 -3.9204 -13.0103 -13.4620 0.0000 37.1478 0.0000
# 6 0.0000 0.0000 0.0000 -9.1634 0.0000 23.0068
#
#
#
# Elastic Compliance Matrix: (Units=1/GPa)
#
#
# Indices 1 2 3 4 5 6 
#
# 1 0.011950 -0.010770 -0.001155 0.000000 -0.002930 0.000000
# 2 -0.010770 0.037041 0.002311 0.000000 0.012674 0.000000
# 3 -0.001155 0.002311 0.015192 0.000000 0.006193 0.000000
# 4 0.000000 0.000000 0.000000 0.094677 0.000000 0.037709
# 5 -0.002930 0.012674 0.006193 0.000000 0.033293 0.000000
# 6 0.000000 0.000000 0.000000 0.037709 0.000000 0.058484
#
#
# Mechanical properties :
#
#
# Convention : Reuss Voigt Hill
#
# Bulk Modulus (GPa) = 22.24480 34.27651 28.26065
# Shear Modulus (GPa) = 17.55309 27.26571 22.40940
#
# Velocity S-wave (km/s) = 2.78420 3.47002 3.14586
# Velocity P-wave (km/s) = 4.48993 5.58497 5.06712
#
# Compressibility (1/GPa) = 0.04495433
#
# Stress axis : x y z
#
# Youngs Moduli (GPa) = 83.68452 26.99735 65.82373
#
# Poissons Ratio (x) = 0.29077 0.07605
# Poissons Ratio (y) = 0.90130 -0.15215
# Poissons Ratio (z) = 0.09668 -0.06240
#
# Static dielectric constant tensor:
#      x y z
#    x 1.850780 0.000000 -0.034580 
#    y 0.000000 1.750140 0.000000 
#    z -0.034580 0.000000 1.882670 
# 
# From -- ./inp_files/249980.got.cif
#   From: 2010.05.17/outbox.cif.g08.bks.cpg/sg12_125_cif.got.tgz:249980.got - 2010.06.03 13:09:07.
