data_PCOD9181869
_publ_section_title
;
Structure prediction by ZEFSAII (Michael W. Deem and Ramdas Pophale) SiO2 
 PCOD9181869
Probable space group: C 2/M
;
_chemical_formula_sum "Si O2"
_cell_formula_units_Z 48
_cell_length_a 29.404257
_cell_length_b 7.783904
_cell_length_c 17.955629
_cell_angle_alpha 90.000000
_cell_angle_beta 144.488940
_cell_angle_gamma 90.000000
_cell_volume 2387.150756
_symmetry_space_group_name_H-M "C 2/M"
_symmetry_group_IT_number 12
_symmetry_cell_setting 'monoclinic'
loop_
_space_group_symop_operation_xyz
x,y,z
-x,y,-z
-x,-y,-z
x,-y,z
1/2+x,1/2+y,z
1/2-x,1/2+y,-z
1/2-x,1/2-y,-z
1/2+x,1/2-y,z
loop_
_atom_site_type_symbol
_atom_site_label
_atom_site_fract_x
_atom_site_fract_y
_atom_site_fract_z
Si Si1 0.460349 0.210587 0.869700
Si Si2 0.517001 0.793364 0.783472
Si Si3 0.340741 0.201739 0.127122
Si Si4 0.634876 0.708058 0.519307
Si Si5 0.910535 0.207504 0.379333
Si Si6 0.781702 0.706410 0.623380
O O1 0.501475 0.268135 0.847412
O O2 0.370138 0.269212 0.749602
O O3 0.461071 0.000000 0.869320
O O4 0.500000 0.263612 0.000000
O O5 0.594973 0.724086 0.845695
O O6 0.440629 0.756597 0.630824
O O7 0.523307 0.000000 0.796536
O O8 0.369618 0.239645 0.248913
O O9 0.343706 0.000000 0.118953
O O10 0.250000 0.250000 0.000000
O O11 0.636441 0.500000 0.521646
O O12 0.627106 0.767674 0.593802
O O13 0.715705 0.771854 0.591739
O O14 0.000000 0.267621 0.500000
O O15 0.910895 0.000000 0.380821
O O16 0.784953 0.500000 0.635580
O O17 0.750000 0.750000 0.500000
#
# Coordination Sequence:
#
# PCOD9181869 Si02
#       6
#     8   8   8   8   8   8
#     4   9  18  33  54  80 109 142 181 225 273 325
#     4  10  20  35  57  82 107 144 187 232 280 334
#     4  11  24  39  58  84 115 151 191 236 286 342
#     4  10  20  33  55  85 113 147 186 230 281 333
#     4  10  20  36  58  84 114 149 189 234 282 331
#     4  10  19  32  54  82 109 142 182 228 274 325
#
# _framework density 20.107654
#
# number of rings (size 3 to 8) (size 9 to 14) (size 15 to 20)
#    0.000    2.000    3.333    0.500    0.000    3.000 
#    0.000    5.000    0.000    2.000    0.000    0.000 
#    0.000    0.000    0.000    0.000    0.000    0.000 
#
# Total GULP energy -133956.024705 kJ/mol
# GULP energy per Si atom -5581.501029 kJ/mol
# Density = 2.006189 g / cm^3
# Si number density = 20.107654 Si / 1000 Ang^3
#
#
#
# Elastic Constant Matrix: (Units=GPa)
#
#
# Indices 1 2 3 4 5 6 
#
# 1 249.8233 18.2791 129.7235 0.0000 16.1916 0.0000
# 2 18.2791 23.7773 4.0388 0.0000 -0.8295 0.0000
# 3 129.7235 4.0388 197.1534 0.0000 5.0491 0.0000
# 4 0.0000 0.0000 0.0000 27.6856 0.0000 -0.8419
# 5 16.1916 -0.8295 5.0491 0.0000 20.9054 0.0000
# 6 0.0000 0.0000 0.0000 -0.8419 0.0000 -4.5697
#
#
#
# Elastic Compliance Matrix: (Units=1/GPa)
#
#
# Indices 1 2 3 4 5 6 
#
# 1 0.006878 -0.004710 -0.004314 0.000000 -0.004472 0.000000
# 2 -0.004710 0.045505 0.002040 0.000000 0.004961 0.000000
# 3 -0.004314 0.002040 0.007830 0.000000 0.001531 0.000000
# 4 0.000000 0.000000 0.000000 0.035919 0.000000 -0.006617
# 5 -0.004472 0.004961 0.001531 0.000000 0.051125 0.000000
# 6 0.000000 0.000000 0.000000 -0.006617 0.000000 -0.217613
#
#
# Mechanical properties :
#
#
# Convention : Reuss Voigt Hill
#
# Bulk Modulus (GPa) = 21.62495 86.09297 53.85896
# Shear Modulus (GPa) = -122.02796 30.05176 -45.98810
#
# Velocity S-wave (km/s) = -7.79866 3.87013 -4.78755
# Velocity P-wave (km/s) = 8.38535 7.92966 1.92804
#
# Compressibility (1/GPa) = 0.04624288
#
# Stress axis : x y z
#
# Youngs Moduli (GPa) = 145.40088 21.97583 127.71543
#
# Poissons Ratio (x) = 0.10351 0.55100
# Poissons Ratio (y) = 0.68489 -0.26055
# Poissons Ratio (z) = 0.62730 -0.04483
#
# Static dielectric constant tensor:
#      x y z
#    x 1.478080 0.000020 0.033290 
#    y 0.000020 -16.722970 0.000000 
#    z 0.033290 0.000000 1.640000 
# 
# From -- ./inp_files/274581.got.cif
#   From: 2010.05.17/outbox.cif.g08.bks.cpg/sg12_138_cif.got.tgz:274581.got - 2010.06.03 13:09:07.
