data_PCOD9181578
_publ_section_title
;
Structure prediction by ZEFSAII (Michael W. Deem and Ramdas Pophale) SiO2 
 PCOD9181578
Probable space group: C 2/M
;
_chemical_formula_sum "Si O2"
_cell_formula_units_Z 48
_cell_length_a 19.458940
_cell_length_b 13.155475
_cell_length_c 16.374658
_cell_angle_alpha 90.000000
_cell_angle_beta 37.923723
_cell_angle_gamma 90.000000
_cell_volume 2576.314569
_symmetry_space_group_name_H-M "C 2/M"
_symmetry_group_IT_number 12
_symmetry_cell_setting 'monoclinic'
loop_
_space_group_symop_operation_xyz
x,y,z
-x,y,-z
-x,-y,-z
x,-y,z
1/2+x,1/2+y,z
1/2-x,1/2+y,-z
1/2-x,1/2-y,-z
1/2+x,1/2-y,z
loop_
_atom_site_type_symbol
_atom_site_label
_atom_site_fract_x
_atom_site_fract_y
_atom_site_fract_z
Si Si1 0.364564 0.303333 0.290205
Si Si2 0.836831 0.618630 0.426495
Si Si3 0.377335 0.672549 0.964777
Si Si4 0.315168 0.885585 0.967089
Si Si5 0.540463 0.881082 0.335597
Si Si6 0.742197 0.118368 0.249563
O O1 0.289587 0.363554 0.426473
O O2 0.364182 0.188082 0.323460
O O3 0.490864 0.341858 0.164789
O O4 0.301423 0.318704 0.264351
O O5 0.859616 0.500000 0.391528
O O6 0.918287 0.656274 0.424243
O O7 0.349979 0.793405 0.992370
O O8 0.310587 0.632018 0.948113
O O9 0.322525 0.621530 0.095093
O O10 0.390098 0.874738 0.814489
O O11 0.329127 0.000000 0.985251
O O12 0.621885 0.841002 0.330129
O O13 0.527984 0.000000 0.367492
O O14 0.730589 0.000000 0.286870
#
# Coordination Sequence:
#
# PCOD9181578 Si02
#       6
#     8   8   8   8   8   8
#     4  11  22  34  53  83 108 141 176 217 271 317
#     4  10  21  37  56  77 105 143 184 221 256 307
#     4  10  19  32  53  80 110 138 174 217 267 322
#     4   9  17  31  53  78 105 140 178 218 260 311
#     4   8  15  32  55  75  99 136 176 216 259 301
#     4  10  21  35  54  81 111 138 171 222 275 316
#
# _framework density 18.631264999999999
#
# number of rings (size 3 to 8) (size 9 to 14) (size 15 to 20)
#    0.000    2.333    1.667    2.500    0.000    4.000 
#    0.000    3.333    0.000    2.000    0.000    2.333 
#    0.000    0.000    0.000    0.000    0.000    0.000 
#
# Total GULP energy -133828.590990 kJ/mol
# GULP energy per Si atom -5576.191291 kJ/mol
# Density = 1.858886 g / cm^3
# Si number density = 18.631265 Si / 1000 Ang^3
#
#
#
# Elastic Constant Matrix: (Units=GPa)
#
#
# Indices 1 2 3 4 5 6 
#
# 1 104.3239 27.4224 29.3909 0.0000 -19.3582 0.0000
# 2 27.4224 60.6657 1.4659 0.0000 -4.4998 0.0000
# 3 29.3909 1.4659 62.1268 0.0000 -25.2168 0.0000
# 4 0.0000 0.0000 0.0000 7.1210 0.0000 0.1271
# 5 -19.3582 -4.4998 -25.2168 0.0000 31.1159 0.0000
# 6 0.0000 0.0000 0.0000 0.1271 0.0000 23.1761
#
#
#
# Elastic Compliance Matrix: (Units=1/GPa)
#
#
# Indices 1 2 3 4 5 6 
#
# 1 0.012977 -0.005490 -0.004553 0.000000 0.003590 0.000000
# 2 -0.005490 0.019017 0.002799 0.000000 0.001603 0.000000
# 3 -0.004553 0.002799 0.025629 0.000000 0.018343 0.000000
# 4 0.000000 0.000000 0.000000 0.140443 0.000000 -0.000770
# 5 0.003590 0.001603 0.018343 0.000000 0.049468 0.000000
# 6 0.000000 0.000000 0.000000 -0.000770 0.000000 0.043152
#
#
# Mechanical properties :
#
#
# Convention : Reuss Voigt Hill
#
# Bulk Modulus (GPa) = 23.18229 38.18609 30.68419
# Shear Modulus (GPa) = 15.64692 23.53843 19.59267
#
# Velocity S-wave (km/s) = 2.90111 3.55827 3.24636
# Velocity P-wave (km/s) = 4.86740 6.11734 5.52782
#
# Compressibility (1/GPa) = 0.04313638
#
# Stress axis : x y z
#
# Youngs Moduli (GPa) = 77.05744 52.58570 39.01852
#
# Poissons Ratio (x) = 0.28868 0.17763
# Poissons Ratio (y) = 0.42303 -0.10922
# Poissons Ratio (z) = 0.35080 -0.14719
#
# Static dielectric constant tensor:
#      x y z
#    x 1.665790 0.000000 -0.022710 
#    y 0.000000 1.649580 0.000000 
#    z -0.022710 0.000000 1.689360 
# 
# From -- ./inp_files/225104.got.cif
#   From: 2010.05.17/outbox.cif.g08.bks.cpg/sg12_113_cif.got.tgz:225104.got - 2010.06.03 13:09:07.
