data_PCOD9181087
_publ_section_title
;
Structure prediction by ZEFSAII (Michael W. Deem and Ramdas Pophale) SiO2 
 PCOD9181087
Probable space group: C 2/M
;
_chemical_formula_sum "Si O2"
_cell_formula_units_Z 56
_cell_length_a 22.947025
_cell_length_b 17.679242
_cell_length_c 8.432433
_cell_angle_alpha 90.000000
_cell_angle_beta 62.458660
_cell_angle_gamma 90.000000
_cell_volume 3033.252668
_symmetry_space_group_name_H-M "C 2/M"
_symmetry_group_IT_number 12
_symmetry_cell_setting 'monoclinic'
loop_
_space_group_symop_operation_xyz
x,y,z
-x,y,-z
-x,-y,-z
x,-y,z
1/2+x,1/2+y,z
1/2-x,1/2+y,-z
1/2-x,1/2-y,-z
1/2+x,1/2-y,z
loop_
_atom_site_type_symbol
_atom_site_label
_atom_site_fract_x
_atom_site_fract_y
_atom_site_fract_z
Si Si1 0.208967 0.417646 0.277132
Si Si2 0.193039 0.148419 0.084302
Si Si3 0.309242 0.203583 0.135496
Si Si4 0.464444 0.915236 0.213126
Si Si5 0.351133 0.795182 0.432472
Si Si6 0.091298 0.367121 0.211029
Si Si7 0.423877 0.704217 0.601635
O O1 0.211903 0.500000 0.352436
O O2 0.270297 0.408896 0.079491
O O3 0.200852 0.344162 0.398851
O O4 0.142510 0.411185 0.256381
O O5 0.190086 0.224224 0.980832
O O6 0.242030 0.162165 0.170883
O O7 0.120413 0.143598 0.247655
O O8 0.319223 0.224745 0.304516
O O9 0.368943 0.150487 0.000859
O O10 0.409974 0.853955 0.321634
O O11 0.523436 0.908053 0.264625
O O12 0.436849 0.000000 0.247417
O O13 0.500000 0.901683 0.000000
O O14 0.385161 0.727232 0.488290
O O15 0.077104 0.285394 0.306496
O O16 0.500000 0.681601 0.500000
#
# Coordination Sequence:
#
# PCOD9181087 Si02
#       7
#     8   8   8   8   8   8   8
#     4  10  21  35  50  71 100 136 177 208 247 303
#     4   9  20  36  53  71  96 135 167 210 263 303
#     4   9  17  33  52  72  98 128 174 213 253 293
#     4  11  20  28  41  70 110 148 178 199 234 290
#     4  11  20  30  51  75 104 134 171 215 252 285
#     4   9  17  32  48  67 101 145 173 201 241 289
#     4  10  19  32  52  76 102 126 168 215 257 306
#
# _framework density 18.462029999999999
#
# number of rings (size 3 to 8) (size 9 to 14) (size 15 to 20)
#    0.000    2.143    2.857    3.429    0.000    2.286 
#    0.000    2.857    0.000    0.429    0.000    0.000 
#    0.000    4.571    0.000    0.000    0.000    1.143 
#
# Total GULP energy -156055.796557 kJ/mol
# GULP energy per Si atom -5573.421306 kJ/mol
# Density = 1.842001 g / cm^3
# Si number density = 18.462030 Si / 1000 Ang^3
#
#
#
# Elastic Constant Matrix: (Units=GPa)
#
#
# Indices 1 2 3 4 5 6 
#
# 1 84.7200 14.6922 52.3294 0.0000 -2.4019 0.0000
# 2 14.6922 20.6827 2.4608 0.0000 -11.0888 0.0000
# 3 52.3294 2.4608 83.3568 0.0000 -6.0328 0.0000
# 4 0.0000 0.0000 0.0000 15.2632 0.0000 -1.4904
# 5 -2.4019 -11.0888 -6.0328 0.0000 40.3086 0.0000
# 6 0.0000 0.0000 0.0000 -1.4904 0.0000 6.7328
#
#
#
# Elastic Compliance Matrix: (Units=1/GPa)
#
#
# Indices 1 2 3 4 5 6 
#
# 1 0.024132 -0.018521 -0.015030 0.000000 -0.005906 0.000000
# 2 -0.018521 0.070954 0.010984 0.000000 0.020060 0.000000
# 3 -0.015030 0.010984 0.021494 0.000000 0.005343 0.000000
# 4 0.000000 0.000000 0.000000 0.066964 0.000000 0.014824
# 5 -0.005906 0.020060 0.005343 0.000000 0.030775 0.000000
# 6 0.000000 0.000000 0.000000 0.014824 0.000000 0.151808
#
#
# Mechanical properties :
#
#
# Convention : Reuss Voigt Hill
#
# Bulk Modulus (GPa) = 13.99645 36.41380 25.20513
# Shear Modulus (GPa) = 11.49225 20.41274 15.95250
#
# Velocity S-wave (km/s) = 2.49766 3.32876 2.94270
# Velocity P-wave (km/s) = 3.98941 5.87712 5.02275
#
# Compressibility (1/GPa) = 0.07144666
#
# Stress axis : x y z
#
# Youngs Moduli (GPa) = 41.43946 14.09366 46.52354
#
# Poissons Ratio (x) = 0.26102 0.69925
# Poissons Ratio (y) = 0.76748 -0.51101
# Poissons Ratio (z) = 0.62283 -0.15480
#
# Static dielectric constant tensor:
#      x y z
#    x 1.645030 0.000000 -0.003230 
#    y 0.000000 1.618970 0.000000 
#    z -0.003230 0.000000 1.705470 
# 
# From -- ./inp_files/87838.got.cif
#   From: 2010.05.17/outbox.cif.g08.bks.cpg/sg12_44_cif.got.tgz:87838.got - 2010.06.03 13:09:07.
