data_PCOD9181743
_publ_section_title
;
Structure prediction by ZEFSAII (Michael W. Deem and Ramdas Pophale) SiO2 
 PCOD9181743
Probable space group: C 2/M
;
_chemical_formula_sum "Si O2"
_cell_formula_units_Z 56
_cell_length_a 30.953251
_cell_length_b 8.592917
_cell_length_c 17.312426
_cell_angle_alpha 90.000000
_cell_angle_beta 46.080685
_cell_angle_gamma 90.000000
_cell_volume 3316.871698
_symmetry_space_group_name_H-M "C 2/M"
_symmetry_group_IT_number 12
_symmetry_cell_setting 'monoclinic'
loop_
_space_group_symop_operation_xyz
x,y,z
-x,y,-z
-x,-y,-z
x,-y,z
1/2+x,1/2+y,z
1/2-x,1/2+y,-z
1/2-x,1/2-y,-z
1/2+x,1/2-y,z
loop_
_atom_site_type_symbol
_atom_site_label
_atom_site_fract_x
_atom_site_fract_y
_atom_site_fract_z
Si Si1 0.342419 0.813900 0.916565
Si Si2 0.760362 0.312127 0.706630
Si Si3 0.121342 0.189314 0.866522
Si Si4 0.419026 0.311509 0.253855
Si Si5 0.780589 0.186045 0.846600
Si Si6 0.804550 0.686710 0.484277
Si Si7 0.444978 0.688176 0.895072
O O1 0.327944 0.752422 0.849120
O O2 0.402568 0.749776 0.880071
O O3 0.343663 0.000000 0.914298
O O4 0.285347 0.763150 0.040170
O O5 0.760905 0.500000 0.710240
O O6 0.690607 0.261783 0.787549
O O7 0.787735 0.245582 0.751031
O O8 0.793214 0.264968 0.587011
O O9 0.094249 0.238259 0.818046
O O10 0.120705 0.000000 0.867474
O O11 0.083487 0.240394 0.987717
O O12 0.416403 0.500000 0.258524
O O13 0.366737 0.247236 0.372736
O O14 0.485810 0.263207 0.195227
O O15 0.782553 0.000000 0.846102
O O16 0.802988 0.500000 0.483308
O O17 0.750000 0.750000 0.500000
O O18 0.443325 0.500000 0.896242
#
# Coordination Sequence:
#
# PCOD9181743 Si02
#       7
#     8   8   8   8   8   8   8
#     4  10  20  33  51  76 109 140 170 210 261 318
#     4  10  19  33  54  76 104 139 175 215 263 311
#     4   9  16  30  51  76 106 140 175 212 255 309
#     4  10  20  35  53  77 106 142 183 217 257 308
#     4  10  20  33  52  79 106 135 173 215 263 313
#     4  11  22  36  54  76 104 141 181 221 261 305
#     4  10  19  32  54  78 106 142 178 215 257 311
#
# _framework density 16.883379000000001
#
# number of rings (size 3 to 8) (size 9 to 14) (size 15 to 20)
#    0.000    2.000    2.857    1.714    0.000    4.571 
#    0.000    0.714    0.000    2.571    0.000    6.000 
#    0.000    0.000    0.000    0.000    0.000    0.000 
#
# Total GULP energy -156289.647044 kJ/mol
# GULP energy per Si atom -5581.773109 kJ/mol
# Density = 1.684495 g / cm^3
# Si number density = 16.883379 Si / 1000 Ang^3
#
#
#
# Elastic Constant Matrix: (Units=GPa)
#
#
# Indices 1 2 3 4 5 6 
#
# 1 167.3778 34.8087 106.5461 0.0000 9.2594 -0.0001
# 2 34.8087 21.0300 31.5583 -0.0001 2.3554 0.0001
# 3 106.5461 31.5583 131.6470 -0.0001 3.5311 0.0001
# 4 0.0000 -0.0001 -0.0001 24.9898 0.0000 1.1008
# 5 9.2594 2.3554 3.5311 0.0000 31.6561 0.0000
# 6 -0.0001 0.0001 0.0001 1.1008 0.0000 25.9598
#
#
#
# Elastic Compliance Matrix: (Units=1/GPa)
#
#
# Indices 1 2 3 4 5 6 
#
# 1 0.013541 -0.009060 -0.008725 0.000000 -0.002313 0.000000
# 2 -0.009060 0.080730 -0.011965 0.000000 -0.002022 0.000000
# 3 -0.008725 -0.011965 0.017486 0.000000 0.001492 0.000000
# 4 0.000000 0.000000 0.000000 0.040091 0.000000 -0.001700
# 5 -0.002313 -0.002022 0.001492 0.000000 0.032250 0.000000
# 6 0.000000 0.000000 0.000000 -0.001700 0.000000 0.038593
#
#
# Mechanical properties :
#
#
# Convention : Reuss Voigt Hill
#
# Bulk Modulus (GPa) = 19.13693 73.98680 46.56186
# Shear Modulus (GPa) = 16.68832 26.33058 21.50945
#
# Velocity S-wave (km/s) = 3.14737 3.95341 3.57319
# Velocity P-wave (km/s) = 4.95654 8.04715 6.68296
#
# Compressibility (1/GPa) = 0.05225500
#
# Stress axis : x y z
#
# Youngs Moduli (GPa) = 73.85176 12.38695 57.18959
#
# Poissons Ratio (x) = 0.11223 0.49897
# Poissons Ratio (y) = 0.66913 0.68430
# Poissons Ratio (z) = 0.64435 0.14821
#
# Static dielectric constant tensor:
#      x y z
#    x 1.550230 0.000000 0.002440 
#    y 0.000000 1.576990 0.000000 
#    z 0.002440 0.000000 1.557610 
# 
# From -- ./inp_files/237378.got.cif
#   From: 2010.05.17/outbox.cif.g08.bks.cpg/sg12_119_cif.got.tgz:237378.got - 2010.06.03 13:09:07.
