data_PCOD9181654
_publ_section_title
;
Structure prediction by ZEFSAII (Michael W. Deem and Ramdas Pophale) SiO2 
 PCOD9181654
Probable space group: C 2/M
;
_chemical_formula_sum "Si O2"
_cell_formula_units_Z 64
_cell_length_a 21.169849
_cell_length_b 8.537365
_cell_length_c 23.161338
_cell_angle_alpha 90.000000
_cell_angle_beta 55.702654
_cell_angle_gamma 90.000000
_cell_volume 3458.204740
_symmetry_space_group_name_H-M "C 2/M"
_symmetry_group_IT_number 12
_symmetry_cell_setting 'monoclinic'
loop_
_space_group_symop_operation_xyz
x,y,z
-x,y,-z
-x,-y,-z
x,-y,z
1/2+x,1/2+y,z
1/2-x,1/2+y,-z
1/2-x,1/2-y,-z
1/2+x,1/2-y,z
loop_
_atom_site_type_symbol
_atom_site_label
_atom_site_fract_x
_atom_site_fract_y
_atom_site_fract_z
Si Si1 0.227131 0.313134 0.420691
Si Si2 0.772206 0.688918 0.275723
Si Si3 0.368968 0.688802 0.429113
Si Si4 0.955255 0.812028 0.965031
Si Si5 0.283475 0.188058 0.042862
Si Si6 0.488324 0.689739 0.718170
Si Si7 0.313504 0.308856 0.795744
Si Si8 0.948873 0.688203 0.192593
O O1 0.227640 0.500000 0.417403
O O2 0.230596 0.244592 0.355070
O O3 0.304049 0.262708 0.415861
O O4 0.157076 0.257110 0.496374
O O5 0.772222 0.500000 0.275283
O O6 0.730587 0.743610 0.238968
O O7 0.860638 0.740877 0.232179
O O8 0.367026 0.500000 0.433881
O O9 0.450997 0.737558 0.362195
O O10 0.001465 0.753161 0.885662
O O11 0.951595 0.000000 0.965738
O O12 0.869703 0.745784 0.007718
O O13 0.000000 0.762955 0.000000
O O14 0.230774 0.240715 0.123664
O O15 0.282950 0.000000 0.041803
O O16 0.250000 0.250000 0.000000
O O17 0.489332 0.500000 0.720244
O O18 0.401725 0.741082 0.751174
O O19 0.517464 0.752839 0.764323
O O20 0.313077 0.500000 0.795681
O O21 0.950647 0.500000 0.190313
#
# Coordination Sequence:
#
# PCOD9181654 Si02
#       8
#     8   8   8   8   8   8   8   8
#     4  10  19  32  53  82 112 144 183 227 276 324
#     4  10  20  36  56  81 112 146 185 224 277 339
#     4   9  18  32  53  81 111 144 183 227 274 325
#     4  11  24  40  58  82 113 150 193 241 291 341
#     4  11  22  39  62  87 117 152 194 237 289 351
#     4  10  19  36  59  83 111 143 185 232 276 327
#     4   9  20  37  58  81 109 147 184 226 275 333
#     4  11  22  35  57  85 112 143 182 232 287 342
#
# _framework density 18.506710999999999
#
# number of rings (size 3 to 8) (size 9 to 14) (size 15 to 20)
#    0.000    1.875    1.250    3.000    0.000    4.500 
#    0.000    3.125    0.000    3.750    0.000    0.000 
#    0.000    0.000    0.000    0.000    0.000    0.000 
#
# Total GULP energy -178758.587683 kJ/mol
# GULP energy per Si atom -5586.205865 kJ/mol
# Density = 1.846459 g / cm^3
# Si number density = 18.506711 Si / 1000 Ang^3
#
#
#
# Elastic Constant Matrix: (Units=GPa)
#
#
# Indices 1 2 3 4 5 6 
#
# 1 159.5045 25.7754 97.0055 -0.0003 -6.4702 -0.0003
# 2 25.7754 19.4604 24.7765 -0.0006 -3.2161 -0.0010
# 3 97.0055 24.7765 188.1802 0.0000 -13.0673 -0.0001
# 4 -0.0003 -0.0006 0.0000 16.1752 0.0000 1.7199
# 5 -6.4702 -3.2161 -13.0673 0.0000 25.2718 -0.0002
# 6 -0.0003 -0.0010 -0.0001 1.7199 -0.0002 21.8795
#
#
#
# Elastic Compliance Matrix: (Units=1/GPa)
#
#
# Indices 1 2 3 4 5 6 
#
# 1 0.010104 -0.008167 -0.004176 0.000000 -0.000612 0.000000
# 2 -0.008167 0.068689 -0.004535 0.000002 0.004306 0.000003
# 3 -0.004176 -0.004535 0.008245 0.000000 0.002617 0.000000
# 4 0.000000 0.000002 0.000000 0.062344 0.000000 -0.004901
# 5 -0.000612 0.004306 0.002617 0.000000 0.041314 0.000001
# 6 0.000000 0.000003 0.000000 -0.004901 0.000001 0.046090
#
#
# Mechanical properties :
#
#
# Convention : Reuss Voigt Hill
#
# Bulk Modulus (GPa) = 18.76769 73.58442 46.17605
# Shear Modulus (GPa) = 17.34283 27.30449 22.32366
#
# Velocity S-wave (km/s) = 3.06455 3.84524 3.47687
# Velocity P-wave (km/s) = 4.76287 7.71763 6.41275
#
# Compressibility (1/GPa) = 0.05328307
#
# Stress axis : x y z
#
# Youngs Moduli (GPa) = 98.97160 14.55833 121.28072
#
# Poissons Ratio (x) = 0.11890 0.50642
# Poissons Ratio (y) = 0.80835 0.54996
# Poissons Ratio (z) = 0.41327 0.06602
#
# Static dielectric constant tensor:
#      x y z
#    x 1.617440 0.000000 -0.014240 
#    y 0.000000 1.629600 0.000000 
#    z -0.014240 0.000000 1.604070 
# 
# From -- ./inp_files/319823.got.cif
#   From: 2010.05.17/outbox.cif.g08.bks.cpg/sg12_160_cif.got.tgz:319823.got - 2010.06.03 13:09:07.
