data_PCOD9181303
_publ_section_title
;
Structure prediction by ZEFSAII (Michael W. Deem and Ramdas Pophale) SiO2 
 PCOD9181303
Probable space group: C 2/M
;
_chemical_formula_sum "Si O2"
_cell_formula_units_Z 56
_cell_length_a 26.833802
_cell_length_b 13.471616
_cell_length_c 9.572030
_cell_angle_alpha 90.000000
_cell_angle_beta 58.090336
_cell_angle_gamma 90.000000
_cell_volume 2937.335542
_symmetry_space_group_name_H-M "C 2/M"
_symmetry_group_IT_number 12
_symmetry_cell_setting 'monoclinic'
loop_
_space_group_symop_operation_xyz
x,y,z
-x,y,-z
-x,-y,-z
x,-y,z
1/2+x,1/2+y,z
1/2-x,1/2+y,-z
1/2-x,1/2-y,-z
1/2+x,1/2-y,z
loop_
_atom_site_type_symbol
_atom_site_label
_atom_site_fract_x
_atom_site_fract_y
_atom_site_fract_z
Si Si1 0.031766 0.760718 0.812908
Si Si2 0.941365 0.116039 0.494102
Si Si3 0.165280 0.743950 0.337647
Si Si4 0.263057 0.114046 0.299087
Si Si5 0.172093 0.611905 0.088938
Si Si6 0.968883 0.385983 0.694787
Si Si7 0.134905 0.616180 0.637004
O O1 0.048769 0.847700 0.679990
O O2 0.087228 0.691532 0.770797
O O3 0.991784 0.687867 0.778419
O O4 0.000000 0.794931 0.000000
O O5 0.888529 0.185178 0.625835
O O6 0.000000 0.130201 0.500000
O O7 0.926211 0.000000 0.522001
O O8 0.210071 0.810050 0.360339
O O9 0.195364 0.694018 0.160337
O O10 0.141341 0.654345 0.469111
O O11 0.303696 0.128001 0.373615
O O12 0.241345 0.000000 0.331119
O O13 0.305107 0.125600 0.101551
O O14 0.189323 0.500000 0.105929
O O15 0.101494 0.618704 0.205293
O O16 0.985037 0.500000 0.705010
O O17 0.000000 0.363597 0.500000
O O18 0.118374 0.500000 0.670274
#
# Coordination Sequence:
#
# PCOD9181303 Si02
#       7
#     8   8   8   8   8   8   8
#     4  11  21  33  54  81 108 139 172 211 263 318
#     4  10  22  39  57  77 102 135 177 222 264 310
#     4  11  20  35  57  77 100 135 179 217 257 309
#     4  10  21  36  52  74 105 140 175 213 259 306
#     4  10  20  33  52  79 109 136 167 214 264 309
#     4  10  19  32  52  80 113 144 173 208 256 316
#     4  10  21  35  52  77 108 138 171 211 256 311
#
# _framework density 19.064897999999999
#
# number of rings (size 3 to 8) (size 9 to 14) (size 15 to 20)
#    0.000    1.714    0.000    6.000    0.000    3.714 
#    0.000    0.000    0.000    1.286    0.000    0.000 
#    0.000    0.000    0.000    0.000    0.000    0.000 
#
# Total GULP energy -156370.785344 kJ/mol
# GULP energy per Si atom -5584.670905 kJ/mol
# Density = 1.902151 g / cm^3
# Si number density = 19.064898 Si / 1000 Ang^3
#
#
#
# Elastic Constant Matrix: (Units=GPa)
#
#
# Indices 1 2 3 4 5 6 
#
# 1 59.9401 23.1466 -11.9548 0.0000 4.4517 0.0000
# 2 23.1466 89.4594 14.2335 0.0000 10.5442 0.0000
# 3 -11.9548 14.2335 51.6341 0.0000 -0.8607 0.0000
# 4 0.0000 0.0000 0.0000 18.4440 0.0000 -0.0261
# 5 4.4517 10.5442 -0.8607 0.0000 23.1022 0.0000
# 6 0.0000 0.0000 0.0000 -0.0261 0.0000 22.4148
#
#
#
# Elastic Compliance Matrix: (Units=1/GPa)
#
#
# Indices 1 2 3 4 5 6 
#
# 1 0.020425 -0.006205 0.006425 0.000000 -0.000864 0.000000
# 2 -0.006205 0.014307 -0.005473 0.000000 -0.005538 0.000000
# 3 0.006425 -0.005473 0.022398 0.000000 0.002094 0.000000
# 4 0.000000 0.000000 0.000000 0.054218 0.000000 0.000063
# 5 -0.000864 -0.005538 0.002094 0.000000 0.046058 0.000000
# 6 0.000000 0.000000 0.000000 0.000063 0.000000 0.044613
#
#
# Mechanical properties :
#
#
# Convention : Reuss Voigt Hill
#
# Bulk Modulus (GPa) = 21.44783 27.98712 24.71748
# Shear Modulus (GPa) = 21.92326 24.49943 23.21134
#
# Velocity S-wave (km/s) = 3.39474 3.58865 3.49304
# Velocity P-wave (km/s) = 5.16139 5.64651 5.40939
#
# Compressibility (1/GPa) = 0.04662477
#
# Stress axis : x y z
#
# Youngs Moduli (GPa) = 48.95912 69.89424 44.64634
#
# Poissons Ratio (x) = 0.43371 -0.28686
# Poissons Ratio (y) = 0.30380 0.24435
# Poissons Ratio (z) = -0.31457 0.38253
#
# Static dielectric constant tensor:
#      x y z
#    x 1.671580 0.000000 -0.007190 
#    y 0.000000 1.662140 0.000000 
#    z -0.007190 0.000000 1.650050 
# 
# From -- ./inp_files/96287.got.cif
#   From: 2010.05.17/outbox.cif.g08.bks.cpg/sg12_49_cif.got.tgz:96287.got - 2010.06.03 13:09:07.
