data_PCOD9181363
_publ_section_title
;
Structure prediction by ZEFSAII (Michael W. Deem and Ramdas Pophale) SiO2 
 PCOD9181363
Probable space group: C 2/M
;
_chemical_formula_sum "Si O2"
_cell_formula_units_Z 48
_cell_length_a 19.543047
_cell_length_b 9.792304
_cell_length_c 15.291303
_cell_angle_alpha 90.000000
_cell_angle_beta 48.120064
_cell_angle_gamma 90.000000
_cell_volume 2178.777200
_symmetry_space_group_name_H-M "C 2/M"
_symmetry_group_IT_number 12
_symmetry_cell_setting 'monoclinic'
loop_
_space_group_symop_operation_xyz
x,y,z
-x,y,-z
-x,-y,-z
x,-y,z
1/2+x,1/2+y,z
1/2-x,1/2+y,-z
1/2-x,1/2-y,-z
1/2+x,1/2-y,z
loop_
_atom_site_type_symbol
_atom_site_label
_atom_site_fract_x
_atom_site_fract_y
_atom_site_fract_z
Si Si1 0.819941 0.338529 0.882067
Si Si2 0.352174 0.258673 0.376361
Si Si3 0.606472 0.348355 0.841423
Si Si4 0.426224 0.657704 0.495473
Si Si5 0.495320 0.855744 0.854779
Si Si6 0.732709 0.660140 0.232051
O O1 0.794912 0.500000 0.891207
O O2 0.822194 0.252080 0.791005
O O3 0.914888 0.337390 0.854025
O O4 0.750000 0.250000 0.000000
O O5 0.250000 0.250000 0.500000
O O6 0.352647 0.359784 0.293012
O O7 0.413970 0.288102 0.408664
O O8 0.407347 0.139321 0.279835
O O9 0.604628 0.500000 0.881026
O O10 0.508843 0.276727 0.903159
O O11 0.672021 0.240047 0.834270
O O12 0.500000 0.721380 0.500000
O O13 0.454449 0.500000 0.460096
O O14 0.327965 0.661265 0.628139
O O15 0.480152 0.000000 0.913935
O O16 0.744195 0.500000 0.196249
#
# Coordination Sequence:
#
# PCOD9181363 Si02
#       6
#     8   8   8   8   8   8
#     4  11  24  45  69  92 118 153 201 257 318 373
#     4  10  19  34  56  87 129 168 206 241 293 355
#     4  10  21  35  57  87 123 162 204 248 291 346
#     4  10  19  32  52  83 121 161 206 250 294 349
#     4   9  21  39  60  88 123 161 201 247 300 362
#     4  11  22  38  60  87 122 161 203 251 305 362
#
# _framework density 22.030707
#
# number of rings (size 3 to 8) (size 9 to 14) (size 15 to 20)
#    1.000    0.833    1.667    3.000    0.000    2.667 
#    0.000    0.833    0.000    8.500    0.000    0.000 
#    0.000    0.000    0.000    0.000    0.000    0.000 
#
# Total GULP energy -133636.814281 kJ/mol
# GULP energy per Si atom -5568.200595 kJ/mol
# Density = 2.198056 g / cm^3
# Si number density = 22.030707 Si / 1000 Ang^3
#
#
#
# Elastic Constant Matrix: (Units=GPa)
#
#
# Indices 1 2 3 4 5 6 
#
# 1 115.0260 56.2924 -0.3102 0.0000 2.1303 0.0000
# 2 56.2924 184.4559 10.4037 0.0000 3.1759 0.0000
# 3 -0.3102 10.4037 64.5746 0.0000 1.3032 0.0000
# 4 0.0000 0.0000 0.0000 15.3600 0.0000 -5.3532
# 5 2.1303 3.1759 1.3032 0.0000 41.6161 0.0000
# 6 0.0000 0.0000 0.0000 -5.3532 0.0000 3.7349
#
#
#
# Elastic Compliance Matrix: (Units=1/GPa)
#
#
# Indices 1 2 3 4 5 6 
#
# 1 0.010244 -0.003153 0.000563 0.000000 -0.000301 0.000000
# 2 -0.003153 0.006448 -0.001048 0.000000 -0.000298 0.000000
# 3 0.000563 -0.001048 0.015666 0.000000 -0.000439 0.000000
# 4 0.000000 0.000000 0.000000 0.130085 0.000000 0.186450
# 5 -0.000301 -0.000298 -0.000439 0.000000 0.024081 0.000000
# 6 0.000000 0.000000 0.000000 0.186450 0.000000 0.534981
#
#
# Mechanical properties :
#
#
# Convention : Reuss Voigt Hill
#
# Bulk Modulus (GPa) = 39.86780 55.20315 47.53547
# Shear Modulus (GPa) = 6.78296 31.98691 19.38493
#
# Velocity S-wave (km/s) = 1.75657 3.81455 2.96954
# Velocity P-wave (km/s) = 4.71697 6.67179 5.77765
#
# Compressibility (1/GPa) = 0.02508290
#
# Stress axis : x y z
#
# Youngs Moduli (GPa) = 97.62082 155.09292 63.83100
#
# Poissons Ratio (x) = 0.48897 -0.03595
# Poissons Ratio (y) = 0.30778 0.06689
# Poissons Ratio (z) = -0.05498 0.16253
#
# Static dielectric constant tensor:
#      x y z
#    x 1.851340 0.000000 0.037700 
#    y 0.000000 1.815300 0.000000 
#    z 0.037700 0.000000 1.972630 
# 
# From -- ./inp_files/280064.got.cif
#   From: 2010.05.17/outbox.cif.g08.bks.cpg/sg12_141_cif.got.tgz:280064.got - 2010.06.03 13:09:07.
