data_PCOD9181318
_publ_section_title
;
Structure prediction by ZEFSAII (Michael W. Deem and Ramdas Pophale) SiO2 
 PCOD9181318
Probable space group: C 2/M
;
_chemical_formula_sum "Si O2"
_cell_formula_units_Z 64
_cell_length_a 31.267599
_cell_length_b 8.073073
_cell_length_c 14.737085
_cell_angle_alpha 90.000000
_cell_angle_beta 49.597688
_cell_angle_gamma 90.000000
_cell_volume 2832.838661
_symmetry_space_group_name_H-M "C 2/M"
_symmetry_group_IT_number 12
_symmetry_cell_setting 'monoclinic'
loop_
_space_group_symop_operation_xyz
x,y,z
-x,y,-z
-x,-y,-z
x,-y,z
1/2+x,1/2+y,z
1/2-x,1/2+y,-z
1/2-x,1/2-y,-z
1/2+x,1/2-y,z
loop_
_atom_site_type_symbol
_atom_site_label
_atom_site_fract_x
_atom_site_fract_y
_atom_site_fract_z
Si Si1 0.135884 0.700326 0.296385
Si Si2 0.242319 0.800340 0.906847
Si Si3 0.158787 0.803762 0.876227
Si Si4 0.581695 0.301195 0.729540
Si Si5 0.539692 0.307496 0.063725
Si Si6 0.566586 0.191310 0.224829
Si Si7 0.798252 0.691898 0.365304
Si Si8 0.951770 0.806868 0.432620
O O1 0.132875 0.500000 0.300971
O O2 0.200060 0.751363 0.222001
O O3 0.114995 0.753522 0.225019
O O4 0.094129 0.766301 0.429436
O O5 0.188717 0.734993 0.925138
O O6 0.239654 0.000000 0.907870
O O7 0.250000 0.750000 0.000000
O O8 0.199235 0.781387 0.735124
O O9 0.150479 0.000000 0.900947
O O10 0.096324 0.734197 0.942154
O O11 0.585775 0.500000 0.740402
O O12 0.523649 0.239120 0.856644
O O13 0.640019 0.222024 0.677844
O O14 0.572511 0.276212 0.634682
O O15 0.534923 0.500000 0.043906
O O16 0.555271 0.294113 0.149487
O O17 0.508891 0.203701 0.361464
O O18 0.576420 0.000000 0.185980
O O19 0.789670 0.500000 0.359252
O O20 0.750000 0.750000 0.500000
O O21 0.967252 0.000000 0.417512
#
# Coordination Sequence:
#
# PCOD9181318 Si02
#       8
#     8   8   8   8   8   8   8   8
#     4  10  21  34  50  78 116 157 202 252 305 360
#     4  10  22  39  60  88 122 161 204 250 302 360
#     4  10  22  42  66  94 126 165 210 255 308 365
#     4   9  20  40  62  89 122 157 200 250 308 366
#     4   9  19  37  63  91 122 158 201 252 303 362
#     4  10  19  32  52  80 119 161 200 249 307 361
#     4  12  27  45  67  93 124 162 204 256 310 370
#     4  10  21  35  55  83 114 152 201 252 303 364
#
# _framework density 22.592181
#
# number of rings (size 3 to 8) (size 9 to 14) (size 15 to 20)
#    0.000    2.000    0.000    3.750    1.750    7.000 
#    0.000    2.500    0.000    0.000    0.000    0.000 
#    0.000    0.000    0.000    0.000    0.000    0.000 
#
# Total GULP energy -178822.444561 kJ/mol
# GULP energy per Si atom -5588.201393 kJ/mol
# Density = 2.254076 g / cm^3
# Si number density = 22.592181 Si / 1000 Ang^3
#
#
#
# Elastic Constant Matrix: (Units=GPa)
#
#
# Indices 1 2 3 4 5 6 
#
# 1 108.1144 19.5519 40.1380 0.0000 -17.1845 0.0000
# 2 19.5519 14.7938 -1.6114 0.0001 -1.9574 0.0000
# 3 40.1380 -1.6114 128.7241 0.0000 -16.3240 0.0000
# 4 0.0000 0.0001 0.0000 21.4032 0.0000 3.4388
# 5 -17.1845 -1.9574 -16.3240 0.0000 31.6479 0.0000
# 6 0.0000 0.0000 0.0000 3.4388 0.0000 21.2969
#
#
#
# Elastic Compliance Matrix: (Units=1/GPa)
#
#
# Indices 1 2 3 4 5 6 
#
# 1 0.015265 -0.020022 -0.004405 0.000000 0.004779 0.000000
# 2 -0.020022 0.094682 0.007268 0.000000 -0.001267 0.000000
# 3 -0.004405 0.007268 0.009616 0.000000 0.003018 0.000000
# 4 0.000000 0.000000 0.000000 0.047966 0.000000 -0.007745
# 5 0.004779 -0.001267 0.003018 0.000000 0.035670 0.000000
# 6 0.000000 0.000000 0.000000 -0.007745 0.000000 0.048206
#
#
# Mechanical properties :
#
#
# Convention : Reuss Voigt Hill
#
# Bulk Modulus (GPa) = 11.73093 40.86548 26.29820
# Shear Modulus (GPa) = 15.91653 27.77319 21.84486
#
# Velocity S-wave (km/s) = 2.65715 3.50998 3.11291
# Velocity P-wave (km/s) = 3.82331 5.87828 4.95842
#
# Compressibility (1/GPa) = 0.08524476
#
# Stress axis : x y z
#
# Youngs Moduli (GPa) = 65.50857 10.56164 103.99751
#
# Poissons Ratio (x) = 0.21147 0.45806
# Poissons Ratio (y) = 1.31164 -0.75584
# Poissons Ratio (z) = 0.28854 -0.07676
#
# Static dielectric constant tensor:
#      x y z
#    x 1.870140 0.000000 -0.042810 
#    y 0.000000 1.811770 0.000000 
#    z -0.042810 0.000000 1.963630 
# 
# From -- ./inp_files/249847.got.cif
#   From: 2010.05.17/outbox.cif.g08.bks.cpg/sg12_125_cif.got.tgz:249847.got - 2010.06.03 13:09:07.
