data_PCOD9181190
_publ_section_title
;
Structure prediction by ZEFSAII (Michael W. Deem and Ramdas Pophale) SiO2 
 PCOD9181190
Probable space group: C 2/M
;
_chemical_formula_sum "Si O2"
_cell_formula_units_Z 56
_cell_length_a 20.537219
_cell_length_b 19.114535
_cell_length_c 7.346905
_cell_angle_alpha 90.000000
_cell_angle_beta 53.186485
_cell_angle_gamma 90.000000
_cell_volume 2308.979006
_symmetry_space_group_name_H-M "C 2/M"
_symmetry_group_IT_number 12
_symmetry_cell_setting 'monoclinic'
loop_
_space_group_symop_operation_xyz
x,y,z
-x,y,-z
-x,-y,-z
x,-y,z
1/2+x,1/2+y,z
1/2-x,1/2+y,-z
1/2-x,1/2-y,-z
1/2+x,1/2-y,z
loop_
_atom_site_type_symbol
_atom_site_label
_atom_site_fract_x
_atom_site_fract_y
_atom_site_fract_z
Si Si1 0.331078 0.922553 0.806341
Si Si2 0.155144 0.127219 0.997922
Si Si3 0.987602 0.925036 0.304769
Si Si4 0.344783 0.770590 0.873806
Si Si5 0.902764 0.688391 0.184175
Si Si6 0.203813 0.423047 0.721957
Si Si7 0.650298 0.671067 0.602588
O O1 0.234496 0.912685 0.932024
O O2 0.337515 0.930306 0.013113
O O3 0.357437 0.000000 0.686942
O O4 0.365119 0.841808 0.725330
O O5 0.122247 0.190095 0.186050
O O6 0.079111 0.078793 0.082260
O O7 0.176636 0.159443 0.766846
O O8 0.933814 0.865320 0.307685
O O9 0.000000 0.920312 0.500000
O O10 0.948511 0.000000 0.329800
O O11 0.250000 0.750000 0.000000
O O12 0.368981 0.791943 0.039337
O O13 0.862164 0.613996 0.296683
O O14 0.866859 0.746762 0.380463
O O15 0.000000 0.688924 0.000000
O O16 0.230079 0.500000 0.614936
O O17 0.279290 0.370041 0.619772
#
# Coordination Sequence:
#
# PCOD9181190 Si02
#       7
#     8   8   8   8   8   8   8
#     4   9  17  31  51  74 103 140 183 225 267 323
#     4  10  19  32  52  77 107 144 182 224 276 331
#     4  11  23  36  51  75 111 149 182 221 272 335
#     4   8  16  31  51  76 106 138 177 224 271 325
#     4  10  20  36  58  83 112 146 189 236 279 327
#     4  10  21  36  55  81 112 146 185 230 280 332
#     4  11  21  35  55  81 112 144 180 229 281 334
#
# _framework density 24.253145
#
# number of rings (size 3 to 8) (size 9 to 14) (size 15 to 20)
#    0.000    2.143    0.000    4.286    0.000    5.429 
#    0.000    1.429    0.000    0.000    0.000    0.000 
#    0.000   25.143    0.000    0.000    0.000    0.000 
#
# Total GULP energy -155990.063392 kJ/mol
# GULP energy per Si atom -5571.073693 kJ/mol
# Density = 2.419794 g / cm^3
# Si number density = 24.253145 Si / 1000 Ang^3
#
#
#
# Elastic Constant Matrix: (Units=GPa)
#
#
# Indices 1 2 3 4 5 6 
#
# 1 87.7343 50.4230 -2.7061 0.0000 -3.1431 0.0000
# 2 50.4230 186.2739 16.7830 0.0000 -0.7384 0.0000
# 3 -2.7061 16.7830 19.4572 0.0000 -2.7129 0.0000
# 4 0.0000 0.0000 0.0000 2.2338 0.0000 12.6207
# 5 -3.1431 -0.7384 -2.7129 0.0000 28.0147 0.0000
# 6 0.0000 0.0000 0.0000 12.6207 0.0000 -12.1403
#
#
#
# Elastic Compliance Matrix: (Units=1/GPa)
#
#
# Indices 1 2 3 4 5 6 
#
# 1 0.014170 -0.004370 0.006027 0.000000 0.002058 0.000000
# 2 -0.004370 0.007172 -0.006930 0.000000 -0.000972 0.000000
# 3 0.006027 -0.006930 0.059077 0.000000 0.006214 0.000000
# 4 0.000000 0.000000 0.000000 0.065130 0.000000 0.067707
# 5 0.002058 -0.000972 0.006214 0.000000 0.036503 0.000000
# 6 0.000000 0.000000 0.000000 0.067707 0.000000 -0.011984
#
#
# Mechanical properties :
#
#
# Convention : Reuss Voigt Hill
#
# Bulk Modulus (GPa) = 14.31172 46.94060 30.62616
# Shear Modulus (GPa) = 24.52144 18.88601 21.70372
#
# Velocity S-wave (km/s) = 3.18317 2.79355 2.99470
# Velocity P-wave (km/s) = 4.40725 5.45909 4.96113
#
# Compressibility (1/GPa) = 0.06987281
#
# Stress axis : x y z
#
# Youngs Moduli (GPa) = 70.57399 139.43106 16.92713
#
# Poissons Ratio (x) = 0.60938 -0.10203
# Poissons Ratio (y) = 0.30844 0.11730
# Poissons Ratio (z) = -0.42538 0.96621
#
# Static dielectric constant tensor:
#      x y z
#    x 1.891500 0.000000 0.052520 
#    y 0.000000 2.080320 0.000000 
#    z 0.052520 0.000000 2.056720 
# 
# From -- ./inp_files/89505.got.cif
#   From: 2010.05.17/outbox.cif.g08.bks.cpg/sg12_45_cif.got.tgz:89505.got - 2010.06.03 13:09:07.
