data_PCOD9181497
_publ_section_title
;
Structure prediction by ZEFSAII (Michael W. Deem and Ramdas Pophale) SiO2 
 PCOD9181497
Probable space group: C 2/M
;
_chemical_formula_sum "Si O2"
_cell_formula_units_Z 64
_cell_length_a 19.757688
_cell_length_b 23.464977
_cell_length_c 17.082955
_cell_angle_alpha 90.000000
_cell_angle_beta 157.872428
_cell_angle_gamma 90.000000
_cell_volume 2983.186353
_symmetry_space_group_name_H-M "C 2/M"
_symmetry_group_IT_number 12
_symmetry_cell_setting 'monoclinic'
loop_
_space_group_symop_operation_xyz
x,y,z
-x,y,-z
-x,-y,-z
x,-y,z
1/2+x,1/2+y,z
1/2-x,1/2+y,-z
1/2-x,1/2-y,-z
1/2+x,1/2-y,z
loop_
_atom_site_type_symbol
_atom_site_label
_atom_site_fract_x
_atom_site_fract_y
_atom_site_fract_z
Si Si1 0.975828 0.167536 0.318796
Si Si2 0.758900 0.561335 0.116012
Si Si3 0.268396 0.769303 0.835645
Si Si4 0.830100 0.737820 0.719693
Si Si5 0.322761 0.183025 0.127267
Si Si6 0.599218 0.435070 0.360584
Si Si7 0.288906 0.565703 0.756581
Si Si8 0.798511 0.650587 0.473826
O O1 0.876085 0.183298 0.292779
O O2 0.168632 0.197856 0.518189
O O3 0.006427 0.101402 0.330367
O O4 0.833256 0.192671 0.102677
O O5 0.828848 0.500000 0.164088
O O6 0.830664 0.615387 0.149349
O O7 0.792819 0.566840 0.244126
O O8 0.546735 0.562441 0.866811
O O9 0.274731 0.752349 0.751599
O O10 0.218274 0.715446 0.836325
O O11 0.472011 0.789015 0.071816
O O12 0.846817 0.799425 0.696312
O O13 0.528676 0.189912 0.323982
O O14 0.646191 0.500000 0.430598
O O15 0.754883 0.394837 0.493974
O O16 0.273116 0.500000 0.710127
O O17 0.206040 0.612146 0.609952
O O18 0.500000 0.577185 0.000000
#
# Coordination Sequence:
#
# PCOD9181497 Si02
#       8
#     8   8   8   8   8   8   8   8
#     4  11  24  44  67  90 132 170 216 266 325 388
#     4   9  18  34  52  76 114 163 214 262 310 364
#     4  11  24  43  62  97 131 161 219 260 326 390
#     4  11  25  40  69  95 128 172 206 269 327 389
#     4  11  24  37  57  89 132 172 210 267 316 385
#     4  10  22  40  63  91 123 166 217 265 320 380
#     4  10  19  32  53  78 117 172 224 268 308 361
#     4  12  23  34  59  90 131 170 216 259 317 379
#
# _framework density 21.453571
#
# number of rings (size 3 to 8) (size 9 to 14) (size 15 to 20)
#    0.000    1.375    2.500    3.375    3.500    3.500 
#    0.000    1.250    0.000    1.500    0.000    1.750 
#    0.000    0.000    0.000    0.000    0.000    0.000 
#
# Total GULP energy -178684.085398 kJ/mol
# GULP energy per Si atom -5583.877669 kJ/mol
# Density = 2.140474 g / cm^3
# Si number density = 21.453571 Si / 1000 Ang^3
#
#
#
# Elastic Constant Matrix: (Units=GPa)
#
#
# Indices 1 2 3 4 5 6 
#
# 1 60.0767 35.3335 8.7496 0.0000 3.6121 0.0000
# 2 35.3335 112.1746 31.7695 0.0000 1.4428 0.0000
# 3 8.7496 31.7695 102.0394 -0.0001 4.0333 0.0001
# 4 0.0000 0.0000 -0.0001 27.6818 0.0000 -0.4517
# 5 3.6121 1.4428 4.0333 0.0000 28.2888 0.0000
# 6 0.0000 0.0000 0.0001 -0.4517 0.0000 31.5101
#
#
#
# Elastic Compliance Matrix: (Units=1/GPa)
#
#
# Indices 1 2 3 4 5 6 
#
# 1 0.020591 -0.006560 0.000370 0.000000 -0.002347 0.000000
# 2 -0.006560 0.011867 -0.003159 0.000000 0.000683 0.000000
# 3 0.000370 -0.003159 0.010808 0.000000 -0.001427 0.000000
# 4 0.000000 0.000000 0.000000 0.036133 0.000000 0.000518
# 5 -0.002347 0.000683 -0.001427 0.000000 0.035818 0.000000
# 6 0.000000 0.000000 0.000000 0.000518 0.000000 0.031743
#
#
# Mechanical properties :
#
#
# Convention : Reuss Voigt Hill
#
# Bulk Modulus (GPa) = 40.70538 47.33287 44.01913
# Shear Modulus (GPa) = 28.76042 30.72536 29.74289
#
# Velocity S-wave (km/s) = 3.66538 3.78852 3.72746
# Velocity P-wave (km/s) = 6.07686 6.42246 6.25205
#
# Compressibility (1/GPa) = 0.02456678
#
# Stress axis : x y z
#
# Youngs Moduli (GPa) = 48.56455 84.26671 92.52027
#
# Poissons Ratio (x) = 0.55283 -0.03421
# Poissons Ratio (y) = 0.31861 0.29229
# Poissons Ratio (z) = -0.01796 0.26622
#
# Static dielectric constant tensor:
#      x y z
#    x 1.824950 0.000000 0.035470 
#    y 0.000000 1.781330 0.000000 
#    z 0.035470 0.000000 1.869980 
# 
# From -- ./inp_files/286471.got.cif
#   From: 2010.05.17/outbox.cif.g08.bks.cpg/sg12_144_cif.got.tgz:286471.got - 2010.06.03 13:09:07.
