data_PCOD9181841
_publ_section_title
;
Structure prediction by ZEFSAII (Michael W. Deem and Ramdas Pophale) SiO2 
 PCOD9181841
Probable space group: C 2/M
;
_chemical_formula_sum "Si O2"
_cell_formula_units_Z 48
_cell_length_a 27.731012
_cell_length_b 7.829883
_cell_length_c 20.731886
_cell_angle_alpha 90.000000
_cell_angle_beta 150.469217
_cell_angle_gamma 90.000000
_cell_volume 2218.762311
_symmetry_space_group_name_H-M "C 2/M"
_symmetry_group_IT_number 12
_symmetry_cell_setting 'monoclinic'
loop_
_space_group_symop_operation_xyz
x,y,z
-x,y,-z
-x,-y,-z
x,-y,z
1/2+x,1/2+y,z
1/2-x,1/2+y,-z
1/2-x,1/2-y,-z
1/2+x,1/2-y,z
loop_
_atom_site_type_symbol
_atom_site_label
_atom_site_fract_x
_atom_site_fract_y
_atom_site_fract_z
Si Si1 0.224164 0.208810 0.152923
Si Si2 0.751876 0.296281 0.577929
Si Si3 0.461821 0.303860 0.642593
Si Si4 0.563226 0.806046 0.636892
Si Si5 0.655143 0.706039 0.933874
Si Si6 0.390257 0.704965 0.854977
O O1 0.333143 0.267502 0.263407
O O2 0.180491 0.268849 0.169739
O O3 0.227014 0.000000 0.159431
O O4 0.165534 0.257189 0.020424
O O5 0.753925 0.500000 0.585368
O O6 0.750000 0.250000 0.500000
O O7 0.646753 0.227747 0.481314
O O8 0.841345 0.238876 0.728207
O O9 0.451102 0.500000 0.652404
O O10 0.504300 0.298505 0.620520
O O11 0.551691 0.225545 0.787406
O O12 0.500000 0.819207 0.500000
O O13 0.578739 0.000000 0.680955
O O14 0.651310 0.500000 0.927237
O O15 0.750000 0.750000 0.000000
O O16 0.394652 0.500000 0.865244
O O17 0.500000 0.768018 0.000000
#
# Coordination Sequence:
#
# PCOD9181841 Si02
#       6
#     8   8   8   8   8   8
#     4   9  18  33  55  84 117 154 195 241 294 359
#     4  11  25  44  65  90 122 161 206 258 309 365
#     4  10  22  37  57  84 117 152 193 245 298 355
#     4  10  19  32  54  81 112 150 191 236 290 355
#     4  10  19  34  56  84 118 154 196 241 292 356
#     4  10  22  41  68  94 120 161 207 253 310 371
#
# _framework density 21.633683000000001
#
# number of rings (size 3 to 8) (size 9 to 14) (size 15 to 20)
#    0.000    2.000    1.667    1.500    2.333    3.333 
#    0.000    1.667    0.000    0.000    0.000    0.000 
#    0.000    0.000    0.000    0.000    0.000    0.000 
#
# Total GULP energy -133850.691960 kJ/mol
# GULP energy per Si atom -5577.112165 kJ/mol
# Density = 2.158444 g / cm^3
# Si number density = 21.633683 Si / 1000 Ang^3
#
#
#
# Elastic Constant Matrix: (Units=GPa)
#
#
# Indices 1 2 3 4 5 6 
#
# 1 123.0970 0.0356 69.4728 0.0000 -1.8468 0.0000
# 2 0.0356 30.7014 7.7378 0.0000 3.8426 0.0000
# 3 69.4728 7.7378 172.7419 0.0000 -1.7557 0.0000
# 4 0.0000 0.0000 0.0000 19.4684 0.0000 -8.4818
# 5 -1.8468 3.8426 -1.7557 0.0000 39.5195 0.0000
# 6 0.0000 0.0000 0.0000 -8.4818 0.0000 30.1235
#
#
#
# Elastic Compliance Matrix: (Units=1/GPa)
#
#
# Indices 1 2 3 4 5 6 
#
# 1 0.010545 0.001043 -0.004286 0.000000 0.000201 0.000000
# 2 0.001043 0.033475 -0.001952 0.000000 -0.003293 0.000000
# 3 -0.004286 -0.001952 0.007603 0.000000 0.000327 0.000000
# 4 0.000000 0.000000 0.000000 0.058547 0.000000 0.016485
# 5 0.000201 -0.003293 0.000327 0.000000 0.025648 0.000000
# 6 0.000000 0.000000 0.000000 0.016485 0.000000 0.037838
#
#
# Mechanical properties :
#
#
# Convention : Reuss Voigt Hill
#
# Bulk Modulus (GPa) = 24.25256 53.44809 38.85032
# Shear Modulus (GPa) = 25.27912 34.44189 29.86050
#
# Velocity S-wave (km/s) = 3.42205 3.99438 3.71924
# Velocity P-wave (km/s) = 5.18158 6.78476 6.03663
#
# Compressibility (1/GPa) = 0.04123276
#
# Stress axis : x y z
#
# Youngs Moduli (GPa) = 94.83066 29.87328 131.52080
#
# Poissons Ratio (x) = -0.03115 0.56365
# Poissons Ratio (y) = -0.09889 0.25677
# Poissons Ratio (z) = 0.40641 0.05832
#
# Static dielectric constant tensor:
#      x y z
#    x 1.797890 0.000000 0.027080 
#    y 0.000000 1.961410 0.000000 
#    z 0.027080 0.000000 1.891510 
# 
# From -- ./inp_files/327356.got.cif
#   From: 2010.05.17/outbox.cif.g08.bks.cpg/sg12_164_cif.got.tgz:327356.got - 2010.06.03 13:09:07.
