data_PCOD9181351
_publ_section_title
;
Structure prediction by ZEFSAII (Michael W. Deem and Ramdas Pophale) SiO2 
 PCOD9181351
Probable space group: C 2/M
;
_chemical_formula_sum "Si O2"
_cell_formula_units_Z 56
_cell_length_a 14.160447
_cell_length_b 18.772976
_cell_length_c 11.102389
_cell_angle_alpha 90.000000
_cell_angle_beta 115.186622
_cell_angle_gamma 90.000000
_cell_volume 2670.790401
_symmetry_space_group_name_H-M "C 2/M"
_symmetry_group_IT_number 12
_symmetry_cell_setting 'monoclinic'
loop_
_space_group_symop_operation_xyz
x,y,z
-x,y,-z
-x,-y,-z
x,-y,z
1/2+x,1/2+y,z
1/2-x,1/2+y,-z
1/2-x,1/2-y,-z
1/2+x,1/2-y,z
loop_
_atom_site_type_symbol
_atom_site_label
_atom_site_fract_x
_atom_site_fract_y
_atom_site_fract_z
Si Si1 0.827538 0.157198 0.625072
Si Si2 0.537799 0.583654 0.796020
Si Si3 0.853318 0.919777 0.392888
Si Si4 0.117187 0.576259 0.225673
Si Si5 0.612313 0.082543 0.513173
Si Si6 0.140804 0.211791 0.966751
Si Si7 0.427409 0.767875 0.813544
O O1 0.844329 0.136243 0.494980
O O2 0.713356 0.129447 0.600284
O O3 0.850969 0.239596 0.667545
O O4 0.920555 0.114296 0.744637
O O5 0.542638 0.500000 0.826039
O O6 0.565854 0.593306 0.669519
O O7 0.620824 0.630036 0.917708
O O8 0.740601 0.921954 0.268238
O O9 0.869367 0.000000 0.453605
O O10 0.074283 0.500000 0.162064
O O11 0.106984 0.579889 0.365200
O O12 0.073765 0.649640 0.155503
O O13 0.500000 0.107621 0.500000
O O14 0.627789 0.000000 0.562275
O O15 0.045606 0.249180 0.843415
O O16 0.250000 0.250000 0.000000
O O17 0.111970 0.226080 0.089750
#
# Coordination Sequence:
#
# PCOD9181351 Si02
#       7
#     8   8   8   8   8   8   8
#     4  10  19  32  52  82 118 147 176 221 270 322
#     4  10  19  34  58  84 111 146 186 223 270 330
#     4   9  17  30  53  85 115 142 174 217 266 318
#     4   9  18  35  56  78 107 140 178 226 276 327
#     4   9  18  32  50  77 115 152 181 213 259 319
#     4  10  22  41  57  75 110 145 181 237 286 317
#     4  10  22  38  56  80 107 143 188 229 276 334
#
# _framework density 20.967575
#
# number of rings (size 3 to 8) (size 9 to 14) (size 15 to 20)
#    0.000    2.429    0.000    3.429    0.000    4.571 
#    0.000   12.143    0.000    0.000    0.000    0.000 
#    0.000    1.143    0.000    0.000    0.000    0.000 
#
# Total GULP energy -156135.575493 kJ/mol
# GULP energy per Si atom -5576.270553 kJ/mol
# Density = 2.091985 g / cm^3
# Si number density = 20.967575 Si / 1000 Ang^3
#
#
#
# Elastic Constant Matrix: (Units=GPa)
#
#
# Indices 1 2 3 4 5 6 
#
# 1 145.4618 39.6796 18.3224 0.0000 29.3908 0.0000
# 2 39.6796 145.4935 45.9616 0.0000 7.7259 0.0000
# 3 18.3224 45.9616 46.8903 0.0000 9.9473 0.0000
# 4 0.0000 0.0000 0.0000 19.4735 0.0000 3.0972
# 5 29.3908 7.7259 9.9473 0.0000 25.3804 0.0000
# 6 0.0000 0.0000 0.0000 3.0972 0.0000 23.1740
#
#
#
# Elastic Compliance Matrix: (Units=1/GPa)
#
#
# Indices 1 2 3 4 5 6 
#
# 1 0.009557 -0.002282 0.000766 0.000000 -0.010673 0.000000
# 2 -0.002282 0.010518 -0.010143 0.000000 0.003416 0.000000
# 3 0.000766 -0.010143 0.033268 0.000000 -0.010839 0.000000
# 4 0.000000 0.000000 0.000000 0.052467 0.000000 -0.007012
# 5 -0.010673 0.003416 -0.010839 0.000000 0.054968 0.000000
# 6 0.000000 0.000000 0.000000 -0.007012 0.000000 0.044089
#
#
# Mechanical properties :
#
#
# Convention : Reuss Voigt Hill
#
# Bulk Modulus (GPa) = 33.30364 60.64144 46.97254
# Shear Modulus (GPa) = 20.99136 29.19772 25.09454
#
# Velocity S-wave (km/s) = 3.16750 3.73569 3.46327
# Velocity P-wave (km/s) = 5.41251 6.89866 6.20028
#
# Compressibility (1/GPa) = 0.03002675
#
# Stress axis : x y z
#
# Youngs Moduli (GPa) = 104.63493 95.07298 30.05867
#
# Poissons Ratio (x) = 0.21693 -0.02303
# Poissons Ratio (y) = 0.23875 0.30488
# Poissons Ratio (z) = -0.08018 0.96432
#
# Static dielectric constant tensor:
#      x y z
#    x 1.759390 0.000000 0.037590 
#    y 0.000000 1.806840 0.000000 
#    z 0.037590 0.000000 1.810670 
# 
# From -- ./inp_files/146226.got.cif
#   From: 2010.05.17/outbox.cif.g08.bks.cpg/sg12_74_cif.got.tgz:146226.got - 2010.06.03 13:09:07.
