data_PCOD9181031
_publ_section_title
;
Structure prediction by ZEFSAII (Michael W. Deem and Ramdas Pophale) SiO2 
 PCOD9181031
Probable space group: C 2/M
;
_chemical_formula_sum "Si O2"
_cell_formula_units_Z 40
_cell_length_a 19.431383
_cell_length_b 7.796082
_cell_length_c 27.620141
_cell_angle_alpha 90.000000
_cell_angle_beta 151.090278
_cell_angle_gamma 90.000000
_cell_volume 2022.741716
_symmetry_space_group_name_H-M "C 2/M"
_symmetry_group_IT_number 12
_symmetry_cell_setting 'monoclinic'
loop_
_space_group_symop_operation_xyz
x,y,z
-x,y,-z
-x,-y,-z
x,-y,z
1/2+x,1/2+y,z
1/2-x,1/2+y,-z
1/2-x,1/2-y,-z
1/2+x,1/2-y,z
loop_
_atom_site_type_symbol
_atom_site_label
_atom_site_fract_x
_atom_site_fract_y
_atom_site_fract_z
Si Si1 0.822294 0.795785 0.094861
Si Si2 0.433039 0.702092 0.313215
Si Si3 0.660599 0.210234 0.091416
Si Si4 0.403520 0.798832 0.682902
Si Si5 0.083505 0.210653 0.503236
O O1 0.721833 0.736861 0.077094
O O2 0.979168 0.725177 0.202901
O O3 0.834085 0.000000 0.105470
O O4 0.750000 0.750000 0.000000
O O5 0.414093 0.500000 0.310103
O O6 0.277679 0.770648 0.202475
O O7 0.532867 0.720373 0.327332
O O8 0.504714 0.771323 0.405857
O O9 0.659751 0.000000 0.092060
O O10 0.500000 0.268568 0.000000
O O11 0.248104 0.733264 0.601939
O O12 0.389664 0.000000 0.664255
O O13 0.000000 0.264742 0.500000
O O14 0.084245 0.000000 0.503965
#
# Coordination Sequence:
#
# PCOD9181031 Si02
#       5
#     8   8   8   8   8
#     4  10  20  34  53  76 102 131 164 204 248 296
#     4   9  17  31  51  72  98 131 166 208 251 295
#     4   8  15  28  48  73  96 124 164 204 242 286
#     4  10  19  32  52  74  98 131 169 208 250 299
#     4   9  18  31  49  75 101 129 171 216 251 289
#
# _framework density 19.775141000000001
#
# number of rings (size 3 to 8) (size 9 to 14) (size 15 to 20)
#    0.000    2.800    0.000    3.000    0.000    1.600 
#    0.000    7.000    0.000   25.200    0.000    0.000 
#    0.000    0.000    0.000    0.000    0.000    0.000 
#
# Total GULP energy -111549.639893 kJ/mol
# GULP energy per Si atom -5577.481995 kJ/mol
# Density = 1.973013 g / cm^3
# Si number density = 19.775141 Si / 1000 Ang^3
#
#
#
# Elastic Constant Matrix: (Units=GPa)
#
#
# Indices 1 2 3 4 5 6 
#
# 1 103.0860 -7.5525 125.4535 0.0000 2.6536 0.0000
# 2 -7.5525 20.0554 -3.8468 0.0002 3.0655 0.0001
# 3 125.4535 -3.8468 218.6499 0.0005 9.9133 0.0002
# 4 0.0000 0.0002 0.0005 16.7573 0.0001 0.8912
# 5 2.6536 3.0655 9.9133 0.0001 40.7927 0.0000
# 6 0.0000 0.0001 0.0002 0.8912 0.0000 14.3336
#
#
#
# Elastic Compliance Matrix: (Units=1/GPa)
#
#
# Indices 1 2 3 4 5 6 
#
# 1 0.033832 0.008749 -0.019341 0.000000 0.001842 0.000000
# 2 0.008749 0.052953 -0.003925 0.000000 -0.003595 0.000000
# 3 -0.019341 -0.003925 0.015704 0.000000 -0.002263 0.000000
# 4 0.000000 0.000000 0.000000 0.059874 0.000000 -0.003723
# 5 0.001842 -0.003595 -0.002263 0.000000 0.025215 0.000000
# 6 0.000000 0.000000 0.000000 -0.003723 0.000000 0.069998
#
#
# Mechanical properties :
#
#
# Convention : Reuss Voigt Hill
#
# Bulk Modulus (GPa) = 13.61383 63.32219 38.46801
# Shear Modulus (GPa) = 16.07224 29.55918 22.81571
#
# Velocity S-wave (km/s) = 2.85397 3.87041 3.40039
# Velocity P-wave (km/s) = 4.21420 7.21554 5.90862
#
# Compressibility (1/GPa) = 0.07345473
#
# Stress axis : x y z
#
# Youngs Moduli (GPa) = 29.55768 18.88464 63.67639
#
# Poissons Ratio (x) = -0.16522 1.23158
# Poissons Ratio (y) = -0.25861 0.24995
# Poissons Ratio (z) = 0.57168 0.07413
#
# Static dielectric constant tensor:
#      x y z
#    x 1.685260 0.000000 -0.031210 
#    y 0.000000 1.748350 0.000000 
#    z -0.031210 0.000000 1.743300 
# 
# From -- ./inp_files/162725.got.cif
#   From: 2010.05.17/outbox.cif.g08.bks.cpg/sg12_82_cif.got.tgz:162725.got - 2010.06.03 13:09:07.
