data_PCOD9181908
_publ_section_title
;
Structure prediction by ZEFSAII (Michael W. Deem and Ramdas Pophale) SiO2 
 PCOD9181908
Probable space group: C 2/M
;
_chemical_formula_sum "Si O2"
_cell_formula_units_Z 64
_cell_length_a 14.750982
_cell_length_b 17.432202
_cell_length_c 11.198105
_cell_angle_alpha 90.000000
_cell_angle_beta 112.660764
_cell_angle_gamma 90.000000
_cell_volume 2657.212651
_symmetry_space_group_name_H-M "C 2/M"
_symmetry_group_IT_number 12
_symmetry_cell_setting 'monoclinic'
loop_
_space_group_symop_operation_xyz
x,y,z
-x,y,-z
-x,-y,-z
x,-y,z
1/2+x,1/2+y,z
1/2-x,1/2+y,-z
1/2-x,1/2-y,-z
1/2+x,1/2-y,z
loop_
_atom_site_type_symbol
_atom_site_label
_atom_site_fract_x
_atom_site_fract_y
_atom_site_fract_z
Si Si1 0.837513 0.793817 0.371841
Si Si2 0.529434 0.874680 0.269894
Si Si3 0.614921 0.264041 0.226869
Si Si4 0.880592 0.320449 0.017456
Si Si5 0.840164 0.841597 0.119265
Si Si6 0.235559 0.583219 0.452607
Si Si7 0.659034 0.589548 0.130834
Si Si8 0.136836 0.625219 0.649185
O O1 0.727853 0.757671 0.301292
O O2 0.870225 0.843729 0.273358
O O3 0.816155 0.851020 0.470118
O O4 0.890844 0.712739 0.399764
O O5 0.553677 0.782921 0.292277
O O6 0.456992 0.877111 0.119309
O O7 0.638548 0.908933 0.318548
O O8 0.462978 0.905904 0.343333
O O9 0.604275 0.353593 0.195968
O O10 0.590723 0.221403 0.090527
O O11 0.858050 0.247794 0.093182
O O12 0.776201 0.358482 0.938028
O O13 0.874866 0.889461 0.021318
O O14 0.280224 0.500000 0.459380
O O15 0.185482 0.590237 0.556388
O O16 0.647383 0.500000 0.148319
O O17 0.774492 0.613468 0.208751
#
# Coordination Sequence:
#
# PCOD9181908 Si02
#       8
#     8   8   8   8   8   8   8   8
#     4   9  18  36  59  76 101 141 197 228 256 312
#     4  11  19  33  54  78 105 145 181 220 266 320
#     4   8  18  30  52  79 108 140 177 225 267 315
#     4   9  14  29  52  78 102 130 178 224 264 305
#     4   9  15  30  54  81 101 127 176 235 263 303
#     4  11  25  38  50  77 120 151 172 221 284 330
#     4  10  19  32  54  83 114 143 175 219 276 326
#     4  11  20  36  58  81 101 144 197 230 254 309
#
# _framework density 24.085387999999998
#
# number of rings (size 3 to 8) (size 9 to 14) (size 15 to 20)
#    0.000    2.250    2.500    3.000    0.000    2.000 
#    0.000    0.000    0.000    9.750    0.000    0.000 
#    0.000    8.000    0.000    0.000    0.000    0.000 
#
# Total GULP energy -178339.934795 kJ/mol
# GULP energy per Si atom -5573.122962 kJ/mol
# Density = 2.403057 g / cm^3
# Si number density = 24.085388 Si / 1000 Ang^3
#
#
#
# Elastic Constant Matrix: (Units=GPa)
#
#
# Indices 1 2 3 4 5 6 
#
# 1 36.8449 -2.0926 6.6524 0.0000 -1.8688 0.0000
# 2 -2.0926 131.0716 16.5741 0.0000 -19.3407 0.0000
# 3 6.6524 16.5741 66.4676 0.0000 -13.6130 0.0000
# 4 0.0000 0.0000 0.0000 16.4224 0.0000 -1.4612
# 5 -1.8688 -19.3407 -13.6130 0.0000 36.7487 0.0000
# 6 0.0000 0.0000 0.0000 -1.4612 0.0000 4.7418
#
#
#
# Elastic Compliance Matrix: (Units=1/GPa)
#
#
# Indices 1 2 3 4 5 6 
#
# 1 0.027748 0.000927 -0.002834 0.000000 0.000849 0.000000
# 2 0.000927 0.008403 -0.001377 0.000000 0.003959 0.000000
# 3 -0.002834 -0.001377 0.016766 0.000000 0.005342 0.000000
# 4 0.000000 0.000000 0.000000 0.062609 0.000000 0.019294
# 5 0.000849 0.003959 0.005342 0.000000 0.031318 0.000000
# 6 0.000000 0.000000 0.000000 0.019294 0.000000 0.216838
#
#
# Mechanical properties :
#
#
# Convention : Reuss Voigt Hill
#
# Bulk Modulus (GPa) = 21.57626 30.73909 26.15768
# Shear Modulus (GPa) = 12.96344 25.79924 19.38134
#
# Velocity S-wave (km/s) = 2.32249 3.27640 2.83979
# Velocity P-wave (km/s) = 4.02115 5.20609 4.65150
#
# Compressibility (1/GPa) = 0.04634724
#
# Stress axis : x y z
#
# Youngs Moduli (GPa) = 36.03828 119.01122 59.64445
#
# Poissons Ratio (x) = -0.11029 0.16906
# Poissons Ratio (y) = -0.03340 0.08214
# Poissons Ratio (z) = 0.10215 0.16389
#
# Static dielectric constant tensor:
#      x y z
#    x 2.008910 0.000000 0.012650 
#    y 0.000000 1.930710 0.000000 
#    z 0.012650 0.000000 2.063760 
# 
# From -- ./inp_files/157901.got.cif
#   From: 2010.05.17/outbox.cif.g08.bks.cpg/sg12_79_cif.got.tgz:157901.got - 2010.06.03 13:09:07.
