data_PCOD9181341
_publ_section_title
;
Structure prediction by ZEFSAII (Michael W. Deem and Ramdas Pophale) SiO2 
 PCOD9181341
Probable space group: C 2/M
;
_chemical_formula_sum "Si O2"
_cell_formula_units_Z 48
_cell_length_a 8.904717
_cell_length_b 20.131827
_cell_length_c 22.136843
_cell_angle_alpha 90.000000
_cell_angle_beta 39.682468
_cell_angle_gamma 90.000000
_cell_volume 2533.972555
_symmetry_space_group_name_H-M "C 2/M"
_symmetry_group_IT_number 12
_symmetry_cell_setting 'monoclinic'
loop_
_space_group_symop_operation_xyz
x,y,z
-x,y,-z
-x,-y,-z
x,-y,z
1/2+x,1/2+y,z
1/2-x,1/2+y,-z
1/2-x,1/2-y,-z
1/2+x,1/2-y,z
loop_
_atom_site_type_symbol
_atom_site_label
_atom_site_fract_x
_atom_site_fract_y
_atom_site_fract_z
Si Si1 0.902877 0.655926 0.089589
Si Si2 0.598258 0.209135 0.596553
Si Si3 0.572794 0.926043 0.407605
Si Si4 0.393217 0.576733 0.723252
Si Si5 0.780060 0.313584 0.305693
Si Si6 0.273383 0.209530 0.906975
O O1 0.780450 0.606530 0.173203
O O2 0.742815 0.714269 0.110590
O O3 0.095417 0.694308 0.070809
O O4 0.000000 0.620389 0.000000
O O5 0.750000 0.250000 0.500000
O O6 0.541908 0.135892 0.589959
O O7 0.721233 0.200875 0.623020
O O8 0.357817 0.251145 0.680894
O O9 0.500000 0.924902 0.500000
O O10 0.852104 0.917207 0.325277
O O11 0.516421 0.000000 0.400662
O O12 0.349806 0.500000 0.722678
O O13 0.362445 0.622327 0.673578
O O14 0.047280 0.321286 0.198312
O O15 0.000000 0.187488 0.000000
#
# Coordination Sequence:
#
# PCOD9181341 Si02
#       6
#     8   8   8   8   8   8
#     4  10  19  32  54  80 110 144 183 233 286 341
#     4  12  23  37  59  89 117 146 189 236 286 341
#     4  10  21  38  58  80 112 149 185 226 276 336
#     4  10  22  39  57  80 112 152 194 235 284 341
#     4  11  22  36  58  82 115 149 185 240 288 339
#     4  10  19  32  52  82 111 140 182 232 287 340
#
# _framework density 18.942589000000002
#
# number of rings (size 3 to 8) (size 9 to 14) (size 15 to 20)
#    0.000    1.500    0.000    8.500    0.000    2.333 
#    0.000    0.000    0.000   13.000    0.000    0.000 
#    0.000    0.667    0.000    0.000    0.000    0.000 
#
# Total GULP energy -133841.283730 kJ/mol
# GULP energy per Si atom -5576.720155 kJ/mol
# Density = 1.889947 g / cm^3
# Si number density = 18.942589 Si / 1000 Ang^3
#
#
#
# Elastic Constant Matrix: (Units=GPa)
#
#
# Indices 1 2 3 4 5 6 
#
# 1 114.4895 57.2225 17.1503 0.0104 18.5680 -0.0061
# 2 57.2225 122.4511 20.3953 0.0109 -7.9673 -0.0076
# 3 17.1503 20.3953 69.5351 0.0161 0.4463 -0.0102
# 4 0.0104 0.0109 0.0161 34.3725 -0.0053 -0.3679
# 5 18.5680 -7.9673 0.4463 -0.0053 22.5464 0.0052
# 6 -0.0061 -0.0076 -0.0102 -0.3679 0.0052 35.8644
#
#
#
# Elastic Compliance Matrix: (Units=1/GPa)
#
#
# Indices 1 2 3 4 5 6 
#
# 1 0.015461 -0.008009 -0.001365 -0.000004 -0.015536 0.000003
# 2 -0.008009 0.012954 -0.001896 0.000001 0.011211 -0.000001
# 3 -0.001365 -0.001896 0.015273 -0.000006 0.000151 0.000004
# 4 -0.000004 0.000001 -0.000006 0.029096 0.000010 0.000298
# 5 -0.015536 0.011211 0.000151 0.000010 0.061107 -0.000009
# 6 0.000003 -0.000001 0.000004 0.000298 -0.000009 0.027886
#
#
# Mechanical properties :
#
#
# Convention : Reuss Voigt Hill
#
# Bulk Modulus (GPa) = 47.28287 55.11242 51.19765
# Shear Modulus (GPa) = 26.12785 32.67049 29.39917
#
# Velocity S-wave (km/s) = 3.71795 4.15747 3.94384
# Velocity P-wave (km/s) = 6.59137 7.22521 6.91556
#
# Compressibility (1/GPa) = 0.02114931
#
# Stress axis : x y z
#
# Youngs Moduli (GPa) = 64.67734 77.19396 65.47486
#
# Poissons Ratio (x) = 0.61823 0.08935
# Poissons Ratio (y) = 0.51799 0.12416
# Poissons Ratio (z) = 0.08826 0.14638
#
# Static dielectric constant tensor:
#      x y z
#    x 1.646710 0.000000 0.011830 
#    y 0.000000 1.648290 0.000000 
#    z 0.011830 0.000000 1.679290 
# 
# From -- ./inp_files/356889.got.cif
#   From: 2010.05.17/outbox.cif.g08.bks.cpg/sg12_179_cif.got.tgz:356889.got - 2010.06.03 13:09:07.
