data_PCOD9181115
_publ_section_title
;
Structure prediction by ZEFSAII (Michael W. Deem and Ramdas Pophale) SiO2 
 PCOD9181115
Probable space group: C 2/M
;
_chemical_formula_sum "Si O2"
_cell_formula_units_Z 48
_cell_length_a 21.794880
_cell_length_b 13.888143
_cell_length_c 23.990238
_cell_angle_alpha 90.000000
_cell_angle_beta 162.034121
_cell_angle_gamma 90.000000
_cell_volume 2239.849227
_symmetry_space_group_name_H-M "C 2/M"
_symmetry_group_IT_number 12
_symmetry_cell_setting 'monoclinic'
loop_
_space_group_symop_operation_xyz
x,y,z
-x,y,-z
-x,-y,-z
x,-y,z
1/2+x,1/2+y,z
1/2-x,1/2+y,-z
1/2-x,1/2-y,-z
1/2+x,1/2-y,z
loop_
_atom_site_type_symbol
_atom_site_label
_atom_site_fract_x
_atom_site_fract_y
_atom_site_fract_z
Si Si1 0.540459 0.811903 0.117599
Si Si2 0.621957 0.610732 0.872788
Si Si3 0.706735 0.391018 0.755410
Si Si4 0.213941 0.703250 0.878790
Si Si5 0.678729 0.886096 0.470337
Si Si6 0.734640 0.385097 0.582146
O O1 0.723508 0.819222 0.232970
O O2 0.621845 0.838830 0.248387
O O3 0.379733 0.884897 0.951308
O O4 0.408536 0.715953 0.009171
O O5 0.645010 0.500000 0.872856
O O6 0.682145 0.692785 0.880910
O O7 0.387599 0.627022 0.681866
O O8 0.744063 0.629740 0.034407
O O9 0.697612 0.500000 0.724574
O O10 0.493872 0.368789 0.597903
O O11 0.014091 0.670085 0.675988
O O12 0.719683 0.854832 0.441525
O O13 0.637204 0.000000 0.434465
O O14 0.765304 0.500000 0.610551
#
# Coordination Sequence:
#
# PCOD9181115 Si02
#       6
#     8   8   8   8   8   8
#     4  11  21  32  49  74 106 143 176 216 265 316
#     4  10  21  36  53  77 111 149 185 223 272 326
#     4  10  21  36  53  75 106 143 183 225 271 329
#     4  11  22  34  54  82 114 146 184 229 270 326
#     4  10  21  37  57  82 114 149 184 225 274 326
#     4  10  19  32  52  76 105 143 182 218 262 322
#
# _framework density 21.430014
#
# number of rings (size 3 to 8) (size 9 to 14) (size 15 to 20)
#    0.000    1.667    0.000    6.500    0.000    7.333 
#    0.000    0.000    0.000    0.000    0.000    9.333 
#    0.000   41.333    0.000    0.000    0.000    0.000 
#
# Total GULP energy -134198.265779 kJ/mol
# GULP energy per Si atom -5591.594407 kJ/mol
# Density = 2.138124 g / cm^3
# Si number density = 21.430014 Si / 1000 Ang^3
#
#
#
# Elastic Constant Matrix: (Units=GPa)
#
#
# Indices 1 2 3 4 5 6 
#
# 1 37.7433 10.6581 7.1718 0.0029 12.2889 -0.0001
# 2 10.6581 65.0119 15.0567 -0.0147 4.1794 -0.0080
# 3 7.1718 15.0567 104.5666 0.0294 8.7293 0.0011
# 4 0.0029 -0.0147 0.0294 39.8144 -0.0048 6.8009
# 5 12.2889 4.1794 8.7293 -0.0048 33.4450 -0.0011
# 6 -0.0001 -0.0080 0.0011 6.8009 -0.0011 21.2576
#
#
#
# Elastic Compliance Matrix: (Units=1/GPa)
#
#
# Indices 1 2 3 4 5 6 
#
# 1 0.031350 -0.004299 -0.000628 -0.000005 -0.010818 -0.000001
# 2 -0.004299 0.016568 -0.002096 0.000007 0.000056 0.000004
# 3 -0.000628 -0.002096 0.010087 -0.000009 -0.002140 0.000001
# 4 -0.000005 0.000007 -0.000009 0.026568 0.000007 -0.008500
# 5 -0.010818 0.000056 -0.002140 0.000007 0.034426 0.000000
# 6 -0.000001 0.000004 0.000001 -0.008500 0.000000 0.049761
#
#
# Mechanical properties :
#
#
# Convention : Reuss Voigt Hill
#
# Bulk Modulus (GPa) = 22.74759 30.34390 26.54574
# Shear Modulus (GPa) = 25.32163 30.53241 27.92702
#
# Velocity S-wave (km/s) = 3.44116 3.77868 3.61387
# Velocity P-wave (km/s) = 5.14069 5.76439 5.46145
#
# Compressibility (1/GPa) = 0.04396070
#
# Stress axis : x y z
#
# Youngs Moduli (GPa) = 31.89760 60.35644 99.13988
#
# Poissons Ratio (x) = 0.25945 0.06227
# Poissons Ratio (y) = 0.13712 0.20775
# Poissons Ratio (z) = 0.02004 0.12648
#
# Static dielectric constant tensor:
#      x y z
#    x 1.807630 0.000000 0.016860 
#    y 0.000000 1.795140 -0.000010 
#    z 0.016860 -0.000010 1.799280 
# 
# From -- ./inp_files/347533.got.cif
#   From: 2010.05.17/outbox.cif.g08.bks.cpg/sg12_174_cif.got.tgz:347533.got - 2010.06.03 13:09:07.
