data_PCOD9181849
_publ_section_title
;
Structure prediction by ZEFSAII (Michael W. Deem and Ramdas Pophale) SiO2 
 PCOD9181849
Probable space group: C 2/M
;
_chemical_formula_sum "Si O2"
_cell_formula_units_Z 64
_cell_length_a 20.371973
_cell_length_b 7.402412
_cell_length_c 24.485538
_cell_angle_alpha 90.000000
_cell_angle_beta 129.659837
_cell_angle_gamma 90.000000
_cell_volume 2842.631010
_symmetry_space_group_name_H-M "C 2/M"
_symmetry_group_IT_number 12
_symmetry_cell_setting 'monoclinic'
loop_
_space_group_symop_operation_xyz
x,y,z
-x,y,-z
-x,-y,-z
x,-y,z
1/2+x,1/2+y,z
1/2-x,1/2+y,-z
1/2-x,1/2-y,-z
1/2+x,1/2-y,z
loop_
_atom_site_type_symbol
_atom_site_label
_atom_site_fract_x
_atom_site_fract_y
_atom_site_fract_z
Si Si1 0.151859 0.780925 0.244386
Si Si2 0.957263 0.784192 0.125285
Si Si3 0.573542 0.781132 0.375387
Si Si4 0.072233 0.788613 0.498288
Si Si5 0.762234 0.708766 0.595046
Si Si6 0.414080 0.214857 0.222732
Si Si7 0.411752 0.720251 0.982364
Si Si8 0.737956 0.279137 0.177775
O O1 0.191550 0.715149 0.321832
O O2 0.207171 0.725036 0.221432
O O3 0.054548 0.718561 0.184108
O O4 0.151319 0.000000 0.246132
O O5 0.908423 0.745927 0.155215
O O6 0.963363 0.000000 0.123009
O O7 0.915205 0.718123 0.046923
O O8 0.545993 0.727219 0.421263
O O9 0.668114 0.713706 0.410046
O O10 0.503381 0.716481 0.294530
O O11 0.576785 0.000000 0.374840
O O12 0.168080 0.709377 0.550836
O O13 0.000000 0.711569 0.500000
O O14 0.080559 0.000000 0.518001
O O15 0.749526 0.500000 0.572254
O O16 0.331556 0.284019 0.210652
O O17 0.415720 0.000000 0.231924
O O18 0.409779 0.500000 0.981059
O O19 0.331633 0.779148 0.903945
O O20 0.500000 0.772645 0.000000
O O21 0.738180 0.500000 0.177553
#
# Coordination Sequence:
#
# PCOD9181849 Si02
#       8
#     8   8   8   8   8   8   8   8
#     4  10  19  32  55  83 104 132 182 229 259 300
#     4  10  19  32  54  82 106 134 180 227 262 306
#     4  10  21  37  57  79 105 142 180 212 254 314
#     4  10  23  40  57  81 110 138 171 215 266 313
#     4  10  21  38  57  78 108 143 175 210 262 320
#     4  10  21  36  53  77 112 145 172 212 267 319
#     4   9  15  28  51  77 105 137 177 226 269 304
#     4   9  18  32  51  77 107 141 180 221 265 310
#
# _framework density 22.514353
#
# number of rings (size 3 to 8) (size 9 to 14) (size 15 to 20)
#    0.000    2.250    2.500    0.375    1.750    2.250 
#    0.000    0.625    0.000    1.125    0.000    0.000 
#    0.000    0.000    0.000    0.000    0.000    0.000 
#
# Total GULP energy -178828.546227 kJ/mol
# GULP energy per Si atom -5588.392070 kJ/mol
# Density = 2.246311 g / cm^3
# Si number density = 22.514353 Si / 1000 Ang^3
#
#
#
# Elastic Constant Matrix: (Units=GPa)
#
#
# Indices 1 2 3 4 5 6 
#
# 1 158.2859 2.8038 30.4017 -0.0098 -14.0089 -0.0009
# 2 2.8038 77.3564 -5.1198 -0.0386 9.1726 -0.0035
# 3 30.4017 -5.1198 77.0604 -0.0080 -13.2894 -0.0007
# 4 -0.0098 -0.0386 -0.0080 2364.1873 0.0033 196.1018
# 5 -14.0089 9.1726 -13.2894 0.0033 37.2169 0.0003
# 6 -0.0009 -0.0035 -0.0007 196.1018 0.0003 20.5554
#
#
#
# Elastic Compliance Matrix: (Units=1/GPa)
#
#
# Indices 1 2 3 4 5 6 
#
# 1 0.006971 -0.000641 -0.002465 0.000000 0.001902 0.000000
# 2 -0.000641 0.013384 0.000567 0.000000 -0.003338 0.000001
# 3 -0.002465 0.000567 0.014709 0.000000 0.004185 0.000000
# 4 0.000000 0.000000 0.000000 0.002027 0.000000 -0.019338
# 5 0.001902 -0.003338 0.004185 0.000000 0.029902 0.000000
# 6 0.000000 0.000001 0.000000 -0.019338 0.000000 0.233134
#
#
# Mechanical properties :
#
#
# Convention : Reuss Voigt Hill
#
# Bulk Modulus (GPa) = 33.35093 40.98600 37.16847
# Shear Modulus (GPa) = 15.86298 503.36640 259.61469
#
# Velocity S-wave (km/s) = 2.65726 14.96867 10.74993
# Velocity P-wave (km/s) = 4.92545 17.80427 13.06239
#
# Compressibility (1/GPa) = 0.02998417
#
# Stress axis : x y z
#
# Youngs Moduli (GPa) = 143.45651 74.71786 67.98784
#
# Poissons Ratio (x) = 0.04792 0.16757
# Poissons Ratio (y) = 0.09200 -0.03852
# Poissons Ratio (z) = 0.35358 -0.04234
#
# Static dielectric constant tensor:
#      x y z
#    x 1.810490 0.000000 0.016500 
#    y 0.000000 1.868710 0.000000 
#    z 0.016500 0.000000 1.796180 
# 
# From -- ./inp_files/315738.got.cif
#   From: 2010.05.17/outbox.cif.g08.bks.cpg/sg12_158_cif.got.tgz:315738.got - 2010.06.03 13:09:07.
