data_PCOD9181882
_publ_section_title
;
Structure prediction by ZEFSAII (Michael W. Deem and Ramdas Pophale) SiO2 
 PCOD9181882
Probable space group: C 2/M
;
_chemical_formula_sum "Si O2"
_cell_formula_units_Z 64
_cell_length_a 14.856658
_cell_length_b 7.431731
_cell_length_c 25.594471
_cell_angle_alpha 90.000000
_cell_angle_beta 66.146288
_cell_angle_gamma 90.000000
_cell_volume 2584.517172
_symmetry_space_group_name_H-M "C 2/M"
_symmetry_group_IT_number 12
_symmetry_cell_setting 'monoclinic'
loop_
_space_group_symop_operation_xyz
x,y,z
-x,y,-z
-x,-y,-z
x,-y,z
1/2+x,1/2+y,z
1/2-x,1/2+y,-z
1/2-x,1/2-y,-z
1/2+x,1/2-y,z
loop_
_atom_site_type_symbol
_atom_site_label
_atom_site_fract_x
_atom_site_fract_y
_atom_site_fract_z
Si Si1 0.054691 0.706066 0.937487
Si Si2 0.306261 0.294756 0.747827
Si Si3 0.687489 0.780733 0.592033
Si Si4 0.032736 0.718581 0.717067
Si Si5 0.353049 0.718333 0.626546
Si Si6 0.446610 0.793283 0.462753
Si Si7 0.490540 0.779932 0.840213
Si Si8 0.231024 0.704012 0.128518
O O1 0.018920 0.500000 0.942780
O O2 0.171998 0.705251 0.916371
O O3 0.031094 0.784678 0.885988
O O4 0.000000 0.789313 0.000000
O O5 0.269650 0.500000 0.757208
O O6 0.424611 0.288962 0.727640
O O7 0.294592 0.222823 0.692008
O O8 0.263835 0.205834 0.809468
O O9 0.613130 0.725968 0.655906
O O10 0.794492 0.728784 0.587933
O O11 0.645095 0.712563 0.546969
O O12 0.685642 0.000000 0.589950
O O13 0.028651 0.500000 0.716593
O O14 0.048381 0.772859 0.773912
O O15 0.357674 0.500000 0.627538
O O16 0.462790 0.792463 0.599607
O O17 0.500000 0.704909 0.500000
O O18 0.423876 0.000000 0.481238
O O19 0.376581 0.721979 0.860329
O O20 0.491842 0.000000 0.839202
O O21 0.233350 0.500000 0.109208
#
# Coordination Sequence:
#
# PCOD9181882 Si02
#       8
#     8   8   8   8   8   8   8   8
#     4  10  21  37  57  81 109 142 181 225 269 315
#     4  10  19  32  54  82 112 138 174 224 272 316
#     4   9  18  33  54  79 107 143 179 211 266 329
#     4   9  16  31  56  77 104 145 179 211 261 326
#     4  10  21  35  55  82 109 143 180 218 268 326
#     4  10  21  38  58  78 106 144 184 225 264 310
#     4   8  17  33  54  78 106 142 179 211 263 328
#     4  10  21  37  56  79 108 146 183 218 266 322
#
# _framework density 24.762847000000001
#
# number of rings (size 3 to 8) (size 9 to 14) (size 15 to 20)
#    0.000    2.500    1.250    1.500    1.750    2.000 
#    0.000    4.375    0.000    0.000    0.000    0.000 
#    0.000    0.000    0.000    0.000    0.000    0.000 
#
# Total GULP energy -178831.387869 kJ/mol
# GULP energy per Si atom -5588.480871 kJ/mol
# Density = 2.470649 g / cm^3
# Si number density = 24.762847 Si / 1000 Ang^3
#
#
#
# Elastic Constant Matrix: (Units=GPa)
#
#
# Indices 1 2 3 4 5 6 
#
# 1 107.2748 -1.3791 36.1543 0.0000 7.3493 0.0000
# 2 -1.3791 83.2184 6.3572 0.0000 2.0162 0.0000
# 3 36.1543 6.3572 92.2944 0.0000 -2.1795 0.0000
# 4 0.0000 0.0000 0.0000 8.2805 0.0000 -6.8010
# 5 7.3493 2.0162 -2.1795 0.0000 40.8215 0.0000
# 6 0.0000 0.0000 0.0000 -6.8010 0.0000 0.4494
#
#
#
# Elastic Compliance Matrix: (Units=1/GPa)
#
#
# Indices 1 2 3 4 5 6 
#
# 1 0.010960 0.000571 -0.004386 0.000000 -0.002236 0.000000
# 2 0.000571 0.012127 -0.001077 0.000000 -0.000759 0.000000
# 3 -0.004386 -0.001077 0.012663 0.000000 0.001519 0.000000
# 4 0.000000 0.000000 0.000000 -0.010566 0.000000 -0.159901
# 5 -0.002236 -0.000759 0.001519 0.000000 0.025018 0.000000
# 6 0.000000 0.000000 0.000000 -0.159901 0.000000 -0.194686
#
#
# Mechanical properties :
#
#
# Convention : Reuss Voigt Hill
#
# Bulk Modulus (GPa) = 38.51075 40.56139 39.53607
# Shear Modulus (GPa) = -39.66840 26.02064 -6.82388
#
# Velocity S-wave (km/s) = -4.00676 3.24511 -1.66183
# Velocity P-wave (km/s) = 2.41244 5.51874 3.50974
#
# Compressibility (1/GPa) = 0.02596678
#
# Stress axis : x y z
#
# Youngs Moduli (GPa) = 91.23747 82.46280 78.97087
#
# Poissons Ratio (x) = -0.04707 0.34634
# Poissons Ratio (y) = -0.05208 0.08504
# Poissons Ratio (z) = 0.40013 0.08880
#
# Static dielectric constant tensor:
#      x y z
#    x 1.949350 0.000000 0.036240 
#    y 0.000000 1.928230 0.000000 
#    z 0.036240 0.000000 1.979440 
# 
# From -- ./inp_files/359749.got.cif
#   From: 2010.05.17/outbox.cif.g08.bks.cpg/sg12_180_cif.got.tgz:359749.got - 2010.06.03 13:09:07.
