data_PCOD9181775
_publ_section_title
;
Structure prediction by ZEFSAII (Michael W. Deem and Ramdas Pophale) SiO2 
 PCOD9181775
Probable space group: C 2/M
;
_chemical_formula_sum "Si O2"
_cell_formula_units_Z 60
_cell_length_a 5.220712
_cell_length_b 14.745867
_cell_length_c 37.241771
_cell_angle_alpha 90.000000
_cell_angle_beta 77.971923
_cell_angle_gamma 90.000000
_cell_volume 2804.074042
_symmetry_space_group_name_H-M "C 2/M"
_symmetry_group_IT_number 12
_symmetry_cell_setting 'monoclinic'
loop_
_space_group_symop_operation_xyz
x,y,z
-x,y,-z
-x,-y,-z
x,-y,z
1/2+x,1/2+y,z
1/2-x,1/2+y,-z
1/2-x,1/2-y,-z
1/2+x,1/2-y,z
loop_
_atom_site_type_symbol
_atom_site_label
_atom_site_fract_x
_atom_site_fract_y
_atom_site_fract_z
Si Si1 0.895025 0.388835 0.120397
Si Si2 0.500000 0.688394 0.000000
Si Si3 0.381594 0.388929 0.798065
Si Si4 0.217369 0.609027 0.521630
Si Si5 0.427715 0.809040 0.679008
Si Si6 0.842863 0.308883 0.399020
Si Si7 0.456586 0.391496 0.079141
Si Si8 0.556016 0.891229 0.243391
O O1 0.899747 0.500000 0.120928
O O2 0.757174 0.359669 0.161190
O O3 0.716465 0.359551 0.092049
O O4 0.192621 0.358340 0.106321
O O5 0.546836 0.632107 0.962497
O O6 0.250000 0.750000 0.000000
O O7 0.384674 0.500000 0.798548
O O8 0.680440 0.359376 0.784380
O O9 0.203819 0.359482 0.769602
O O10 0.500000 0.641105 0.500000
O O11 0.217623 0.500000 0.520329
O O12 0.161994 0.637501 0.563844
O O13 0.000000 0.642051 0.500000
O O14 0.636747 0.727380 0.679346
O O15 0.542089 0.857027 0.639946
O O16 0.431869 0.863890 0.715605
O O17 0.551786 0.272637 0.399155
O O18 0.456410 0.500000 0.082463
O O19 0.554625 0.000000 0.241276
#
# Coordination Sequence:
#
# PCOD9181775 Si02
#       8
#     8   4   8   8   8   8   8   8
#     4   9  17  31  55  83 108 134 169 219 266 299
#     4  12  25  40  57  78 110 146 172 210 269 314
#     4   9  17  30  51  82 111 133 168 218 264 306
#     4  10  21  36  54  79 110 139 168 211 267 319
#     4  10  21  37  54  74 106 141 176 220 266 308
#     4  10  21  36  55  78 102 137 181 220 259 307
#     4  10  20  36  59  83 104 135 181 220 252 305
#     4  10  19  32  54  80 105 137 177 215 255 311
#
# _framework density 21.397437
#
# number of rings (size 3 to 8) (size 9 to 14) (size 15 to 20)
#    0.000    2.133    0.000    3.400    0.000    5.333 
#    0.000    2.667    0.000   25.600    0.000    0.000 
#    0.000    0.000    0.000    0.000    0.000    0.000 
#
# Total GULP energy -167675.768556 kJ/mol
# GULP energy per Si atom -5589.192285 kJ/mol
# Density = 2.134874 g / cm^3
# Si number density = 21.397437 Si / 1000 Ang^3
#
#
#
# Elastic Constant Matrix: (Units=GPa)
#
#
# Indices 1 2 3 4 5 6 
#
# 1 92.0081 -3.5377 -15.1567 0.0000 -0.2800 0.0000
# 2 -3.5377 33.4586 -6.3813 0.0000 -3.7775 0.0000
# 3 -15.1567 -6.3813 86.6888 0.0000 -0.2865 0.0000
# 4 0.0000 0.0000 0.0000 32.0143 0.0000 8.6148
# 5 -0.2800 -3.7775 -0.2865 0.0000 39.1386 0.0000
# 6 0.0000 0.0000 0.0000 8.6148 0.0000 0.0111
#
#
#
# Elastic Compliance Matrix: (Units=1/GPa)
#
#
# Indices 1 2 3 4 5 6 
#
# 1 0.011276 0.001620 0.002092 0.000000 0.000252 0.000000
# 2 0.001620 0.030889 0.002567 0.000000 0.003012 0.000000
# 3 0.002092 0.002567 0.012091 0.000000 0.000351 0.000000
# 4 0.000000 0.000000 0.000000 -0.000151 0.000000 0.116639
# 5 0.000252 0.003012 0.000351 0.000000 0.025845 0.000000
# 6 0.000000 0.000000 0.000000 0.116639 0.000000 -0.433452
#
#
# Mechanical properties :
#
#
# Convention : Reuss Voigt Hill
#
# Bulk Modulus (GPa) = 14.96730 18.00048 16.48389
# Shear Modulus (GPa) = -14.54389 30.04821 7.75216
#
# Velocity S-wave (km/s) = -2.60994 3.75145 1.90547
# Velocity P-wave (km/s) = 1.43954 5.21490 3.54422
#
# Compressibility (1/GPa) = 0.06681230
#
# Stress axis : x y z
#
# Youngs Moduli (GPa) = 88.68237 32.37449 82.70395
#
# Poissons Ratio (x) = -0.05244 -0.17298
# Poissons Ratio (y) = -0.14364 -0.21229
# Poissons Ratio (z) = -0.18549 -0.08310
#
# Static dielectric constant tensor:
#      x y z
#    x 1.748400 0.000000 0.000430 
#    y 0.000000 1.782410 0.000000 
#    z 0.000430 0.000000 1.758280 
# 
# From -- ./inp_files/371600.got.cif
#   From: 2010.05.17/outbox.cif.g08.bks.cpg/sg12_186_cif.got.tgz:371600.got - 2010.06.03 13:09:07.
