data_PCOD9181564
_publ_section_title
;
Structure prediction by ZEFSAII (Michael W. Deem and Ramdas Pophale) SiO2 
 PCOD9181564
Probable space group: C 2/M
;
_chemical_formula_sum "Si O2"
_cell_formula_units_Z 56
_cell_length_a 17.187844
_cell_length_b 16.290201
_cell_length_c 19.768290
_cell_angle_alpha 90.000000
_cell_angle_beta 146.940178
_cell_angle_gamma 90.000000
_cell_volume 3019.417432
_symmetry_space_group_name_H-M "C 2/M"
_symmetry_group_IT_number 12
_symmetry_cell_setting 'monoclinic'
loop_
_space_group_symop_operation_xyz
x,y,z
-x,y,-z
-x,-y,-z
x,-y,z
1/2+x,1/2+y,z
1/2-x,1/2+y,-z
1/2-x,1/2-y,-z
1/2+x,1/2-y,z
loop_
_atom_site_type_symbol
_atom_site_label
_atom_site_fract_x
_atom_site_fract_y
_atom_site_fract_z
Si Si1 0.628288 0.094189 0.451336
Si Si2 0.668157 0.409170 0.134389
Si Si3 0.680601 0.347319 0.292811
Si Si4 0.336694 0.317345 0.363867
Si Si5 0.892922 0.406573 0.722779
Si Si6 0.584602 0.749895 0.861244
Si Si7 0.383214 0.224157 0.265367
O O1 0.761390 0.108316 0.598093
O O2 0.658531 0.104856 0.393020
O O3 0.507821 0.162037 0.381077
O O4 0.577715 0.000000 0.423752
O O5 0.714014 0.500000 0.145937
O O6 0.699397 0.397198 0.237111
O O7 0.751506 0.337422 0.157267
O O8 0.500000 0.401932 0.000000
O O9 0.775765 0.264878 0.355261
O O10 0.517506 0.316837 0.178326
O O11 0.500000 0.333755 0.500000
O O12 0.233651 0.387445 0.316978
O O13 0.336428 0.291791 0.285213
O O14 0.942748 0.500000 0.765338
O O15 0.015218 0.339284 0.824313
O O16 0.569566 0.736580 0.770025
O O17 0.750000 0.750000 0.000000
#
# Coordination Sequence:
#
# PCOD9181564 Si02
#       7
#     8   8   8   8   8   8   8
#     4  10  19  33  53  80 110 140 172 218 277 323
#     4  10  20  33  49  73 107 143 176 214 261 316
#     4  10  20  33  52  78 109 138 177 221 266 320
#     4  10  19  32  53  80 108 139 173 214 267 317
#     4   9  21  37  56  79 110 143 177 220 270 323
#     4  10  21  37  59  79 102 141 186 223 265 311
#     4  10  20  33  54  80 106 136 177 223 266 316
#
# _framework density 18.546623
#
# number of rings (size 3 to 8) (size 9 to 14) (size 15 to 20)
#    0.000    2.143    1.429    1.714    2.000    2.571 
#    0.000    3.571    0.000    1.714    0.000    0.000 
#    0.000    0.000    0.000    0.000    0.000    0.000 
#
# Total GULP energy -156123.173119 kJ/mol
# GULP energy per Si atom -5575.827611 kJ/mol
# Density = 1.850441 g / cm^3
# Si number density = 18.546623 Si / 1000 Ang^3
#
#
#
# Elastic Constant Matrix: (Units=GPa)
#
#
# Indices 1 2 3 4 5 6 
#
# 1 66.0548 12.5850 1.7887 0.0002 11.3282 0.0001
# 2 12.5850 31.6962 4.9555 0.0004 -4.3845 0.0002
# 3 1.7887 4.9555 75.5560 0.0006 14.4926 0.0004
# 4 0.0002 0.0004 0.0006 13.6156 0.0004 -1.1930
# 5 11.3282 -4.3845 14.4926 0.0004 23.1838 0.0002
# 6 0.0001 0.0002 0.0004 -1.1930 0.0002 9.8367
#
#
#
# Elastic Compliance Matrix: (Units=1/GPa)
#
#
# Indices 1 2 3 4 5 6 
#
# 1 0.019139 -0.009794 0.002657 0.000000 -0.012865 0.000000
# 2 -0.009794 0.038372 -0.005221 -0.000001 0.015306 -0.000001
# 3 0.002657 -0.005221 0.015854 0.000000 -0.012196 0.000000
# 4 0.000000 -0.000001 0.000000 0.074234 -0.000002 0.009003
# 5 -0.012865 0.015306 -0.012196 -0.000002 0.059938 -0.000001
# 6 0.000000 -0.000001 0.000000 0.009003 -0.000001 0.102752
#
#
# Mechanical properties :
#
#
# Convention : Reuss Voigt Hill
#
# Bulk Modulus (GPa) = 20.55532 23.55170 22.05351
# Shear Modulus (GPa) = 14.23600 19.59242 16.91421
#
# Velocity S-wave (km/s) = 2.77353 3.25374 3.02318
# Velocity P-wave (km/s) = 4.62209 5.18092 4.90946
#
# Compressibility (1/GPa) = 0.04864920
#
# Stress axis : x y z
#
# Youngs Moduli (GPa) = 52.24825 26.06079 63.07513
#
# Poissons Ratio (x) = 0.25525 -0.16759
# Poissons Ratio (y) = 0.51174 0.32930
# Poissons Ratio (z) = -0.13882 0.13606
#
# Static dielectric constant tensor:
#      x y z
#    x 1.646040 0.000000 -0.000410 
#    y 0.000000 1.644410 0.000000 
#    z -0.000410 0.000000 1.642430 
# 
# From -- ./inp_files/311770.got.cif
#   From: 2010.05.17/outbox.cif.g08.bks.cpg/sg12_156_cif.got.tgz:311770.got - 2010.06.03 13:09:07.
