data_PCOD9181413
_publ_section_title
;
Structure prediction by ZEFSAII (Michael W. Deem and Ramdas Pophale) SiO2 
 PCOD9181413
Probable space group: C 2/M
;
_chemical_formula_sum "Si O2"
_cell_formula_units_Z 40
_cell_length_a 9.223754
_cell_length_b 13.067725
_cell_length_c 16.013856
_cell_angle_alpha 90.000000
_cell_angle_beta 105.443097
_cell_angle_gamma 90.000000
_cell_volume 1860.516465
_symmetry_space_group_name_H-M "C 2/M"
_symmetry_group_IT_number 12
_symmetry_cell_setting 'monoclinic'
loop_
_space_group_symop_operation_xyz
x,y,z
-x,y,-z
-x,-y,-z
x,-y,z
1/2+x,1/2+y,z
1/2-x,1/2+y,-z
1/2-x,1/2-y,-z
1/2+x,1/2-y,z
loop_
_atom_site_type_symbol
_atom_site_label
_atom_site_fract_x
_atom_site_fract_y
_atom_site_fract_z
Si Si1 0.182758 0.880012 0.442718
Si Si2 0.308740 0.887688 0.783640
Si Si3 0.355782 0.712726 0.386626
Si Si4 0.928236 0.339604 0.074777
Si Si5 0.641106 0.385175 0.936530
O O1 0.320265 0.825669 0.416061
O O2 0.196399 0.859508 0.544104
O O3 0.028299 0.818976 0.396186
O O4 0.168126 0.000000 0.423315
O O5 0.243284 0.806773 0.709950
O O6 0.485084 0.880635 0.832091
O O7 0.230427 0.878470 0.862264
O O8 0.271880 0.000000 0.744096
O O9 0.955693 0.217487 0.080303
O O10 0.755132 0.367270 0.032068
O O11 0.000000 0.381197 0.000000
O O12 0.577516 0.500000 0.930522
#
# Coordination Sequence:
#
# PCOD9181413 Si02
#       5
#     8   8   8   8   8
#     4  10  21  41  62  86 121 158 194 243 295 347
#     4  10  19  32  53  77 102 139 184 231 278 336
#     4  10  21  37  62  89 117 154 198 240 289 353
#     4   9  18  32  49  74 104 133 177 225 270 335
#     4   9  18  32  51  72 101 141 175 219 279 333
#
# _framework density 21.499407000000001
#
# number of rings (size 3 to 8) (size 9 to 14) (size 15 to 20)
#    0.000    2.400    0.000    3.000    2.800    2.800 
#    0.000   10.000    0.000    1.200    0.000    0.000 
#    0.000    0.000    0.000    0.000    0.000    0.000 
#
# Total GULP energy -111494.836018 kJ/mol
# GULP energy per Si atom -5574.741801 kJ/mol
# Density = 2.145047 g / cm^3
# Si number density = 21.499407 Si / 1000 Ang^3
#
#
#
# Elastic Constant Matrix: (Units=GPa)
#
#
# Indices 1 2 3 4 5 6 
#
# 1 38.3649 35.7104 11.3818 0.0000 0.7417 0.0000
# 2 35.7104 135.0114 5.5948 0.0000 -1.0940 0.0000
# 3 11.3818 5.5948 102.2848 0.0000 13.6587 0.0000
# 4 0.0000 0.0000 0.0000 16.7254 0.0000 2.9299
# 5 0.7417 -1.0940 13.6587 0.0000 13.9073 0.0000
# 6 0.0000 0.0000 0.0000 2.9299 0.0000 20.5893
#
#
#
# Elastic Compliance Matrix: (Units=1/GPa)
#
#
# Indices 1 2 3 4 5 6 
#
# 1 0.035776 -0.009307 -0.003590 0.000000 0.000886 0.000000
# 2 -0.009307 0.009860 0.000376 0.000000 0.000903 0.000000
# 3 -0.003590 0.000376 0.011655 0.000000 -0.011225 0.000000
# 4 0.000000 0.000000 0.000000 0.061318 0.000000 -0.008726
# 5 0.000886 0.000903 -0.011225 0.000000 0.082953 0.000000
# 6 0.000000 0.000000 0.000000 -0.008726 0.000000 0.049811
#
#
# Mechanical properties :
#
#
# Convention : Reuss Voigt Hill
#
# Bulk Modulus (GPa) = 31.00940 42.33720 36.67330
# Shear Modulus (GPa) = 17.41159 25.10933 21.26046
#
# Velocity S-wave (km/s) = 2.84890 3.42117 3.14807
# Velocity P-wave (km/s) = 5.02756 5.94482 5.50533
#
# Compressibility (1/GPa) = 0.03224829
#
# Stress axis : x y z
#
# Youngs Moduli (GPa) = 27.95134 101.41787 85.80347
#
# Poissons Ratio (x) = 0.94388 0.30806
# Poissons Ratio (y) = 0.26014 -0.03224
# Poissons Ratio (z) = 0.10035 -0.03810
#
# Static dielectric constant tensor:
#      x y z
#    x 1.852950 0.000000 0.018250 
#    y 0.000000 1.811830 0.000000 
#    z 0.018250 0.000000 1.755620 
# 
# From -- ./inp_files/203031.got.cif
#   From: 2010.05.17/outbox.cif.g08.bks.cpg/sg12_102_cif.got.tgz:203031.got - 2010.06.03 13:09:07.
