data_PCOD9181081
_publ_section_title
;
Structure prediction by ZEFSAII (Michael W. Deem and Ramdas Pophale) SiO2 
 PCOD9181081
Probable space group: C 2/M
;
_chemical_formula_sum "Si O2"
_cell_formula_units_Z 40
_cell_length_a 18.944961
_cell_length_b 7.706981
_cell_length_c 27.544051
_cell_angle_alpha 90.000000
_cell_angle_beta 28.997570
_cell_angle_gamma 90.000000
_cell_volume 1949.592369
_symmetry_space_group_name_H-M "C 2/M"
_symmetry_group_IT_number 12
_symmetry_cell_setting 'monoclinic'
loop_
_space_group_symop_operation_xyz
x,y,z
-x,y,-z
-x,-y,-z
x,-y,z
1/2+x,1/2+y,z
1/2-x,1/2+y,-z
1/2-x,1/2-y,-z
1/2+x,1/2-y,z
loop_
_atom_site_type_symbol
_atom_site_label
_atom_site_fract_x
_atom_site_fract_y
_atom_site_fract_z
Si Si1 0.342860 0.293563 0.492394
Si Si2 0.442870 0.201372 0.084844
Si Si3 0.884079 0.297912 0.726877
Si Si4 0.067084 0.287392 0.711060
Si Si5 0.579752 0.790990 0.101357
O O1 0.359375 0.500000 0.486312
O O2 0.250000 0.250000 0.500000
O O3 0.501627 0.219034 0.386107
O O4 0.234155 0.233221 0.600319
O O5 0.268748 0.208207 0.190438
O O6 0.509477 0.278100 0.093917
O O7 0.490856 0.000000 0.055627
O O8 0.500000 0.280324 0.000000
O O9 0.852712 0.500000 0.753532
O O10 0.965943 0.232011 0.726365
O O11 0.067113 0.500000 0.709885
O O12 0.000513 0.227325 0.801737
O O13 0.562883 0.000000 0.112228
O O14 0.750000 0.750000 0.000000
#
# Coordination Sequence:
#
# PCOD9181081 Si02
#       5
#     8   8   8   8   8
#     4   9  16  29  50  75 102 131 166 205 245 291
#     4  10  21  35  51  74 102 131 164 204 251 298
#     4  10  19  32  52  76 101 131 168 206 245 292
#     4   8  16  31  51  74  98 129 167 202 239 288
#     4  10  20  35  53  73  99 129 164 204 246 295
#
# _framework density 20.517109000000001
#
# number of rings (size 3 to 8) (size 9 to 14) (size 15 to 20)
#    0.000    2.600    0.000    3.600    0.000    1.200 
#    0.000    6.000    0.000    6.000    0.000    0.000 
#    0.000    0.000    0.000    0.000    0.000    0.000 
#
# Total GULP energy -111541.977247 kJ/mol
# GULP energy per Si atom -5577.098862 kJ/mol
# Density = 2.047041 g / cm^3
# Si number density = 20.517109 Si / 1000 Ang^3
#
#
#
# Elastic Constant Matrix: (Units=GPa)
#
#
# Indices 1 2 3 4 5 6 
#
# 1 122.9175 1.8347 87.2533 -0.0001 13.3441 0.0002
# 2 1.8347 33.7922 -14.5411 -0.0005 6.4951 0.0011
# 3 87.2533 -14.5411 180.1746 0.0005 21.6075 0.0000
# 4 -0.0001 -0.0005 0.0005 22.9377 0.0000 -6.5772
# 5 13.3441 6.4951 21.6075 0.0000 33.3353 -0.0001
# 6 0.0002 0.0011 0.0000 -6.5772 -0.0001 5.3419
#
#
#
# Elastic Compliance Matrix: (Units=1/GPa)
#
#
# Indices 1 2 3 4 5 6 
#
# 1 0.012782 -0.003407 -0.006431 0.000000 -0.000285 0.000001
# 2 -0.003407 0.033791 0.005425 -0.000002 -0.008736 -0.000010
# 3 -0.006431 0.005425 0.009672 -0.000001 -0.004752 -0.000002
# 4 0.000000 -0.000002 -0.000001 0.067387 0.000001 0.082969
# 5 -0.000285 -0.008736 -0.004752 0.000001 0.034895 0.000004
# 6 0.000001 -0.000010 -0.000002 0.082969 0.000004 0.289353
#
#
# Mechanical properties :
#
#
# Convention : Reuss Voigt Hill
#
# Bulk Modulus (GPa) = 21.08830 53.99756 37.54293
# Shear Modulus (GPa) = 10.58173 29.81215 20.19694
#
# Velocity S-wave (km/s) = 2.27348 3.81601 3.14091
# Velocity P-wave (km/s) = 4.14636 6.76693 5.61176
#
# Compressibility (1/GPa) = 0.04741966
#
# Stress axis : x y z
#
# Youngs Moduli (GPa) = 78.23345 29.59361 103.38973
#
# Poissons Ratio (x) = 0.10081 0.66489
# Poissons Ratio (y) = 0.26651 -0.56084
# Poissons Ratio (z) = 0.50311 -0.16053
#
# Static dielectric constant tensor:
#      x y z
#    x 1.720500 0.000000 0.032930 
#    y 0.000000 1.778780 0.000000 
#    z 0.032930 0.000000 1.735780 
# 
# From -- ./inp_files/151733.got.cif
#   From: 2010.05.17/outbox.cif.g08.bks.cpg/sg12_76_cif.got.tgz:151733.got - 2010.06.03 13:09:07.
