data_PCOD9181145
_publ_section_title
;
Structure prediction by ZEFSAII (Michael W. Deem and Ramdas Pophale) SiO2 
 PCOD9181145
Probable space group: C 2/M
;
_chemical_formula_sum "Si O2"
_cell_formula_units_Z 36
_cell_length_a 5.242833
_cell_length_b 19.380026
_cell_length_c 19.575590
_cell_angle_alpha 90.000000
_cell_angle_beta 109.996245
_cell_angle_gamma 90.000000
_cell_volume 1869.095169
_symmetry_space_group_name_H-M "C 2/M"
_symmetry_group_IT_number 12
_symmetry_cell_setting 'monoclinic'
loop_
_space_group_symop_operation_xyz
x,y,z
-x,y,-z
-x,-y,-z
x,-y,z
1/2+x,1/2+y,z
1/2-x,1/2+y,-z
1/2-x,1/2-y,-z
1/2+x,1/2-y,z
loop_
_atom_site_type_symbol
_atom_site_label
_atom_site_fract_x
_atom_site_fract_y
_atom_site_fract_z
Si Si1 0.209595 0.201353 0.161329
Si Si2 0.500000 0.702637 0.000000
Si Si3 0.932036 0.923698 0.371608
Si Si4 0.809731 0.577969 0.274680
Si Si5 0.616782 0.721097 0.418673
O O1 0.472986 0.248591 0.169124
O O2 0.273635 0.139399 0.218294
O O3 0.102141 0.168687 0.079535
O O4 0.250000 0.750000 0.000000
O O5 0.608275 0.915799 0.336075
O O6 0.074456 0.919177 0.310319
O O7 0.056799 0.858965 0.421834
O O8 0.993599 0.000000 0.405144
O O9 0.801466 0.500000 0.243888
O O10 0.750000 0.750000 0.500000
O O11 0.336614 0.761311 0.381406
#
# Coordination Sequence:
#
# PCOD9181145 Si02
#       5
#     8   4   8   8   8
#     4  10  19  32  52  77 103 138 178 215 256 304
#     4   8  16  30  47  70 103 136 172 214 254 300
#     4  10  21  37  55  75 105 140 168 205 262 316
#     4  10  21  35  52  78 108 136 171 215 259 307
#     4  10  21  37  55  79 105 130 166 213 254 297
#
# _framework density 19.260655
#
# number of rings (size 3 to 8) (size 9 to 14) (size 15 to 20)
#    0.000    2.222    0.000    2.667    0.000    5.333 
#    0.000    5.000    0.000    0.000    0.000   14.000 
#    0.000    0.000    0.000    0.000    0.000    0.000 
#
# Total GULP energy -100371.714744 kJ/mol
# GULP energy per Si atom -5576.206375 kJ/mol
# Density = 1.921682 g / cm^3
# Si number density = 19.260655 Si / 1000 Ang^3
#
#
#
# Elastic Constant Matrix: (Units=GPa)
#
#
# Indices 1 2 3 4 5 6 
#
# 1 122.0347 2.5579 -5.6560 0.0000 -0.3629 0.0000
# 2 2.5579 133.1247 49.9581 0.0000 13.3480 0.0000
# 3 -5.6560 49.9581 48.1834 0.0000 0.0218 0.0000
# 4 0.0000 0.0000 0.0000 1.3789 0.0000 -2.3649
# 5 -0.3629 13.3480 0.0218 0.0000 16.4455 0.0000
# 6 0.0000 0.0000 0.0000 -2.3649 0.0000 26.0778
#
#
#
# Elastic Compliance Matrix: (Units=1/GPa)
#
#
# Indices 1 2 3 4 5 6 
#
# 1 0.008314 -0.001027 0.002040 0.000000 0.001014 0.000000
# 2 -0.001027 0.014305 -0.014948 0.000000 -0.011614 0.000000
# 3 0.002040 -0.014948 0.036486 0.000000 0.012129 0.000000
# 4 0.000000 0.000000 0.000000 0.858792 0.000000 0.077880
# 5 0.001014 -0.011614 0.012129 0.000000 0.070240 0.000000
# 6 0.000000 0.000000 0.000000 0.077880 0.000000 0.045409
#
#
# Mechanical properties :
#
#
# Convention : Reuss Voigt Hill
#
# Bulk Modulus (GPa) = 32.01395 44.11809 38.06602
# Shear Modulus (GPa) = 4.66493 25.87930 15.27212
#
# Velocity S-wave (km/s) = 1.55797 3.66954 2.81893
# Velocity P-wave (km/s) = 4.46025 6.39606 5.51377
#
# Compressibility (1/GPa) = 0.03123638
#
# Stress axis : x y z
#
# Youngs Moduli (GPa) = 120.28621 69.90377 27.40765
#
# Poissons Ratio (x) = 0.07180 -0.05592
# Poissons Ratio (y) = 0.12355 0.40968
# Poissons Ratio (z) = -0.24543 1.04489
#
# Static dielectric constant tensor:
#      x y z
#    x 1.744800 0.000000 -0.012290 
#    y 0.000000 1.665590 0.000000 
#    z -0.012290 0.000000 1.655020 
# 
# From -- ./inp_files/252496.got.cif
#   From: 2010.05.17/outbox.cif.g08.bks.cpg/sg12_127_cif.got.tgz:252496.got - 2010.06.03 13:09:07.
