data_PCOD9181509
_publ_section_title
;
Structure prediction by ZEFSAII (Michael W. Deem and Ramdas Pophale) SiO2 
 PCOD9181509
Probable space group: C 2/M
;
_chemical_formula_sum "Si O2"
_cell_formula_units_Z 48
_cell_length_a 26.036711
_cell_length_b 8.522172
_cell_length_c 9.449405
_cell_angle_alpha 90.000000
_cell_angle_beta 98.762407
_cell_angle_gamma 90.000000
_cell_volume 2072.250343
_symmetry_space_group_name_H-M "C 2/M"
_symmetry_group_IT_number 12
_symmetry_cell_setting 'monoclinic'
loop_
_space_group_symop_operation_xyz
x,y,z
-x,y,-z
-x,-y,-z
x,-y,z
1/2+x,1/2+y,z
1/2-x,1/2+y,-z
1/2-x,1/2-y,-z
1/2+x,1/2-y,z
loop_
_atom_site_type_symbol
_atom_site_label
_atom_site_fract_x
_atom_site_fract_y
_atom_site_fract_z
Si Si1 0.741550 0.320490 0.149417
Si Si2 0.423392 0.325924 0.139887
Si Si3 0.853837 0.317970 0.349477
Si Si4 0.471910 0.666296 0.643346
Si Si5 0.476328 0.000000 0.645039
Si Si6 0.552259 0.000000 0.931461
Si Si7 0.696564 0.310921 0.407331
O O1 0.726528 0.500000 0.120204
O O2 0.797499 0.315309 0.250161
O O3 0.700305 0.253654 0.246038
O O4 0.750000 0.250000 0.000000
O O5 0.409462 0.500000 0.077159
O O6 0.390637 0.287556 0.267528
O O7 0.482855 0.336128 0.218688
O O8 0.418503 0.167379 0.043393
O O9 0.870548 0.500000 0.360558
O O10 0.846364 0.250406 0.502720
O O11 0.500000 0.667388 0.500000
O O12 0.442761 0.500000 0.641524
O O13 0.447123 0.836645 0.654338
O O14 0.500000 0.000000 0.500000
O O15 0.527528 0.000000 0.764406
O O16 0.500000 0.000000 0.000000
O O17 0.697105 0.500000 0.406978
O O18 0.750000 0.250000 0.500000
#
# Coordination Sequence:
#
# PCOD9181509 Si02
#       7
#     8   8   8   8   4   4   8
#     4   9  19  32  50  75 106 143 183 221 264 321
#     4  10  19  32  53  79 104 139 178 218 278 324
#     4  10  19  33  52  77 107 138 178 232 275 318
#     4   8  14  25  43  69  97 122 156 203 249 302
#     4   8  14  26  46  68  90 120 156 192 244 300
#     4  10  20  34  52  76 106 134 172 226 264 322
#     4   9  17  30  48  75 104 135 176 219 262 315
#
# _framework density 23.163225000000001
#
# number of rings (size 3 to 8) (size 9 to 14) (size 15 to 20)
#    0.000    2.833    0.833    2.000    0.000    4.333 
#    0.000    0.000    0.000    8.000    0.000   11.667 
#    0.000    0.000    0.000    0.000    0.000    0.000 
#
# Total GULP energy -133801.164409 kJ/mol
# GULP energy per Si atom -5575.048517 kJ/mol
# Density = 2.311050 g / cm^3
# Si number density = 23.163225 Si / 1000 Ang^3
#
#
#
# Elastic Constant Matrix: (Units=GPa)
#
#
# Indices 1 2 3 4 5 6 
#
# 1 44.4755 26.0820 6.4151 0.0000 -16.3956 0.0000
# 2 26.0820 221.0585 30.2006 0.0000 -17.2083 0.0000
# 3 6.4151 30.2006 94.6004 0.0000 -30.3753 0.0000
# 4 0.0000 0.0000 0.0000 20.0837 0.0000 -6.4636
# 5 -16.3956 -17.2083 -30.3753 0.0000 35.0356 0.0000
# 6 0.0000 0.0000 0.0000 -6.4636 0.0000 17.2552
#
#
#
# Elastic Compliance Matrix: (Units=1/GPa)
#
#
# Indices 1 2 3 4 5 6 
#
# 1 0.029375 -0.002777 0.003978 0.000000 0.015832 0.000000
# 2 -0.002777 0.005043 -0.001446 0.000000 -0.000076 0.000000
# 3 0.003978 -0.001446 0.015427 0.000000 0.014526 0.000000
# 4 0.000000 0.000000 0.000000 0.056617 0.000000 0.021208
# 5 0.015832 -0.000076 0.014526 0.000000 0.048507 0.000000
# 6 0.000000 0.000000 0.000000 0.021208 0.000000 0.065898
#
#
# Mechanical properties :
#
#
# Convention : Reuss Voigt Hill
#
# Bulk Modulus (GPa) = 20.26154 53.94778 37.10466
# Shear Modulus (GPa) = 21.02523 34.30401 27.66462
#
# Velocity S-wave (km/s) = 3.01607 3.85251 3.45966
# Velocity P-wave (km/s) = 4.57113 6.56734 5.65797
#
# Compressibility (1/GPa) = 0.04935459
#
# Stress axis : x y z
#
# Youngs Moduli (GPa) = 34.04234 198.29639 64.82181
#
# Poissons Ratio (x) = 0.55066 -0.25785
# Poissons Ratio (y) = 0.09453 0.09374
# Poissons Ratio (z) = -0.13542 0.28677
#
# Static dielectric constant tensor:
#      x y z
#    x 1.902750 0.000000 0.004220 
#    y 0.000000 1.942940 0.000000 
#    z 0.004220 0.000000 1.935920 
# 
# From -- ./inp_files/108820.got.cif
#   From: 2010.05.17/outbox.cif.g08.bks.cpg/sg12_55_cif.got.tgz:108820.got - 2010.06.03 13:09:07.
