data_PCOD9181594
_publ_section_title
;
Structure prediction by ZEFSAII (Michael W. Deem and Ramdas Pophale) SiO2 
 PCOD9181594
Probable space group: C 2/M
;
_chemical_formula_sum "Si O2"
_cell_formula_units_Z 60
_cell_length_a 5.217365
_cell_length_b 31.051973
_cell_length_c 21.089713
_cell_angle_alpha 90.000000
_cell_angle_beta 125.756092
_cell_angle_gamma 90.000000
_cell_volume 2772.719646
_symmetry_space_group_name_H-M "C 2/M"
_symmetry_group_IT_number 12
_symmetry_cell_setting 'monoclinic'
loop_
_space_group_symop_operation_xyz
x,y,z
-x,y,-z
-x,-y,-z
x,-y,z
1/2+x,1/2+y,z
1/2-x,1/2+y,-z
1/2-x,1/2-y,-z
1/2+x,1/2-y,z
loop_
_atom_site_type_symbol
_atom_site_label
_atom_site_fract_x
_atom_site_fract_y
_atom_site_fract_z
Si Si1 0.818160 0.582269 0.336203
Si Si2 0.873679 0.764156 0.348924
Si Si3 0.265366 0.635271 0.308356
Si Si4 0.880347 0.829502 0.047458
Si Si5 0.921001 0.950435 0.159886
Si Si6 0.037284 0.228936 0.824469
Si Si7 0.126593 0.402170 0.864368
Si Si8 0.875128 0.500000 0.553069
O O1 0.597601 0.610337 0.350541
O O2 0.587456 0.560227 0.251008
O O3 0.053005 0.613922 0.332373
O O4 0.998532 0.543196 0.395189
O O5 0.729343 0.749399 0.393204
O O6 0.810442 0.813894 0.324407
O O7 0.688031 0.733482 0.269571
O O8 0.085123 0.624910 0.216284
O O9 0.982965 0.810414 0.130906
O O10 0.091568 0.871931 0.073429
O O11 0.500000 0.832680 0.000000
O O12 0.000000 0.804890 0.000000
O O13 0.608345 0.920585 0.116250
O O14 0.189485 0.939412 0.147355
O O15 0.829471 0.000000 0.142583
O O16 0.388042 0.234249 0.848413
O O17 0.500000 0.500000 0.500000
O O18 0.000000 0.500000 0.500000
#
# Coordination Sequence:
#
# PCOD9181594 Si02
#       8
#     8   8   8   8   8   8   8   4
#     4  10  21  37  58  90 127 159 203 232 275 352
#     4  10  19  32  53  80 116 151 189 244 309 359
#     4  10  20  35  58  84 117 160 197 255 299 340
#     4  12  25  39  54  73 107 149 194 240 295 376
#     4  10  19  35  60  84 108 135 183 246 292 350
#     4  10  21  35  52  73 102 140 180 232 280 358
#     4  10  21  35  55  78 102 142 189 241 308 354
#     4  12  24  40  64  96 142 180 196 222 276 340
#
# _framework density 21.639402
#
# number of rings (size 3 to 8) (size 9 to 14) (size 15 to 20)
#    0.000    1.600    0.667    5.200    0.000    8.000 
#    0.000    0.000    0.000    8.000    0.000    0.000 
#    0.000   37.333    0.000    0.000    0.000    0.000 
#
# Total GULP energy -167401.940952 kJ/mol
# GULP energy per Si atom -5580.064698 kJ/mol
# Density = 2.159015 g / cm^3
# Si number density = 21.639402 Si / 1000 Ang^3
#
#
#
# Elastic Constant Matrix: (Units=GPa)
#
#
# Indices 1 2 3 4 5 6 
#
# 1 131.3547 17.4894 13.9056 0.0000 24.7226 0.0000
# 2 17.4894 84.3328 14.7308 0.0000 11.7902 0.0000
# 3 13.9056 14.7308 40.6362 0.0000 10.4122 0.0000
# 4 0.0000 0.0000 0.0000 0.8612 0.0000 -17.1528
# 5 24.7226 11.7902 10.4122 0.0000 21.0772 0.0000
# 6 0.0000 0.0000 0.0000 -17.1528 0.0000 1.4744
#
#
#
# Elastic Compliance Matrix: (Units=1/GPa)
#
#
# Indices 1 2 3 4 5 6 
#
# 1 0.009791 -0.000420 -0.000362 0.000000 -0.011071 0.000000
# 2 -0.000420 0.013263 -0.003308 0.000000 -0.005293 0.000000
# 3 -0.000362 -0.003308 0.029022 0.000000 -0.012062 0.000000
# 4 0.000000 0.000000 0.000000 -0.005033 0.000000 -0.058552
# 5 -0.011071 -0.005293 -0.012062 0.000000 0.069350 0.000000
# 6 0.000000 0.000000 0.000000 -0.058552 0.000000 -0.002940
#
#
# Mechanical properties :
#
#
# Convention : Reuss Voigt Hill
#
# Bulk Modulus (GPa) = 22.78052 38.73059 30.75556
# Shear Modulus (GPa) = 36.69364 18.69575 27.69470
#
# Velocity S-wave (km/s) = 4.12234 2.94252 3.58135
# Velocity P-wave (km/s) = 5.76267 5.42970 5.59866
#
# Compressibility (1/GPa) = 0.04389715
#
# Stress axis : x y z
#
# Youngs Moduli (GPa) = 102.13678 75.40027 34.45629
#
# Poissons Ratio (x) = 0.03163 0.01246
# Poissons Ratio (y) = 0.04285 0.11398
# Poissons Ratio (z) = 0.03694 0.24943
#
# Static dielectric constant tensor:
#      x y z
#    x 1.874880 0.000000 -0.018740 
#    y 0.000000 1.810370 0.000000 
#    z -0.018740 0.000000 1.802970 
# 
# From -- ./inp_files/331668.got.cif
#   From: 2010.05.17/outbox.cif.g08.bks.cpg/sg12_166_cif.got.tgz:331668.got - 2010.06.03 13:09:07.
