data_PCOD9181315
_publ_section_title
;
Structure prediction by ZEFSAII (Michael W. Deem and Ramdas Pophale) SiO2 
 PCOD9181315
Probable space group: C 2/M
;
_chemical_formula_sum "Si O2"
_cell_formula_units_Z 56
_cell_length_a 31.557142
_cell_length_b 17.614242
_cell_length_c 9.099819
_cell_angle_alpha 90.000000
_cell_angle_beta 32.226528
_cell_angle_gamma 90.000000
_cell_volume 2697.366170
_symmetry_space_group_name_H-M "C 2/M"
_symmetry_group_IT_number 12
_symmetry_cell_setting 'monoclinic'
loop_
_space_group_symop_operation_xyz
x,y,z
-x,y,-z
-x,-y,-z
x,-y,z
1/2+x,1/2+y,z
1/2-x,1/2+y,-z
1/2-x,1/2-y,-z
1/2+x,1/2-y,z
loop_
_atom_site_type_symbol
_atom_site_label
_atom_site_fract_x
_atom_site_fract_y
_atom_site_fract_z
Si Si1 0.325908 0.412349 0.851999
Si Si2 0.141975 0.270063 0.473672
Si Si3 0.580519 0.090885 0.177865
Si Si4 0.587995 0.913878 0.809280
Si Si5 0.792494 0.677136 0.007184
Si Si6 0.076902 0.911454 0.167687
Si Si7 0.526272 0.363717 0.775506
O O1 0.307865 0.500000 0.926390
O O2 0.351918 0.382613 0.936849
O O3 0.403405 0.404344 0.520597
O O4 0.255269 0.374531 0.969958
O O5 0.131922 0.348560 0.588930
O O6 0.150235 0.278013 0.272217
O O7 0.067119 0.214470 0.708844
O O8 0.223764 0.228566 0.279119
O O9 0.500000 0.114518 0.500000
O O10 0.655438 0.131251 0.031733
O O11 0.587343 0.000000 0.177157
O O12 0.579253 0.105613 0.007286
O O13 0.622059 0.000000 0.696595
O O14 0.500000 0.916732 0.000000
O O15 0.000000 0.912786 0.500000
O O16 0.049441 0.861427 0.110603
O O17 0.091052 0.000000 0.082489
O O18 0.500000 0.405427 0.000000
#
# Coordination Sequence:
#
# PCOD9181315 Si02
#       7
#     8   8   8   8   8   8   8
#     4   9  18  34  57  83 115 153 187 226 277 332
#     4  10  22  39  56  83 118 157 195 233 293 351
#     4  10  21  38  64  93 115 146 196 249 299 350
#     4  10  21  39  62  87 116 149 193 250 303 352
#     4  10  21  39  59  83 118 153 194 242 289 348
#     4   8  15  30  52  79 110 146 187 222 260 319
#     4  10  19  32  52  80 118 152 187 229 270 324
#
# _framework density 20.760992000000002
#
# number of rings (size 3 to 8) (size 9 to 14) (size 15 to 20)
#    0.000    2.429    0.000    3.000    0.000    4.000 
#    0.000   23.571    0.000    3.429    0.000    0.000 
#    0.000    0.571    0.000    0.000    0.000    0.143 
#
# Total GULP energy -156174.204545 kJ/mol
# GULP energy per Si atom -5577.650162 kJ/mol
# Density = 2.071374 g / cm^3
# Si number density = 20.760992 Si / 1000 Ang^3
#
#
#
# Elastic Constant Matrix: (Units=GPa)
#
#
# Indices 1 2 3 4 5 6 
#
# 1 164.8229 57.6212 55.9466 0.0000 -6.7896 0.0000
# 2 57.6212 84.3315 46.8907 0.0000 -2.8733 0.0000
# 3 55.9466 46.8907 78.7715 0.0000 2.2831 0.0000
# 4 0.0000 0.0000 0.0000 40.2613 0.0000 -8.2966
# 5 -6.7896 -2.8733 2.2831 0.0000 24.0263 0.0000
# 6 0.0000 0.0000 0.0000 -8.2966 0.0000 29.6436
#
#
#
# Elastic Compliance Matrix: (Units=1/GPa)
#
#
# Indices 1 2 3 4 5 6 
#
# 1 0.008868 -0.003637 -0.004205 0.000000 0.002471 0.000000
# 2 -0.003637 0.019454 -0.009060 0.000000 0.002160 0.000000
# 3 -0.004205 -0.009060 0.021199 0.000000 -0.004286 0.000000
# 4 0.000000 0.000000 0.000000 0.026358 0.000000 0.007377
# 5 0.002471 0.002160 -0.004286 0.000000 0.042985 0.000000
# 6 0.000000 0.000000 0.000000 0.007377 0.000000 0.035799
#
#
# Mechanical properties :
#
#
# Convention : Reuss Voigt Hill
#
# Bulk Modulus (GPa) = 63.62510 72.09365 67.85938
# Shear Modulus (GPa) = 25.81251 29.95076 27.88163
#
# Velocity S-wave (km/s) = 3.52990 3.80234 3.66865
# Velocity P-wave (km/s) = 6.87943 7.35377 7.12055
#
# Compressibility (1/GPa) = 0.01571707
#
# Stress axis : x y z
#
# Youngs Moduli (GPa) = 112.77088 51.40289 47.17223
#
# Poissons Ratio (x) = 0.18694 0.19835
# Poissons Ratio (y) = 0.41012 0.42739
# Poissons Ratio (z) = 0.47418 0.46572
#
# Static dielectric constant tensor:
#      x y z
#    x 1.726340 0.000000 -0.014220 
#    y 0.000000 1.795900 0.000000 
#    z -0.014220 0.000000 1.774790 
# 
# From -- ./inp_files/113360.got.cif
#   From: 2010.05.17/outbox.cif.g08.bks.cpg/sg12_57_cif.got.tgz:113360.got - 2010.06.03 13:09:07.
