data_PCOD9181466
_publ_section_title
;
Structure prediction by ZEFSAII (Michael W. Deem and Ramdas Pophale) SiO2 
 PCOD9181466
Probable space group: C 2/M
;
_chemical_formula_sum "Si O2"
_cell_formula_units_Z 40
_cell_length_a 20.827290
_cell_length_b 7.512301
_cell_length_c 15.691198
_cell_angle_alpha 90.000000
_cell_angle_beta 131.000318
_cell_angle_gamma 90.000000
_cell_volume 1852.847241
_symmetry_space_group_name_H-M "C 2/M"
_symmetry_group_IT_number 12
_symmetry_cell_setting 'monoclinic'
loop_
_space_group_symop_operation_xyz
x,y,z
-x,y,-z
-x,-y,-z
x,-y,z
1/2+x,1/2+y,z
1/2-x,1/2+y,-z
1/2-x,1/2-y,-z
1/2+x,1/2-y,z
loop_
_atom_site_type_symbol
_atom_site_label
_atom_site_fract_x
_atom_site_fract_y
_atom_site_fract_z
Si Si1 0.548687 0.215535 0.127233
Si Si2 0.993908 0.207088 0.266362
Si Si3 0.305131 0.714035 0.132365
Si Si4 0.828932 0.213753 0.505315
Si Si5 0.740629 0.217510 0.259440
O O1 0.505595 0.283287 0.175157
O O2 0.646405 0.272641 0.205520
O O3 0.546650 0.000000 0.129151
O O4 0.500000 0.271501 0.000000
O O5 0.080735 0.284454 0.381988
O O6 0.901752 0.283877 0.208980
O O7 0.991435 0.000000 0.290265
O O8 0.309604 0.500000 0.142043
O O9 0.262973 0.777603 0.183732
O O10 0.250000 0.750000 0.000000
O O11 0.750000 0.250000 0.500000
O O12 0.804942 0.275623 0.389572
O O13 0.835481 0.000000 0.508089
O O14 0.740730 0.000000 0.258597
#
# Coordination Sequence:
#
# PCOD9181466 Si02
#       5
#     8   8   8   8   8
#     4  10  19  32  53  78 103 139 184 220 257 314
#     4  10  21  34  53  81 109 137 173 223 275 312
#     4  10  21  38  56  78 109 142 178 220 267 319
#     4  10  19  34  55  80 108 139 177 222 268 315
#     4   9  18  33  54  77 104 141 180 216 259 315
#
# _framework density 21.588394999999998
#
# number of rings (size 3 to 8) (size 9 to 14) (size 15 to 20)
#    0.000    2.200    2.000    1.200    0.000    3.600 
#    0.000    6.000    0.000    0.000    0.000    4.200 
#    0.000    0.000    0.000    0.000    0.000    0.000 
#
# Total GULP energy -111718.006442 kJ/mol
# GULP energy per Si atom -5585.900322 kJ/mol
# Density = 2.153926 g / cm^3
# Si number density = 21.588395 Si / 1000 Ang^3
#
#
#
# Elastic Constant Matrix: (Units=GPa)
#
#
# Indices 1 2 3 4 5 6 
#
# 1 79.6876 -3.4099 -14.4066 0.0000 -3.0059 0.0000
# 2 -3.4099 57.6286 -1.7137 0.0000 4.5683 0.0000
# 3 -14.4066 -1.7137 81.6278 0.0000 -2.8686 0.0000
# 4 0.0000 0.0000 0.0000 2.9628 0.0000 3.2713
# 5 -3.0059 4.5683 -2.8686 0.0000 42.0981 0.0000
# 6 0.0000 0.0000 0.0000 3.2713 0.0000 13.9554
#
#
#
# Elastic Compliance Matrix: (Units=1/GPa)
#
#
# Indices 1 2 3 4 5 6 
#
# 1 0.013045 0.000762 0.002354 0.000000 0.001009 0.000000
# 2 0.000762 0.017555 0.000439 0.000000 -0.001821 0.000000
# 3 0.002354 0.000439 0.012710 0.000000 0.000986 0.000000
# 4 0.000000 0.000000 0.000000 0.455388 0.000000 -0.106750
# 5 0.001009 -0.001821 0.000986 0.000000 0.024091 0.000000
# 6 0.000000 0.000000 0.000000 -0.106750 0.000000 0.096681
#
#
# Mechanical properties :
#
#
# Convention : Reuss Voigt Hill
#
# Bulk Modulus (GPa) = 19.83352 19.98707 19.91029
# Shear Modulus (GPa) = 7.94701 27.70153 17.82427
#
# Velocity S-wave (km/s) = 1.92071 3.58602 2.87651
# Velocity P-wave (km/s) = 3.75845 5.14047 4.50279
#
# Compressibility (1/GPa) = 0.05041970
#
# Stress axis : x y z
#
# Youngs Moduli (GPa) = 76.65641 56.96400 78.67791
#
# Poissons Ratio (x) = -0.04340 -0.18519
# Poissons Ratio (y) = -0.05840 -0.03454
# Poissons Ratio (z) = -0.18044 -0.02501
#
# Static dielectric constant tensor:
#      x y z
#    x 1.741310 0.000000 0.021440 
#    y 0.000000 1.828480 0.000000 
#    z 0.021440 0.000000 1.772310 
# 
# From -- ./inp_files/220588.got.cif
#   From: 2010.05.17/outbox.cif.g08.bks.cpg/sg12_111_cif.got.tgz:220588.got - 2010.06.03 13:09:07.
