data_PCOD9181359
_publ_section_title
;
Structure prediction by ZEFSAII (Michael W. Deem and Ramdas Pophale) SiO2 
 PCOD9181359
Probable space group: C 2/M
;
_chemical_formula_sum "Si O2"
_cell_formula_units_Z 56
_cell_length_a 20.454241
_cell_length_b 7.791381
_cell_length_c 16.724501
_cell_angle_alpha 90.000000
_cell_angle_beta 92.397426
_cell_angle_gamma 90.000000
_cell_volume 2662.997014
_symmetry_space_group_name_H-M "C 2/M"
_symmetry_group_IT_number 12
_symmetry_cell_setting 'monoclinic'
loop_
_space_group_symop_operation_xyz
x,y,z
-x,y,-z
-x,-y,-z
x,-y,z
1/2+x,1/2+y,z
1/2-x,1/2+y,-z
1/2-x,1/2-y,-z
1/2+x,1/2-y,z
loop_
_atom_site_type_symbol
_atom_site_label
_atom_site_fract_x
_atom_site_fract_y
_atom_site_fract_z
Si Si1 0.508839 0.210298 0.753352
Si Si2 0.862809 0.708023 0.701049
Si Si3 0.456208 0.801014 0.068540
Si Si4 0.770111 0.297729 0.225980
Si Si5 0.312330 0.694208 0.054391
Si Si6 0.377746 0.209525 0.359052
Si Si7 0.674760 0.206618 0.477817
O O1 0.434648 0.262421 0.732299
O O2 0.532367 0.271311 0.841873
O O3 0.558507 0.266453 0.686318
O O4 0.511241 0.000000 0.752740
O O5 0.861704 0.500000 0.700774
O O6 0.805042 0.768052 0.756010
O O7 0.846835 0.769963 0.610327
O O8 0.379515 0.795210 0.044666
O O9 0.476740 0.000000 0.076204
O O10 0.500000 0.723036 0.000000
O O11 0.782349 0.500000 0.214877
O O12 0.792240 0.208907 0.145982
O O13 0.814699 0.240237 0.302887
O O14 0.328049 0.500000 0.034090
O O15 0.250000 0.750000 0.000000
O O16 0.368238 0.269251 0.449308
O O17 0.378725 0.000000 0.361358
O O18 0.750000 0.250000 0.500000
O O19 0.669301 0.000000 0.475442
#
# Coordination Sequence:
#
# PCOD9181359 Si02
#       7
#     8   8   8   8   8   8   8
#     4   9  18  35  56  82 116 153 195 241 295 355
#     4  10  21  34  55  88 120 153 198 250 296 350
#     4  10  21  39  63  89 121 161 198 241 302 364
#     4  11  21  38  62  86 116 156 199 241 296 356
#     4  12  26  43  64  92 123 154 199 249 298 354
#     4   9  17  32  57  81 109 153 198 239 289 350
#     4  10  19  32  52  83 116 151 198 248 298 345
#
# _framework density 21.028936999999999
#
# number of rings (size 3 to 8) (size 9 to 14) (size 15 to 20)
#    0.000    1.857    2.857    1.714    2.000    0.857 
#    0.000    3.571    0.000    0.000    0.000    2.000 
#    0.000    0.000    0.000    0.000    0.000    0.000 
#
# Total GULP energy -156424.279115 kJ/mol
# GULP energy per Si atom -5586.581397 kJ/mol
# Density = 2.098107 g / cm^3
# Si number density = 21.028937 Si / 1000 Ang^3
#
#
#
# Elastic Constant Matrix: (Units=GPa)
#
#
# Indices 1 2 3 4 5 6 
#
# 1 133.8660 -14.9279 39.1060 0.0000 -14.6921 0.0000
# 2 -14.9279 29.6804 -3.0760 0.0000 1.4442 0.0000
# 3 39.1060 -3.0760 93.3583 0.0000 -18.3531 0.0000
# 4 0.0000 0.0000 0.0000 8.4753 0.0000 1.6797
# 5 -14.6921 1.4442 -18.3531 0.0000 42.2470 0.0000
# 6 0.0000 0.0000 0.0000 1.6797 0.0000 23.1036
#
#
#
# Elastic Compliance Matrix: (Units=1/GPa)
#
#
# Indices 1 2 3 4 5 6 
#
# 1 0.009086 0.004145 -0.003363 0.000000 0.001557 0.000000
# 2 0.004145 0.035720 -0.000564 0.000000 -0.000025 0.000000
# 3 -0.003363 -0.000564 0.012984 0.000000 0.004490 0.000000
# 4 0.000000 0.000000 0.000000 0.119715 0.000000 -0.008704
# 5 0.001557 -0.000025 0.004490 0.000000 0.026163 0.000000
# 6 0.000000 0.000000 0.000000 -0.008704 0.000000 0.043916
#
#
# Mechanical properties :
#
#
# Convention : Reuss Voigt Hill
#
# Bulk Modulus (GPa) = 17.17450 33.23432 25.20441
# Shear Modulus (GPa) = 18.75768 30.48535 24.62152
#
# Velocity S-wave (km/s) = 2.98987 3.81160 3.42547
# Velocity P-wave (km/s) = 4.48374 5.93376 5.25896
#
# Compressibility (1/GPa) = 0.05822584
#
# Stress axis : x y z
#
# Youngs Moduli (GPa) = 110.06191 27.99556 77.01570
#
# Poissons Ratio (x) = -0.11605 0.25902
# Poissons Ratio (y) = -0.45625 0.04346
# Poissons Ratio (z) = 0.37016 0.01580
#
# Static dielectric constant tensor:
#      x y z
#    x 1.452190 0.000000 -0.045270 
#    y 0.000000 1.798270 0.000000 
#    z -0.045270 0.000000 1.741880 
# 
# From -- ./inp_files/231018.got.cif
#   From: 2010.05.17/outbox.cif.g08.bks.cpg/sg12_116_cif.got.tgz:231018.got - 2010.06.03 13:09:07.
