data_PCOD9181202
_publ_section_title
;
Structure prediction by ZEFSAII (Michael W. Deem and Ramdas Pophale) SiO2 
 PCOD9181202
Probable space group: C 2/M
;
_chemical_formula_sum "Si O2"
_cell_formula_units_Z 64
_cell_length_a 21.097144
_cell_length_b 7.624830
_cell_length_c 25.958890
_cell_angle_alpha 90.000000
_cell_angle_beta 128.975554
_cell_angle_gamma 90.000000
_cell_volume 3246.328994
_symmetry_space_group_name_H-M "C 2/M"
_symmetry_group_IT_number 12
_symmetry_cell_setting 'monoclinic'
loop_
_space_group_symop_operation_xyz
x,y,z
-x,y,-z
-x,-y,-z
x,-y,z
1/2+x,1/2+y,z
1/2-x,1/2+y,-z
1/2-x,1/2-y,-z
1/2+x,1/2-y,z
loop_
_atom_site_type_symbol
_atom_site_label
_atom_site_fract_x
_atom_site_fract_y
_atom_site_fract_z
Si Si1 0.212324 0.291460 0.819769
Si Si2 0.184158 0.792058 0.923063
Si Si3 0.344358 0.707223 0.810493
Si Si4 0.257675 0.213537 0.658523
Si Si5 0.085273 0.292377 0.317146
Si Si6 0.075451 0.208655 0.571207
Si Si7 0.050905 0.287275 0.678207
Si Si8 0.501221 0.286903 0.834821
O O1 0.212007 0.500000 0.809980
O O2 0.210778 0.266355 0.879867
O O3 0.291867 0.219382 0.830984
O O4 0.129182 0.223595 0.750946
O O5 0.093324 0.722898 0.889102
O O6 0.176503 0.000000 0.916688
O O7 0.250000 0.750000 0.000000
O O8 0.355860 0.500000 0.825566
O O9 0.289665 0.730051 0.731160
O O10 0.433531 0.778170 0.840981
O O11 0.325218 0.276669 0.651962
O O12 0.165632 0.276692 0.603508
O O13 0.258206 0.000000 0.658752
O O14 0.095083 0.500000 0.330651
O O15 0.030956 0.266716 0.238005
O O16 0.032097 0.221943 0.337237
O O17 0.060467 0.236111 0.624023
O O18 0.000000 0.281797 0.500000
O O19 0.078549 0.000000 0.563100
O O20 0.050188 0.500000 0.680469
O O21 0.500406 0.500000 0.835857
#
# Coordination Sequence:
#
# PCOD9181202 Si02
#       8
#     8   8   8   8   8   8   8   8
#     4  10  19  33  54  79 105 132 166 210 256 301
#     4  11  23  37  54  76 105 139 172 206 249 301
#     4   9  17  31  52  77 103 128 162 210 255 296
#     4   9  17  30  49  72  99 133 169 206 251 300
#     4   9  17  30  50  75 101 128 163 209 256 300
#     4  10  21  35  50  71 103 140 174 210 253 301
#     4  10  19  32  52  78 103 130 168 212 256 301
#     4   9  18  32  51  76 102 131 167 205 249 298
#
# _framework density 19.714575
#
# number of rings (size 3 to 8) (size 9 to 14) (size 15 to 20)
#    0.000    2.375    2.500    0.375    0.000    2.250 
#    0.000    1.250    0.000    3.750    0.000    0.000 
#    0.000    0.000    0.000    0.000    0.000    0.000 
#
# Total GULP energy -178484.352360 kJ/mol
# GULP energy per Si atom -5577.636011 kJ/mol
# Density = 1.966970 g / cm^3
# Si number density = 19.714575 Si / 1000 Ang^3
#
#
#
# Elastic Constant Matrix: (Units=GPa)
#
#
# Indices 1 2 3 4 5 6 
#
# 1 140.9723 8.4134 31.3495 0.0000 31.3331 0.0000
# 2 8.4134 29.1993 -15.1437 -0.0001 -1.9933 0.0001
# 3 31.3495 -15.1437 53.0884 0.0000 12.0688 0.0000
# 4 0.0000 -0.0001 0.0000 16.8338 0.0000 -6.6960
# 5 31.3331 -1.9933 12.0688 0.0000 22.2482 0.0000
# 6 0.0000 0.0001 0.0000 -6.6960 0.0000 10.6243
#
#
#
# Elastic Compliance Matrix: (Units=1/GPa)
#
#
# Indices 1 2 3 4 5 6 
#
# 1 0.012099 -0.007599 -0.006027 0.000000 -0.014451 0.000000
# 2 -0.007599 0.045141 0.015982 0.000000 0.006076 -0.000001
# 3 -0.006027 0.015982 0.028174 0.000000 -0.005363 0.000000
# 4 0.000000 0.000000 0.000000 0.079279 0.000000 0.049966
# 5 -0.014451 0.006076 -0.005363 0.000000 0.068754 0.000000
# 6 0.000000 -0.000001 0.000000 0.049966 0.000000 0.125615
#
#
# Mechanical properties :
#
#
# Convention : Reuss Voigt Hill
#
# Bulk Modulus (GPa) = 11.09545 30.27760 20.68652
# Shear Modulus (GPa) = 13.00757 23.18399 18.09578
#
# Velocity S-wave (km/s) = 2.57143 3.43298 3.03295
# Velocity P-wave (km/s) = 3.80219 5.57720 4.77293
#
# Compressibility (1/GPa) = 0.09012705
#
# Stress axis : x y z
#
# Youngs Moduli (GPa) = 82.64837 22.15302 35.49384
#
# Poissons Ratio (x) = 0.16833 0.21393
# Poissons Ratio (y) = 0.62802 -0.56728
# Poissons Ratio (z) = 0.49814 -0.35406
#
# Static dielectric constant tensor:
#      x y z
#    x 1.744900 0.000000 0.042270 
#    y 0.000000 1.736680 0.000000 
#    z 0.042270 0.000000 1.620810 
# 
# From -- ./inp_files/319124.got.cif
#   From: 2010.05.17/outbox.cif.g08.bks.cpg/sg12_160_cif.got.tgz:319124.got - 2010.06.03 13:09:07.
