data_PCOD9181729
_publ_section_title
;
Structure prediction by ZEFSAII (Michael W. Deem and Ramdas Pophale) SiO2 
 PCOD9181729
Probable space group: C 2/M
;
_chemical_formula_sum "Si O2"
_cell_formula_units_Z 48
_cell_length_a 11.764784
_cell_length_b 13.886558
_cell_length_c 15.289230
_cell_angle_alpha 90.000000
_cell_angle_beta 72.860185
_cell_angle_gamma 90.000000
_cell_volume 2386.904693
_symmetry_space_group_name_H-M "C 2/M"
_symmetry_group_IT_number 12
_symmetry_cell_setting 'monoclinic'
loop_
_space_group_symop_operation_xyz
x,y,z
-x,y,-z
-x,-y,-z
x,-y,z
1/2+x,1/2+y,z
1/2-x,1/2+y,-z
1/2-x,1/2-y,-z
1/2+x,1/2-y,z
loop_
_atom_site_type_symbol
_atom_site_label
_atom_site_fract_x
_atom_site_fract_y
_atom_site_fract_z
Si Si1 0.721716 0.389998 0.511394
Si Si2 0.481201 0.105288 0.364794
Si Si3 0.688678 0.891367 0.962771
Si Si4 0.315554 0.751545 0.627224
Si Si5 0.116638 0.678328 0.791421
Si Si6 0.933205 0.793220 0.926366
O O1 0.683369 0.500000 0.532590
O O2 0.656954 0.333731 0.447536
O O3 0.725176 0.323510 0.596160
O O4 0.859937 0.390984 0.447986
O O5 0.569958 0.188623 0.372056
O O6 0.442986 0.118384 0.272877
O O7 0.536858 0.000000 0.366294
O O8 0.634536 0.876646 0.878463
O O9 0.828465 0.865848 0.926585
O O10 0.668565 0.000000 0.997743
O O11 0.629582 0.809875 0.037222
O O12 0.244295 0.711088 0.725964
O O13 0.032272 0.769261 0.832174
O O14 0.000000 0.823942 0.000000
#
# Coordination Sequence:
#
# PCOD9181729 Si02
#       6
#     8   8   8   8   8   8
#     4   9  19  35  54  76 102 137 180 219 258 305
#     4  10  19  32  54  79 103 137 179 219 257 302
#     4  10  20  36  58  79 103 137 173 211 255 306
#     4  10  19  32  54  77 105 138 173 218 263 304
#     4  10  20  34  51  77 110 138 169 213 260 308
#     4   9  20  37  55  78 107 137 171 211 256 308
#
# _framework density 20.109725999999998
#
# number of rings (size 3 to 8) (size 9 to 14) (size 15 to 20)
#    0.000    2.333    0.000    2.500    0.000    6.000 
#    0.000    1.667    0.000   23.000    0.000    0.000 
#    0.000    0.000    0.000    0.000    0.000    0.000 
#
# Total GULP energy -134034.624120 kJ/mol
# GULP energy per Si atom -5584.776005 kJ/mol
# Density = 2.006396 g / cm^3
# Si number density = 20.109726 Si / 1000 Ang^3
#
#
#
# Elastic Constant Matrix: (Units=GPa)
#
#
# Indices 1 2 3 4 5 6 
#
# 1 66.0819 10.6319 -11.6879 0.0000 7.3937 0.0000
# 2 10.6319 92.4700 -2.3312 0.0000 12.4327 0.0000
# 3 -11.6879 -2.3312 32.4895 0.0000 -1.6080 0.0000
# 4 0.0000 0.0000 0.0000 8.7340 0.0000 4.2506
# 5 7.3937 12.4327 -1.6080 0.0000 14.2257 0.0000
# 6 0.0000 0.0000 0.0000 4.2506 0.0000 20.5236
#
#
#
# Elastic Compliance Matrix: (Units=1/GPa)
#
#
# Indices 1 2 3 4 5 6 
#
# 1 0.017120 -0.000810 0.005727 0.000000 -0.007543 0.000000
# 2 -0.000810 0.012297 0.000080 0.000000 -0.010317 0.000000
# 3 0.005727 0.000080 0.032878 0.000000 0.000669 0.000000
# 4 0.000000 0.000000 0.000000 0.127329 0.000000 -0.026371
# 5 -0.007543 -0.010317 0.000669 0.000000 0.083308 0.000000
# 6 0.000000 0.000000 0.000000 -0.026371 0.000000 0.054186
#
#
# Mechanical properties :
#
#
# Convention : Reuss Voigt Hill
#
# Bulk Modulus (GPa) = 13.83300 20.47409 17.15354
# Shear Modulus (GPa) = 14.65333 21.65857 18.15595
#
# Velocity S-wave (km/s) = 2.70232 3.28536 3.00800
# Velocity P-wave (km/s) = 4.07804 4.95931 4.54010
#
# Compressibility (1/GPa) = 0.07229088
#
# Stress axis : x y z
#
# Youngs Moduli (GPa) = 58.41118 81.32364 30.41504
#
# Poissons Ratio (x) = 0.06586 -0.17420
# Poissons Ratio (y) = 0.04730 -0.00244
# Poissons Ratio (z) = -0.33455 -0.00654
#
# Static dielectric constant tensor:
#      x y z
#    x 1.731020 0.000000 0.004540 
#    y 0.000000 1.718250 0.000000 
#    z 0.004540 0.000000 1.710070 
# 
# From -- ./inp_files/204347.got.cif
#   From: 2010.05.17/outbox.cif.g08.bks.cpg/sg12_103_cif.got.tgz:204347.got - 2010.06.03 13:09:07.
