data_PCOD9181180
_publ_section_title
;
Structure prediction by ZEFSAII (Michael W. Deem and Ramdas Pophale) SiO2 
 PCOD9181180
Probable space group: C 2/M
;
_chemical_formula_sum "Si O2"
_cell_formula_units_Z 48
_cell_length_a 32.017088
_cell_length_b 8.787255
_cell_length_c 9.906673
_cell_angle_alpha 90.000000
_cell_angle_beta 102.041287
_cell_angle_gamma 90.000000
_cell_volume 2725.841779
_symmetry_space_group_name_H-M "C 2/M"
_symmetry_group_IT_number 12
_symmetry_cell_setting 'monoclinic'
loop_
_space_group_symop_operation_xyz
x,y,z
-x,y,-z
-x,-y,-z
x,-y,z
1/2+x,1/2+y,z
1/2-x,1/2+y,-z
1/2-x,1/2-y,-z
1/2+x,1/2-y,z
loop_
_atom_site_type_symbol
_atom_site_label
_atom_site_fract_x
_atom_site_fract_y
_atom_site_fract_z
Si Si1 0.368409 0.317688 0.398668
Si Si2 0.432684 0.316943 0.671046
Si Si3 0.111188 0.318281 0.874629
Si Si4 0.638673 0.816967 0.183107
Si Si5 0.796952 0.682522 0.544534
Si Si6 0.981459 0.181896 0.138100
O O1 0.364821 0.500000 0.398801
O O2 0.410689 0.274659 0.514626
O O3 0.372519 0.258963 0.250315
O O4 0.328388 0.246009 0.450296
O O5 0.431811 0.500000 0.680960
O O6 0.401943 0.251702 0.766318
O O7 0.481211 0.270650 0.732787
O O8 0.113835 0.500000 0.862678
O O9 0.062348 0.269002 0.867806
O O10 0.137274 0.270703 0.026288
O O11 0.680182 0.774209 0.298298
O O12 0.634896 0.000000 0.185407
O O13 0.795410 0.500000 0.535500
O O14 0.750000 0.750000 0.500000
O O15 0.973674 0.000000 0.147075
O O16 0.000000 0.206791 0.000000
#
# Coordination Sequence:
#
# PCOD9181180 Si02
#       6
#     8   8   8   8   8   8
#     4  10  21  37  56  79 109 143 178 220 269 316
#     4   9  18  33  53  76 103 140 185 226 264 309
#     4  11  22  35  52  78 111 146 180 220 267 313
#     4   9  19  34  54  78 107 140 175 216 264 316
#     4  10  20  38  62  86 108 134 171 215 264 323
#     4  10  19  32  52  77 106 142 186 229 264 307
#
# _framework density 17.60924
#
# number of rings (size 3 to 8) (size 9 to 14) (size 15 to 20)
#    0.000    2.167    1.667    1.500    0.000    3.667 
#    0.000    4.167    0.000    0.000    0.000    0.000 
#    0.000    0.000    0.000    0.000    0.000    0.000 
#
# Total GULP energy -133928.934333 kJ/mol
# GULP energy per Si atom -5580.372264 kJ/mol
# Density = 1.756916 g / cm^3
# Si number density = 17.609240 Si / 1000 Ang^3
#
#
#
# Elastic Constant Matrix: (Units=GPa)
#
#
# Indices 1 2 3 4 5 6 
#
# 1 111.5890 36.5391 70.1569 0.0000 21.1389 0.0000
# 2 36.5391 37.4294 45.1579 0.0000 3.8073 0.0000
# 3 70.1569 45.1579 160.4632 0.0000 8.4815 0.0000
# 4 0.0000 0.0000 0.0000 27.5279 0.0000 -4.3175
# 5 21.1389 3.8073 8.4815 0.0000 19.2088 0.0000
# 6 0.0000 0.0000 0.0000 -4.3175 0.0000 29.8868
#
#
#
# Elastic Compliance Matrix: (Units=1/GPa)
#
#
# Indices 1 2 3 4 5 6 
#
# 1 0.018185 -0.011434 -0.003886 0.000000 -0.016030 0.000000
# 2 -0.011434 0.047817 -0.008828 0.000000 0.007003 0.000000
# 3 -0.003886 -0.008828 0.010338 0.000000 0.001461 0.000000
# 4 0.000000 0.000000 0.000000 0.037169 0.000000 0.005370
# 5 -0.016030 0.007003 0.001461 0.000000 0.067667 0.000000
# 6 0.000000 0.000000 0.000000 0.005370 0.000000 0.034235
#
#
# Mechanical properties :
#
#
# Convention : Reuss Voigt Hill
#
# Bulk Modulus (GPa) = 35.65661 68.13214 51.89437
# Shear Modulus (GPa) = 18.31130 25.83322 22.07226
#
# Velocity S-wave (km/s) = 3.22820 3.83433 3.54425
# Velocity P-wave (km/s) = 5.84703 7.64055 6.80315
#
# Compressibility (1/GPa) = 0.02804529
#
# Stress axis : x y z
#
# Youngs Moduli (GPa) = 54.99005 20.91293 96.73048
#
# Poissons Ratio (x) = 0.23912 0.37587
# Poissons Ratio (y) = 0.62875 0.85393
# Poissons Ratio (z) = 0.21368 0.18462
#
# Static dielectric constant tensor:
#      x y z
#    x 1.567720 0.000000 0.035080 
#    y 0.000000 1.590280 0.000000 
#    z 0.035080 0.000000 1.615670 
# 
# From -- ./inp_files/108567.got.cif
#   From: 2010.05.17/outbox.cif.g08.bks.cpg/sg12_55_cif.got.tgz:108567.got - 2010.06.03 13:09:07.
