data_PCOD9181836
_publ_section_title
;
Structure prediction by ZEFSAII (Michael W. Deem and Ramdas Pophale) SiO2 
 PCOD9181836
Probable space group: C 2/M
;
_chemical_formula_sum "Si O2"
_cell_formula_units_Z 56
_cell_length_a 22.898936
_cell_length_b 7.410121
_cell_length_c 14.985347
_cell_angle_alpha 90.000000
_cell_angle_beta 110.367010
_cell_angle_gamma 90.000000
_cell_volume 2383.804269
_symmetry_space_group_name_H-M "C 2/M"
_symmetry_group_IT_number 12
_symmetry_cell_setting 'monoclinic'
loop_
_space_group_symop_operation_xyz
x,y,z
-x,y,-z
-x,-y,-z
x,-y,z
1/2+x,1/2+y,z
1/2-x,1/2+y,-z
1/2-x,1/2-y,-z
1/2+x,1/2-y,z
loop_
_atom_site_type_symbol
_atom_site_label
_atom_site_fract_x
_atom_site_fract_y
_atom_site_fract_z
Si Si1 0.842056 0.210518 0.332609
Si Si2 0.747516 0.793896 0.148321
Si Si3 0.486976 0.779420 0.094434
Si Si4 0.654073 0.779925 0.953513
Si Si5 0.978883 0.219356 0.388656
Si Si6 0.822181 0.713868 0.525806
Si Si7 0.077545 0.294757 0.290715
O O1 0.780232 0.288415 0.253166
O O2 0.908312 0.284094 0.335593
O O3 0.841719 0.218150 0.439072
O O4 0.841980 0.000000 0.307332
O O5 0.803391 0.788379 0.104964
O O6 0.729556 0.000000 0.160333
O O7 0.688300 0.718499 0.063280
O O8 0.417742 0.724059 0.087932
O O9 0.541921 0.713048 0.187858
O O10 0.487049 0.000000 0.098711
O O11 0.500000 0.727887 0.000000
O O12 0.657006 0.000000 0.952481
O O13 0.000000 0.267471 0.500000
O O14 0.025960 0.295192 0.341478
O O15 0.980558 0.000000 0.383885
O O16 0.833217 0.500000 0.529939
O O17 0.750000 0.750000 0.500000
O O18 0.862634 0.788916 0.629312
O O19 0.094504 0.500000 0.273925
#
# Coordination Sequence:
#
# PCOD9181836 Si02
#       7
#     8   8   8   8   8   8   8
#     4  10  20  35  54  79 110 143 179 215 260 318
#     4   9  18  31  51  78 107 139 171 211 262 313
#     4   9  18  33  54  78 104 135 175 219 263 312
#     4   9  17  31  52  78 105 136 173 216 264 310
#     4  10  19  32  54  81 110 145 177 211 264 320
#     4  11  24  39  55  76 105 140 178 219 265 316
#     4  10  21  36  56  82 107 137 178 226 270 311
#
# _framework density 23.491862999999999
#
# number of rings (size 3 to 8) (size 9 to 14) (size 15 to 20)
#    0.000    2.286    1.429    1.286    0.000    3.143 
#    0.000    4.286    0.000    1.714    0.000    0.000 
#    0.000    0.000    0.000    0.000    0.000    0.000 
#
# Total GULP energy -156428.350442 kJ/mol
# GULP energy per Si atom -5586.726802 kJ/mol
# Density = 2.343839 g / cm^3
# Si number density = 23.491863 Si / 1000 Ang^3
#
#
#
# Elastic Constant Matrix: (Units=GPa)
#
#
# Indices 1 2 3 4 5 6 
#
# 1 86.3062 -12.1618 39.3768 0.0000 29.3656 0.0000
# 2 -12.1618 84.2906 1.7973 0.0000 6.6684 0.0000
# 3 39.3768 1.7973 179.4062 0.0000 47.2929 0.0000
# 4 0.0000 0.0000 0.0000 -5.6692 0.0000 0.4819
# 5 29.3656 6.6684 47.2929 0.0000 39.6625 0.0000
# 6 0.0000 0.0000 0.0000 0.4819 0.0000 6.5240
#
#
#
# Elastic Compliance Matrix: (Units=1/GPa)
#
#
# Indices 1 2 3 4 5 6 
#
# 1 0.016401 0.003341 -0.000414 0.000000 -0.012211 0.000000
# 2 0.003341 0.012749 0.000519 0.000000 -0.005237 0.000000
# 3 -0.000414 0.000519 0.008170 0.000000 -0.009522 0.000000
# 4 0.000000 0.000000 0.000000 -0.175292 0.000000 0.012948
# 5 -0.012211 -0.005237 -0.009522 0.000000 0.046488 0.000000
# 6 0.000000 0.000000 0.000000 0.012948 0.000000 0.152323
#
#
# Mechanical properties :
#
#
# Convention : Reuss Voigt Hill
#
# Bulk Modulus (GPa) = 22.61802 45.33642 33.97722
# Shear Modulus (GPa) = 72.79730 29.50287 51.15008
#
# Velocity S-wave (km/s) = 5.57275 3.54768 4.67127
# Velocity P-wave (km/s) = 7.14537 6.01016 6.60221
#
# Compressibility (1/GPa) = 0.04421253
#
# Stress axis : x y z
#
# Youngs Moduli (GPa) = 60.97076 78.43742 122.40255
#
# Poissons Ratio (x) = -0.26208 0.05072
# Poissons Ratio (y) = -0.20372 -0.06356
# Poissons Ratio (z) = 0.02527 -0.04073
#
# Static dielectric constant tensor:
#      x y z
#    x 1.834980 0.000000 0.055600 
#    y 0.000000 1.997160 0.000000 
#    z 0.055600 0.000000 1.913280 
# 
# From -- ./inp_files/237908.got.cif
#   From: 2010.05.17/outbox.cif.g08.bks.cpg/sg12_119_cif.got.tgz:237908.got - 2010.06.03 13:09:07.
