data_PCOD9181876
_publ_section_title
;
Structure prediction by ZEFSAII (Michael W. Deem and Ramdas Pophale) SiO2 
 PCOD9181876
Probable space group: C 2/M
;
_chemical_formula_sum "Si O2"
_cell_formula_units_Z 56
_cell_length_a 19.566738
_cell_length_b 7.897419
_cell_length_c 26.517835
_cell_angle_alpha 90.000000
_cell_angle_beta 39.957879
_cell_angle_gamma 90.000000
_cell_volume 2631.651602
_symmetry_space_group_name_H-M "C 2/M"
_symmetry_group_IT_number 12
_symmetry_cell_setting 'monoclinic'
loop_
_space_group_symop_operation_xyz
x,y,z
-x,y,-z
-x,-y,-z
x,-y,z
1/2+x,1/2+y,z
1/2-x,1/2+y,-z
1/2-x,1/2-y,-z
1/2+x,1/2-y,z
loop_
_atom_site_type_symbol
_atom_site_label
_atom_site_fract_x
_atom_site_fract_y
_atom_site_fract_z
Si Si1 0.914176 0.294316 0.676211
Si Si2 0.560654 0.300570 0.738890
Si Si3 0.297422 0.291827 0.248117
Si Si4 0.163173 0.303483 0.168647
Si Si5 0.329570 0.808646 0.998643
Si Si6 0.962045 0.195168 0.074403
Si Si7 0.364094 0.797066 0.413879
O O1 0.916018 0.500000 0.672877
O O2 0.825284 0.237203 0.686876
O O3 0.868987 0.248736 0.757119
O O4 0.036749 0.238114 0.607107
O O5 0.541538 0.500000 0.757402
O O6 0.638197 0.237539 0.738994
O O7 0.445241 0.214299 0.802162
O O8 0.614907 0.274358 0.653781
O O9 0.298793 0.500000 0.247305
O O10 0.363067 0.234023 0.161615
O O11 0.194707 0.500000 0.152403
O O12 0.258725 0.204535 0.089170
O O13 0.362824 0.000000 0.970220
O O14 0.250000 0.750000 0.000000
O O15 0.435749 0.701433 0.946714
O O16 0.933736 0.000000 0.079169
O O17 0.000000 0.274571 0.000000
O O18 0.250000 0.750000 0.500000
O O19 0.371125 0.000000 0.405845
#
# Coordination Sequence:
#
# PCOD9181876 Si02
#       7
#     8   8   8   8   8   8   8
#     4   8  16  32  55  80 102 132 174 214 254 309
#     4  10  19  32  54  82 111 142 176 218 268 322
#     4   9  17  31  52  78 106 137 178 222 263 317
#     4  10  19  34  55  76 102 138 182 228 272 323
#     4  12  24  36  51  73 104 141 186 238 287 333
#     4  10  20  35  56  80 109 147 187 230 283 338
#     4  10  20  36  59  83 109 139 175 218 263 318
#
# _framework density 21.279413000000002
#
# number of rings (size 3 to 8) (size 9 to 14) (size 15 to 20)
#    0.000    2.143    0.000    5.143    0.000    3.714 
#    0.000    1.429    0.000   16.286    0.000    0.000 
#    0.000    0.000    0.000    0.000    0.000    0.000 
#
# Total GULP energy -156382.161302 kJ/mol
# GULP energy per Si atom -5585.077189 kJ/mol
# Density = 2.123098 g / cm^3
# Si number density = 21.279413 Si / 1000 Ang^3
#
#
#
# Elastic Constant Matrix: (Units=GPa)
#
#
# Indices 1 2 3 4 5 6 
#
# 1 124.4727 -2.3223 29.7606 0.0002 -34.0714 -0.0006
# 2 -2.3223 38.7596 -5.7523 0.0009 1.6164 -0.0013
# 3 29.7606 -5.7523 86.4714 0.0000 -29.6467 -0.0002
# 4 0.0002 0.0009 0.0000 20.4317 0.0000 -0.2672
# 5 -34.0714 1.6164 -29.6467 0.0000 31.6972 0.0000
# 6 -0.0006 -0.0013 -0.0002 -0.2672 0.0000 17.4177
#
#
#
# Elastic Compliance Matrix: (Units=1/GPa)
#
#
# Indices 1 2 3 4 5 6 
#
# 1 0.011395 0.000219 0.000424 0.000000 0.012634 0.000000
# 2 0.000219 0.026066 0.001889 -0.000001 0.000673 0.000002
# 3 0.000424 0.001889 0.017175 0.000000 0.016424 0.000000
# 4 0.000000 -0.000001 0.000000 0.048953 0.000000 0.000751
# 5 0.012634 0.000673 0.016424 0.000000 0.060456 0.000001
# 6 0.000000 0.000002 0.000000 0.000751 0.000001 0.057424
#
#
# Mechanical properties :
#
#
# Convention : Reuss Voigt Hill
#
# Bulk Modulus (GPa) = 16.75015 32.56396 24.65705
# Shear Modulus (GPa) = 21.15919 29.11051 25.13485
#
# Velocity S-wave (km/s) = 3.15675 3.70268 3.44056
# Velocity P-wave (km/s) = 4.60167 5.79793 5.23409
#
# Compressibility (1/GPa) = 0.05970095
#
# Stress axis : x y z
#
# Youngs Moduli (GPa) = 87.75956 38.36483 58.22398
#
# Poissons Ratio (x) = -0.00840 -0.02471
# Poissons Ratio (y) = -0.01921 -0.11001
# Poissons Ratio (z) = -0.03725 -0.07249
#
# Static dielectric constant tensor:
#      x y z
#    x 1.822750 0.000000 -0.026380 
#    y 0.000000 1.808370 0.000000 
#    z -0.026380 0.000000 1.777310 
# 
# From -- ./inp_files/280382.got.cif
#   From: 2010.05.17/outbox.cif.g08.bks.cpg/sg12_141_cif.got.tgz:280382.got - 2010.06.03 13:09:07.
