data_PCOD9181991
_publ_section_title
;
Structure prediction by ZEFSAII (Michael W. Deem and Ramdas Pophale) SiO2 
 PCOD9181991
Probable space group: C 2/M
;
_chemical_formula_sum "Si O2"
_cell_formula_units_Z 56
_cell_length_a 22.127711
_cell_length_b 7.473161
_cell_length_c 26.606776
_cell_angle_alpha 90.000000
_cell_angle_beta 143.475765
_cell_angle_gamma 90.000000
_cell_volume 2618.597953
_symmetry_space_group_name_H-M "C 2/M"
_symmetry_group_IT_number 12
_symmetry_cell_setting 'monoclinic'
loop_
_space_group_symop_operation_xyz
x,y,z
-x,y,-z
-x,-y,-z
x,-y,z
1/2+x,1/2+y,z
1/2-x,1/2+y,-z
1/2-x,1/2-y,-z
1/2+x,1/2-y,z
loop_
_atom_site_type_symbol
_atom_site_label
_atom_site_fract_x
_atom_site_fract_y
_atom_site_fract_z
Si Si1 0.221308 0.285041 0.729342
Si Si2 0.153415 0.285782 0.470638
Si Si3 0.400394 0.207276 0.064642
Si Si4 0.183386 0.282469 0.885988
Si Si5 0.948367 0.713317 0.914245
Si Si6 0.436091 0.781408 0.292144
Si Si7 0.614455 0.218650 0.558669
O O1 0.217638 0.500000 0.725658
O O2 0.329221 0.238789 0.825892
O O3 0.131008 0.223973 0.705393
O O4 0.194597 0.223846 0.655125
O O5 0.146747 0.500000 0.469911
O O6 0.250000 0.250000 0.500000
O O7 0.147076 0.221294 0.524502
O O8 0.051144 0.221032 0.375027
O O9 0.299097 0.217807 0.963158
O O10 0.424966 0.000000 0.091191
O O11 0.368105 0.283765 0.096831
O O12 0.491788 0.287728 0.094117
O O13 0.187713 0.500000 0.889796
O O14 0.119384 0.224496 0.795552
O O15 0.966647 0.500000 0.926926
O O16 0.000000 0.783353 0.000000
O O17 0.436205 0.000000 0.291859
O O18 0.500000 0.271171 0.500000
O O19 0.612825 0.000000 0.556731
#
# Coordination Sequence:
#
# PCOD9181991 Si02
#       7
#     8   8   8   8   8   8   8
#     4  10  19  32  55  81  98 128 180 225 258 301
#     4  10  20  35  55  79 108 139 172 215 269 321
#     4   9  18  32  47  66  96 133 165 198 250 309
#     4   9  17  30  50  72  93 123 166 210 250 296
#     4  10  21  35  49  70 106 144 171 204 261 322
#     4   9  17  31  52  75  97 126 167 211 256 307
#     4   9  16  32  57  79 103 138 178 220 265 318
#
# _framework density 21.385490000000001
#
# number of rings (size 3 to 8) (size 9 to 14) (size 15 to 20)
#    0.000    2.571    1.429    0.857    0.000    2.000 
#    0.000    3.571    0.000    0.857    0.000    0.000 
#    0.000    0.000    0.000    0.000    0.000    0.000 
#
# Total GULP energy -156256.405701 kJ/mol
# GULP energy per Si atom -5580.585918 kJ/mol
# Density = 2.133682 g / cm^3
# Si number density = 21.385490 Si / 1000 Ang^3
#
#
#
# Elastic Constant Matrix: (Units=GPa)
#
#
# Indices 1 2 3 4 5 6 
#
# 1 124.7642 -6.4894 63.8411 0.0003 9.1886 0.0001
# 2 -6.4894 57.7587 -19.6102 0.0004 -3.2270 0.0018
# 3 63.8411 -19.6102 110.4306 0.0002 -10.4092 -0.0002
# 4 0.0003 0.0004 0.0002 -15.6037 -0.0001 -10.5044
# 5 9.1886 -3.2270 -10.4092 -0.0001 40.9104 0.0001
# 6 0.0001 0.0018 -0.0002 -10.5044 0.0001 -3.3341
#
#
#
# Elastic Compliance Matrix: (Units=1/GPa)
#
#
# Indices 1 2 3 4 5 6 
#
# 1 0.012314 -0.001557 -0.007856 0.000000 -0.004887 0.000000
# 2 -0.001557 0.018843 0.004528 0.000005 0.002988 -0.000007
# 3 -0.007856 0.004528 0.014960 0.000001 0.005928 -0.000001
# 4 0.000000 0.000005 0.000001 0.057171 0.000001 -0.180123
# 5 -0.004887 0.002988 0.005928 0.000001 0.027285 -0.000001
# 6 0.000000 -0.000007 -0.000001 -0.180123 -0.000001 0.267561
#
#
# Mechanical properties :
#
#
# Convention : Reuss Voigt Hill
#
# Bulk Modulus (GPa) = 27.51302 40.93740 34.22521
# Shear Modulus (GPa) = 11.90419 21.40865 16.65642
#
# Velocity S-wave (km/s) = 2.36190 3.16742 2.79384
# Velocity P-wave (km/s) = 4.50902 5.70622 5.14258
#
# Compressibility (1/GPa) = 0.03634643
#
# Stress axis : x y z
#
# Youngs Moduli (GPa) = 81.20873 53.07099 66.84545
#
# Poissons Ratio (x) = 0.08262 0.52514
# Poissons Ratio (y) = 0.12643 -0.30266
# Poissons Ratio (z) = 0.63797 -0.24029
#
# Static dielectric constant tensor:
#      x y z
#    x 1.779090 0.000000 -0.012800 
#    y 0.000000 1.789180 0.000000 
#    z -0.012800 0.000000 1.743210 
# 
# From -- ./inp_files/365878.got.cif
#   From: 2010.05.17/outbox.cif.g08.bks.cpg/sg12_183_cif.got.tgz:365878.got - 2010.06.03 13:09:07.
