data_PCOD9181009
_publ_section_title
;
Structure prediction by ZEFSAII (Michael W. Deem and Ramdas Pophale) SiO2 
 PCOD9181009
Probable space group: C 2/M
;
_chemical_formula_sum "Si O2"
_cell_formula_units_Z 48
_cell_length_a 5.160406
_cell_length_b 14.483608
_cell_length_c 31.665896
_cell_angle_alpha 90.000000
_cell_angle_beta 94.662699
_cell_angle_gamma 90.000000
_cell_volume 2358.917444
_symmetry_space_group_name_H-M "C 2/M"
_symmetry_group_IT_number 12
_symmetry_cell_setting 'monoclinic'
loop_
_space_group_symop_operation_xyz
x,y,z
-x,y,-z
-x,-y,-z
x,-y,z
1/2+x,1/2+y,z
1/2-x,1/2+y,-z
1/2-x,1/2-y,-z
1/2+x,1/2-y,z
loop_
_atom_site_type_symbol
_atom_site_label
_atom_site_fract_x
_atom_site_fract_y
_atom_site_fract_z
Si Si1 0.000000 0.316431 0.500000
Si Si2 0.985113 0.110390 0.270278
Si Si3 0.802862 0.184711 0.085974
Si Si4 0.782241 0.806927 0.182179
Si Si5 0.007958 0.389239 0.318002
Si Si6 0.969357 0.311592 0.589982
Si Si7 0.735201 0.500000 0.970237
O O1 0.750000 0.250000 0.500000
O O2 0.995798 0.365143 0.454232
O O3 0.883018 0.134630 0.222703
O O4 0.779663 0.144375 0.302437
O O5 0.271047 0.145158 0.285816
O O6 0.995149 0.000000 0.273361
O O7 0.556902 0.253906 0.078916
O O8 0.814512 0.154147 0.135424
O O9 0.779593 0.093473 0.057605
O O10 0.481204 0.780202 0.184426
O O11 0.011945 0.500000 0.315325
O O12 0.970665 0.363673 0.366112
O O13 0.177531 0.228095 0.589675
O O14 0.500000 0.500000 0.000000
O O15 0.000000 0.500000 0.000000
#
# Coordination Sequence:
#
# PCOD9181009 Si02
#       7
#     4   8   8   8   8   8   4
#     4   8  16  30  47  70  95 120 164 214 260 314
#     4  10  21  35  53  75 106 145 177 216 269 322
#     4  10  23  43  64  93 130 163 203 260 307 352
#     4  10  21  37  58  84 112 146 188 233 280 328
#     4  10  21  35  48  74 108 137 172 216 270 323
#     4  10  19  32  52  73  95 130 170 214 263 315
#     4  12  26  42  68 100 124 168 216 246 308 375
#
# _framework density 20.348314999999999
#
# number of rings (size 3 to 8) (size 9 to 14) (size 15 to 20)
#    0.000    2.000    0.000    3.000    1.167    6.000 
#    0.000    0.417    0.000    0.000    0.000   10.500 
#    0.000    0.000    0.000    0.000    0.000    0.000 
#
# Total GULP energy -133939.231719 kJ/mol
# GULP energy per Si atom -5580.801322 kJ/mol
# Density = 2.030200 g / cm^3
# Si number density = 20.348315 Si / 1000 Ang^3
#
#
#
# Elastic Constant Matrix: (Units=GPa)
#
#
# Indices 1 2 3 4 5 6 
#
# 1 91.2768 -2.2257 25.2135 0.0000 -5.0919 0.0000
# 2 -2.2257 49.0335 31.9787 0.0000 -3.7739 0.0000
# 3 25.2135 31.9787 122.7579 0.0000 4.8085 0.0000
# 4 0.0000 0.0000 0.0000 -445.7983 0.0000 -38.0482
# 5 -5.0919 -3.7739 4.8085 0.0000 31.0501 0.0000
# 6 0.0000 0.0000 0.0000 -38.0482 0.0000 5.5450
#
#
#
# Elastic Compliance Matrix: (Units=1/GPa)
#
#
# Indices 1 2 3 4 5 6 
#
# 1 0.012121 0.002973 -0.003377 0.000000 0.002872 0.000000
# 2 0.002973 0.025802 -0.007520 0.000000 0.004788 0.000000
# 3 -0.003377 -0.007520 0.010922 0.000000 -0.003159 0.000000
# 4 0.000000 0.000000 0.000000 -0.001415 0.000000 -0.009707
# 5 0.002872 0.004788 -0.003159 0.000000 0.033748 0.000000
# 6 0.000000 0.000000 0.000000 -0.009707 0.000000 0.113736
#
#
# Mechanical properties :
#
#
# Convention : Reuss Voigt Hill
#
# Bulk Modulus (GPa) = 30.30354 41.44458 35.87406
# Shear Modulus (GPa) = 22.54686 -67.96721 -22.71017
#
# Velocity S-wave (km/s) = 3.33234 -5.78571 -3.34439
# Velocity P-wave (km/s) = 5.45259 4.92146 1.65982
#
# Compressibility (1/GPa) = 0.03299944
#
# Stress axis : x y z
#
# Youngs Moduli (GPa) = 82.50045 38.75682 91.55579
#
# Poissons Ratio (x) = -0.11524 0.30915
# Poissons Ratio (y) = -0.24531 0.68847
# Poissons Ratio (z) = 0.27858 0.29144
#
# Static dielectric constant tensor:
#      x y z
#    x 1.715480 0.000000 0.003240 
#    y 0.000000 1.693790 0.000000 
#    z 0.003240 0.000000 1.745740 
# 
# From -- ./inp_files/354826.got.cif
#   From: 2010.05.17/outbox.cif.g08.bks.cpg/sg12_178_cif.got.tgz:354826.got - 2010.06.03 13:09:07.
