data_PCOD9181196
_publ_section_title
;
Structure prediction by ZEFSAII (Michael W. Deem and Ramdas Pophale) SiO2 
 PCOD9181196
Probable space group: C 2/M
;
_chemical_formula_sum "Si O2"
_cell_formula_units_Z 64
_cell_length_a 22.098988
_cell_length_b 26.883037
_cell_length_c 5.246437
_cell_angle_alpha 90.000000
_cell_angle_beta 99.005073
_cell_angle_gamma 90.000000
_cell_volume 3078.428089
_symmetry_space_group_name_H-M "C 2/M"
_symmetry_group_IT_number 12
_symmetry_cell_setting 'monoclinic'
loop_
_space_group_symop_operation_xyz
x,y,z
-x,y,-z
-x,-y,-z
x,-y,z
1/2+x,1/2+y,z
1/2-x,1/2+y,-z
1/2-x,1/2-y,-z
1/2+x,1/2-y,z
loop_
_atom_site_type_symbol
_atom_site_label
_atom_site_fract_x
_atom_site_fract_y
_atom_site_fract_z
Si Si1 0.640326 0.292658 0.591757
Si Si2 0.945912 0.262086 0.131137
Si Si3 0.823372 0.149995 0.874490
Si Si4 0.293135 0.556773 0.116985
Si Si5 0.843135 0.556495 0.216050
Si Si6 0.728697 0.115023 0.458856
Si Si7 0.150052 0.697616 0.324127
Si Si8 0.438809 0.864867 0.360660
O O1 0.574981 0.271536 0.646686
O O2 0.639603 0.327826 0.342008
O O3 0.673715 0.242099 0.520389
O O4 0.668036 0.318501 0.861681
O O5 0.964819 0.317396 0.227260
O O6 0.886423 0.274452 0.920929
O O7 0.000000 0.239602 0.000000
O O8 0.754475 0.146239 0.715936
O O9 0.833464 0.092739 0.967560
O O10 0.313042 0.500000 0.142620
O O11 0.284893 0.584796 0.378753
O O12 0.221498 0.557206 0.977179
O O13 0.865819 0.500000 0.228818
O O14 0.820405 0.574606 0.480527
O O15 0.894703 0.597034 0.181629
O O16 0.700263 0.158117 0.266452
O O17 0.103669 0.662756 0.456545
O O18 0.500000 0.891685 0.500000
#
# Coordination Sequence:
#
# PCOD9181196 Si02
#       8
#     8   8   8   8   8   8   8   8
#     4  11  23  40  57  86 120 153 190 243 290 352
#     4  11  21  37  60  80 112 153 199 239 292 350
#     4  11  22  41  56  87 121 153 190 244 290 345
#     4  10  20  37  61  83 114 158 201 240 292 354
#     4   9  19  33  50  77 111 152 204 257 305 349
#     4  10  20  35  59  81 115 155 199 241 292 349
#     4  10  21  36  55  82 113 157 198 240 293 350
#     4  10  19  32  52  77 108 150 205 258 303 348
#
# _framework density 20.789832000000001
#
# number of rings (size 3 to 8) (size 9 to 14) (size 15 to 20)
#    0.000    1.750    3.750    1.125    0.000    2.750 
#    0.000    0.000    0.000    0.375    0.000    0.000 
#    0.000    3.000    0.000    0.000    0.000    0.000 
#
# Total GULP energy -178244.720850 kJ/mol
# GULP energy per Si atom -5570.147527 kJ/mol
# Density = 2.074251 g / cm^3
# Si number density = 20.789832 Si / 1000 Ang^3
#
#
#
# Elastic Constant Matrix: (Units=GPa)
#
#
# Indices 1 2 3 4 5 6 
#
# 1 33.7678 28.3452 8.7921 0.0000 -9.8681 0.0000
# 2 28.3452 125.7357 44.2390 0.0000 -4.9575 0.0000
# 3 8.7921 44.2390 91.6285 0.0000 -7.2603 0.0000
# 4 0.0000 0.0000 0.0000 24.9633 0.0000 1.7269
# 5 -9.8681 -4.9575 -7.2603 0.0000 29.8506 0.0000
# 6 0.0000 0.0000 0.0000 1.7269 0.0000 9.4047
#
#
#
# Elastic Compliance Matrix: (Units=1/GPa)
#
#
# Indices 1 2 3 4 5 6 
#
# 1 0.040501 -0.009181 0.001516 0.000000 0.012233 0.000000
# 2 -0.009181 0.011669 -0.004935 0.000000 -0.002298 0.000000
# 3 0.001516 -0.004935 0.013383 0.000000 0.002937 0.000000
# 4 0.000000 0.000000 0.000000 0.040574 0.000000 -0.007450
# 5 0.012233 -0.002298 0.002937 0.000000 0.037877 0.000000
# 6 0.000000 0.000000 0.000000 -0.007450 0.000000 0.107698
#
#
# Mechanical properties :
#
#
# Convention : Reuss Voigt Hill
#
# Bulk Modulus (GPa) = 24.78147 45.98721 35.38434
# Shear Modulus (GPa) = 17.22037 24.16078 20.69057
#
# Velocity S-wave (km/s) = 2.88116 3.41272 3.15814
# Velocity P-wave (km/s) = 4.79729 6.13979 5.50958
#
# Compressibility (1/GPa) = 0.04035273
#
# Stress axis : x y z
#
# Youngs Moduli (GPa) = 24.69057 85.69949 74.71928
#
# Poissons Ratio (x) = 0.78684 -0.11327
# Poissons Ratio (y) = 0.22670 0.36872
# Poissons Ratio (z) = -0.03743 0.42291
#
# Static dielectric constant tensor:
#      x y z
#    x 1.788810 0.000000 0.011700 
#    y 0.000000 1.766240 0.000000 
#    z 0.011700 0.000000 1.906480 
# 
# From -- ./inp_files/26430.got.cif
#   From: 2010.05.17/outbox.cif.g08.bks.cpg/sg12_14_cif.got.tgz:26430.got - 2010.06.03 13:09:07.
