data_PCOD9181488
_publ_section_title
;
Structure prediction by ZEFSAII (Michael W. Deem and Ramdas Pophale) SiO2 
 PCOD9181488
Probable space group: C 2/M
;
_chemical_formula_sum "Si O2"
_cell_formula_units_Z 56
_cell_length_a 13.939660
_cell_length_b 11.885602
_cell_length_c 21.117903
_cell_angle_alpha 90.000000
_cell_angle_beta 45.346600
_cell_angle_gamma 90.000000
_cell_volume 2488.974865
_symmetry_space_group_name_H-M "C 2/M"
_symmetry_group_IT_number 12
_symmetry_cell_setting 'monoclinic'
loop_
_space_group_symop_operation_xyz
x,y,z
-x,y,-z
-x,-y,-z
x,-y,z
1/2+x,1/2+y,z
1/2-x,1/2+y,-z
1/2-x,1/2-y,-z
1/2+x,1/2-y,z
loop_
_atom_site_type_symbol
_atom_site_label
_atom_site_fract_x
_atom_site_fract_y
_atom_site_fract_z
Si Si1 0.692763 0.340679 0.121685
Si Si2 0.355259 0.630332 0.483801
Si Si3 0.930695 0.630166 0.441370
Si Si4 0.153477 0.622767 0.073538
Si Si5 0.096172 0.125909 0.684597
Si Si6 0.243602 0.632753 0.272551
Si Si7 0.916821 0.723040 0.097507
O O1 0.688011 0.206841 0.113268
O O2 0.551552 0.374616 0.216111
O O3 0.816693 0.365957 0.110323
O O4 0.727712 0.379972 0.034426
O O5 0.396217 0.500000 0.483844
O O6 0.192941 0.626439 0.551519
O O7 0.396658 0.752018 0.494913
O O8 0.409788 0.652224 0.386693
O O9 0.928241 0.500000 0.470210
O O10 0.082602 0.644385 0.346072
O O11 0.126752 0.500000 0.110598
O O12 0.024917 0.668721 0.094609
O O13 0.193757 0.182253 0.690884
O O14 0.151433 0.000000 0.656050
O O15 0.274200 0.500000 0.253987
O O16 0.323034 0.694630 0.180392
O O17 0.000000 0.774695 0.000000
#
# Coordination Sequence:
#
# PCOD9181488 Si02
#       7
#     8   8   8   8   8   8   8
#     4  10  20  35  55  77 107 143 183 233 281 333
#     4   9  18  33  56  84 108 140 185 227 274 337
#     4   9  18  34  56  81 111 143 179 228 281 335
#     4  10  21  37  55  78 108 144 188 234 287 345
#     4  10  19  32  53  78 107 142 181 226 273 328
#     4  10  20  34  52  76 109 143 179 228 280 332
#     4  10  21  36  54  78 108 144 188 236 280 334
#
# _framework density 22.499222
#
# number of rings (size 3 to 8) (size 9 to 14) (size 15 to 20)
#    0.000    2.286    1.429    1.286    0.000    4.571 
#    0.000    4.286    0.000    0.000    0.000    4.000 
#    0.000    0.000    0.000    0.000    0.000    0.000 
#
# Total GULP energy -155896.542875 kJ/mol
# GULP energy per Si atom -5567.733674 kJ/mol
# Density = 2.244801 g / cm^3
# Si number density = 22.499222 Si / 1000 Ang^3
#
#
#
# Elastic Constant Matrix: (Units=GPa)
#
#
# Indices 1 2 3 4 5 6 
#
# 1 74.0382 22.3813 27.2792 0.0000 -5.4346 0.0000
# 2 22.3813 150.2351 20.9070 0.0000 -5.4370 0.0000
# 3 27.2792 20.9070 145.8510 0.0000 -22.8549 0.0000
# 4 0.0000 0.0000 0.0000 -155.5632 0.0000 -1.7643
# 5 -5.4346 -5.4370 -22.8549 0.0000 28.1237 0.0000
# 6 0.0000 0.0000 0.0000 -1.7643 0.0000 -1.2677
#
#
#
# Elastic Compliance Matrix: (Units=1/GPa)
#
#
# Indices 1 2 3 4 5 6 
#
# 1 0.015018 -0.001876 -0.002455 0.000000 0.000545 0.000000
# 2 -0.001876 0.007035 -0.000574 0.000000 0.000531 0.000000
# 3 -0.002455 -0.000574 0.008372 0.000000 0.006218 0.000000
# 4 0.000000 0.000000 0.000000 -0.006531 0.000000 0.009090
# 5 0.000545 0.000531 0.006218 0.000000 0.040818 0.000000
# 6 0.000000 0.000000 0.000000 0.009090 0.000000 -0.801481
#
#
# Mechanical properties :
#
#
# Convention : Reuss Voigt Hill
#
# Bulk Modulus (GPa) = 48.50833 56.80659 52.65746
# Shear Modulus (GPa) = -6.94360 -5.77096 -6.35728
#
# Velocity S-wave (km/s) = -1.75865 -1.60329 -1.68276
# Velocity P-wave (km/s) = 4.18127 4.67714 4.43614
#
# Compressibility (1/GPa) = 0.02061502
#
# Stress axis : x y z
#
# Youngs Moduli (GPa) = 66.58669 142.14948 119.44356
#
# Poissons Ratio (x) = 0.26667 0.29319
# Poissons Ratio (y) = 0.12492 0.06860
# Poissons Ratio (z) = 0.16345 0.08165
#
# Static dielectric constant tensor:
#      x y z
#    x 1.871370 0.000000 0.016020 
#    y 0.000000 1.920910 0.000000 
#    z 0.016020 0.000000 1.830500 
# 
# From -- ./inp_files/268610.got.cif
#   From: 2010.05.17/outbox.cif.g08.bks.cpg/sg12_135_cif.got.tgz:268610.got - 2010.06.03 13:09:07.
