data_PCOD9181280
_publ_section_title
;
Structure prediction by ZEFSAII (Michael W. Deem and Ramdas Pophale) SiO2 
 PCOD9181280
Probable space group: C 2/M
;
_chemical_formula_sum "Si O2"
_cell_formula_units_Z 48
_cell_length_a 12.084894
_cell_length_b 26.363594
_cell_length_c 15.251844
_cell_angle_alpha 90.000000
_cell_angle_beta 28.431863
_cell_angle_gamma 90.000000
_cell_volume 2313.556698
_symmetry_space_group_name_H-M "C 2/M"
_symmetry_group_IT_number 12
_symmetry_cell_setting 'monoclinic'
loop_
_space_group_symop_operation_xyz
x,y,z
-x,y,-z
-x,-y,-z
x,-y,z
1/2+x,1/2+y,z
1/2-x,1/2+y,-z
1/2-x,1/2-y,-z
1/2+x,1/2-y,z
loop_
_atom_site_type_symbol
_atom_site_label
_atom_site_fract_x
_atom_site_fract_y
_atom_site_fract_z
Si Si1 0.840100 0.055706 0.860348
Si Si2 0.862423 0.807518 0.334004
Si Si3 0.125292 0.660923 0.998144
Si Si4 0.769919 0.804978 0.606147
Si Si5 0.145012 0.588318 0.479045
Si Si6 0.758925 0.059311 0.124696
O O1 0.118895 0.060444 0.657479
O O2 0.765588 0.000000 0.881250
O O3 0.714449 0.104773 0.908926
O O4 0.787447 0.060313 0.000752
O O5 0.804076 0.811425 0.478523
O O6 0.779674 0.755194 0.350099
O O7 0.738814 0.857051 0.381325
O O8 0.140360 0.811224 0.135448
O O9 0.940975 0.663855 0.204791
O O10 0.000000 0.684089 0.000000
O O11 0.000000 0.818442 0.500000
O O12 0.000000 0.564463 0.500000
O O13 0.960808 0.589560 0.685939
O O14 0.727162 0.000000 0.172341
O O15 0.000000 0.077225 0.000000
#
# Coordination Sequence:
#
# PCOD9181280 Si02
#       6
#     8   8   8   8   8   8
#     4  10  22  37  56  83 114 151 194 238 280 334
#     4  10  23  38  59  87 114 146 189 237 278 340
#     4  11  22  40  62  84 113 151 191 233 285 337
#     4  11  21  40  64  84 113 148 186 232 290 340
#     4  11  20  34  56  83 117 150 189 233 286 338
#     4  10  19  32  52  79 113 153 189 226 281 339
#
# _framework density 20.747275999999999
#
# number of rings (size 3 to 8) (size 9 to 14) (size 15 to 20)
#    0.000    1.500    3.333    2.500    0.000    1.000 
#    0.000    0.000    0.000    0.500    0.000    0.000 
#    0.000    0.000    0.000    0.000    0.000    0.000 
#
# Total GULP energy -134028.496140 kJ/mol
# GULP energy per Si atom -5584.520672 kJ/mol
# Density = 2.070005 g / cm^3
# Si number density = 20.747276 Si / 1000 Ang^3
#
#
#
# Elastic Constant Matrix: (Units=GPa)
#
#
# Indices 1 2 3 4 5 6 
#
# 1 42.9205 -14.2964 22.7341 0.0063 -12.2253 -0.0610
# 2 -14.2964 54.5625 8.0248 0.0046 -15.2538 -0.0414
# 3 22.7341 8.0248 147.8543 0.0153 -26.0716 -0.1259
# 4 0.0063 0.0046 0.0153 17.0974 -0.0058 9.4840
# 5 -12.2253 -15.2538 -26.0716 -0.0058 25.3612 0.0872
# 6 -0.0610 -0.0414 -0.1259 9.4840 0.0872 -33.8074
#
#
#
# Elastic Compliance Matrix: (Units=1/GPa)
#
#
# Indices 1 2 3 4 5 6 
#
# 1 0.037956 0.017756 -0.002065 0.000000 0.026854 -0.000013
# 2 0.017756 0.030576 0.000443 -0.000005 0.027405 -0.000002
# 3 -0.002065 0.000443 0.008462 0.000000 0.007970 -0.000008
# 4 0.000000 -0.000005 0.000000 0.050613 -0.000040 0.014198
# 5 0.026854 0.027405 0.007970 -0.000040 0.077051 0.000076
# 6 -0.000013 -0.000002 -0.000008 0.014198 0.000076 -0.025596
#
#
# Mechanical properties :
#
#
# Convention : Reuss Voigt Hill
#
# Bulk Modulus (GPa) = 9.15224 30.91805 20.03515
# Shear Modulus (GPa) = 27.29036 16.98857 22.13946
#
# Velocity S-wave (km/s) = 3.63074 2.86463 3.27020
# Velocity P-wave (km/s) = 4.69012 5.08685 4.89251
#
# Compressibility (1/GPa) = 0.10926281
#
# Stress axis : x y z
#
# Youngs Moduli (GPa) = 26.34648 32.70489 118.17167
#
# Poissons Ratio (x) = -0.58071 0.24398
# Poissons Ratio (y) = -0.46781 -0.05231
# Poissons Ratio (z) = 0.05440 -0.01448
#
# Static dielectric constant tensor:
#      x y z
#    x 1.711920 0.000010 0.002950 
#    y 0.000010 1.771010 -0.000010 
#    z 0.002950 -0.000010 1.725050 
# 
# From -- ./inp_files/13230.got.cif
#   From: 2010.05.17/outbox.cif.g08.bks.cpg/sg12_7_cif.got.tgz:13230.got - 2010.06.03 13:09:07.
