data_PCOD9181247
_publ_section_title
;
Structure prediction by ZEFSAII (Michael W. Deem and Ramdas Pophale) SiO2 
 PCOD9181247
Probable space group: C 2/M
;
_chemical_formula_sum "Si O2"
_cell_formula_units_Z 64
_cell_length_a 21.075490
_cell_length_b 7.945000
_cell_length_c 20.073572
_cell_angle_alpha 90.000000
_cell_angle_beta 90.890324
_cell_angle_gamma 90.000000
_cell_volume 3360.808811
_symmetry_space_group_name_H-M "C 2/M"
_symmetry_group_IT_number 12
_symmetry_cell_setting 'monoclinic'
loop_
_space_group_symop_operation_xyz
x,y,z
-x,y,-z
-x,-y,-z
x,-y,z
1/2+x,1/2+y,z
1/2-x,1/2+y,-z
1/2-x,1/2-y,-z
1/2+x,1/2-y,z
loop_
_atom_site_type_symbol
_atom_site_label
_atom_site_fract_x
_atom_site_fract_y
_atom_site_fract_z
Si Si1 0.613982 0.702771 0.823823
Si Si2 0.564253 0.297613 0.534847
Si Si3 0.940866 0.800546 0.040761
Si Si4 0.314405 0.798042 0.962662
Si Si5 0.187287 0.796913 0.458403
Si Si6 0.113798 0.299396 0.675939
Si Si7 0.740023 0.202217 0.175100
Si Si8 0.240486 0.202602 0.322342
O O1 0.616264 0.500000 0.828605
O O2 0.572495 0.767565 0.885008
O O3 0.591716 0.746659 0.749170
O O4 0.687107 0.764875 0.831733
O O5 0.500000 0.233491 0.500000
O O6 0.564202 0.500000 0.528703
O O7 0.625603 0.231841 0.495802
O O8 0.572596 0.258645 0.612832
O O9 0.952878 0.000000 0.048894
O O10 0.875788 0.777819 0.998910
O O11 0.000000 0.728596 0.000000
O O12 0.303410 0.739370 0.886466
O O13 0.320964 0.000000 0.963950
O O14 0.250000 0.750000 0.000000
O O15 0.250000 0.750000 0.500000
O O16 0.197960 0.736583 0.382972
O O17 0.182991 0.000000 0.456637
O O18 0.116455 0.500000 0.674407
O O19 0.186622 0.234459 0.668812
O O20 0.718079 0.249449 0.248463
O O21 0.742721 0.000000 0.170990
O O22 0.242781 0.000000 0.325764
#
# Coordination Sequence:
#
# PCOD9181247 Si02
#       8
#     8   8   8   8   8   8   8   8
#     4   9  17  33  54  77 106 140 179 218 263 322
#     4  10  21  36  54  77 106 142 178 213 260 319
#     4  10  21  38  58  82 112 146 185 227 275 330
#     4  11  21  35  56  82 112 143 183 229 275 326
#     4  10  19  33  53  77 104 132 169 215 261 308
#     4  10  19  32  52  79 106 135 176 221 265 312
#     4   9  18  32  51  77 106 138 175 219 267 318
#     4   9  18  31  49  77 106 132 170 220 265 312
#
# _framework density 19.043033999999999
#
# number of rings (size 3 to 8) (size 9 to 14) (size 15 to 20)
#    0.000    2.250    2.500    0.750    0.000    3.000 
#    0.000    1.250    0.000    6.000    0.000    0.000 
#    0.000    0.000    0.000    0.000    0.000    0.000 
#
# Total GULP energy -178517.665473 kJ/mol
# GULP energy per Si atom -5578.677046 kJ/mol
# Density = 1.899969 g / cm^3
# Si number density = 19.043034 Si / 1000 Ang^3
#
#
#
# Elastic Constant Matrix: (Units=GPa)
#
#
# Indices 1 2 3 4 5 6 
#
# 1 101.1249 -2.7900 78.7457 0.0000 -9.6689 0.0000
# 2 -2.7900 11.8223 -0.8838 0.0000 -7.0256 0.0000
# 3 78.7457 -0.8838 196.5233 0.0000 -8.4609 0.0000
# 4 0.0000 0.0000 0.0000 24.0318 0.0000 4.7889
# 5 -9.6689 -7.0256 -8.4609 0.0000 27.8848 0.0000
# 6 0.0000 0.0000 0.0000 4.7889 0.0000 15.9899
#
#
#
# Elastic Compliance Matrix: (Units=1/GPa)
#
#
# Indices 1 2 3 4 5 6 
#
# 1 0.015037 0.006083 -0.005783 0.000000 0.004992 0.000000
# 2 0.006083 0.102407 -0.000785 0.000000 0.027672 0.000000
# 3 -0.005783 -0.000785 0.007404 0.000000 0.000043 0.000000
# 4 0.000000 0.000000 0.000000 0.044253 0.000000 -0.013254
# 5 0.004992 0.027672 0.000043 0.000000 0.044578 0.000000
# 6 0.000000 0.000000 0.000000 -0.013254 0.000000 0.066509
#
#
# Mechanical properties :
#
#
# Convention : Reuss Voigt Hill
#
# Bulk Modulus (GPa) = 8.07251 51.06826 29.57038
# Shear Modulus (GPa) = 15.50620 29.20787 22.35704
#
# Velocity S-wave (km/s) = 2.85664 3.92060 3.43012
# Velocity P-wave (km/s) = 3.88958 6.88261 5.59013
#
# Compressibility (1/GPa) = 0.12387728
#
# Stress axis : x y z
#
# Youngs Moduli (GPa) = 66.50225 9.76492 135.06202
#
# Poissons Ratio (x) = -0.05940 0.78106
# Poissons Ratio (y) = -0.40452 0.10608
# Poissons Ratio (z) = 0.38458 0.00767
#
# Static dielectric constant tensor:
#      x y z
#    x 1.648960 0.000000 -0.018330 
#    y 0.000000 1.692200 0.000000 
#    z -0.018330 0.000000 1.683040 
# 
# From -- ./inp_files/281414.got.cif
#   From: 2010.05.17/outbox.cif.g08.bks.cpg/sg12_141_cif.got.tgz:281414.got - 2010.06.03 13:09:07.
