data_PCOD9181611
_publ_section_title
;
Structure prediction by ZEFSAII (Michael W. Deem and Ramdas Pophale) SiO2 
 PCOD9181611
Probable space group: C 2/M
;
_chemical_formula_sum "Si O2"
_cell_formula_units_Z 48
_cell_length_a 14.171345
_cell_length_b 20.483714
_cell_length_c 12.003701
_cell_angle_alpha 90.000000
_cell_angle_beta 137.656254
_cell_angle_gamma 90.000000
_cell_volume 2347.049315
_symmetry_space_group_name_H-M "C 2/M"
_symmetry_group_IT_number 12
_symmetry_cell_setting 'monoclinic'
loop_
_space_group_symop_operation_xyz
x,y,z
-x,y,-z
-x,-y,-z
x,-y,z
1/2+x,1/2+y,z
1/2-x,1/2+y,-z
1/2-x,1/2-y,-z
1/2+x,1/2-y,z
loop_
_atom_site_type_symbol
_atom_site_label
_atom_site_fract_x
_atom_site_fract_y
_atom_site_fract_z
Si Si1 0.563212 0.929907 0.930805
Si Si2 0.669069 0.927277 0.652887
Si Si3 0.751643 0.210771 0.385629
Si Si4 0.072425 0.290591 0.896883
Si Si5 0.800403 0.290768 0.217668
Si Si6 0.267611 0.072435 0.550103
O O1 0.640638 0.861724 0.980936
O O2 0.430561 0.928167 0.731504
O O3 0.636494 0.000000 0.979327
O O4 0.500000 0.929360 0.000000
O O5 0.500000 0.923859 0.500000
O O6 0.715853 0.866366 0.766286
O O7 0.728865 0.920079 0.580019
O O8 0.705449 0.000000 0.726146
O O9 0.750000 0.250000 0.500000
O O10 0.825960 0.249989 0.352127
O O11 0.797935 0.136277 0.449757
O O12 0.587827 0.207537 0.206032
O O13 0.080076 0.281601 0.770715
O O14 0.162024 0.236279 0.036283
O O15 0.211418 0.000000 0.529726
#
# Coordination Sequence:
#
# PCOD9181611 Si02
#       6
#     8   8   8   8   8   8
#     4   9  16  29  52  78 109 145 175 220 283 335
#     4  10  19  32  53  81 110 137 177 235 288 336
#     4  11  20  34  57  82 109 149 184 231 276 333
#     4  10  22  36  51  80 119 145 185 228 275 337
#     4  11  22  35  55  79 112 150 179 226 288 335
#     4   9  17  30  48  76 106 134 177 228 277 325
#
# _framework density 20.451211000000001
#
# number of rings (size 3 to 8) (size 9 to 14) (size 15 to 20)
#    0.000    2.000    1.667    4.500    0.000    2.000 
#    0.000    0.000    0.000    4.000    0.000    1.167 
#    0.000    0.000    0.000    0.000    0.000    0.000 
#
# Total GULP energy -133930.391040 kJ/mol
# GULP energy per Si atom -5580.432960 kJ/mol
# Density = 2.040466 g / cm^3
# Si number density = 20.451211 Si / 1000 Ang^3
#
#
#
# Elastic Constant Matrix: (Units=GPa)
#
#
# Indices 1 2 3 4 5 6 
#
# 1 48.2943 29.7908 12.1965 0.0000 -24.5347 0.0000
# 2 29.7908 210.5577 53.7189 0.0000 -17.5178 0.0000
# 3 12.1965 53.7189 66.2389 0.0000 -22.0407 0.0000
# 4 0.0000 0.0000 0.0000 107.5570 0.0000 -98.7567
# 5 -24.5347 -17.5178 -22.0407 0.0000 31.1297 0.0000
# 6 0.0000 0.0000 0.0000 -98.7567 0.0000 153.1256
#
#
#
# Elastic Compliance Matrix: (Units=1/GPa)
#
#
# Indices 1 2 3 4 5 6 
#
# 1 0.038486 -0.004657 0.007733 0.000000 0.033187 0.000000
# 2 -0.004657 0.006552 -0.005822 0.000000 -0.004106 0.000000
# 3 0.007733 -0.005822 0.025291 0.000000 0.020725 0.000000
# 4 0.000000 0.000000 0.000000 0.022797 0.000000 0.014703
# 5 0.033187 -0.004106 0.020725 0.000000 0.070643 0.000000
# 6 0.000000 0.000000 0.000000 0.014703 0.000000 0.016013
#
#
# Mechanical properties :
#
#
# Convention : Reuss Voigt Hill
#
# Bulk Modulus (GPa) = 15.42329 57.38924 36.40627
# Shear Modulus (GPa) = 24.16777 73.65478 48.91128
#
# Velocity S-wave (km/s) = 3.44136 6.00775 4.89571
# Velocity P-wave (km/s) = 4.83202 8.73193 7.05673
#
# Compressibility (1/GPa) = 0.06483700
#
# Stress axis : x y z
#
# Youngs Moduli (GPa) = 25.98349 152.62440 39.53978
#
# Poissons Ratio (x) = 0.71079 -0.30578
# Poissons Ratio (y) = 0.12101 0.23021
# Poissons Ratio (z) = -0.20094 0.88862
#
# Static dielectric constant tensor:
#      x y z
#    x 1.732850 0.000000 -0.011010 
#    y 0.000000 1.792330 0.000000 
#    z -0.011010 0.000000 1.754340 
# 
# From -- ./inp_files/157405.got.cif
#   From: 2010.05.17/outbox.cif.g08.bks.cpg/sg12_79_cif.got.tgz:157405.got - 2010.06.03 13:09:07.
