data_PCOD9181291
_publ_section_title
;
Structure prediction by ZEFSAII (Michael W. Deem and Ramdas Pophale) SiO2 
 PCOD9181291
Probable space group: C 2/M
;
_chemical_formula_sum "Si O2"
_cell_formula_units_Z 56
_cell_length_a 24.300908
_cell_length_b 23.353898
_cell_length_c 15.099009
_cell_angle_alpha 90.000000
_cell_angle_beta 19.352728
_cell_angle_gamma 90.000000
_cell_volume 2839.620495
_symmetry_space_group_name_H-M "C 2/M"
_symmetry_group_IT_number 12
_symmetry_cell_setting 'monoclinic'
loop_
_space_group_symop_operation_xyz
x,y,z
-x,y,-z
-x,-y,-z
x,-y,z
1/2+x,1/2+y,z
1/2-x,1/2+y,-z
1/2-x,1/2-y,-z
1/2+x,1/2-y,z
loop_
_atom_site_type_symbol
_atom_site_label
_atom_site_fract_x
_atom_site_fract_y
_atom_site_fract_z
Si Si1 0.869587 0.069916 0.278378
Si Si2 0.354977 0.567112 0.657861
Si Si3 0.513381 0.935393 0.752727
Si Si4 0.870672 0.718708 0.613928
Si Si5 0.468234 0.402153 0.789167
Si Si6 0.629254 0.083388 0.381345
Si Si7 0.379165 0.273738 0.877875
O O1 0.682777 0.088709 0.537080
O O2 0.923596 0.101363 0.286113
O O3 0.871898 0.000000 0.287487
O O4 0.000000 0.081210 0.000000
O O5 0.500000 0.593161 0.500000
O O6 0.341369 0.500000 0.704274
O O7 0.423746 0.571082 0.453700
O O8 0.169078 0.591715 0.954941
O O9 0.558134 0.939627 0.580886
O O10 0.500043 0.000000 0.809907
O O11 0.855317 0.651279 0.623799
O O12 0.000000 0.725506 0.500000
O O13 0.946370 0.748098 0.414140
O O14 0.699143 0.743816 0.909856
O O15 0.398919 0.342274 0.853980
O O16 0.306378 0.435006 0.072927
O O17 0.500000 0.073478 0.500000
O O18 0.250000 0.250000 0.000000
#
# Coordination Sequence:
#
# PCOD9181291 Si02
#       7
#     8   8   8   8   8   8   8
#     4  10  20  37  60  86 118 158 211 258 288 338
#     4  10  22  37  52  82 126 160 191 240 305 368
#     4  10  21  36  55  82 118 162 202 246 298 350
#     4   8  16  29  46  71 104 136 174 229 288 350
#     4  11  21  34  58  85 112 155 201 247 298 356
#     4  10  19  32  52  80 109 146 195 244 301 355
#     4   9  18  32  51  79 109 139 184 239 297 358
#
# _framework density 19.720945
#
# number of rings (size 3 to 8) (size 9 to 14) (size 15 to 20)
#    0.000    2.286    1.429    2.143    0.000    4.286 
#    0.000    2.143    0.000    0.857    0.000    0.000 
#    0.000    0.000    0.000    0.000    0.000    0.000 
#
# Total GULP energy -155891.907882 kJ/mol
# GULP energy per Si atom -5567.568139 kJ/mol
# Density = 1.967606 g / cm^3
# Si number density = 19.720945 Si / 1000 Ang^3
#
#
#
# Elastic Constant Matrix: (Units=GPa)
#
#
# Indices 1 2 3 4 5 6 
#
# 1 92.4762 7.3495 44.4836 0.0544 -2.2364 0.0152
# 2 7.3495 41.7956 17.7485 0.0552 4.3938 0.0116
# 3 44.4836 17.7485 185.2462 0.0781 12.7885 0.0206
# 4 0.0544 0.0552 0.0781 54.0971 -0.0286 14.2293
# 5 -2.2364 4.3938 12.7885 -0.0286 32.9754 -0.0069
# 6 0.0152 0.0116 0.0206 14.2293 -0.0069 18.2416
#
#
#
# Elastic Compliance Matrix: (Units=1/GPa)
#
#
# Indices 1 2 3 4 5 6 
#
# 1 0.012409 -0.001126 -0.003021 -0.000006 0.002163 -0.000001
# 2 -0.001126 0.025239 -0.001963 -0.000025 -0.002678 0.000005
# 3 -0.003021 -0.001963 0.006481 -0.000006 -0.002457 0.000000
# 4 -0.000006 -0.000025 -0.000006 0.023257 0.000021 -0.018142
# 5 0.002163 -0.002678 -0.002457 0.000021 0.031782 -0.000002
# 6 -0.000001 0.000005 0.000000 -0.018142 -0.000002 0.068971
#
#
# Mechanical properties :
#
#
# Convention : Reuss Voigt Hill
#
# Bulk Modulus (GPa) = 31.33969 50.96456 41.15213
# Shear Modulus (GPa) = 26.17849 37.72524 31.95187
#
# Velocity S-wave (km/s) = 3.64737 4.37848 4.02954
# Velocity P-wave (km/s) = 5.80205 7.17359 6.52396
#
# Compressibility (1/GPa) = 0.03190842
#
# Stress axis : x y z
#
# Youngs Moduli (GPa) = 80.58867 39.62105 154.28842
#
# Poissons Ratio (x) = 0.04463 0.46613
# Poissons Ratio (y) = 0.09078 0.30283
# Poissons Ratio (z) = 0.24347 0.07777
#
# Static dielectric constant tensor:
#      x y z
#    x 1.682100 -0.000010 -0.021800 
#    y -0.000010 1.713260 0.000000 
#    z -0.021800 0.000000 1.779060 
# 
# From -- ./inp_files/242135.got.cif
#   From: 2010.05.17/outbox.cif.g08.bks.cpg/sg12_122_cif.got.tgz:242135.got - 2010.06.03 13:09:07.
