data_PCOD9181462
_publ_section_title
;
Structure prediction by ZEFSAII (Michael W. Deem and Ramdas Pophale) SiO2 
 PCOD9181462
Probable space group: C 2/M
;
_chemical_formula_sum "Si O2"
_cell_formula_units_Z 56
_cell_length_a 9.054719
_cell_length_b 19.519600
_cell_length_c 24.042366
_cell_angle_alpha 90.000000
_cell_angle_beta 139.942742
_cell_angle_gamma 90.000000
_cell_volume 2734.684935
_symmetry_space_group_name_H-M "C 2/M"
_symmetry_group_IT_number 12
_symmetry_cell_setting 'monoclinic'
loop_
_space_group_symop_operation_xyz
x,y,z
-x,y,-z
-x,-y,-z
x,-y,z
1/2+x,1/2+y,z
1/2-x,1/2+y,-z
1/2-x,1/2-y,-z
1/2+x,1/2-y,z
loop_
_atom_site_type_symbol
_atom_site_label
_atom_site_fract_x
_atom_site_fract_y
_atom_site_fract_z
Si Si1 0.376406 0.211960 0.085133
Si Si2 0.673446 0.214759 0.802486
Si Si3 0.248993 0.708338 0.635537
Si Si4 0.513436 0.340694 0.410412
Si Si5 0.772742 0.427263 0.067074
Si Si6 0.542404 0.078880 0.445067
Si Si7 0.461284 0.922405 0.738902
O O1 0.264764 0.208616 0.114191
O O2 0.619014 0.246202 0.165160
O O3 0.381827 0.134481 0.065599
O O4 0.250000 0.250000 0.000000
O O5 0.450887 0.261580 0.731229
O O6 0.615578 0.140319 0.759872
O O7 0.364934 0.688605 0.610205
O O8 0.071922 0.772428 0.582272
O O9 0.130997 0.638903 0.623753
O O10 0.705779 0.389192 0.493775
O O11 0.293049 0.388920 0.333306
O O12 0.791758 0.500000 0.043658
O O13 0.923110 0.429375 0.166872
O O14 0.500000 0.417253 0.000000
O O15 0.500000 0.076077 0.500000
O O16 0.517294 0.000000 0.418086
O O17 0.459798 0.000000 0.714798
#
# Coordination Sequence:
#
# PCOD9181462 Si02
#       7
#     8   8   8   8   8   8   8
#     4  11  20  34  54  77 104 136 172 215 260 306
#     4  10  20  33  52  78 104 135 174 212 257 315
#     4  10  19  33  52  75 105 136 169 213 262 310
#     4  10  19  32  53  78 103 134 172 215 261 309
#     4   9  17  30  49  74 100 129 170 213 253 299
#     4   9  18  32  52  78 103 133 178 223 258 299
#     4   9  17  30  50  75 100 128 168 216 254 292
#
# _framework density 20.477678999999998
#
# number of rings (size 3 to 8) (size 9 to 14) (size 15 to 20)
#    0.000    2.286    0.000    5.571    0.000    0.571 
#    0.000    0.714    0.000   12.857    0.000    0.000 
#    0.000    0.000    0.000    0.000    0.000    0.000 
#
# Total GULP energy -155931.403987 kJ/mol
# GULP energy per Si atom -5568.978714 kJ/mol
# Density = 2.043107 g / cm^3
# Si number density = 20.477679 Si / 1000 Ang^3
#
#
#
# Elastic Constant Matrix: (Units=GPa)
#
#
# Indices 1 2 3 4 5 6 
#
# 1 50.7664 40.3757 17.8750 0.0001 8.2658 0.0001
# 2 40.3757 234.3155 58.3391 0.0000 24.5822 0.0000
# 3 17.8750 58.3391 71.7933 -0.0005 11.8641 -0.0005
# 4 0.0001 0.0000 -0.0005 -7.9416 0.0000 -33.9656
# 5 8.2658 24.5822 11.8641 0.0000 29.5790 0.0001
# 6 0.0001 0.0000 -0.0005 -33.9656 0.0001 -14.7449
#
#
#
# Elastic Compliance Matrix: (Units=1/GPa)
#
#
# Indices 1 2 3 4 5 6 
#
# 1 0.023617 -0.003034 -0.002935 0.000000 -0.002901 0.000000
# 2 -0.003034 0.005982 -0.003667 0.000000 -0.002653 0.000000
# 3 -0.002935 -0.003667 0.018207 0.000000 -0.003435 0.000000
# 4 0.000000 0.000000 0.000000 0.014225 0.000000 -0.032768
# 5 -0.002901 -0.002653 -0.003435 0.000000 0.038201 0.000000
# 6 0.000000 0.000000 0.000000 -0.032768 0.000000 0.007661
#
#
# Mechanical properties :
#
#
# Convention : Reuss Voigt Hill
#
# Bulk Modulus (GPa) = 35.04691 65.56165 50.30428
# Shear Modulus (GPa) = 36.58251 17.39753 26.99002
#
# Velocity S-wave (km/s) = 4.23124 2.91793 3.63440
# Velocity P-wave (km/s) = 6.40492 6.59075 6.49850
#
# Compressibility (1/GPa) = 0.02853318
#
# Stress axis : x y z
#
# Youngs Moduli (GPa) = 42.34197 167.17043 54.92358
#
# Poissons Ratio (x) = 0.50728 0.16120
# Poissons Ratio (y) = 0.12849 0.20141
# Poissons Ratio (z) = 0.12427 0.61302
#
# Static dielectric constant tensor:
#      x y z
#    x 1.671800 0.000000 0.047340 
#    y 0.000000 1.840960 0.000000 
#    z 0.047340 0.000000 1.700180 
# 
# From -- ./inp_files/300893.got.cif
#   From: 2010.05.17/outbox.cif.g08.bks.cpg/sg12_151_cif.got.tgz:300893.got - 2010.06.03 13:09:07.
