data_PCOD9181996
_publ_section_title
;
Structure prediction by ZEFSAII (Michael W. Deem and Ramdas Pophale) SiO2 
 PCOD9181996
Probable space group: C 2/M
;
_chemical_formula_sum "Si O2"
_cell_formula_units_Z 56
_cell_length_a 31.440568
_cell_length_b 9.438981
_cell_length_c 18.347480
_cell_angle_alpha 90.000000
_cell_angle_beta 35.855093
_cell_angle_gamma 90.000000
_cell_volume 3189.295712
_symmetry_space_group_name_H-M "C 2/M"
_symmetry_group_IT_number 12
_symmetry_cell_setting 'monoclinic'
loop_
_space_group_symop_operation_xyz
x,y,z
-x,y,-z
-x,-y,-z
x,-y,z
1/2+x,1/2+y,z
1/2-x,1/2+y,-z
1/2-x,1/2-y,-z
1/2+x,1/2-y,z
loop_
_atom_site_type_symbol
_atom_site_label
_atom_site_fract_x
_atom_site_fract_y
_atom_site_fract_z
Si Si1 0.835631 0.162027 0.807577
Si Si2 0.548187 0.665118 0.863826
Si Si3 0.661974 0.838030 0.052339
Si Si4 0.080219 0.663582 0.423562
Si Si5 0.050421 0.161582 0.141950
Si Si6 0.569589 0.165618 0.610488
Si Si7 0.327533 0.170331 0.394727
O O1 0.857461 0.257167 0.846182
O O2 0.868613 0.229515 0.689923
O O3 0.858882 0.000000 0.785421
O O4 0.748443 0.165243 0.924819
O O5 0.571214 0.500000 0.844155
O O6 0.491942 0.665186 0.874981
O O7 0.616354 0.759788 0.742046
O O8 0.500000 0.712542 0.000000
O O9 0.622644 0.754442 0.042743
O O10 0.637842 0.000000 0.089194
O O11 0.102142 0.500000 0.379443
O O12 0.083678 0.687202 0.505449
O O13 0.000000 0.679955 0.500000
O O14 0.995581 0.233750 0.274809
O O15 0.066908 0.000000 0.138086
O O16 0.635038 0.190996 0.577208
O O17 0.549090 0.000000 0.648308
O O18 0.250000 0.250000 0.500000
O O19 0.320268 0.000000 0.393325
#
# Coordination Sequence:
#
# PCOD9181996 Si02
#       7
#     8   8   8   8   8   8   8
#     4  10  21  35  52  75 103 136 176 219 260 305
#     4   9  19  37  58  82 113 144 181 229 280 335
#     4  10  20  35  53  73 103 140 174 214 263 315
#     4  10  20  34  53  77 105 138 173 211 264 320
#     4  10  19  32  55  82 104 135 176 217 263 316
#     4   9  19  35  54  78 108 142 178 217 265 324
#     4  10  20  36  58  82 111 149 190 232 281 335
#
# _framework density 17.558734999999999
#
# number of rings (size 3 to 8) (size 9 to 14) (size 15 to 20)
#    0.000    2.286    0.000    2.571    0.000    5.143 
#    2.571    0.000    0.000    0.000    0.000    0.000 
#    0.000    0.000    0.000    0.000    0.000    0.000 
#
# Total GULP energy -156134.711881 kJ/mol
# GULP energy per Si atom -5576.239710 kJ/mol
# Density = 1.751877 g / cm^3
# Si number density = 17.558735 Si / 1000 Ang^3
#
#
#
# Elastic Constant Matrix: (Units=GPa)
#
#
# Indices 1 2 3 4 5 6 
#
# 1 65.8407 54.1779 50.7497 -0.0008 -5.3942 0.0000
# 2 54.1779 128.1286 67.9746 0.0046 5.3922 -0.0008
# 3 50.7497 67.9746 81.2701 0.0011 12.1712 -0.0003
# 4 -0.0008 0.0046 0.0011 29.8287 -0.0017 -1.2919
# 5 -5.3942 5.3922 12.1712 -0.0017 24.2194 0.0005
# 6 0.0000 -0.0008 -0.0003 -1.2919 0.0005 21.5822
#
#
#
# Elastic Compliance Matrix: (Units=1/GPa)
#
#
# Indices 1 2 3 4 5 6 
#
# 1 0.039263 -0.005004 -0.023584 0.000004 0.021711 -0.000001
# 2 -0.005004 0.014872 -0.009356 -0.000002 0.000276 0.000000
# 3 -0.023584 -0.009356 0.038208 -0.000002 -0.022371 0.000001
# 4 0.000004 -0.000002 -0.000002 0.033612 0.000005 0.002012
# 5 0.021711 0.000276 -0.022371 0.000005 0.057305 -0.000001
# 6 -0.000001 0.000000 0.000001 0.002012 -0.000001 0.046455
#
#
# Mechanical properties :
#
#
# Convention : Reuss Voigt Hill
#
# Bulk Modulus (GPa) = 60.77235 69.00486 64.88861
# Shear Modulus (GPa) = 16.07256 21.94852 19.01054
#
# Velocity S-wave (km/s) = 3.02877 3.53938 3.29398
# Velocity P-wave (km/s) = 6.84962 7.48917 7.17652
#
# Compressibility (1/GPa) = 0.01645485
#
# Stress axis : x y z
#
# Youngs Moduli (GPa) = 25.46922 67.23878 26.17259
#
# Poissons Ratio (x) = 0.33644 0.61727
# Poissons Ratio (y) = 0.12744 0.24487
# Poissons Ratio (z) = 0.60068 0.62909
#
# Static dielectric constant tensor:
#      x y z
#    x 1.613720 0.000000 -0.006910 
#    y 0.000000 1.602000 0.000000 
#    z -0.006910 0.000000 1.586990 
# 
# From -- ./inp_files/292429.got.cif
#   From: 2010.05.17/outbox.cif.g08.bks.cpg/sg12_147_cif.got.tgz:292429.got - 2010.06.03 13:09:07.
