data_PCOD9181133
_publ_section_title
;
Structure prediction by ZEFSAII (Michael W. Deem and Ramdas Pophale) SiO2 
 PCOD9181133
Probable space group: C 2/M
;
_chemical_formula_sum "Si O2"
_cell_formula_units_Z 48
_cell_length_a 19.895714
_cell_length_b 7.431703
_cell_length_c 15.211516
_cell_angle_alpha 90.000000
_cell_angle_beta 116.456742
_cell_angle_gamma 90.000000
_cell_volume 2013.607787
_symmetry_space_group_name_H-M "C 2/M"
_symmetry_group_IT_number 12
_symmetry_cell_setting 'monoclinic'
loop_
_space_group_symop_operation_xyz
x,y,z
-x,y,-z
-x,-y,-z
x,-y,z
1/2+x,1/2+y,z
1/2-x,1/2+y,-z
1/2-x,1/2-y,-z
1/2+x,1/2-y,z
loop_
_atom_site_type_symbol
_atom_site_label
_atom_site_fract_x
_atom_site_fract_y
_atom_site_fract_z
Si Si1 0.849298 0.787368 0.638011
Si Si2 0.064655 0.704387 0.145760
Si Si3 0.300341 0.218559 0.896592
Si Si4 0.820916 0.283932 0.426064
Si Si5 0.092115 0.279313 0.892470
Si Si6 0.364216 0.794905 0.265131
O O1 0.909135 0.702751 0.737773
O O2 0.860668 0.755952 0.541328
O O3 0.765325 0.718701 0.613614
O O4 0.850722 0.000000 0.654684
O O5 0.058128 0.500000 0.109238
O O6 0.134219 0.780847 0.132193
O O7 0.981388 0.782686 0.097610
O O8 0.221582 0.296169 0.820179
O O9 0.293370 0.000000 0.888336
O O10 0.332983 0.269923 0.010825
O O11 0.816431 0.500000 0.414802
O O12 0.859496 0.213870 0.359814
O O13 0.090127 0.500000 0.889441
O O14 0.092078 0.213658 0.792192
O O15 0.391496 0.000000 0.290998
#
# Coordination Sequence:
#
# PCOD9181133 Si02
#       6
#     8   8   8   8   8   8
#     4  10  19  32  52  77 102 128 166 214 257 298
#     4  10  19  33  53  76 104 137 172 207 247 298
#     4  10  19  32  53  78 103 134 174 212 247 292
#     4   9  18  32  51  75 100 129 167 209 253 302
#     4   9  19  34  52  75 104 139 173 206 246 298
#     4  10  19  34  54  76 104 134 169 211 253 299
#
# _framework density 23.837810000000001
#
# number of rings (size 3 to 8) (size 9 to 14) (size 15 to 20)
#    0.000    2.333    1.667    1.500    0.000    3.333 
#    0.000    2.500    0.000    7.000    0.000    0.000 
#    0.000    0.000    0.000    0.000    0.000    0.000 
#
# Total GULP energy -134087.867040 kJ/mol
# GULP energy per Si atom -5586.994460 kJ/mol
# Density = 2.378355 g / cm^3
# Si number density = 23.837810 Si / 1000 Ang^3
#
#
#
# Elastic Constant Matrix: (Units=GPa)
#
#
# Indices 1 2 3 4 5 6 
#
# 1 62.7688 -8.4018 -9.8612 0.0000 -22.3457 0.0000
# 2 -8.4018 84.9992 -5.6781 0.0000 -4.1726 0.0000
# 3 -9.8612 -5.6781 97.0241 0.0000 -20.9536 0.0000
# 4 0.0000 0.0000 0.0000 7.8848 0.0000 6.4248
# 5 -22.3457 -4.1726 -20.9536 0.0000 45.0495 0.0000
# 6 0.0000 0.0000 0.0000 6.4248 0.0000 3.5983
#
#
#
# Elastic Compliance Matrix: (Units=1/GPa)
#
#
# Indices 1 2 3 4 5 6 
#
# 1 0.022124 0.003226 0.005416 0.000000 0.013792 0.000000
# 2 0.003226 0.012383 0.001830 0.000000 0.003598 0.000000
# 3 0.005416 0.001830 0.012874 0.000000 0.008844 0.000000
# 4 0.000000 0.000000 0.000000 -0.278788 0.000000 0.497785
# 5 0.013792 0.003598 0.008844 0.000000 0.033486 0.000000
# 6 0.000000 0.000000 0.000000 0.497785 0.000000 -0.610901
#
#
# Mechanical properties :
#
#
# Convention : Reuss Voigt Hill
#
# Bulk Modulus (GPa) = 14.63633 21.87886 18.25760
# Shear Modulus (GPa) = -6.19586 29.22207 11.51311
#
# Velocity S-wave (km/s) = -1.61394 3.50504 2.20006
# Velocity P-wave (km/s) = 1.63713 5.05753 3.75891
#
# Compressibility (1/GPa) = 0.06832312
#
# Stress axis : x y z
#
# Youngs Moduli (GPa) = 45.19965 80.75913 77.67463
#
# Poissons Ratio (x) = -0.26051 -0.42068
# Poissons Ratio (y) = -0.14580 -0.14211
# Poissons Ratio (z) = -0.24480 -0.14775
#
# Static dielectric constant tensor:
#      x y z
#    x 1.902090 0.000000 -0.047150 
#    y 0.000000 1.919030 0.000000 
#    z -0.047150 0.000000 1.901130 
# 
# From -- ./inp_files/229910.got.cif
#   From: 2010.05.17/outbox.cif.g08.bks.cpg/sg12_115_cif.got.tgz:229910.got - 2010.06.03 13:09:07.
