data_PCOD9181982
_publ_section_title
;
Structure prediction by ZEFSAII (Michael W. Deem and Ramdas Pophale) SiO2 
 PCOD9181982
Probable space group: C 2/M
;
_chemical_formula_sum "Si O2"
_cell_formula_units_Z 48
_cell_length_a 13.469584
_cell_length_b 19.987556
_cell_length_c 18.655546
_cell_angle_alpha 90.000000
_cell_angle_beta 151.507101
_cell_angle_gamma 90.000000
_cell_volume 2395.993276
_symmetry_space_group_name_H-M "C 2/M"
_symmetry_group_IT_number 12
_symmetry_cell_setting 'monoclinic'
loop_
_space_group_symop_operation_xyz
x,y,z
-x,y,-z
-x,-y,-z
x,-y,z
1/2+x,1/2+y,z
1/2-x,1/2+y,-z
1/2-x,1/2-y,-z
1/2+x,1/2-y,z
loop_
_atom_site_type_symbol
_atom_site_label
_atom_site_fract_x
_atom_site_fract_y
_atom_site_fract_z
Si Si1 0.728330 0.821428 0.947428
Si Si2 0.474321 0.315721 0.325778
Si Si3 0.298828 0.224706 0.639792
Si Si4 0.611879 0.423079 0.839756
Si Si5 0.699003 0.926208 0.676760
Si Si6 0.321774 0.293701 0.810642
O O1 0.743006 0.878346 0.016975
O O2 0.937678 0.818446 0.032467
O O3 0.750000 0.750000 0.000000
O O4 0.501516 0.822948 0.768867
O O5 0.637767 0.284910 0.372868
O O6 0.597987 0.311683 0.479316
O O7 0.410151 0.385889 0.250467
O O8 0.278603 0.264572 0.204754
O O9 0.286961 0.259565 0.709705
O O10 0.674878 0.500000 0.872438
O O11 0.395748 0.421276 0.747747
O O12 0.500000 0.922639 0.500000
O O13 0.697913 0.863555 0.729499
O O14 0.707102 0.000000 0.716688
#
# Coordination Sequence:
#
# PCOD9181982 Si02
#       6
#     8   8   8   8   8   8
#     4   9  17  37  55  78 114 144 187 230 280 335
#     4  11  20  32  58  85 113 145 188 240 271 332
#     4  10  20  34  52  85 113 141 194 229 282 323
#     4  10  20  36  57  82 111 149 189 233 284 337
#     4   9  16  28  49  77 110 141 177 225 278 330
#     4  10  19  32  55  80 115 147 187 231 279 333
#
# _framework density 20.033446000000001
#
# number of rings (size 3 to 8) (size 9 to 14) (size 15 to 20)
#    0.000    2.167    5.000    1.500    2.333    0.667 
#    0.000    0.833    0.000   11.000    0.000    4.667 
#    0.000    0.000    0.000    0.000    0.000    0.000 
#
# Total GULP energy -133746.713767 kJ/mol
# GULP energy per Si atom -5572.779740 kJ/mol
# Density = 1.998785 g / cm^3
# Si number density = 20.033446 Si / 1000 Ang^3
#
#
#
# Elastic Constant Matrix: (Units=GPa)
#
#
# Indices 1 2 3 4 5 6 
#
# 1 45.9871 23.7572 -8.7829 0.0058 -7.0754 0.0039
# 2 23.7572 162.2950 45.2622 -0.0051 -5.4366 -0.0010
# 3 -8.7829 45.2622 112.1580 0.0037 -1.7284 0.0043
# 4 0.0058 -0.0051 0.0037 27.1004 0.0054 -7.4281
# 5 -7.0754 -5.4366 -1.7284 0.0054 14.6868 0.0044
# 6 0.0039 -0.0010 0.0043 -7.4281 0.0044 30.6367
#
#
#
# Elastic Compliance Matrix: (Units=1/GPa)
#
#
# Indices 1 2 3 4 5 6 
#
# 1 0.026754 -0.004688 0.004167 -0.000012 0.011644 -0.000009
# 2 -0.004688 0.007839 -0.003527 0.000004 0.000228 0.000002
# 3 0.004167 -0.003527 0.010696 -0.000004 0.001960 -0.000004
# 4 -0.000012 0.000004 -0.000004 0.039527 -0.000022 0.009584
# 5 0.011644 0.000228 0.001960 -0.000022 0.074013 -0.000018
# 6 -0.000009 0.000002 -0.000004 0.009584 -0.000018 0.034964
#
#
# Mechanical properties :
#
#
# Convention : Reuss Voigt Hill
#
# Bulk Modulus (GPa) = 26.88781 48.99035 37.93908
# Shear Modulus (GPa) = 23.33304 31.83169 27.58237
#
# Velocity S-wave (km/s) = 3.41648 3.99046 3.71457
# Velocity P-wave (km/s) = 5.38644 6.76307 6.11362
#
# Compressibility (1/GPa) = 0.03719158
#
# Stress axis : x y z
#
# Youngs Moduli (GPa) = 37.37697 127.56316 93.49373
#
# Poissons Ratio (x) = 0.59806 -0.38955
# Poissons Ratio (y) = 0.17524 0.32977
# Poissons Ratio (z) = -0.15573 0.44994
#
# Static dielectric constant tensor:
#      x y z
#    x 1.802680 0.000000 -0.017420 
#    y 0.000000 1.700880 -0.000010 
#    z -0.017420 -0.000010 1.783210 
# 
# From -- ./inp_files/311388.got.cif
#   From: 2010.05.17/outbox.cif.g08.bks.cpg/sg12_156_cif.got.tgz:311388.got - 2010.06.03 13:09:07.
