data_PCOD9181817
_publ_section_title
;
Structure prediction by ZEFSAII (Michael W. Deem and Ramdas Pophale) SiO2 
 PCOD9181817
Probable space group: C 2/M
;
_chemical_formula_sum "Si O2"
_cell_formula_units_Z 64
_cell_length_a 14.377493
_cell_length_b 11.950026
_cell_length_c 19.828606
_cell_angle_alpha 90.000000
_cell_angle_beta 98.702127
_cell_angle_gamma 90.000000
_cell_volume 3367.562919
_symmetry_space_group_name_H-M "C 2/M"
_symmetry_group_IT_number 12
_symmetry_cell_setting 'monoclinic'
loop_
_space_group_symop_operation_xyz
x,y,z
-x,y,-z
-x,-y,-z
x,-y,z
1/2+x,1/2+y,z
1/2-x,1/2+y,-z
1/2-x,1/2-y,-z
1/2+x,1/2-y,z
loop_
_atom_site_type_symbol
_atom_site_label
_atom_site_fract_x
_atom_site_fract_y
_atom_site_fract_z
Si Si1 0.415724 0.130988 0.903120
Si Si2 0.895942 0.215512 0.664173
Si Si3 0.106780 0.216382 0.708404
Si Si4 0.803326 0.373912 0.764250
Si Si5 0.301454 0.126058 0.391501
Si Si6 0.093381 0.630626 0.466057
Si Si7 0.196274 0.632617 0.981378
Si Si8 0.912770 0.629822 0.163804
O O1 0.324519 0.148766 0.845434
O O2 0.500782 0.182071 0.869815
O O3 0.439734 0.000000 0.905188
O O4 0.391734 0.152284 0.977668
O O5 0.862053 0.289075 0.724391
O O6 0.808159 0.134671 0.639729
O O7 0.901784 0.295311 0.599538
O O8 0.001308 0.169673 0.687382
O O9 0.193640 0.135266 0.734190
O O10 0.140058 0.286619 0.646786
O O11 0.103763 0.301026 0.771096
O O12 0.836496 0.500000 0.754301
O O13 0.321067 0.148631 0.472307
O O14 0.336205 0.000000 0.382033
O O15 0.091799 0.500000 0.446647
O O16 0.000000 0.653508 0.500000
O O17 0.227812 0.500000 0.000373
O O18 0.170423 0.630695 0.899967
O O19 0.250000 0.750000 0.000000
O O20 0.929998 0.500000 0.184527
#
# Coordination Sequence:
#
# PCOD9181817 Si02
#       8
#     8   8   8   8   8   8   8   8
#     4   9  17  32  54  78 103 137 184 229 267 314
#     4  11  21  35  56  78 106 140 175 217 269 322
#     4  11  21  34  55  81 107 140 178 221 268 320
#     4  10  21  35  53  79 109 140 179 223 268 320
#     4  10  22  37  54  78 106 138 175 217 266 321
#     4  10  19  33  56  80 101 131 175 223 265 310
#     4  10  20  34  54  80 110 145 185 232 281 330
#     4  10  19  32  54  81 107 139 182 229 269 315
#
# _framework density 19.004842
#
# number of rings (size 3 to 8) (size 9 to 14) (size 15 to 20)
#    0.000    1.875    2.500    2.250    0.000    3.000 
#    0.000    0.000    0.000    2.625    0.000    0.000 
#    0.000    0.000    0.000    0.000    0.000    0.000 
#
# Total GULP energy -178182.943620 kJ/mol
# GULP energy per Si atom -5568.216988 kJ/mol
# Density = 1.896159 g / cm^3
# Si number density = 19.004842 Si / 1000 Ang^3
#
#
#
# Elastic Constant Matrix: (Units=GPa)
#
#
# Indices 1 2 3 4 5 6 
#
# 1 76.5211 6.9615 -12.4624 0.0000 10.0179 0.0000
# 2 6.9615 47.7461 4.4750 0.0000 0.0358 0.0000
# 3 -12.4624 4.4750 60.2698 0.0000 -1.3157 0.0000
# 4 0.0000 0.0000 0.0000 22.6447 0.0000 3.5949
# 5 10.0179 0.0358 -1.3157 0.0000 30.3347 0.0000
# 6 0.0000 0.0000 0.0000 3.5949 0.0000 13.6347
#
#
#
# Elastic Compliance Matrix: (Units=1/GPa)
#
#
# Indices 1 2 3 4 5 6 
#
# 1 0.014386 -0.002380 0.003051 0.000000 -0.004616 0.000000
# 2 -0.002380 0.021485 -0.002073 0.000000 0.000671 0.000000
# 3 0.003051 -0.002073 0.017371 0.000000 -0.000252 0.000000
# 4 0.000000 0.000000 0.000000 0.046090 0.000000 -0.012152
# 5 -0.004616 0.000671 -0.000252 0.000000 0.034478 0.000000
# 6 0.000000 0.000000 0.000000 -0.012152 0.000000 0.076546
#
#
# Mechanical properties :
#
#
# Convention : Reuss Voigt Hill
#
# Bulk Modulus (GPa) = 19.82634 20.27614 20.05124
# Shear Modulus (GPa) = 21.74171 25.69368 23.71769
#
# Velocity S-wave (km/s) = 3.38599 3.68088 3.53651
# Velocity P-wave (km/s) = 5.07361 5.36258 5.22009
#
# Compressibility (1/GPa) = 0.05043795
#
# Stress axis : x y z
#
# Youngs Moduli (GPa) = 69.51248 46.54431 57.56639
#
# Poissons Ratio (x) = 0.11077 -0.17561
# Poissons Ratio (y) = 0.16544 0.11932
# Poissons Ratio (z) = -0.21206 0.09647
#
# Static dielectric constant tensor:
#      x y z
#    x 1.748130 0.000000 0.030860 
#    y 0.000000 1.641220 0.000000 
#    z 0.030860 0.000000 1.662110 
# 
# From -- ./inp_files/269305.got.cif
#   From: 2010.05.17/outbox.cif.g08.bks.cpg/sg12_135_cif.got.tgz:269305.got - 2010.06.03 13:09:07.
