data_PCOD9181440
_publ_section_title
;
Structure prediction by ZEFSAII (Michael W. Deem and Ramdas Pophale) SiO2 
 PCOD9181440
Probable space group: C 2/M
;
_chemical_formula_sum "Si O2"
_cell_formula_units_Z 48
_cell_length_a 16.190931
_cell_length_b 7.479370
_cell_length_c 14.925181
_cell_angle_alpha 90.000000
_cell_angle_beta 101.635222
_cell_angle_gamma 90.000000
_cell_volume 1770.269398
_symmetry_space_group_name_H-M "C 2/M"
_symmetry_group_IT_number 12
_symmetry_cell_setting 'monoclinic'
loop_
_space_group_symop_operation_xyz
x,y,z
-x,y,-z
-x,-y,-z
x,-y,z
1/2+x,1/2+y,z
1/2-x,1/2+y,-z
1/2-x,1/2-y,-z
1/2+x,1/2-y,z
loop_
_atom_site_type_symbol
_atom_site_label
_atom_site_fract_x
_atom_site_fract_y
_atom_site_fract_z
Si Si1 0.294895 0.204841 0.886521
Si Si2 0.572230 0.219374 0.948222
Si Si3 0.068446 0.714882 0.442168
Si Si4 0.694139 0.780922 0.610072
Si Si5 0.628289 0.290553 0.273052
Si Si6 0.616206 0.202678 0.771806
O O1 0.366843 0.205928 0.823815
O O2 0.212706 0.303937 0.832131
O O3 0.269786 0.000000 0.893166
O O4 0.340348 0.273733 0.985249
O O5 0.566193 0.284137 0.844721
O O6 0.572057 0.000000 0.945785
O O7 0.500000 0.278232 0.000000
O O8 0.067361 0.500000 0.442571
O O9 0.155836 0.778453 0.507530
O O10 0.060115 0.767004 0.336708
O O11 0.000000 0.774349 0.500000
O O12 0.786328 0.720102 0.659479
O O13 0.631625 0.720986 0.676802
O O14 0.694554 0.000000 0.611222
O O15 0.636600 0.500000 0.258630
O O16 0.585366 0.000000 0.752690
#
# Coordination Sequence:
#
# PCOD9181440 Si02
#       6
#     8   8   8   8   8   8
#     4  10  19  32  53  78 101 128 167 212 250 290
#     4   9  18  31  50  77 105 134 167 203 247 298
#     4  10  20  33  51  77 105 131 163 206 252 297
#     4   8  16  31  51  74  98 129 167 205 248 293
#     4  10  20  35  54  73  98 134 171 207 248 296
#     4   9  17  32  53  74 100 133 167 205 248 298
#
# _framework density 27.114515000000001
#
# number of rings (size 3 to 8) (size 9 to 14) (size 15 to 20)
#    0.000    2.667    0.000    3.000    0.000    1.667 
#    0.000    9.167    0.000    8.500    0.000    0.000 
#    0.000    0.000    0.000    0.000    0.000    0.000 
#
# Total GULP energy -134246.182830 kJ/mol
# GULP energy per Si atom -5593.590951 kJ/mol
# Density = 2.705280 g / cm^3
# Si number density = 27.114515 Si / 1000 Ang^3
#
#
#
# Elastic Constant Matrix: (Units=GPa)
#
#
# Indices 1 2 3 4 5 6 
#
# 1 69.2239 -3.1359 10.9440 0.0000 -17.6330 0.0000
# 2 -3.1359 100.7825 -0.4134 0.0000 1.1813 0.0000
# 3 10.9440 -0.4134 193.8335 0.0000 -19.0064 0.0000
# 4 0.0000 0.0000 0.0000 12.6736 0.0000 -4.2409
# 5 -17.6330 1.1813 -19.0064 0.0000 60.9292 0.0000
# 6 0.0000 0.0000 0.0000 -4.2409 0.0000 11.5250
#
#
#
# Elastic Compliance Matrix: (Units=1/GPa)
#
#
# Indices 1 2 3 4 5 6 
#
# 1 0.015653 0.000434 -0.000453 0.000000 0.004380 0.000000
# 2 0.000434 0.009937 -0.000010 0.000000 -0.000070 0.000000
# 3 -0.000453 -0.000010 0.005335 0.000000 0.001533 0.000000
# 4 0.000000 0.000000 0.000000 0.089985 0.000000 0.033112
# 5 0.004380 -0.000070 0.001533 0.000000 0.018160 0.000000
# 6 0.000000 0.000000 0.000000 0.033112 0.000000 0.098953
#
#
# Mechanical properties :
#
#
# Convention : Reuss Voigt Hill
#
# Bulk Modulus (GPa) = 32.39902 42.06993 37.23448
# Shear Modulus (GPa) = 20.13132 40.78858 30.45995
#
# Velocity S-wave (km/s) = 2.72776 3.88275 3.35532
# Velocity P-wave (km/s) = 4.67929 5.97079 5.36405
#
# Compressibility (1/GPa) = 0.03086513
#
# Stress axis : x y z
#
# Youngs Moduli (GPa) = 63.88585 100.63767 187.44214
#
# Poissons Ratio (x) = -0.04366 0.08498
# Poissons Ratio (y) = -0.02772 0.00191
# Poissons Ratio (z) = 0.02896 0.00103
#
# Static dielectric constant tensor:
#      x y z
#    x 2.257720 0.000000 -0.051250 
#    y 0.000000 1.982930 0.000000 
#    z -0.051250 0.000000 2.073960 
# 
# From -- ./inp_files/221603.got.cif
#   From: 2010.05.17/outbox.cif.g08.bks.cpg/sg12_111_cif.got.tgz:221603.got - 2010.06.03 13:09:07.
