data_PCOD9181930
_publ_section_title
;
Structure prediction by ZEFSAII (Michael W. Deem and Ramdas Pophale) SiO2 
 PCOD9181930
Probable space group: C 2/M
;
_chemical_formula_sum "Si O2"
_cell_formula_units_Z 48
_cell_length_a 24.486356
_cell_length_b 7.718314
_cell_length_c 20.063862
_cell_angle_alpha 90.000000
_cell_angle_beta 146.566524
_cell_angle_gamma 90.000000
_cell_volume 2089.237637
_symmetry_space_group_name_H-M "C 2/M"
_symmetry_group_IT_number 12
_symmetry_cell_setting 'monoclinic'
loop_
_space_group_symop_operation_xyz
x,y,z
-x,y,-z
-x,-y,-z
x,-y,z
1/2+x,1/2+y,z
1/2-x,1/2+y,-z
1/2-x,1/2-y,-z
1/2+x,1/2-y,z
loop_
_atom_site_type_symbol
_atom_site_label
_atom_site_fract_x
_atom_site_fract_y
_atom_site_fract_z
Si Si1 0.879054 0.212251 0.288208
Si Si2 0.318319 0.701769 0.364728
Si Si3 0.301170 0.792336 0.982379
Si Si4 0.402392 0.698645 0.863922
Si Si5 0.473765 0.796209 0.795919
Si Si6 0.929543 0.209355 0.603047
O O1 0.880439 0.274113 0.365830
O O2 0.774727 0.270352 0.150847
O O3 0.968377 0.262243 0.330433
O O4 0.880246 0.000000 0.290314
O O5 0.346395 0.500000 0.396974
O O6 0.202645 0.713406 0.230071
O O7 0.345209 0.770442 0.465300
O O8 0.306985 0.000000 0.982729
O O9 0.250000 0.750000 0.000000
O O10 0.413264 0.727146 0.093115
O O11 0.393001 0.500000 0.876689
O O12 0.420480 0.706881 0.803278
O O13 0.500000 0.773100 0.000000
O O14 0.426195 0.776718 0.674651
O O15 0.475678 0.000000 0.814203
O O16 0.928488 0.000000 0.608074
#
# Coordination Sequence:
#
# PCOD9181930 Si02
#       6
#     8   8   8   8   8   8
#     4   9  17  33  58  87 119 154 193 238 288 346
#     4  10  21  38  62  89 117 156 202 243 289 347
#     4  10  19  32  54  84 116 149 187 234 288 340
#     4  11  25  44  64  86 114 152 195 244 301 355
#     4  11  23  38  60  90 121 156 198 244 291 345
#     4  10  20  36  60  89 122 159 196 239 292 349
#
# _framework density 22.974886999999999
#
# number of rings (size 3 to 8) (size 9 to 14) (size 15 to 20)
#    0.000    1.833    1.667    2.500    0.000    6.667 
#    0.000    1.667    0.000    2.000    0.000    0.000 
#    0.000    0.000    0.000    0.000    0.000    0.000 
#
# Total GULP energy -134120.830879 kJ/mol
# GULP energy per Si atom -5588.367953 kJ/mol
# Density = 2.292260 g / cm^3
# Si number density = 22.974887 Si / 1000 Ang^3
#
#
#
# Elastic Constant Matrix: (Units=GPa)
#
#
# Indices 1 2 3 4 5 6 
#
# 1 93.9173 -11.9649 18.7070 0.0000 -20.8466 0.0000
# 2 -11.9649 39.8104 -3.9699 0.0000 -2.9466 0.0000
# 3 18.7070 -3.9699 112.1225 0.0000 -24.3769 0.0000
# 4 0.0000 0.0000 0.0000 17.2389 0.0000 -2.1488
# 5 -20.8466 -2.9466 -24.3769 0.0000 26.2014 0.0000
# 6 0.0000 0.0000 0.0000 -2.1488 0.0000 4.2150
#
#
#
# Elastic Compliance Matrix: (Units=1/GPa)
#
#
# Indices 1 2 3 4 5 6 
#
# 1 0.013882 0.005115 0.000491 0.000000 0.012077 0.000000
# 2 0.005115 0.027542 0.002106 0.000000 0.009126 0.000000
# 3 0.000491 0.002106 0.011342 0.000000 0.011179 0.000000
# 4 0.000000 0.000000 0.000000 0.061945 0.000000 0.031580
# 5 0.012077 0.009126 0.011179 0.000000 0.059202 0.000000
# 6 0.000000 0.000000 0.000000 0.031580 0.000000 0.253349
#
#
# Mechanical properties :
#
#
# Convention : Reuss Voigt Hill
#
# Bulk Modulus (GPa) = 14.66503 27.93274 21.29888
# Shear Modulus (GPa) = 11.50567 25.73625 18.62096
#
# Velocity S-wave (km/s) = 2.24027 3.35056 2.85000
# Velocity P-wave (km/s) = 3.61783 5.21082 4.48560
#
# Compressibility (1/GPa) = 0.06818943
#
# Stress axis : x y z
#
# Youngs Moduli (GPa) = 72.03441 36.30835 88.16711
#
# Poissons Ratio (x) = -0.18572 -0.04325
# Poissons Ratio (y) = -0.36846 -0.18567
# Poissons Ratio (z) = -0.03534 -0.07646
#
# Static dielectric constant tensor:
#      x y z
#    x 1.856070 0.000000 0.016080 
#    y 0.000000 1.853370 0.000000 
#    z 0.016080 0.000000 1.906970 
# 
# From -- ./inp_files/327327.got.cif
#   From: 2010.05.17/outbox.cif.g08.bks.cpg/sg12_164_cif.got.tgz:327327.got - 2010.06.03 13:09:07.
