data_PCOD9181683
_publ_section_title
;
Structure prediction by ZEFSAII (Michael W. Deem and Ramdas Pophale) SiO2 
 PCOD9181683
Probable space group: C 2/M
;
_chemical_formula_sum "Si O2"
_cell_formula_units_Z 40
_cell_length_a 8.491927
_cell_length_b 30.559309
_cell_length_c 9.122572
_cell_angle_alpha 90.000000
_cell_angle_beta 58.486588
_cell_angle_gamma 90.000000
_cell_volume 2018.229519
_symmetry_space_group_name_H-M "C 2/M"
_symmetry_group_IT_number 12
_symmetry_cell_setting 'monoclinic'
loop_
_space_group_symop_operation_xyz
x,y,z
-x,y,-z
-x,-y,-z
x,-y,z
1/2+x,1/2+y,z
1/2-x,1/2+y,-z
1/2-x,1/2-y,-z
1/2+x,1/2-y,z
loop_
_atom_site_type_symbol
_atom_site_label
_atom_site_fract_x
_atom_site_fract_y
_atom_site_fract_z
Si Si1 0.527841 0.639282 0.813322
Si Si2 0.330954 0.547968 0.197674
Si Si3 0.294131 0.368343 0.667764
Si Si4 0.045101 0.549017 0.805075
Si Si5 0.693597 0.799146 0.488659
O O1 0.627838 0.592284 0.734651
O O2 0.334859 0.638932 0.819793
O O3 0.654317 0.677746 0.688776
O O4 0.500000 0.643192 0.000000
O O5 0.325811 0.500000 0.275639
O O6 0.141817 0.553024 0.198881
O O7 0.500000 0.546017 0.000000
O O8 0.500000 0.370159 0.500000
O O9 0.185011 0.412888 0.697490
O O10 0.192177 0.328765 0.635937
O O11 0.119777 0.500000 0.744300
O O12 0.000000 0.552576 0.000000
O O13 0.500000 0.799987 0.500000
O O14 0.750000 0.750000 0.500000
#
# Coordination Sequence:
#
# PCOD9181683 Si02
#       5
#     8   8   8   8   8
#     4  10  20  37  61  88 117 151 195 239 282 339
#     4   9  17  30  51  81 116 152 190 237 286 330
#     4  10  22  38  58  86 119 155 193 237 294 349
#     4  10  19  32  53  83 118 157 200 241 284 337
#     4  11  23  43  64  84 115 151 187 236 299 353
#
# _framework density 19.819351999999999
#
# number of rings (size 3 to 8) (size 9 to 14) (size 15 to 20)
#    0.000    2.000    0.000    5.400    0.000    2.800 
#    0.000    8.000    0.000   10.800    0.000    0.000 
#    0.000    0.000    0.000    0.000    0.000    0.000 
#
# Total GULP energy -111673.481460 kJ/mol
# GULP energy per Si atom -5583.674073 kJ/mol
# Density = 1.977424 g / cm^3
# Si number density = 19.819352 Si / 1000 Ang^3
#
#
#
# Elastic Constant Matrix: (Units=GPa)
#
#
# Indices 1 2 3 4 5 6 
#
# 1 152.8994 87.1509 27.9602 0.0000 16.3358 0.0000
# 2 87.1509 209.7986 42.9892 0.0000 7.9290 0.0000
# 3 27.9602 42.9892 48.6734 0.0000 20.8588 0.0000
# 4 0.0000 0.0000 0.0000 32.3407 0.0000 3.5478
# 5 16.3358 7.9290 20.8588 0.0000 33.0769 0.0000
# 6 0.0000 0.0000 0.0000 3.5478 0.0000 38.4887
#
#
#
# Elastic Compliance Matrix: (Units=1/GPa)
#
#
# Indices 1 2 3 4 5 6 
#
# 1 0.008985 -0.003457 -0.000770 0.000000 -0.003123 0.000000
# 2 -0.003457 0.007308 -0.006098 0.000000 0.003801 0.000000
# 3 -0.000770 -0.006098 0.035058 0.000000 -0.020266 0.000000
# 4 0.000000 0.000000 0.000000 0.031237 0.000000 -0.002879
# 5 -0.003123 0.003801 -0.020266 0.000000 0.043644 0.000000
# 6 0.000000 0.000000 0.000000 -0.002879 0.000000 0.026247
#
#
# Mechanical properties :
#
#
# Convention : Reuss Voigt Hill
#
# Bulk Modulus (GPa) = 32.57071 80.84131 56.70601
# Shear Modulus (GPa) = 27.26845 37.66602 32.46723
#
# Velocity S-wave (km/s) = 3.71327 4.36416 4.05181
# Velocity P-wave (km/s) = 5.90372 8.14077 7.11077
#
# Compressibility (1/GPa) = 0.03070244
#
# Stress axis : x y z
#
# Youngs Moduli (GPa) = 111.29733 136.83276 28.52403
#
# Poissons Ratio (x) = 0.47297 0.02196
# Poissons Ratio (y) = 0.38470 0.17394
# Poissons Ratio (z) = 0.08570 0.83439
#
# Static dielectric constant tensor:
#      x y z
#    x 1.694250 0.000000 0.036040 
#    y 0.000000 1.696070 0.000000 
#    z 0.036040 0.000000 1.730240 
# 
# From -- ./inp_files/41431.got.cif
#   From: 2010.05.17/outbox.cif.g08.bks.cpg/sg12_21_cif.got.tgz:41431.got - 2010.06.03 13:09:07.
