data_PCOD9181355
_publ_section_title
;
Structure prediction by ZEFSAII (Michael W. Deem and Ramdas Pophale) SiO2 
 PCOD9181355
Probable space group: C 2/M
;
_chemical_formula_sum "Si O2"
_cell_formula_units_Z 64
_cell_length_a 25.512406
_cell_length_b 15.500648
_cell_length_c 18.156115
_cell_angle_alpha 90.000000
_cell_angle_beta 152.817120
_cell_angle_gamma 90.000000
_cell_volume 3280.052957
_symmetry_space_group_name_H-M "C 2/M"
_symmetry_group_IT_number 12
_symmetry_cell_setting 'monoclinic'
loop_
_space_group_symop_operation_xyz
x,y,z
-x,y,-z
-x,-y,-z
x,-y,z
1/2+x,1/2+y,z
1/2-x,1/2+y,-z
1/2-x,1/2-y,-z
1/2+x,1/2-y,z
loop_
_atom_site_type_symbol
_atom_site_label
_atom_site_fract_x
_atom_site_fract_y
_atom_site_fract_z
Si Si1 0.533512 0.101263 0.847667
Si Si2 0.147278 0.737472 0.313093
Si Si3 0.934321 0.904793 0.727205
Si Si4 0.153789 0.903929 0.907946
Si Si5 0.443686 0.284131 0.333795
Si Si6 0.922563 0.595950 0.270280
Si Si7 0.785710 0.902757 0.229647
Si Si8 0.815862 0.851181 0.426598
O O1 0.441583 0.164960 0.769691
O O2 0.533912 0.111342 0.759416
O O3 0.508524 0.000000 0.832279
O O4 0.662666 0.118253 0.038923
O O5 0.250000 0.750000 0.500000
O O6 0.089396 0.830440 0.244225
O O7 0.211125 0.709930 0.318966
O O8 0.858401 0.894852 0.556503
O O9 0.064772 0.895106 0.862935
O O10 0.913225 0.000000 0.730096
O O11 0.133886 0.823382 0.829593
O O12 0.125196 0.000000 0.839545
O O13 0.284989 0.907078 0.093724
O O14 0.445880 0.181635 0.345736
O O15 0.383290 0.335858 0.324960
O O16 0.569438 0.307385 0.461147
O O17 0.962865 0.500000 0.344227
O O18 0.775190 0.903630 0.304760
O O19 0.817794 0.000000 0.246897
#
# Coordination Sequence:
#
# PCOD9181355 Si02
#       8
#     8   8   8   8   8   8   8   8
#     4  10  21  36  56  84 115 146 180 222 276 333
#     4  10  21  37  55  78 112 144 184 223 270 323
#     4   9  18  32  55  83 108 138 179 228 277 321
#     4   9  16  27  48  81 112 135 169 224 287 335
#     4  11  20  33  56  78 114 150 184 230 279 324
#     4  10  19  32  52  83 113 140 181 232 282 328
#     4  11  23  37  57  84 113 147 183 222 277 339
#     4  10  22  37  52  79 114 150 186 223 270 332
#
# _framework density 19.511880000000001
#
# number of rings (size 3 to 8) (size 9 to 14) (size 15 to 20)
#    0.000    2.000    1.250    3.750    1.750    5.000 
#    0.000    1.875    0.000    2.250    0.000    0.875 
#    0.000    0.000    0.000    0.000    0.000    0.000 
#
# Total GULP energy -178260.249849 kJ/mol
# GULP energy per Si atom -5570.632808 kJ/mol
# Density = 1.946747 g / cm^3
# Si number density = 19.511880 Si / 1000 Ang^3
#
#
#
# Elastic Constant Matrix: (Units=GPa)
#
#
# Indices 1 2 3 4 5 6 
#
# 1 92.6600 61.1685 26.4873 0.0000 18.0329 0.0000
# 2 61.1685 137.6462 32.7218 0.0000 14.4624 0.0000
# 3 26.4873 32.7218 38.5751 0.0000 12.6116 0.0000
# 4 0.0000 0.0000 0.0000 47.3690 0.0000 36.2536
# 5 18.0329 14.4624 12.6116 0.0000 13.0570 0.0000
# 6 0.0000 0.0000 0.0000 36.2536 0.0000 55.9331
#
#
#
# Elastic Compliance Matrix: (Units=1/GPa)
#
#
# Indices 1 2 3 4 5 6 
#
# 1 0.018696 -0.005999 -0.002162 0.000000 -0.017088 0.000000
# 2 -0.005999 0.011158 -0.005866 0.000000 0.001592 0.000000
# 3 -0.002162 -0.005866 0.042799 0.000000 -0.031855 0.000000
# 4 0.000000 0.000000 0.000000 0.041892 0.000000 -0.027153
# 5 -0.017088 0.001592 -0.031855 0.000000 0.129191 0.000000
# 6 0.000000 0.000000 0.000000 -0.027153 0.000000 0.035478
#
#
# Mechanical properties :
#
#
# Convention : Reuss Voigt Hill
#
# Bulk Modulus (GPa) = 22.42268 56.62626 39.52447
# Shear Modulus (GPa) = 15.52146 33.17207 24.34676
#
# Velocity S-wave (km/s) = 2.82350 4.12769 3.53624
# Velocity P-wave (km/s) = 4.70598 7.19733 6.08062
#
# Compressibility (1/GPa) = 0.04459770
#
# Stress axis : x y z
#
# Youngs Moduli (GPa) = 53.48810 89.62084 23.36511
#
# Poissons Ratio (x) = 0.53762 0.05052
# Poissons Ratio (y) = 0.32086 0.13707
# Poissons Ratio (z) = 0.11565 0.52576
#
# Static dielectric constant tensor:
#      x y z
#    x 1.694490 0.000000 -0.026430 
#    y 0.000000 1.756360 0.000000 
#    z -0.026430 0.000000 1.708360 
# 
# From -- ./inp_files/290138.got.cif
#   From: 2010.05.17/outbox.cif.g08.bks.cpg/sg12_146_cif.got.tgz:290138.got - 2010.06.03 13:09:07.
