data_PCOD9181477
_publ_section_title
;
Structure prediction by ZEFSAII (Michael W. Deem and Ramdas Pophale) SiO2 
 PCOD9181477
Probable space group: C 2/M
;
_chemical_formula_sum "Si O2"
_cell_formula_units_Z 48
_cell_length_a 9.137586
_cell_length_b 28.460860
_cell_length_c 8.345006
_cell_angle_alpha 90.000000
_cell_angle_beta 111.263622
_cell_angle_gamma 90.000000
_cell_volume 2022.486177
_symmetry_space_group_name_H-M "C 2/M"
_symmetry_group_IT_number 12
_symmetry_cell_setting 'monoclinic'
loop_
_space_group_symop_operation_xyz
x,y,z
-x,y,-z
-x,-y,-z
x,-y,z
1/2+x,1/2+y,z
1/2-x,1/2+y,-z
1/2-x,1/2-y,-z
1/2+x,1/2-y,z
loop_
_atom_site_type_symbol
_atom_site_label
_atom_site_fract_x
_atom_site_fract_y
_atom_site_fract_z
Si Si1 0.186597 0.945629 0.102512
Si Si2 0.074959 0.710427 0.778526
Si Si3 0.174723 0.095289 0.421641
Si Si4 0.322897 0.586258 0.235506
Si Si5 0.218136 0.305267 0.492637
Si Si6 0.624388 0.313870 0.901878
O O1 0.248407 0.915033 0.276649
O O2 0.201977 0.000000 0.151302
O O3 0.254229 0.936628 0.951675
O O4 0.000000 0.934961 0.000000
O O5 0.140342 0.692621 0.636519
O O6 0.067155 0.767285 0.785592
O O7 0.901045 0.689097 0.704844
O O8 0.202986 0.696838 0.959165
O O9 0.253268 0.078977 0.619916
O O10 0.163108 0.151452 0.450217
O O11 0.004764 0.070850 0.335923
O O12 0.352483 0.639855 0.191953
O O13 0.250000 0.250000 0.500000
O O14 0.500000 0.320586 0.000000
#
# Coordination Sequence:
#
# PCOD9181477 Si02
#       6
#     8   8   8   8   8   8
#     4   9  18  33  53  79 111 143 179 229 282 328
#     4  10  22  32  48  74 102 143 188 221 265 319
#     4  10  20  33  52  78 109 144 181 223 272 325
#     4  10  19  32  53  78 104 141 182 221 274 327
#     4  11  20  34  50  72 108 146 184 226 267 317
#     4  11  20  34  51  73 106 141 180 227 271 318
#
# _framework density 23.733165
#
# number of rings (size 3 to 8) (size 9 to 14) (size 15 to 20)
#    0.000    1.833    0.000    6.500    0.000    4.667 
#    0.000    3.333    0.000    0.000    0.000    9.333 
#    0.000   13.333    0.000    0.333    0.000    0.000 
#
# Total GULP energy -133723.603061 kJ/mol
# GULP energy per Si atom -5571.816794 kJ/mol
# Density = 2.367915 g / cm^3
# Si number density = 23.733165 Si / 1000 Ang^3
#
#
#
# Elastic Constant Matrix: (Units=GPa)
#
#
# Indices 1 2 3 4 5 6 
#
# 1 22.8007 11.1904 26.6203 0.0000 -5.8520 0.0000
# 2 11.1904 89.6045 49.2013 0.0000 -3.8094 0.0000
# 3 26.6203 49.2013 169.2151 0.0000 -26.4308 0.0000
# 4 0.0000 0.0000 0.0000 31.7342 0.0000 -2.0506
# 5 -5.8520 -3.8094 -26.4308 0.0000 40.3326 0.0000
# 6 0.0000 0.0000 0.0000 -2.0506 0.0000 7.4230
#
#
#
# Elastic Compliance Matrix: (Units=1/GPa)
#
#
# Indices 1 2 3 4 5 6 
#
# 1 0.054474 -0.002642 -0.007359 0.000000 0.002832 0.000000
# 2 -0.002642 0.013482 -0.003749 0.000000 -0.001567 0.000000
# 3 -0.007359 -0.003749 0.008840 0.000000 0.004371 0.000000
# 4 0.000000 0.000000 0.000000 0.032085 0.000000 0.008863
# 5 0.002832 -0.001567 0.004371 0.000000 0.027921 0.000000
# 6 0.000000 0.000000 0.000000 0.008863 0.000000 0.137164
#
#
# Mechanical properties :
#
#
# Convention : Reuss Voigt Hill
#
# Bulk Modulus (GPa) = 20.28577 50.62715 35.45646
# Shear Modulus (GPa) = 15.72829 28.87184 22.30007
#
# Velocity S-wave (km/s) = 2.57712 3.49165 3.06864
# Velocity P-wave (km/s) = 4.17389 6.13462 5.24666
#
# Compressibility (1/GPa) = 0.04929565
#
# Stress axis : x y z
#
# Youngs Moduli (GPa) = 18.35752 74.17216 113.11862
#
# Poissons Ratio (x) = 0.19595 0.83246
# Poissons Ratio (y) = 0.04850 0.42411
# Poissons Ratio (z) = 0.13510 0.27809
#
# Static dielectric constant tensor:
#      x y z
#    x 2.019260 0.000000 -0.041760 
#    y 0.000000 1.911630 0.000000 
#    z -0.041760 0.000000 1.955980 
# 
# From -- ./inp_files/52795.got.cif
#   From: 2010.05.17/outbox.cif.g08.bks.cpg/sg12_27_cif.got.tgz:52795.got - 2010.06.03 13:09:07.
