data_PCOD9181248
_publ_section_title
;
Structure prediction by ZEFSAII (Michael W. Deem and Ramdas Pophale) SiO2 
 PCOD9181248
Probable space group: C 2/M
;
_chemical_formula_sum "Si O2"
_cell_formula_units_Z 64
_cell_length_a 10.795961
_cell_length_b 18.881472
_cell_length_c 18.974139
_cell_angle_alpha 90.000000
_cell_angle_beta 82.008250
_cell_angle_gamma 90.000000
_cell_volume 3830.194189
_symmetry_space_group_name_H-M "C 2/M"
_symmetry_group_IT_number 12
_symmetry_cell_setting 'monoclinic'
loop_
_space_group_symop_operation_xyz
x,y,z
-x,y,-z
-x,-y,-z
x,-y,z
1/2+x,1/2+y,z
1/2-x,1/2+y,-z
1/2-x,1/2-y,-z
1/2+x,1/2-y,z
loop_
_atom_site_type_symbol
_atom_site_label
_atom_site_fract_x
_atom_site_fract_y
_atom_site_fract_z
Si Si1 0.125205 0.671528 0.960982
Si Si2 0.880933 0.338185 0.459846
Si Si3 0.059244 0.805899 0.201505
Si Si4 0.522284 0.582578 0.321983
Si Si5 0.889776 0.171470 0.967548
Si Si6 0.341609 0.803591 0.206479
Si Si7 0.108891 0.171161 0.549631
Si Si8 0.186938 0.418164 0.673342
O O1 0.253303 0.637464 0.977730
O O2 0.127880 0.676246 0.876658
O O3 0.124556 0.752315 0.991754
O O4 0.000000 0.637120 0.000000
O O5 0.891449 0.255606 0.436103
O O6 0.747637 0.346180 0.510251
O O7 0.874979 0.386697 0.391600
O O8 0.000000 0.353412 0.500000
O O9 0.033117 0.877861 0.246224
O O10 0.073063 0.816528 0.116525
O O11 0.195819 0.778692 0.217159
O O12 0.943498 0.753522 0.222489
O O13 0.489661 0.500000 0.318321
O O14 0.428743 0.625518 0.379631
O O15 0.661791 0.587193 0.344426
O O16 0.000000 0.132800 0.000000
O O17 0.348831 0.870579 0.257072
O O18 0.000000 0.158425 0.500000
O O19 0.155209 0.500000 0.686097
#
# Coordination Sequence:
#
# PCOD9181248 Si02
#       8
#     8   8   8   8   8   8   8   8
#     4   9  15  25  45  74 102 126 164 216 262 306
#     4  10  21  36  59  84 109 134 168 222 269 306
#     4  10  19  32  52  79 106 136 173 219 267 311
#     4  10  21  36  55  78 106 142 184 219 250 309
#     4   9  15  25  45  73 103 129 161 212 266 309
#     4  10  19  32  53  79 104 136 174 220 268 308
#     4  10  19  36  60  83 104 133 174 218 263 306
#     4  10  21  37  54  76 109 145 178 213 258 317
#
# _framework density 16.709334999999999
#
# number of rings (size 3 to 8) (size 9 to 14) (size 15 to 20)
#    0.000    2.250    3.750    0.750    0.000    1.000 
#    2.250    0.000    0.000    0.750    0.000    0.000 
#    0.000    0.000    0.000    0.000    0.000    0.000 
#
# Total GULP energy -178229.930111 kJ/mol
# GULP energy per Si atom -5569.685316 kJ/mol
# Density = 1.667130 g / cm^3
# Si number density = 16.709335 Si / 1000 Ang^3
#
#
#
# Elastic Constant Matrix: (Units=GPa)
#
#
# Indices 1 2 3 4 5 6 
#
# 1 139.7362 55.6019 50.9066 0.0000 4.1947 0.0000
# 2 55.6019 70.2030 63.6400 0.0000 1.1615 0.0000
# 3 50.9066 63.6400 104.0386 0.0000 2.8130 0.0000
# 4 0.0000 0.0000 0.0000 -2.0402 0.0000 0.4384
# 5 4.1947 1.1615 2.8130 0.0000 27.8105 0.0000
# 6 0.0000 0.0000 0.0000 0.4384 0.0000 15.2738
#
#
#
# Elastic Compliance Matrix: (Units=1/GPa)
#
#
# Indices 1 2 3 4 5 6 
#
# 1 0.010492 -0.008229 -0.000067 0.000000 -0.001232 0.000000
# 2 -0.008229 0.038440 -0.019531 0.000000 0.001611 0.000000
# 3 -0.000067 -0.019531 0.021628 0.000000 -0.001362 0.000000
# 4 0.000000 0.000000 0.000000 -0.487142 0.000000 0.013983
# 5 -0.001232 0.001611 -0.001362 0.000000 0.036214 0.000000
# 6 0.000000 0.000000 0.000000 0.013983 0.000000 0.065070
#
#
# Mechanical properties :
#
#
# Convention : Reuss Voigt Hill
#
# Bulk Modulus (GPa) = 67.08128 72.69717 69.88923
# Shear Modulus (GPa) = -19.63278 17.79745 -0.91767
#
# Velocity S-wave (km/s) = -3.43149 3.26716 -0.74188
# Velocity P-wave (km/s) = 4.95308 7.60485 6.41743
#
# Compressibility (1/GPa) = 0.01490729
#
# Stress axis : x y z
#
# Youngs Moduli (GPa) = 95.31086 26.01469 46.23578
#
# Poissons Ratio (x) = 0.21407 0.00310
# Poissons Ratio (y) = 0.78428 0.90302
# Poissons Ratio (z) = 0.00639 0.50809
#
# Static dielectric constant tensor:
#      x y z
#    x 1.617030 0.000000 -0.001170 
#    y 0.000000 1.525460 0.000000 
#    z -0.001170 0.000000 1.555070 
# 
# From -- ./inp_files/263872.got.cif
#   From: 2010.05.17/outbox.cif.g08.bks.cpg/sg12_132_cif.got.tgz:263872.got - 2010.06.03 13:09:07.
