data_PCOD9181132
_publ_section_title
;
Structure prediction by ZEFSAII (Michael W. Deem and Ramdas Pophale) SiO2 
 PCOD9181132
Probable space group: C 2/M
;
_chemical_formula_sum "Si O2"
_cell_formula_units_Z 48
_cell_length_a 25.234554
_cell_length_b 7.451316
_cell_length_c 11.437334
_cell_angle_alpha 90.000000
_cell_angle_beta 85.700168
_cell_angle_gamma 90.000000
_cell_volume 2144.516094
_symmetry_space_group_name_H-M "C 2/M"
_symmetry_group_IT_number 12
_symmetry_cell_setting 'monoclinic'
loop_
_space_group_symop_operation_xyz
x,y,z
-x,y,-z
-x,-y,-z
x,-y,z
1/2+x,1/2+y,z
1/2-x,1/2+y,-z
1/2-x,1/2-y,-z
1/2+x,1/2-y,z
loop_
_atom_site_type_symbol
_atom_site_label
_atom_site_fract_x
_atom_site_fract_y
_atom_site_fract_z
Si Si1 0.939056 0.284834 0.510268
Si Si2 0.673697 0.718768 0.076783
Si Si3 0.570226 0.711258 0.227728
Si Si4 0.222241 0.293022 0.818437
Si Si5 0.377555 0.778738 0.290082
Si Si6 0.030410 0.296276 0.885194
O O1 0.941799 0.500000 0.499336
O O2 0.914932 0.240981 0.640400
O O3 0.903743 0.221114 0.407472
O O4 0.000000 0.216438 0.500000
O O5 0.674932 0.500000 0.073020
O O6 0.616383 0.775044 0.133142
O O7 0.720142 0.782213 0.157775
O O8 0.689787 0.785084 0.946215
O O9 0.563110 0.500000 0.209979
O O10 0.513909 0.800150 0.208926
O O11 0.231486 0.500000 0.785316
O O12 0.182061 0.217594 0.728655
O O13 0.416871 0.716713 0.179456
O O14 0.377906 0.000000 0.287810
O O15 0.043855 0.500000 0.918503
O O16 0.000000 0.210422 0.000000
#
# Coordination Sequence:
#
# PCOD9181132 Si02
#       6
#     8   8   8   8   8   8
#     4  10  19  35  55  72  98 133 173 218 253 290
#     4   9  19  34  51  75 107 136 162 203 253 300
#     4  11  22  34  49  73 107 139 168 201 251 311
#     4   9  17  33  57  78  98 130 171 208 249 301
#     4   9  17  31  52  77  98 124 167 216 257 287
#     4  10  19  32  52  77 102 128 166 213 255 299
#
# _framework density 22.382673
#
# number of rings (size 3 to 8) (size 9 to 14) (size 15 to 20)
#    0.000    2.333    1.667    1.500    0.000    3.333 
#    0.000    2.500    0.000    0.000    0.000    0.000 
#    0.000    0.000    0.000    0.000    0.000    0.000 
#
# Total GULP energy -134025.523976 kJ/mol
# GULP energy per Si atom -5584.396832 kJ/mol
# Density = 2.233173 g / cm^3
# Si number density = 22.382673 Si / 1000 Ang^3
#
#
#
# Elastic Constant Matrix: (Units=GPa)
#
#
# Indices 1 2 3 4 5 6 
#
# 1 79.0699 2.0036 -11.6469 0.0000 28.7562 0.0000
# 2 2.0036 75.3889 -4.1984 0.0000 5.0322 0.0000
# 3 -11.6469 -4.1984 51.5836 0.0000 23.2416 0.0000
# 4 0.0000 0.0000 0.0000 3.4976 0.0000 2.3648
# 5 28.7562 5.0322 23.2416 0.0000 42.4407 0.0000
# 6 0.0000 0.0000 0.0000 2.3648 0.0000 -0.3926
#
#
#
# Elastic Compliance Matrix: (Units=1/GPa)
#
#
# Indices 1 2 3 4 5 6 
#
# 1 0.025169 0.002159 0.018132 0.000000 -0.027239 0.000000
# 2 0.002159 0.013782 0.003989 0.000000 -0.005281 0.000000
# 3 0.018132 0.003989 0.039233 0.000000 -0.034243 0.000000
# 4 0.000000 0.000000 0.000000 0.056370 0.000000 0.339499
# 5 -0.027239 -0.005281 -0.034243 0.000000 0.061397 0.000000
# 6 0.000000 0.000000 0.000000 0.339499 0.000000 -0.502133
#
#
# Mechanical properties :
#
#
# Convention : Reuss Voigt Hill
#
# Bulk Modulus (GPa) = 7.88996 19.81765 13.85380
# Shear Modulus (GPa) = -16.00038 23.76809 3.88385
#
# Velocity S-wave (km/s) = -2.67658 3.26221 1.31870
# Velocity P-wave (km/s) = 2.45345 4.80235 2.91918
#
# Compressibility (1/GPa) = 0.12674341
#
# Stress axis : x y z
#
# Youngs Moduli (GPa) = 39.73064 72.55927 25.48860
#
# Poissons Ratio (x) = -0.15666 -0.46215
# Poissons Ratio (y) = -0.08578 -0.10167
# Poissons Ratio (z) = -0.72038 -0.28942
#
# Static dielectric constant tensor:
#      x y z
#    x 1.817040 0.000000 0.037750 
#    y 0.000000 1.858320 0.000000 
#    z 0.037750 0.000000 1.825090 
# 
# From -- ./inp_files/172273.got.cif
#   From: 2010.05.17/outbox.cif.g08.bks.cpg/sg12_87_cif.got.tgz:172273.got - 2010.06.03 13:09:07.
