data_PCOD9181866
_publ_section_title
;
Structure prediction by ZEFSAII (Michael W. Deem and Ramdas Pophale) SiO2 
 PCOD9181866
Probable space group: C 2/M
;
_chemical_formula_sum "Si O2"
_cell_formula_units_Z 64
_cell_length_a 12.765769
_cell_length_b 23.111230
_cell_length_c 26.737678
_cell_angle_alpha 90.000000
_cell_angle_beta 152.836423
_cell_angle_gamma 90.000000
_cell_volume 3601.350283
_symmetry_space_group_name_H-M "C 2/M"
_symmetry_group_IT_number 12
_symmetry_cell_setting 'monoclinic'
loop_
_space_group_symop_operation_xyz
x,y,z
-x,y,-z
-x,-y,-z
x,-y,z
1/2+x,1/2+y,z
1/2-x,1/2+y,-z
1/2-x,1/2-y,-z
1/2+x,1/2-y,z
loop_
_atom_site_type_symbol
_atom_site_label
_atom_site_fract_x
_atom_site_fract_y
_atom_site_fract_z
Si Si1 0.446088 0.932793 0.300103
Si Si2 0.442705 0.763143 0.231640
Si Si3 0.281958 0.141375 0.870174
Si Si4 0.514567 0.567490 0.833550
Si Si5 0.558556 0.765016 0.581300
Si Si6 0.326389 0.823089 0.574491
Si Si7 0.946015 0.568297 0.091789
Si Si8 0.729543 0.883623 0.878987
O O1 0.649244 0.889893 0.401884
O O2 0.363954 0.916919 0.209414
O O3 0.229382 0.920378 0.244531
O O4 0.502924 0.000000 0.327772
O O5 0.292433 0.706050 0.175066
O O6 0.671561 0.744257 0.299138
O O7 0.534064 0.788556 0.323073
O O8 0.315437 0.815574 0.149890
O O9 0.083541 0.108647 0.817128
O O10 0.361691 0.103620 0.856779
O O11 0.500000 0.144021 0.000000
O O12 0.520007 0.500000 0.820102
O O13 0.711592 0.574085 0.959591
O O14 0.500000 0.784246 0.500000
O O15 0.447265 0.807831 0.573808
O O16 0.426684 0.703867 0.532693
O O17 0.999224 0.500000 0.117051
O O18 0.898032 0.594383 0.125736
O O19 0.000000 0.894479 0.000000
#
# Coordination Sequence:
#
# PCOD9181866 Si02
#       8
#     8   8   8   8   8   8   8   8
#     4  10  19  32  54  82 109 141 181 224 265 311
#     4  10  21  33  52  78 108 140 177 219 274 316
#     4  10  20  34  48  77 111 148 181 221 270 313
#     4   9  17  31  50  72 102 144 191 223 254 311
#     4   9  18  36  58  78  98 132 172 220 268 335
#     4   9  19  34  55  81 102 132 175 216 271 327
#     4  10  20  33  51  72 104 150 190 226 259 305
#     4  11  21  34  50  79 113 150 187 222 258 314
#
# _framework density 17.771111999999999
#
# number of rings (size 3 to 8) (size 9 to 14) (size 15 to 20)
#    0.000    2.250    1.250    1.875    1.750    2.000 
#    0.000    1.875    0.000   10.500    0.000    0.000 
#    0.000    0.000    0.000    0.000    0.000    0.000 
#
# Total GULP energy -178558.488855 kJ/mol
# GULP energy per Si atom -5579.952777 kJ/mol
# Density = 1.773066 g / cm^3
# Si number density = 17.771112 Si / 1000 Ang^3
#
#
#
# Elastic Constant Matrix: (Units=GPa)
#
#
# Indices 1 2 3 4 5 6 
#
# 1 104.7995 44.8455 13.2060 0.0019 -5.3824 0.0012
# 2 44.8455 118.7614 22.4456 0.0020 -1.4006 0.0005
# 3 13.2060 22.4456 26.1037 0.0119 3.9033 0.0030
# 4 0.0019 0.0020 0.0119 16.0590 0.0009 3.3348
# 5 -5.3824 -1.4006 3.9033 0.0009 6.9145 0.0011
# 6 0.0012 0.0005 0.0030 3.3348 0.0011 12.1181
#
#
#
# Elastic Compliance Matrix: (Units=1/GPa)
#
#
# Indices 1 2 3 4 5 6 
#
# 1 0.012283 -0.003582 -0.004866 0.000002 0.011583 -0.000002
# 2 -0.003582 0.011473 -0.008720 0.000005 0.004458 0.000000
# 3 -0.004866 -0.008720 0.053626 -0.000036 -0.035826 0.000001
# 4 0.000002 0.000005 -0.000036 0.066045 0.000018 -0.018175
# 5 0.011583 0.004458 -0.035826 0.000018 0.174767 -0.000014
# 6 -0.000002 0.000000 0.000001 -0.018175 -0.000014 0.087522
#
#
# Mechanical properties :
#
#
# Convention : Reuss Voigt Hill
#
# Bulk Modulus (GPa) = 23.23093 45.62874 34.42984
# Shear Modulus (GPa) = 11.00350 18.29616 14.64983
#
# Velocity S-wave (km/s) = 2.49103 3.21213 2.87429
# Velocity P-wave (km/s) = 4.62324 6.28400 5.51647
#
# Compressibility (1/GPa) = 0.04304605
#
# Stress axis : x y z
#
# Youngs Moduli (GPa) = 81.41462 87.15759 18.64770
#
# Poissons Ratio (x) = 0.31219 0.09074
# Poissons Ratio (y) = 0.29162 0.16261
# Poissons Ratio (z) = 0.39616 0.76003
#
# Static dielectric constant tensor:
#      x y z
#    x 1.598940 0.000000 0.004500 
#    y 0.000000 1.594970 0.000000 
#    z 0.004500 0.000000 1.592030 
# 
# From -- ./inp_files/135390.got.cif
#   From: 2010.05.17/outbox.cif.g08.bks.cpg/sg12_68_cif.got.tgz:135390.got - 2010.06.03 13:09:07.
