data_PCOD9181134
_publ_section_title
;
Structure prediction by ZEFSAII (Michael W. Deem and Ramdas Pophale) SiO2 
 PCOD9181134
Probable space group: C 2/M
;
_chemical_formula_sum "Si O2"
_cell_formula_units_Z 56
_cell_length_a 20.005343
_cell_length_b 7.922733
_cell_length_c 25.994324
_cell_angle_alpha 90.000000
_cell_angle_beta 133.884779
_cell_angle_gamma 90.000000
_cell_volume 2969.445365
_symmetry_space_group_name_H-M "C 2/M"
_symmetry_group_IT_number 12
_symmetry_cell_setting 'monoclinic'
loop_
_space_group_symop_operation_xyz
x,y,z
-x,y,-z
-x,-y,-z
x,-y,z
1/2+x,1/2+y,z
1/2-x,1/2+y,-z
1/2-x,1/2-y,-z
1/2+x,1/2-y,z
loop_
_atom_site_type_symbol
_atom_site_label
_atom_site_fract_x
_atom_site_fract_y
_atom_site_fract_z
Si Si1 0.590357 0.294139 0.080265
Si Si2 0.215373 0.203640 0.058122
Si Si3 0.981034 0.201206 0.431848
Si Si4 0.396578 0.298781 0.101324
Si Si5 0.177304 0.299878 0.506205
Si Si6 0.099423 0.793236 0.203081
Si Si7 0.214540 0.296423 0.642610
O O1 0.586008 0.500000 0.079362
O O2 0.677299 0.241892 0.092470
O O3 0.598063 0.239190 0.142812
O O4 0.500000 0.239587 0.000000
O O5 0.318227 0.260913 0.100747
O O6 0.213204 0.000000 0.055073
O O7 0.146482 0.265686 0.975787
O O8 0.873606 0.251606 0.368358
O O9 0.000000 0.269699 0.500000
O O10 0.067188 0.256675 0.442015
O O11 0.984801 0.000000 0.435112
O O12 0.404373 0.500000 0.099078
O O13 0.498733 0.237061 0.169528
O O14 0.183087 0.500000 0.512005
O O15 0.250000 0.250000 0.500000
O O16 0.202606 0.231793 0.577254
O O17 0.189264 0.734581 0.281716
O O18 0.102790 0.000000 0.206011
O O19 0.217370 0.500000 0.641484
#
# Coordination Sequence:
#
# PCOD9181134 Si02
#       7
#     8   8   8   8   8   8   8
#     4   9  14  24  44  69  91 115 156 202 232 267
#     4   9  16  26  43  66  88 112 152 199 235 268
#     4   9  17  31  52  75  99 128 162 197 237 288
#     4   9  16  27  44  64  88 120 153 187 232 281
#     4  10  19  32  52  77 102 129 164 203 241 285
#     4   9  16  28  47  69  94 125 159 195 238 284
#     4   9  18  32  50  73 100 129 162 200 244 294
#
# _framework density 18.858740999999998
#
# number of rings (size 3 to 8) (size 9 to 14) (size 15 to 20)
#    0.000    2.857    1.429    0.857    0.000    2.286 
#    0.000    2.143    0.000    5.571    0.000    0.000 
#    0.000    0.000    0.000    0.000    0.000    0.000 
#
# Total GULP energy -155890.423211 kJ/mol
# GULP energy per Si atom -5567.515115 kJ/mol
# Density = 1.881582 g / cm^3
# Si number density = 18.858741 Si / 1000 Ang^3
#
#
#
# Elastic Constant Matrix: (Units=GPa)
#
#
# Indices 1 2 3 4 5 6 
#
# 1 167.3791 11.4661 72.2988 0.0000 31.4359 0.0000
# 2 11.4661 20.9420 8.7452 0.0000 3.5221 0.0000
# 3 72.2988 8.7452 99.6697 0.0000 29.9512 0.0000
# 4 0.0000 0.0000 0.0000 6.9675 0.0000 3.6861
# 5 31.4359 3.5221 29.9512 0.0000 31.5824 0.0000
# 6 0.0000 0.0000 0.0000 3.6861 0.0000 28.6134
#
#
#
# Elastic Compliance Matrix: (Units=1/GPa)
#
#
# Indices 1 2 3 4 5 6 
#
# 1 0.009120 -0.002146 -0.005275 0.000000 -0.003837 0.000000
# 2 -0.002146 0.050159 -0.002525 0.000000 -0.001064 0.000000
# 3 -0.005275 -0.002525 0.017368 0.000000 -0.010939 0.000000
# 4 0.000000 0.000000 0.000000 0.154021 0.000000 -0.019842
# 5 -0.003837 -0.001064 -0.010939 0.000000 0.045975 0.000000
# 6 0.000000 0.000000 0.000000 -0.019842 0.000000 0.037505
#
#
# Mechanical properties :
#
#
# Convention : Reuss Voigt Hill
#
# Bulk Modulus (GPa) = 17.61901 52.55676 35.08788
# Shear Modulus (GPa) = 14.16601 26.46470 20.31536
#
# Velocity S-wave (km/s) = 2.74371 3.75014 3.28569
# Velocity P-wave (km/s) = 4.40456 6.83232 5.74808
#
# Compressibility (1/GPa) = 0.05675689
#
# Stress axis : x y z
#
# Youngs Moduli (GPa) = 109.64507 19.93664 57.57683
#
# Poissons Ratio (x) = 0.04278 0.30369
# Poissons Ratio (y) = 0.23526 0.14538
# Poissons Ratio (z) = 0.57833 0.05034
#
# Static dielectric constant tensor:
#      x y z
#    x 1.685230 0.000000 0.009920 
#    y 0.000000 1.681850 0.000000 
#    z 0.009920 0.000000 1.670190 
# 
# From -- ./inp_files/365048.got.cif
#   From: 2010.05.17/outbox.cif.g08.bks.cpg/sg12_183_cif.got.tgz:365048.got - 2010.06.03 13:09:07.
