data_PCOD9181543
_publ_section_title
;
Structure prediction by ZEFSAII (Michael W. Deem and Ramdas Pophale) SiO2 
 PCOD9181543
Probable space group: C 2/M
;
_chemical_formula_sum "Si O2"
_cell_formula_units_Z 56
_cell_length_a 30.978564
_cell_length_b 18.503789
_cell_length_c 9.774346
_cell_angle_alpha 90.000000
_cell_angle_beta 29.727016
_cell_angle_gamma 90.000000
_cell_volume 2778.279321
_symmetry_space_group_name_H-M "C 2/M"
_symmetry_group_IT_number 12
_symmetry_cell_setting 'monoclinic'
loop_
_space_group_symop_operation_xyz
x,y,z
-x,y,-z
-x,-y,-z
x,-y,z
1/2+x,1/2+y,z
1/2-x,1/2+y,-z
1/2-x,1/2-y,-z
1/2+x,1/2-y,z
loop_
_atom_site_type_symbol
_atom_site_label
_atom_site_fract_x
_atom_site_fract_y
_atom_site_fract_z
Si Si1 0.321507 0.415532 0.823491
Si Si2 0.127401 0.271595 0.460771
Si Si3 0.581818 0.082325 0.171834
Si Si4 0.542779 0.920976 0.735385
Si Si5 0.796903 0.690694 0.018958
Si Si6 0.085084 0.914689 0.168552
Si Si7 0.513940 0.362750 0.804765
O O1 0.302434 0.500000 0.877544
O O2 0.247339 0.369720 0.956146
O O3 0.340235 0.392995 0.929328
O O4 0.406955 0.403553 0.491839
O O5 0.106622 0.353724 0.551123
O O6 0.215416 0.240041 0.286239
O O7 0.047458 0.219714 0.717969
O O8 0.142298 0.266161 0.255065
O O9 0.500000 0.088270 0.500000
O O10 0.536478 0.090203 0.151116
O O11 0.617685 0.000000 0.086914
O O12 0.649053 0.145920 0.019751
O O13 0.582591 0.000000 0.593395
O O14 0.500000 0.923368 0.000000
O O15 0.000000 0.907242 0.500000
O O16 0.067047 0.873729 0.076162
O O17 0.094606 0.000000 0.110882
O O18 0.500000 0.387439 0.000000
#
# Coordination Sequence:
#
# PCOD9181543 Si02
#       7
#     8   8   8   8   8   8   8
#     4   9  18  33  55  81 112 148 184 229 278 329
#     4  10  21  37  54  82 118 145 188 230 290 345
#     4  10  19  35  62  91 112 144 197 245 283 333
#     4  10  21  39  63  88 116 151 192 241 293 345
#     4  10  20  36  56  85 116 145 189 239 287 337
#     4   8  15  30  50  78 107 139 188 225 261 323
#     4  10  19  32  53  79 116 149 186 225 272 337
#
# _framework density 20.156361
#
# number of rings (size 3 to 8) (size 9 to 14) (size 15 to 20)
#    0.000    2.429    1.429    2.143    0.000    1.714 
#   15.429    0.714    6.286    0.000    0.000    0.000 
#    0.000    0.571    0.000    0.000    0.000    0.143 
#
# Total GULP energy -156128.579557 kJ/mol
# GULP energy per Si atom -5576.020698 kJ/mol
# Density = 2.011048 g / cm^3
# Si number density = 20.156361 Si / 1000 Ang^3
#
#
#
# Elastic Constant Matrix: (Units=GPa)
#
#
# Indices 1 2 3 4 5 6 
#
# 1 133.7938 50.9554 44.6560 0.0000 20.9934 0.0000
# 2 50.9554 125.7103 32.0544 0.0000 -14.5498 0.0000
# 3 44.6560 32.0544 36.7576 0.0000 6.3385 0.0000
# 4 0.0000 0.0000 0.0000 30.8669 0.0000 -11.5242
# 5 20.9934 -14.5498 6.3385 0.0000 23.4259 0.0000
# 6 0.0000 0.0000 0.0000 -11.5242 0.0000 25.8960
#
#
#
# Elastic Compliance Matrix: (Units=1/GPa)
#
#
# Indices 1 2 3 4 5 6 
#
# 1 0.015522 -0.004666 -0.012471 0.000000 -0.013434 0.000000
# 2 -0.004666 0.013949 -0.009136 0.000000 0.015317 0.000000
# 3 -0.012471 -0.009136 0.051791 0.000000 -0.008512 0.000000
# 4 0.000000 0.000000 0.000000 0.038852 0.000000 0.017290
# 5 -0.013434 0.015317 -0.008512 0.000000 0.066543 0.000000
# 6 0.000000 0.000000 0.000000 0.017290 0.000000 0.046310
#
#
# Mechanical properties :
#
#
# Convention : Reuss Voigt Hill
#
# Bulk Modulus (GPa) = 34.82606 61.28812 48.05709
# Shear Modulus (GPa) = 16.94419 27.27751 22.11085
#
# Velocity S-wave (km/s) = 2.90252 3.68271 3.31564
# Velocity P-wave (km/s) = 5.34306 6.96818 6.20902
#
# Compressibility (1/GPa) = 0.02871413
#
# Stress axis : x y z
#
# Youngs Moduli (GPa) = 64.42573 71.69098 19.30839
#
# Poissons Ratio (x) = 0.33455 0.24080
# Poissons Ratio (y) = 0.30064 0.17640
# Poissons Ratio (z) = 0.80346 0.65498
#
# Static dielectric constant tensor:
#      x y z
#    x 1.714490 0.000000 -0.033340 
#    y 0.000000 1.767520 0.000000 
#    z -0.033340 0.000000 1.731930 
# 
# From -- ./inp_files/113359.got.cif
#   From: 2010.05.17/outbox.cif.g08.bks.cpg/sg12_57_cif.got.tgz:113359.got - 2010.06.03 13:09:07.
