data_PCOD9181266
_publ_section_title
;
Structure prediction by ZEFSAII (Michael W. Deem and Ramdas Pophale) SiO2 
 PCOD9181266
Probable space group: C 2/M
;
_chemical_formula_sum "Si O2"
_cell_formula_units_Z 40
_cell_length_a 24.771180
_cell_length_b 8.718056
_cell_length_c 21.995150
_cell_angle_alpha 90.000000
_cell_angle_beta 149.999252
_cell_angle_gamma 90.000000
_cell_volume 2375.051887
_symmetry_space_group_name_H-M "C 2/M"
_symmetry_group_IT_number 12
_symmetry_cell_setting 'monoclinic'
loop_
_space_group_symop_operation_xyz
x,y,z
-x,y,-z
-x,-y,-z
x,-y,z
1/2+x,1/2+y,z
1/2-x,1/2+y,-z
1/2-x,1/2-y,-z
1/2+x,1/2-y,z
loop_
_atom_site_type_symbol
_atom_site_label
_atom_site_fract_x
_atom_site_fract_y
_atom_site_fract_z
Si Si1 0.665640 0.316745 0.660013
Si Si2 0.386515 0.683081 0.921216
Si Si3 0.402350 0.317065 0.195355
Si Si4 0.847725 0.683087 0.015101
Si Si5 0.493319 0.816760 0.587590
O O1 0.656950 0.500000 0.653579
O O2 0.787048 0.263538 0.790080
O O3 0.613871 0.252585 0.547536
O O4 0.591005 0.246993 0.640878
O O5 0.369809 0.500000 0.903784
O O6 0.500000 0.718269 0.000000
O O7 0.385046 0.740932 0.989103
O O8 0.416768 0.500000 0.208821
O O9 0.406890 0.250164 0.131992
O O10 0.483427 0.239757 0.321824
O O11 0.280184 0.284910 0.099954
O O12 0.860810 0.500000 0.025030
O O13 0.491653 0.000000 0.582445
#
# Coordination Sequence:
#
# PCOD9181266 Si02
#       5
#     8   8   8   8   8
#     4  11  21  34  52  77 108 141 180 221 267 319
#     4  11  23  38  56  78 108 145 183 223 265 315
#     4  10  19  32  52  79 111 142 173 219 270 321
#     4  10  20  33  52  78 108 142 179 220 266 318
#     4  11  20  32  53  79 110 142 174 219 271 322
#
# _framework density 16.841737999999999
#
# number of rings (size 3 to 8) (size 9 to 14) (size 15 to 20)
#    0.000    1.400    2.000    6.600    0.000    3.200 
#    0.000    0.000    0.000    1.200    0.000    0.000 
#    0.000    0.000    0.000    0.000    0.000    0.000 
#
# Total GULP energy -111739.867912 kJ/mol
# GULP energy per Si atom -5586.993396 kJ/mol
# Density = 1.680341 g / cm^3
# Si number density = 16.841738 Si / 1000 Ang^3
#
#
#
# Elastic Constant Matrix: (Units=GPa)
#
#
# Indices 1 2 3 4 5 6 
#
# 1 82.3933 56.9529 67.8789 0.0000 -15.0731 0.0000
# 2 56.9529 111.4424 69.0117 0.0000 -8.7759 0.0000
# 3 67.8789 69.0117 143.1614 0.0000 -30.4952 0.0000
# 4 0.0000 0.0000 0.0000 30.6632 0.0000 -10.7790
# 5 -15.0731 -8.7759 -30.4952 0.0000 28.5398 0.0000
# 6 0.0000 0.0000 0.0000 -10.7790 0.0000 13.8785
#
#
#
# Elastic Compliance Matrix: (Units=1/GPa)
#
#
# Indices 1 2 3 4 5 6 
#
# 1 0.023574 -0.007510 -0.006987 0.000000 0.002675 0.000000
# 2 -0.007510 0.015450 -0.004816 0.000000 -0.004362 0.000000
# 3 -0.006987 -0.004816 0.014912 0.000000 0.010763 0.000000
# 4 0.000000 0.000000 0.000000 0.044860 0.000000 0.034842
# 5 0.002675 -0.004362 0.010763 0.000000 0.046611 0.000000
# 6 0.000000 0.000000 0.000000 0.034842 0.000000 0.099115
#
#
# Mechanical properties :
#
#
# Convention : Reuss Voigt Hill
#
# Bulk Modulus (GPa) = 65.31833 80.52045 72.91939
# Shear Modulus (GPa) = 17.34594 24.15987 20.75290
#
# Velocity S-wave (km/s) = 3.21275 3.79162 3.51412
# Velocity P-wave (km/s) = 7.25466 8.19038 7.73668
#
# Compressibility (1/GPa) = 0.01530964
#
# Stress axis : x y z
#
# Youngs Moduli (GPa) = 42.42007 64.72438 67.05803
#
# Poissons Ratio (x) = 0.48606 0.46856
# Poissons Ratio (y) = 0.31856 0.32296
# Poissons Ratio (z) = 0.29641 0.31172
#
# Static dielectric constant tensor:
#      x y z
#    x 1.542790 0.000000 -0.015070 
#    y 0.000000 1.557690 0.000000 
#    z -0.015070 0.000000 1.571060 
# 
# From -- ./inp_files/171857.got.cif
#   From: 2010.05.17/outbox.cif.g08.bks.cpg/sg12_86_cif.got.tgz:171857.got - 2010.06.03 13:09:07.
