data_PCOD9181669
_publ_section_title
;
Structure prediction by ZEFSAII (Michael W. Deem and Ramdas Pophale) SiO2 
 PCOD9181669
Probable space group: C 2/M
;
_chemical_formula_sum "Si O2"
_cell_formula_units_Z 52
_cell_length_a 32.444384
_cell_length_b 8.014622
_cell_length_c 10.833134
_cell_angle_alpha 90.000000
_cell_angle_beta 86.501739
_cell_angle_gamma 90.000000
_cell_volume 2811.685202
_symmetry_space_group_name_H-M "C 2/M"
_symmetry_group_IT_number 12
_symmetry_cell_setting 'monoclinic'
loop_
_space_group_symop_operation_xyz
x,y,z
-x,y,-z
-x,-y,-z
x,-y,z
1/2+x,1/2+y,z
1/2-x,1/2+y,-z
1/2-x,1/2-y,-z
1/2+x,1/2-y,z
loop_
_atom_site_type_symbol
_atom_site_label
_atom_site_fract_x
_atom_site_fract_y
_atom_site_fract_z
Si Si1 0.950636 0.000000 0.519327
Si Si2 0.097145 0.314981 0.071277
Si Si3 0.548557 0.500000 0.990035
Si Si4 0.401302 0.500000 0.270645
Si Si5 0.351061 0.187534 0.181734
Si Si6 0.886708 0.810564 0.668847
Si Si7 0.192784 0.698872 0.448774
Si Si8 0.771379 0.807268 0.298806
O O1 0.931534 0.842142 0.598431
O O2 0.000000 0.000000 0.500000
O O3 0.926437 0.000000 0.393306
O O4 0.079168 0.500000 0.056318
O O5 0.065781 0.164710 0.053212
O O6 0.112442 0.296203 0.207920
O O7 0.132718 0.295307 0.961282
O O8 0.500000 0.500000 0.000000
O O9 0.566566 0.500000 0.848566
O O10 0.373180 0.334907 0.255266
O O11 0.302006 0.209818 0.203717
O O12 0.362104 0.000000 0.222813
O O13 0.853577 0.740459 0.579499
O O14 0.873418 0.000000 0.704190
O O15 0.197799 0.500000 0.466849
O O16 0.207314 0.789166 0.570131
O O17 0.224583 0.749156 0.333626
O O18 0.770770 0.000000 0.261284
#
# Coordination Sequence:
#
# PCOD9181669 Si02
#       8
#     4   8   4   4   8   8   8   8
#     4  10  23  38  61  86 112 157 198 241 302 363
#     4  10  21  39  60  87 116 155 200 244 294 357
#     4  10  21  36  63  92 112 149 194 245 310 349
#     4  10  20  36  62  82 122 150 188 246 293 360
#     4  10  20  35  59  87 116 156 196 238 299 345
#     4  10  21  36  60  79 114 154 199 233 298 357
#     4  10  20  33  53  84 116 159 200 243 297 348
#     4  10  19  32  53  82 122 154 197 252 292 342
#
# _framework density 18.494247999999999
#
# number of rings (size 3 to 8) (size 9 to 14) (size 15 to 20)
#    0.462    1.538    1.538    2.308    2.154    2.154 
#    0.000    1.538    0.000    2.308    0.000    0.000 
#    0.000    0.000    0.000    0.000    0.000    0.000 
#
# Total GULP energy -144919.358505 kJ/mol
# GULP energy per Si atom -5573.821481 kJ/mol
# Density = 1.845215 g / cm^3
# Si number density = 18.494248 Si / 1000 Ang^3
#
#
#
# Elastic Constant Matrix: (Units=GPa)
#
#
# Indices 1 2 3 4 5 6 
#
# 1 95.0354 16.3057 16.0568 0.0000 -24.4241 0.0000
# 2 16.3057 90.6684 11.8545 0.0000 -8.2070 0.0000
# 3 16.0568 11.8545 51.0900 0.0000 -0.2987 0.0000
# 4 0.0000 0.0000 0.0000 17.7899 0.0000 -4.1751
# 5 -24.4241 -8.2070 -0.2987 0.0000 14.6729 0.0000
# 6 0.0000 0.0000 0.0000 -4.1751 0.0000 7.8439
#
#
#
# Elastic Compliance Matrix: (Units=1/GPa)
#
#
# Indices 1 2 3 4 5 6 
#
# 1 0.020149 0.000221 -0.006188 0.000000 0.033537 0.000000
# 2 0.000221 0.011992 -0.002811 0.000000 0.007018 0.000000
# 3 -0.006188 -0.002811 0.022103 0.000000 -0.011422 0.000000
# 4 0.000000 0.000000 0.000000 0.064236 0.000000 0.034192
# 5 0.033537 0.007018 -0.011422 0.000000 0.127670 0.000000
# 6 0.000000 0.000000 0.000000 0.034192 0.000000 0.145687
#
#
# Mechanical properties :
#
#
# Convention : Reuss Voigt Hill
#
# Bulk Modulus (GPa) = 27.25589 36.13641 31.69615
# Shear Modulus (GPa) = 11.85894 20.89981 16.37937
#
# Velocity S-wave (km/s) = 2.53499 3.36530 2.97921
# Velocity P-wave (km/s) = 4.83091 5.88914 5.38608
#
# Compressibility (1/GPa) = 0.03668932
#
# Stress axis : x y z
#
# Youngs Moduli (GPa) = 49.63048 83.38719 45.24171
#
# Poissons Ratio (x) = -0.01844 0.27994
# Poissons Ratio (y) = -0.01097 0.12718
# Poissons Ratio (z) = 0.30710 0.23440
#
# Static dielectric constant tensor:
#      x y z
#    x 1.627490 0.000000 -0.032330 
#    y 0.000000 1.701970 0.000000 
#    z -0.032330 0.000000 1.651170 
# 
# From -- ./inp_files/185876.got.cif
#   From: 2010.05.17/outbox.cif.g08.bks.cpg/sg12_93_cif.got.tgz:185876.got - 2010.06.03 13:09:07.
