data_PCOD9181174
_publ_section_title
;
Structure prediction by ZEFSAII (Michael W. Deem and Ramdas Pophale) SiO2 
 PCOD9181174
Probable space group: C 2/M
;
_chemical_formula_sum "Si O2"
_cell_formula_units_Z 64
_cell_length_a 15.067822
_cell_length_b 8.927943
_cell_length_c 30.820020
_cell_angle_alpha 90.000000
_cell_angle_beta 134.054461
_cell_angle_gamma 90.000000
_cell_volume 2979.681699
_symmetry_space_group_name_H-M "C 2/M"
_symmetry_group_IT_number 12
_symmetry_cell_setting 'monoclinic'
loop_
_space_group_symop_operation_xyz
x,y,z
-x,y,-z
-x,-y,-z
x,-y,z
1/2+x,1/2+y,z
1/2-x,1/2+y,-z
1/2-x,1/2-y,-z
1/2+x,1/2-y,z
loop_
_atom_site_type_symbol
_atom_site_label
_atom_site_fract_x
_atom_site_fract_y
_atom_site_fract_z
Si Si1 0.389755 0.317536 0.109901
Si Si2 0.876947 0.827968 0.489243
Si Si3 0.260428 0.328191 0.630937
Si Si4 0.159876 0.828972 0.734332
Si Si5 0.638000 0.818811 0.057281
Si Si6 0.981144 0.330303 0.389998
Si Si7 0.370303 0.320952 0.853948
Si Si8 0.511762 0.673566 0.240044
O O1 0.388009 0.500000 0.109708
O O2 0.247166 0.269619 0.061791
O O3 0.487980 0.273607 0.106991
O O4 0.451577 0.263985 0.176127
O O5 0.769779 0.757409 0.423460
O O6 0.000000 0.822781 0.500000
O O7 0.910294 0.739816 0.544242
O O8 0.852096 0.000000 0.490781
O O9 0.296346 0.500000 0.632432
O O10 0.136498 0.333851 0.617362
O O11 0.365671 0.257631 0.697154
O O12 0.067357 0.764201 0.667020
O O13 0.282115 0.731253 0.784573
O O14 0.086934 0.827451 0.754960
O O15 0.193151 0.000000 0.735036
O O16 0.670464 0.757923 0.115792
O O17 0.636988 0.000000 0.058150
O O18 0.500000 0.765914 0.000000
O O19 0.009763 0.500000 0.386625
O O20 0.363457 0.500000 0.855470
O O21 0.544091 0.500000 0.240260
#
# Coordination Sequence:
#
# PCOD9181174 Si02
#       8
#     8   8   8   8   8   8   8   8
#     4   9  18  36  60  86 118 159 198 235 291 354
#     4   9  17  30  48  72 104 138 176 229 289 344
#     4   9  17  31  52  75  98 135 184 229 282 350
#     4  11  21  35  56  80 111 148 189 237 290 347
#     4  10  21  40  65  90 121 161 201 239 284 344
#     4  10  19  32  52  77 105 138 183 234 286 348
#     4  11  22  37  61  89 120 157 197 243 293 346
#     4   9  17  32  55  77 103 143 188 231 283 346
#
# _framework density 21.478802999999999
#
# number of rings (size 3 to 8) (size 9 to 14) (size 15 to 20)
#    0.000    2.250    1.250    2.250    0.000    4.750 
#    0.000    3.125    0.000    0.000    0.000    0.000 
#    0.000    0.000    0.000    0.000    0.000    0.000 
#
# Total GULP energy -178648.093280 kJ/mol
# GULP energy per Si atom -5582.752915 kJ/mol
# Density = 2.142992 g / cm^3
# Si number density = 21.478803 Si / 1000 Ang^3
#
#
#
# Elastic Constant Matrix: (Units=GPa)
#
#
# Indices 1 2 3 4 5 6 
#
# 1 44.8762 -7.7084 -12.4451 0.0000 9.3810 0.0000
# 2 -7.7084 33.0205 0.0896 0.0000 1.3383 0.0000
# 3 -12.4451 0.0896 59.3017 0.0000 12.9769 0.0000
# 4 0.0000 0.0000 0.0000 23.9152 0.0000 -2.8285
# 5 9.3810 1.3383 12.9769 0.0000 32.0579 0.0000
# 6 0.0000 0.0000 0.0000 -2.8285 0.0000 10.8787
#
#
#
# Elastic Compliance Matrix: (Units=1/GPa)
#
#
# Indices 1 2 3 4 5 6 
#
# 1 0.028416 0.007100 0.008599 0.000000 -0.012092 0.000000
# 2 0.007100 0.032113 0.002402 0.000000 -0.004391 0.000000
# 3 0.008599 0.002402 0.021106 0.000000 -0.011160 0.000000
# 4 0.000000 0.000000 0.000000 0.043141 0.000000 0.011217
# 5 -0.012092 -0.004391 -0.011160 0.000000 0.039433 0.000000
# 6 0.000000 0.000000 0.000000 0.011217 0.000000 0.094839
#
#
# Mechanical properties :
#
#
# Convention : Reuss Voigt Hill
#
# Bulk Modulus (GPa) = 8.48630 10.78562 9.63596
# Shear Modulus (GPa) = 19.07494 23.85452 21.46473
#
# Velocity S-wave (km/s) = 2.98330 3.33619 3.16467
# Velocity P-wave (km/s) = 3.97824 4.45788 4.22487
#
# Compressibility (1/GPa) = 0.11783704
#
# Stress axis : x y z
#
# Youngs Moduli (GPa) = 35.19205 31.13993 47.37993
#
# Poissons Ratio (x) = -0.22110 -0.40741
# Poissons Ratio (y) = -0.24987 -0.11382
# Poissons Ratio (z) = -0.30261 -0.07481
#
# Static dielectric constant tensor:
#      x y z
#    x 1.819120 0.000000 0.037530 
#    y 0.000000 1.738070 0.000000 
#    z 0.037530 0.000000 1.788980 
# 
# From -- ./inp_files/375587.got.cif
#   From: 2010.05.17/outbox.cif.g08.bks.cpg/sg12_188_cif.got.tgz:375587.got - 2010.06.03 13:09:07.
