data_PCOD9181281
_publ_section_title
;
Structure prediction by ZEFSAII (Michael W. Deem and Ramdas Pophale) SiO2 
 PCOD9181281
Probable space group: C 2/M
;
_chemical_formula_sum "Si O2"
_cell_formula_units_Z 56
_cell_length_a 24.598037
_cell_length_b 8.124471
_cell_length_c 15.430415
_cell_angle_alpha 90.000000
_cell_angle_beta 61.027024
_cell_angle_gamma 90.000000
_cell_volume 2697.776015
_symmetry_space_group_name_H-M "C 2/M"
_symmetry_group_IT_number 12
_symmetry_cell_setting 'monoclinic'
loop_
_space_group_symop_operation_xyz
x,y,z
-x,y,-z
-x,-y,-z
x,-y,z
1/2+x,1/2+y,z
1/2-x,1/2+y,-z
1/2-x,1/2-y,-z
1/2+x,1/2-y,z
loop_
_atom_site_type_symbol
_atom_site_label
_atom_site_fract_x
_atom_site_fract_y
_atom_site_fract_z
Si Si1 0.787217 0.302463 0.384049
Si Si2 0.750478 0.304137 0.777809
Si Si3 0.438757 0.698837 0.816614
Si Si4 0.381838 0.691558 0.684285
Si Si5 0.812146 0.197887 0.004345
Si Si6 0.446318 0.192210 0.481614
Si Si7 0.072274 0.301139 0.696243
O O1 0.786490 0.500000 0.384879
O O2 0.750000 0.250000 0.500000
O O3 0.759690 0.243255 0.313938
O O4 0.859462 0.244826 0.327772
O O5 0.759789 0.500000 0.776299
O O6 0.811399 0.214287 0.767134
O O7 0.696566 0.258476 0.887566
O O8 0.437445 0.500000 0.816641
O O9 0.426113 0.754956 0.726859
O O10 0.507698 0.751737 0.791786
O O11 0.378274 0.758785 0.916005
O O12 0.394273 0.500000 0.659021
O O13 0.388383 0.789581 0.590021
O O14 0.814234 0.000000 0.996421
O O15 0.750000 0.250000 0.000000
O O16 0.500000 0.269100 0.500000
O O17 0.434878 0.264139 0.396846
O O18 0.460843 0.000000 0.457871
O O19 0.074419 0.500000 0.694156
#
# Coordination Sequence:
#
# PCOD9181281 Si02
#       7
#     8   8   8   8   8   8   8
#     4  11  24  43  66  91 122 160 205 254 299 357
#     4  11  23  39  62  88 118 160 206 249 302 362
#     4  10  21  36  56  86 121 153 192 245 302 359
#     4  11  21  33  54  85 120 153 193 245 300 359
#     4  10  21  38  60  89 123 159 201 250 304 362
#     4  10  19  32  52  79 114 150 189 236 293 363
#     4  10  22  39  58  83 116 157 199 242 298 362
#
# _framework density 20.757840000000002
#
# number of rings (size 3 to 8) (size 9 to 14) (size 15 to 20)
#    0.000    1.571    2.857    2.143    0.000    4.857 
#    0.000    0.714    0.000    4.286    0.000    0.000 
#    0.000    0.000    0.000    0.000    0.000    0.000 
#
# Total GULP energy -156181.882447 kJ/mol
# GULP energy per Si atom -5577.924373 kJ/mol
# Density = 2.071059 g / cm^3
# Si number density = 20.757840 Si / 1000 Ang^3
#
#
#
# Elastic Constant Matrix: (Units=GPa)
#
#
# Indices 1 2 3 4 5 6 
#
# 1 107.9820 8.2375 30.1119 0.0000 -19.8268 0.0000
# 2 8.2375 29.9472 5.9619 0.0000 0.8611 0.0001
# 3 30.1119 5.9619 102.1375 0.0000 -15.2352 0.0000
# 4 0.0000 0.0000 0.0000 22.3303 0.0000 -7.2796
# 5 -19.8268 0.8611 -15.2352 0.0000 35.8730 0.0000
# 6 0.0000 0.0001 0.0000 -7.2796 0.0000 25.4077
#
#
#
# Elastic Compliance Matrix: (Units=1/GPa)
#
#
# Indices 1 2 3 4 5 6 
#
# 1 0.011073 -0.002731 -0.002330 0.000000 0.005196 0.000000
# 2 -0.002731 0.034563 -0.001667 0.000000 -0.003047 0.000000
# 3 -0.002330 -0.001667 0.011091 0.000000 0.003463 0.000000
# 4 0.000000 0.000000 0.000000 0.049396 0.000000 0.014152
# 5 0.005196 -0.003047 0.003463 0.000000 0.032292 0.000000
# 6 0.000000 0.000000 0.000000 0.014152 0.000000 0.043413
#
#
# Mechanical properties :
#
#
# Convention : Reuss Voigt Hill
#
# Bulk Modulus (GPa) = 23.11015 36.52103 29.81559
# Shear Modulus (GPa) = 23.84271 29.77256 26.80764
#
# Velocity S-wave (km/s) = 3.39280 3.79130 3.59757
# Velocity P-wave (km/s) = 5.14835 6.06608 5.62596
#
# Compressibility (1/GPa) = 0.04327103
#
# Stress axis : x y z
#
# Youngs Moduli (GPa) = 90.31010 28.93277 90.15946
#
# Poissons Ratio (x) = 0.07903 0.21007
# Poissons Ratio (y) = 0.24667 0.15027
# Poissons Ratio (z) = 0.21042 0.04822
#
# Static dielectric constant tensor:
#      x y z
#    x 1.771970 0.000000 -0.060150 
#    y 0.000000 1.738530 0.000000 
#    z -0.060150 0.000000 1.821470 
# 
# From -- ./inp_files/238386.got.cif
#   From: 2010.05.17/outbox.cif.g08.bks.cpg/sg12_120_cif.got.tgz:238386.got - 2010.06.03 13:09:07.
