data_PCOD9181005
_publ_section_title
;
Structure prediction by ZEFSAII (Michael W. Deem and Ramdas Pophale) SiO2 
 PCOD9181005
Probable space group: C 2/M
;
_chemical_formula_sum "Si O2"
_cell_formula_units_Z 64
_cell_length_a 24.616984
_cell_length_b 11.011509
_cell_length_c 14.561006
_cell_angle_alpha 90.000000
_cell_angle_beta 128.910216
_cell_angle_gamma 90.000000
_cell_volume 3071.325701
_symmetry_space_group_name_H-M "C 2/M"
_symmetry_group_IT_number 12
_symmetry_cell_setting 'monoclinic'
loop_
_space_group_symop_operation_xyz
x,y,z
-x,y,-z
-x,-y,-z
x,-y,z
1/2+x,1/2+y,z
1/2-x,1/2+y,-z
1/2-x,1/2-y,-z
1/2+x,1/2-y,z
loop_
_atom_site_type_symbol
_atom_site_label
_atom_site_fract_x
_atom_site_fract_y
_atom_site_fract_z
Si Si1 0.635757 0.641632 0.230666
Si Si2 0.721471 0.133645 0.057230
Si Si3 0.205459 0.357890 0.632762
Si Si4 0.106825 0.136337 0.500383
Si Si5 0.844491 0.631428 0.208850
Si Si6 0.624895 0.356842 0.009547
Si Si7 0.388174 0.370375 0.278260
Si Si8 0.982095 0.143390 0.763163
O O1 0.644331 0.500000 0.264461
O O2 0.715733 0.683397 0.306487
O O3 0.581903 0.698353 0.245334
O O4 0.605103 0.646025 0.095597
O O5 0.708525 0.136784 0.933516
O O6 0.680576 0.249533 0.052743
O O7 0.694145 0.000000 0.058999
O O8 0.803208 0.131738 0.171582
O O9 0.194844 0.500000 0.592863
O O10 0.156151 0.252935 0.539870
O O11 0.191098 0.359530 0.728046
O O12 0.093424 0.129568 0.594892
O O13 0.039415 0.154653 0.365627
O O14 0.135186 0.000000 0.505849
O O15 0.878413 0.500000 0.241042
O O16 0.901852 0.735525 0.259204
O O17 0.646699 0.500000 0.013907
O O18 0.558146 0.321328 0.878250
O O19 0.411510 0.500000 0.263007
O O20 0.981532 0.000000 0.784870
#
# Coordination Sequence:
#
# PCOD9181005 Si02
#       8
#     8   8   8   8   8   8   8   8
#     4   9  17  30  50  75  98 120 153 200 244 277
#     4  10  20  32  47  71 102 129 154 191 242 289
#     4   9  17  30  49  73  99 124 154 193 235 282
#     4   9  17  30  47  68  97 129 156 187 234 285
#     4   9  17  29  46  70 100 129 155 189 235 285
#     4  10  19  32  52  73  92 121 164 205 235 271
#     4   9  17  28  45  70  98 127 155 188 234 285
#     4   9  18  32  50  71  95 125 161 199 236 275
#
# _framework density 20.837907999999999
#
# number of rings (size 3 to 8) (size 9 to 14) (size 15 to 20)
#    0.000    2.750    0.000    2.250    0.000    4.000 
#    0.000    0.625    0.000    6.000    0.000   19.250 
#    0.000    0.000    0.000    0.000    0.000    0.000 
#
# Total GULP energy -178220.294575 kJ/mol
# GULP energy per Si atom -5569.384205 kJ/mol
# Density = 2.079048 g / cm^3
# Si number density = 20.837908 Si / 1000 Ang^3
#
#
#
# Elastic Constant Matrix: (Units=GPa)
#
#
# Indices 1 2 3 4 5 6 
#
# 1 64.6840 33.0915 15.3934 0.0000 5.2489 0.0000
# 2 33.0915 149.6322 41.3614 0.0000 13.9981 0.0000
# 3 15.3934 41.3614 84.4578 0.0000 9.5374 0.0000
# 4 0.0000 0.0000 0.0000 21.8320 0.0000 5.9590
# 5 5.2489 13.9981 9.5374 0.0000 19.8390 0.0000
# 6 0.0000 0.0000 0.0000 5.9590 0.0000 16.1161
#
#
#
# Elastic Compliance Matrix: (Units=1/GPa)
#
#
# Indices 1 2 3 4 5 6 
#
# 1 0.017644 -0.003367 -0.001383 0.000000 -0.001627 0.000000
# 2 -0.003367 0.008659 -0.003212 0.000000 -0.003675 0.000000
# 3 -0.001383 -0.003212 0.014135 0.000000 -0.004163 0.000000
# 4 0.000000 0.000000 0.000000 0.050946 0.000000 -0.018837
# 5 -0.001627 -0.003675 -0.004163 0.000000 0.055431 0.000000
# 6 0.000000 0.000000 0.000000 -0.018837 0.000000 0.069015
#
#
# Mechanical properties :
#
#
# Convention : Reuss Voigt Hill
#
# Bulk Modulus (GPa) = 40.79329 53.16294 46.97811
# Shear Modulus (GPa) = 20.83976 25.48594 23.16285
#
# Velocity S-wave (km/s) = 3.16585 3.50102 3.33764
# Velocity P-wave (km/s) = 5.74303 6.47386 6.11937
#
# Compressibility (1/GPa) = 0.02451384
#
# Stress axis : x y z
#
# Youngs Moduli (GPa) = 56.67762 115.48101 70.74418
#
# Poissons Ratio (x) = 0.38888 0.09783
# Poissons Ratio (y) = 0.19086 0.22723
# Poissons Ratio (z) = 0.07838 0.37093
#
# Static dielectric constant tensor:
#      x y z
#    x 1.831210 0.000000 -0.003730 
#    y 0.000000 1.823040 0.000000 
#    z -0.003730 0.000000 1.756100 
# 
# From -- ./inp_files/250872.got.cif
#   From: 2010.05.17/outbox.cif.g08.bks.cpg/sg12_126_cif.got.tgz:250872.got - 2010.06.03 13:09:07.
