data_PCOD9181703
_publ_section_title
;
Structure prediction by ZEFSAII (Michael W. Deem and Ramdas Pophale) SiO2 
 PCOD9181703
Probable space group: C 2/M
;
_chemical_formula_sum "Si O2"
_cell_formula_units_Z 64
_cell_length_a 11.906983
_cell_length_b 29.878051
_cell_length_c 14.632923
_cell_angle_alpha 90.000000
_cell_angle_beta 138.162838
_cell_angle_gamma 90.000000
_cell_volume 3472.331946
_symmetry_space_group_name_H-M "C 2/M"
_symmetry_group_IT_number 12
_symmetry_cell_setting 'monoclinic'
loop_
_space_group_symop_operation_xyz
x,y,z
-x,y,-z
-x,-y,-z
x,-y,z
1/2+x,1/2+y,z
1/2-x,1/2+y,-z
1/2-x,1/2-y,-z
1/2+x,1/2-y,z
loop_
_atom_site_type_symbol
_atom_site_label
_atom_site_fract_x
_atom_site_fract_y
_atom_site_fract_z
Si Si1 0.375547 0.649425 0.007421
Si Si2 0.404251 0.915576 0.774545
Si Si3 0.874371 0.950324 0.258117
Si Si4 0.392118 0.823838 0.852235
Si Si5 0.234893 0.949573 0.018768
Si Si6 0.109507 0.275962 0.852050
Si Si7 0.956803 0.184804 0.261747
Si Si8 0.383039 0.623305 0.518388
O O1 0.439507 0.665023 0.147878
O O2 0.500000 0.660842 0.000000
O O3 0.345560 0.595861 0.989752
O O4 0.206746 0.678485 0.886272
O O5 0.275413 0.942205 0.760797
O O6 0.463038 0.872442 0.868611
O O7 0.565250 0.943940 0.845351
O O8 0.294055 0.894355 0.626099
O O9 0.019774 0.915130 0.367006
O O10 0.942711 0.000000 0.312686
O O11 0.802510 0.946607 0.112547
O O12 0.437973 0.790761 0.798522
O O13 0.205958 0.830353 0.777477
O O14 0.500000 0.804450 0.000000
O O15 0.181657 0.000000 0.016170
O O16 0.058967 0.238201 0.749965
O O17 0.250000 0.250000 0.000000
O O18 0.114472 0.165443 0.412656
O O19 0.500000 0.632197 0.500000
#
# Coordination Sequence:
#
# PCOD9181703 Si02
#       8
#     8   8   8   8   8   8   8   8
#     4  11  22  37  58  87 116 148 196 248 294 343
#     4  11  20  32  55  84 116 154 187 231 289 348
#     4  10  19  32  53  85 120 151 185 231 290 341
#     4  12  18  33  59  83 117 147 184 245 293 338
#     4  11  21  36  57  84 116 151 193 246 297 340
#     4  10  22  31  55  86 111 147 192 238 290 341
#     4  11  21  37  56  84 121 152 192 239 290 347
#     4  10  20  35  55  82 120 162 187 228 287 351
#
# _framework density 18.431418000000001
#
# number of rings (size 3 to 8) (size 9 to 14) (size 15 to 20)
#    0.000    1.250    7.500    1.500    3.500    4.000 
#    0.000    0.625    0.000    0.750    0.000    0.875 
#    0.000    0.000    0.000    0.000    0.000    0.000 
#
# Total GULP energy -178326.006012 kJ/mol
# GULP energy per Si atom -5572.687688 kJ/mol
# Density = 1.838947 g / cm^3
# Si number density = 18.431418 Si / 1000 Ang^3
#
#
#
# Elastic Constant Matrix: (Units=GPa)
#
#
# Indices 1 2 3 4 5 6 
#
# 1 67.6623 23.3292 18.9022 0.0000 0.4645 0.0000
# 2 23.3292 108.9578 21.9308 0.0000 -17.6342 0.0000
# 3 18.9022 21.9308 65.3583 0.0000 -11.0918 0.0000
# 4 0.0000 0.0000 0.0000 22.0861 0.0000 -5.4032
# 5 0.4645 -17.6342 -11.0918 0.0000 7.8597 0.0000
# 6 0.0000 0.0000 0.0000 -5.4032 0.0000 24.9908
#
#
#
# Elastic Compliance Matrix: (Units=1/GPa)
#
#
# Indices 1 2 3 4 5 6 
#
# 1 0.019794 -0.007302 -0.008223 0.000000 -0.029156 0.000000
# 2 -0.007302 0.017141 0.003892 0.000000 0.044381 0.000000
# 3 -0.008223 0.003892 0.023585 0.000000 0.042502 0.000000
# 4 0.000000 0.000000 0.000000 0.047806 0.000000 0.010336
# 5 -0.029156 0.044381 0.042502 0.000000 0.288509 0.000000
# 6 0.000000 0.000000 0.000000 0.010336 0.000000 0.042249
#
#
# Mechanical properties :
#
#
# Convention : Reuss Voigt Hill
#
# Bulk Modulus (GPa) = 26.84174 41.14475 33.99324
# Shear Modulus (GPa) = 10.53147 22.84173 16.68660
#
# Velocity S-wave (km/s) = 2.39296 3.52416 3.01214
# Velocity P-wave (km/s) = 4.71484 6.23949 5.52996
#
# Compressibility (1/GPa) = 0.03725542
#
# Stress axis : x y z
#
# Youngs Moduli (GPa) = 50.52006 58.34042 42.39937
#
# Poissons Ratio (x) = 0.42600 0.34863
# Poissons Ratio (y) = 0.36889 -0.16502
# Poissons Ratio (z) = 0.41540 -0.22707
#
# Static dielectric constant tensor:
#      x y z
#    x 1.676310 0.000000 0.007680 
#    y 0.000000 1.685680 0.000000 
#    z 0.007680 0.000000 1.656760 
# 
# From -- ./inp_files/209867.got.cif
#   From: 2010.05.17/outbox.cif.g08.bks.cpg/sg12_105_cif.got.tgz:209867.got - 2010.06.03 13:09:07.
