data_PCOD9181330
_publ_section_title
;
Structure prediction by ZEFSAII (Michael W. Deem and Ramdas Pophale) SiO2 
 PCOD9181330
Probable space group: C 2/M
;
_chemical_formula_sum "Si O2"
_cell_formula_units_Z 44
_cell_length_a 17.329339
_cell_length_b 16.385700
_cell_length_c 14.723943
_cell_angle_alpha 90.000000
_cell_angle_beta 154.593157
_cell_angle_gamma 90.000000
_cell_volume 1793.791507
_symmetry_space_group_name_H-M "C 2/M"
_symmetry_group_IT_number 12
_symmetry_cell_setting 'monoclinic'
loop_
_space_group_symop_operation_xyz
x,y,z
-x,y,-z
-x,-y,-z
x,-y,z
1/2+x,1/2+y,z
1/2-x,1/2+y,-z
1/2-x,1/2-y,-z
1/2+x,1/2-y,z
loop_
_atom_site_type_symbol
_atom_site_label
_atom_site_fract_x
_atom_site_fract_y
_atom_site_fract_z
Si Si1 0.500000 0.696505 0.500000
Si Si2 0.774196 0.093089 0.838184
Si Si3 0.679286 0.901654 0.374198
Si Si4 0.411661 0.843673 0.525084
Si Si5 0.418412 0.402142 0.172676
Si Si6 0.320275 0.902617 0.911103
O O1 0.487155 0.757182 0.572394
O O2 0.320894 0.643405 0.301513
O O3 0.751383 0.137192 0.717800
O O4 0.574913 0.095607 0.672027
O O5 0.826043 0.000000 0.875307
O O6 0.894080 0.132334 0.045425
O O7 0.637573 0.855646 0.423791
O O8 0.888134 0.885952 0.578362
O O9 0.659286 0.000000 0.368235
O O10 0.530028 0.880454 0.140360
O O11 0.409995 0.500000 0.151153
O O12 0.258557 0.383601 0.071742
O O13 0.305877 0.000000 0.878901
#
# Coordination Sequence:
#
# PCOD9181330 Si02
#       6
#     4   8   8   8   8   8
#     4  10  23  38  57  78 110 152 186 220 279 326
#     4   9  15  28  51  80 113 146 179 217 266 322
#     4  10  19  34  60  88 110 140 182 226 275 322
#     4  10  19  32  52  81 114 151 176 218 267 332
#     4   9  18  32  56  88 110 136 183 232 272 318
#     4  10  20  39  63  80 104 141 187 238 275 315
#
# _framework density 24.529050000000002
#
# number of rings (size 3 to 8) (size 9 to 14) (size 15 to 20)
#    0.000    2.545    1.818    2.455    0.000    1.455 
#    0.000    4.545    8.000    4.364    0.000    0.000 
#    0.000    0.000    0.000    0.000    0.000    0.000 
#
# Total GULP energy -122976.247892 kJ/mol
# GULP energy per Si atom -5589.829450 kJ/mol
# Density = 2.447322 g / cm^3
# Si number density = 24.529050 Si / 1000 Ang^3
#
#
#
# Elastic Constant Matrix: (Units=GPa)
#
#
# Indices 1 2 3 4 5 6 
#
# 1 55.7095 21.5571 26.3855 0.0006 -2.8673 0.0002
# 2 21.5571 63.3431 37.5896 0.0006 -8.5266 0.0002
# 3 26.3855 37.5896 176.7087 0.0015 -14.1615 0.0005
# 4 0.0006 0.0006 0.0015 -14.4423 0.0006 -25.7399
# 5 -2.8673 -8.5266 -14.1615 0.0006 38.1890 0.0002
# 6 0.0002 0.0002 0.0005 -25.7399 0.0002 20.1074
#
#
#
# Elastic Compliance Matrix: (Units=1/GPa)
#
#
# Indices 1 2 3 4 5 6 
#
# 1 0.021206 -0.006157 -0.001895 0.000000 -0.000486 0.000000
# 2 -0.006157 0.020128 -0.003132 0.000000 0.002870 0.000000
# 3 -0.001895 -0.003132 0.006741 0.000000 0.001658 0.000000
# 4 0.000000 0.000000 0.000000 -0.021100 0.000001 -0.027011
# 5 -0.000486 0.002870 0.001658 0.000001 0.027405 0.000000
# 6 0.000000 0.000000 0.000000 -0.027011 0.000000 0.015156
#
#
# Mechanical properties :
#
#
# Convention : Reuss Voigt Hill
#
# Bulk Modulus (GPa) = 38.90357 51.86953 45.38655
# Shear Modulus (GPa) = 49.76493 22.78609 36.27551
#
# Velocity S-wave (km/s) = 4.50912 3.05116 3.84979
# Velocity P-wave (km/s) = 6.55776 5.79697 6.18907
#
# Compressibility (1/GPa) = 0.02570458
#
# Stress axis : x y z
#
# Youngs Moduli (GPa) = 47.15729 49.68315 148.34116
#
# Poissons Ratio (x) = 0.30591 0.28118
# Poissons Ratio (y) = 0.29036 0.46463
# Poissons Ratio (z) = 0.08939 0.15562
#
# Static dielectric constant tensor:
#      x y z
#    x 1.975780 0.000000 -0.034470 
#    y 0.000000 1.902330 0.000000 
#    z -0.034470 0.000000 1.970620 
# 
# From -- ./inp_files/285284.got.cif
#   From: 2010.05.17/outbox.cif.g08.bks.cpg/sg12_143_cif.got.tgz:285284.got - 2010.06.03 13:09:07.
