data_PCOD9181689
_publ_section_title
;
Structure prediction by ZEFSAII (Michael W. Deem and Ramdas Pophale) SiO2 
 PCOD9181689
Probable space group: C 2/M
;
_chemical_formula_sum "Si O2"
_cell_formula_units_Z 64
_cell_length_a 22.061702
_cell_length_b 15.540854
_cell_length_c 17.147728
_cell_angle_alpha 90.000000
_cell_angle_beta 145.935802
_cell_angle_gamma 90.000000
_cell_volume 3293.083125
_symmetry_space_group_name_H-M "C 2/M"
_symmetry_group_IT_number 12
_symmetry_cell_setting 'monoclinic'
loop_
_space_group_symop_operation_xyz
x,y,z
-x,y,-z
-x,-y,-z
x,-y,z
1/2+x,1/2+y,z
1/2-x,1/2+y,-z
1/2-x,1/2-y,-z
1/2+x,1/2-y,z
loop_
_atom_site_type_symbol
_atom_site_label
_atom_site_fract_x
_atom_site_fract_y
_atom_site_fract_z
Si Si1 0.825655 0.094731 0.919612
Si Si2 0.121988 0.252720 0.125061
Si Si3 0.757149 0.716259 0.597356
Si Si4 0.439622 0.901952 0.747925
Si Si5 0.186928 0.839994 0.919725
Si Si6 0.079405 0.406980 0.656565
Si Si7 0.325345 0.095869 0.922453
Si Si8 0.982235 0.739021 0.658790
O O1 0.885176 0.171111 0.939553
O O2 0.701979 0.099604 0.758725
O O3 0.870495 0.000000 0.952026
O O4 0.815125 0.110214 0.000857
O O5 0.173686 0.231162 0.264236
O O6 0.191029 0.327221 0.156189
O O7 0.000000 0.286108 0.000000
O O8 0.750000 0.750000 0.500000
O O9 0.827859 0.628451 0.669697
O O10 0.632140 0.721642 0.490048
O O11 0.459980 0.827983 0.705552
O O12 0.427668 0.000000 0.705944
O O13 0.549060 0.900540 0.915819
O O14 0.250340 0.887774 0.918255
O O15 0.064610 0.814082 0.769223
O O16 0.250000 0.750000 0.000000
O O17 0.072205 0.500000 0.692601
O O18 0.000000 0.411723 0.500000
O O19 0.044796 0.323081 0.666094
O O20 0.305227 0.000000 0.869813
#
# Coordination Sequence:
#
# PCOD9181689 Si02
#       8
#     8   8   8   8   8   8   8   8
#     4  11  23  39  61  91 128 166 211 262 314 376
#     4  12  23  41  66  91 127 165 216 266 308 373
#     4  10  24  40  59  88 122 167 208 254 315 376
#     4  10  19  36  59  87 117 154 206 261 305 361
#     4  12  20  37  65  94 126 164 206 258 318 373
#     4  10  19  32  53  84 116 149 197 259 316 365
#     4  11  22  38  66  99 126 159 209 268 318 367
#     4  11  20  35  59  84 119 160 201 247 315 378
#
# _framework density 19.434674999999999
#
# number of rings (size 3 to 8) (size 9 to 14) (size 15 to 20)
#    0.000    1.125    5.000    1.500    1.750    3.000 
#    0.000    3.750    0.000    0.750    0.000    0.000 
#    0.000    0.000    0.000    0.000    0.000    0.000 
#
# Total GULP energy -178396.823854 kJ/mol
# GULP energy per Si atom -5574.900745 kJ/mol
# Density = 1.939044 g / cm^3
# Si number density = 19.434675 Si / 1000 Ang^3
#
#
#
# Elastic Constant Matrix: (Units=GPa)
#
#
# Indices 1 2 3 4 5 6 
#
# 1 50.9187 26.3205 1.9697 0.0000 -7.9938 0.0000
# 2 26.3205 93.5699 1.1999 0.0000 -3.2433 0.0000
# 3 1.9697 1.1999 75.9362 0.0000 6.7790 0.0000
# 4 0.0000 0.0000 0.0000 14.0836 0.0000 30.8318
# 5 -7.9938 -3.2433 6.7790 0.0000 30.9973 0.0000
# 6 0.0000 0.0000 0.0000 30.8318 0.0000 -21.3685
#
#
#
# Elastic Compliance Matrix: (Units=1/GPa)
#
#
# Indices 1 2 3 4 5 6 
#
# 1 0.023950 -0.006525 -0.001029 0.000000 0.005719 0.000000
# 2 -0.006525 0.012510 0.000005 0.000000 -0.000375 0.000000
# 3 -0.001029 0.000005 0.013482 0.000000 -0.003213 0.000000
# 4 0.000000 0.000000 0.000000 0.017074 0.000000 0.024635
# 5 0.005719 -0.000375 -0.003213 0.000000 0.034399 0.000000
# 6 0.000000 0.000000 0.000000 0.024635 0.000000 -0.011253
#
#
# Mechanical properties :
#
#
# Convention : Reuss Voigt Hill
#
# Bulk Modulus (GPa) = 28.69950 31.04501 29.87226
# Shear Modulus (GPa) = 42.78099 17.47147 30.12623
#
# Velocity S-wave (km/s) = 4.69686 3.00156 3.94144
# Velocity P-wave (km/s) = 6.64930 5.29350 6.00976
#
# Compressibility (1/GPa) = 0.03484381
#
# Stress axis : x y z
#
# Youngs Moduli (GPa) = 41.75405 79.93802 74.17068
#
# Poissons Ratio (x) = 0.52163 0.07629
# Poissons Ratio (y) = 0.27246 -0.00038
# Poissons Ratio (z) = 0.04295 -0.00041
#
# Static dielectric constant tensor:
#      x y z
#    x 1.843980 0.000000 -0.051380 
#    y 0.000000 1.730900 0.000000 
#    z -0.051380 0.000000 1.689460 
# 
# From -- ./inp_files/290135.got.cif
#   From: 2010.05.17/outbox.cif.g08.bks.cpg/sg12_146_cif.got.tgz:290135.got - 2010.06.03 13:09:07.
