data_PCOD9181329
_publ_section_title
;
Structure prediction by ZEFSAII (Michael W. Deem and Ramdas Pophale) SiO2 
 PCOD9181329
Probable space group: C 2/M
;
_chemical_formula_sum "Si O2"
_cell_formula_units_Z 56
_cell_length_a 14.367322
_cell_length_b 24.084605
_cell_length_c 7.404142
_cell_angle_alpha 90.000000
_cell_angle_beta 78.228194
_cell_angle_gamma 90.000000
_cell_volume 2508.179093
_symmetry_space_group_name_H-M "C 2/M"
_symmetry_group_IT_number 12
_symmetry_cell_setting 'monoclinic'
loop_
_space_group_symop_operation_xyz
x,y,z
-x,y,-z
-x,-y,-z
x,-y,z
1/2+x,1/2+y,z
1/2-x,1/2+y,-z
1/2-x,1/2-y,-z
1/2+x,1/2-y,z
loop_
_atom_site_type_symbol
_atom_site_label
_atom_site_fract_x
_atom_site_fract_y
_atom_site_fract_z
Si Si1 0.233874 0.563694 0.640168
Si Si2 0.061083 0.938377 0.293653
Si Si3 0.922584 0.857489 0.140815
Si Si4 0.903917 0.661362 0.292876
Si Si5 0.715923 0.262661 0.714992
Si Si6 0.746897 0.435173 0.803629
Si Si7 0.380139 0.165561 0.742426
O O1 0.213352 0.500000 0.693845
O O2 0.332655 0.579762 0.696096
O O3 0.146808 0.602952 0.725598
O O4 0.254302 0.565617 0.416129
O O5 0.000000 0.944388 0.500000
O O6 0.998721 0.894386 0.214363
O O7 0.064375 0.000000 0.207573
O O8 0.855101 0.814825 0.268285
O O9 0.848387 0.903563 0.093852
O O10 0.000000 0.821528 0.000000
O O11 0.842863 0.707939 0.213851
O O12 0.892557 0.665969 0.517457
O O13 0.015541 0.668542 0.215688
O O14 0.750000 0.250000 0.500000
O O15 0.804760 0.284158 0.798552
O O16 0.754295 0.500000 0.855050
O O17 0.832008 0.392979 0.817080
#
# Coordination Sequence:
#
# PCOD9181329 Si02
#       7
#     8   8   8   8   8   8   8
#     4   9  17  29  49  79 110 137 184 234 271 327
#     4  10  19  32  52  81 114 150 189 228 276 340
#     4  11  22  35  53  83 115 145 188 237 285 336
#     4   9  16  29  48  72 103 140 179 231 282 325
#     4   9  19  34  51  76 104 145 188 234 279 341
#     4   9  16  29  48  73 108 147 177 220 278 331
#     4   8  16  28  44  74 105 131 183 234 269 325
#
# _framework density 22.326955999999999
#
# number of rings (size 3 to 8) (size 9 to 14) (size 15 to 20)
#    0.000    2.714    1.429    1.286    0.000    2.857 
#    2.571    2.857    0.000    7.714    0.000    0.000 
#    0.000   10.857    0.000    0.000    0.000    0.000 
#
# Total GULP energy -156155.307586 kJ/mol
# GULP energy per Si atom -5576.975271 kJ/mol
# Density = 2.227614 g / cm^3
# Si number density = 22.326956 Si / 1000 Ang^3
#
#
#
# Elastic Constant Matrix: (Units=GPa)
#
#
# Indices 1 2 3 4 5 6 
#
# 1 195.7301 84.5391 35.3241 0.0000 -32.8760 0.0000
# 2 84.5391 96.7817 22.2658 0.0000 -30.5883 0.0000
# 3 35.3241 22.2658 49.6021 0.0000 -8.3791 0.0000
# 4 0.0000 0.0000 0.0000 8.6273 0.0000 -9.2361
# 5 -32.8760 -30.5883 -8.3791 0.0000 27.9047 0.0000
# 6 0.0000 0.0000 0.0000 -9.2361 0.0000 25.5637
#
#
#
# Elastic Compliance Matrix: (Units=1/GPa)
#
#
# Indices 1 2 3 4 5 6 
#
# 1 0.008738 -0.006072 -0.003036 0.000000 0.002726 0.000000
# 2 -0.006072 0.020993 -0.002550 0.000000 0.015093 0.000000
# 3 -0.003036 -0.002550 0.023587 0.000000 0.000711 0.000000
# 4 0.000000 0.000000 0.000000 0.189023 0.000000 0.068293
# 5 0.002726 0.015093 0.000711 0.000000 0.055806 0.000000
# 6 0.000000 0.000000 0.000000 0.068293 0.000000 0.063792
#
#
# Mechanical properties :
#
#
# Convention : Reuss Voigt Hill
#
# Bulk Modulus (GPa) = 33.33123 69.59686 51.46405
# Shear Modulus (GPa) = 12.65001 25.75146 19.20073
#
# Velocity S-wave (km/s) = 2.38288 3.39983 2.93572
# Velocity P-wave (km/s) = 4.74678 6.83016 5.88146
#
# Compressibility (1/GPa) = 0.03000189
#
# Stress axis : x y z
#
# Youngs Moduli (GPa) = 114.44732 47.63427 42.39575
#
# Poissons Ratio (x) = 0.28924 0.12872
# Poissons Ratio (y) = 0.69494 0.10810
# Poissons Ratio (z) = 0.34749 0.12146
#
# Static dielectric constant tensor:
#      x y z
#    x 1.799060 0.000000 -0.120690 
#    y 0.000000 1.857180 0.000000 
#    z -0.120690 0.000000 2.421840 
# 
# From -- ./inp_files/65287.got.cif
#   From: 2010.05.17/outbox.cif.g08.bks.cpg/sg12_33_cif.got.tgz:65287.got - 2010.06.03 13:09:07.
