data_PCOD9181609
_publ_section_title
;
Structure prediction by ZEFSAII (Michael W. Deem and Ramdas Pophale) SiO2 
 PCOD9181609
Probable space group: C 2/M
;
_chemical_formula_sum "Si O2"
_cell_formula_units_Z 56
_cell_length_a 18.281957
_cell_length_b 14.007862
_cell_length_c 11.657785
_cell_angle_alpha 90.000000
_cell_angle_beta 115.865665
_cell_angle_gamma 90.000000
_cell_volume 2686.370560
_symmetry_space_group_name_H-M "C 2/M"
_symmetry_group_IT_number 12
_symmetry_cell_setting 'monoclinic'
loop_
_space_group_symop_operation_xyz
x,y,z
-x,y,-z
-x,-y,-z
x,-y,z
1/2+x,1/2+y,z
1/2-x,1/2+y,-z
1/2-x,1/2-y,-z
1/2+x,1/2-y,z
loop_
_atom_site_type_symbol
_atom_site_label
_atom_site_fract_x
_atom_site_fract_y
_atom_site_fract_z
Si Si1 0.447386 0.896083 0.580482
Si Si2 0.169241 0.736932 0.624753
Si Si3 0.793260 0.612116 0.731490
Si Si4 0.693582 0.611218 0.155977
Si Si5 0.442928 0.247128 0.859049
Si Si6 0.709082 0.109558 0.999830
Si Si7 0.427946 0.224529 0.216234
O O1 0.500000 0.901203 0.500000
O O2 0.380978 0.815125 0.509188
O O3 0.516197 0.867447 0.717121
O O4 0.410907 0.000000 0.576947
O O5 0.222263 0.827344 0.622537
O O6 0.232266 0.661055 0.724167
O O7 0.107976 0.761789 0.688343
O O8 0.794870 0.500000 0.707267
O O9 0.879372 0.665601 0.774996
O O10 0.773811 0.623658 0.854841
O O11 0.688878 0.500000 0.181894
O O12 0.613191 0.668658 0.131713
O O13 0.715957 0.618575 0.036380
O O14 0.505933 0.285684 0.806922
O O15 0.500000 0.207777 0.000000
O O16 0.644001 0.186074 0.912181
O O17 0.678849 0.000000 0.965607
#
# Coordination Sequence:
#
# PCOD9181609 Si02
#       7
#     8   8   8   8   8   8   8
#     4   9  17  32  56  84 107 130 174 228 269 304
#     4   9  19  34  58  77 102 136 181 225 261 302
#     4  10  21  35  51  75 109 145 180 213 257 320
#     4   9  19  34  52  74 104 142 183 219 256 305
#     4  11  22  33  50  77 113 144 167 211 272 324
#     4   9  17  31  53  77 101 140 184 219 255 302
#     4  10  19  32  53  81 110 137 169 218 272 311
#
# _framework density 20.845970999999999
#
# number of rings (size 3 to 8) (size 9 to 14) (size 15 to 20)
#    0.000    2.429    1.429    0.857    2.000    6.857 
#    0.000    3.571    0.000    6.429    0.000    0.000 
#    0.000    0.000    0.000    0.000    0.000    0.000 
#
# Total GULP energy -156282.037376 kJ/mol
# GULP energy per Si atom -5581.501335 kJ/mol
# Density = 2.079852 g / cm^3
# Si number density = 20.845971 Si / 1000 Ang^3
#
#
#
# Elastic Constant Matrix: (Units=GPa)
#
#
# Indices 1 2 3 4 5 6 
#
# 1 119.1952 45.8393 7.3144 0.0000 7.8348 0.0000
# 2 45.8393 109.5554 21.3960 0.0000 17.9508 0.0000
# 3 7.3144 21.3960 42.2669 0.0000 13.5378 0.0000
# 4 0.0000 0.0000 0.0000 15.3627 0.0000 4.9272
# 5 7.8348 17.9508 13.5378 0.0000 23.9329 0.0000
# 6 0.0000 0.0000 0.0000 4.9272 0.0000 10.2154
#
#
#
# Elastic Compliance Matrix: (Units=1/GPa)
#
#
# Indices 1 2 3 4 5 6 
#
# 1 0.010009 -0.004225 0.000539 0.000000 -0.000412 0.000000
# 2 -0.004225 0.012602 -0.003741 0.000000 -0.005952 0.000000
# 3 0.000539 -0.003741 0.030064 0.000000 -0.014376 0.000000
# 4 0.000000 0.000000 0.000000 0.077005 0.000000 -0.037142
# 5 -0.000412 -0.005952 -0.014376 0.000000 0.054515 0.000000
# 6 0.000000 0.000000 0.000000 -0.037142 0.000000 0.115806
#
#
# Mechanical properties :
#
#
# Convention : Reuss Voigt Hill
#
# Bulk Modulus (GPa) = 26.44183 46.67965 36.56074
# Shear Modulus (GPa) = 15.26892 23.00006 19.13449
#
# Velocity S-wave (km/s) = 2.70934 3.32525 3.03297
# Velocity P-wave (km/s) = 4.74334 6.09789 5.46277
#
# Compressibility (1/GPa) = 0.03781886
#
# Stress axis : x y z
#
# Youngs Moduli (GPa) = 99.91395 79.35395 33.26185
#
# Poissons Ratio (x) = 0.33531 -0.01793
# Poissons Ratio (y) = 0.42218 0.12445
# Poissons Ratio (z) = -0.05385 0.29690
#
# Static dielectric constant tensor:
#      x y z
#    x 1.792230 0.000000 -0.049910 
#    y 0.000000 1.732870 0.000000 
#    z -0.049910 0.000000 1.775890 
# 
# From -- ./inp_files/156706.got.cif
#   From: 2010.05.17/outbox.cif.g08.bks.cpg/sg12_79_cif.got.tgz:156706.got - 2010.06.03 13:09:07.
