data_PCOD9181860
_publ_section_title
;
Structure prediction by ZEFSAII (Michael W. Deem and Ramdas Pophale) SiO2 
 PCOD9181860
Probable space group: C 2/M
;
_chemical_formula_sum "Si O2"
_cell_formula_units_Z 40
_cell_length_a 18.442049
_cell_length_b 14.792342
_cell_length_c 16.409510
_cell_angle_alpha 90.000000
_cell_angle_beta 151.724397
_cell_angle_gamma 90.000000
_cell_volume 2120.592679
_symmetry_space_group_name_H-M "C 2/M"
_symmetry_group_IT_number 12
_symmetry_cell_setting 'monoclinic'
loop_
_space_group_symop_operation_xyz
x,y,z
-x,y,-z
-x,-y,-z
x,-y,z
1/2+x,1/2+y,z
1/2-x,1/2+y,-z
1/2-x,1/2-y,-z
1/2+x,1/2-y,z
loop_
_atom_site_type_symbol
_atom_site_label
_atom_site_fract_x
_atom_site_fract_y
_atom_site_fract_z
Si Si1 0.675706 0.602160 0.775273
Si Si2 0.170337 0.899840 0.573803
Si Si3 0.321368 0.106794 0.343187
Si Si4 0.813997 0.227815 0.651953
Si Si5 0.606756 0.733628 0.026069
O O1 0.714166 0.500000 0.841887
O O2 0.500549 0.623999 0.626698
O O3 0.666607 0.597635 0.667836
O O4 0.797013 0.680768 0.910695
O O5 0.291178 0.825253 0.670843
O O6 0.208163 0.000000 0.581124
O O7 0.500000 0.118805 0.500000
O O8 0.281865 0.155816 0.389642
O O9 0.286297 0.000000 0.311323
O O10 0.221867 0.158196 0.175772
O O11 0.750000 0.250000 0.500000
O O12 0.990571 0.201582 0.840677
O O13 0.500000 0.754642 0.000000
#
# Coordination Sequence:
#
# PCOD9181860 Si02
#       5
#     8   8   8   8   8
#     4   9  16  29  53  80 103 132 174 217 253 313
#     4   9  17  31  52  76 106 140 169 206 262 322
#     4  10  21  40  64  82 104 148 201 240 269 324
#     4  11  23  36  53  82 117 145 175 229 292 332
#     4  10  19  32  54  82 108 142 184 228 274 324
#
# _framework density 18.862651
#
# number of rings (size 3 to 8) (size 9 to 14) (size 15 to 20)
#    0.000    2.200    4.000    2.400    0.000    5.600 
#    0.000    4.000    0.000    4.800    0.000    0.000 
#    0.000    0.000    0.000    0.000    0.000    0.000 
#
# Total GULP energy -111374.945349 kJ/mol
# GULP energy per Si atom -5568.747267 kJ/mol
# Density = 1.881972 g / cm^3
# Si number density = 18.862651 Si / 1000 Ang^3
#
#
#
# Elastic Constant Matrix: (Units=GPa)
#
#
# Indices 1 2 3 4 5 6 
#
# 1 15.7885 28.3773 39.6332 0.0000 -3.1789 0.0000
# 2 28.3773 105.2772 59.9846 0.0002 13.2447 0.0002
# 3 39.6332 59.9846 126.1305 -0.0001 -4.4879 0.0000
# 4 0.0000 0.0002 -0.0001 -211.8691 0.0002 -141.0348
# 5 -3.1789 13.2447 -4.4879 0.0002 24.8879 0.0001
# 6 0.0000 0.0002 0.0000 -141.0348 0.0001 -90.3120
#
#
#
# Elastic Compliance Matrix: (Units=1/GPa)
#
#
# Indices 1 2 3 4 5 6 
#
# 1 0.654940 -0.103611 -0.152564 0.000000 0.111283 0.000000
# 2 -0.103611 0.031275 0.016727 0.000000 -0.026862 0.000000
# 3 -0.152564 0.016727 0.047205 0.000000 -0.019876 0.000000
# 4 0.000000 0.000000 0.000000 0.119380 0.000000 -0.186429
# 5 0.111283 -0.026862 -0.019876 0.000000 0.065105 0.000000
# 6 0.000000 0.000000 0.000000 -0.186429 0.000000 0.280062
#
#
# Mechanical properties :
#
#
# Convention : Reuss Voigt Hill
#
# Bulk Modulus (GPa) = 3.92886 55.90960 29.91923
# Shear Modulus (GPa) = 2.83816 -47.51188 -22.33686
#
# Velocity S-wave (km/s) = 1.22797 -5.02424 -3.44493
# Velocity P-wave (km/s) = 2.02434 1.98812 0.26955
#
# Compressibility (1/GPa) = 0.25452666
#
# Stress axis : x y z
#
# Youngs Moduli (GPa) = 1.52686 31.97413 21.18419
#
# Poissons Ratio (x) = 3.31287 3.23194
# Poissons Ratio (y) = 0.15820 -0.35436
# Poissons Ratio (z) = 0.23294 -0.53485
#
# Static dielectric constant tensor:
#      x y z
#    x 1.691620 0.000000 -0.018650 
#    y 0.000000 1.661490 0.000000 
#    z -0.018650 0.000000 1.721540 
# 
# From -- ./inp_files/73334.got.cif
#   From: 2010.05.17/outbox.cif.g08.bks.cpg/sg12_37_cif.got.tgz:73334.got - 2010.06.03 13:09:07.
