data_PCOD9181284
_publ_section_title
;
Structure prediction by ZEFSAII (Michael W. Deem and Ramdas Pophale) SiO2 
 PCOD9181284
Probable space group: C 2/M
;
_chemical_formula_sum "Si O2"
_cell_formula_units_Z 40
_cell_length_a 31.705113
_cell_length_b 7.471569
_cell_length_c 25.881030
_cell_angle_alpha 90.000000
_cell_angle_beta 17.680206
_cell_angle_gamma 90.000000
_cell_volume 1861.971717
_symmetry_space_group_name_H-M "C 2/M"
_symmetry_group_IT_number 12
_symmetry_cell_setting 'monoclinic'
loop_
_space_group_symop_operation_xyz
x,y,z
-x,y,-z
-x,-y,-z
x,-y,z
1/2+x,1/2+y,z
1/2-x,1/2+y,-z
1/2-x,1/2-y,-z
1/2+x,1/2-y,z
loop_
_atom_site_type_symbol
_atom_site_label
_atom_site_fract_x
_atom_site_fract_y
_atom_site_fract_z
Si Si1 0.458982 0.218654 0.104951
Si Si2 0.852030 0.789623 0.522358
Si Si3 0.363425 0.218792 0.005381
Si Si4 0.952991 0.780772 0.612615
Si Si5 0.901993 0.287611 0.347504
O O1 0.304157 0.283120 0.297654
O O2 0.568173 0.274876 0.020436
O O3 0.459202 0.000000 0.106136
O O4 0.500000 0.273866 0.000000
O O5 0.912250 0.773609 0.394631
O O6 0.944008 0.718338 0.462127
O O7 0.837681 0.000000 0.550375
O O8 0.470449 0.280723 0.836267
O O9 0.362559 0.000000 0.004825
O O10 0.203722 0.275589 0.190633
O O11 0.000000 0.726243 0.500000
O O12 0.953578 0.000000 0.611618
O O13 0.913523 0.500000 0.334510
O O14 0.750000 0.250000 0.500000
#
# Coordination Sequence:
#
# PCOD9181284 Si02
#       5
#     8   8   8   8   8
#     4   9  15  25  45  73 101 130 168 212 256 299
#     4  10  19  32  52  80 107 135 173 216 260 308
#     4   9  17  29  46  72 104 135 168 210 259 306
#     4   9  17  30  50  79 110 135 167 216 264 306
#     4  11  21  35  54  76 106 140 176 217 262 308
#
# _framework density 21.482603000000001
#
# number of rings (size 3 to 8) (size 9 to 14) (size 15 to 20)
#    0.000    2.400    2.000    1.800    0.000    5.600 
#    0.000    0.000    0.000    2.400    0.000    0.000 
#    0.000    0.000    0.000    0.000    0.000    0.000 
#
# Total GULP energy -111679.498383 kJ/mol
# GULP energy per Si atom -5583.974919 kJ/mol
# Density = 2.143371 g / cm^3
# Si number density = 21.482603 Si / 1000 Ang^3
#
#
#
# Elastic Constant Matrix: (Units=GPa)
#
#
# Indices 1 2 3 4 5 6 
#
# 1 106.5881 -6.9591 -1.3588 -0.0894 -3.5552 0.2000
# 2 -6.9591 56.6404 -3.6768 0.0074 -9.5160 -0.0797
# 3 -1.3588 -3.6768 61.3126 -0.0719 -0.1916 0.1331
# 4 -0.0894 0.0074 -0.0719 30.0577 -0.0070 -31.1905
# 5 -3.5552 -9.5160 -0.1916 -0.0070 41.4101 0.0273
# 6 0.2000 -0.0797 0.1331 -31.1905 0.0273 81.4361
#
#
#
# Elastic Compliance Matrix: (Units=1/GPa)
#
#
# Indices 1 2 3 4 5 6 
#
# 1 0.009514 0.001379 0.000297 0.000009 0.001135 -0.000020
# 2 0.001379 0.018641 0.001162 0.000025 0.004407 0.000021
# 3 0.000297 0.001162 0.016387 0.000021 0.000368 -0.000019
# 4 0.000009 0.000025 0.000021 0.055213 0.000002 0.021147
# 5 0.001135 0.004407 0.000368 0.000002 0.025261 -0.000007
# 6 -0.000020 0.000021 -0.000019 0.021147 -0.000007 0.020379
#
#
# Mechanical properties :
#
#
# Convention : Reuss Voigt Hill
#
# Bulk Modulus (GPa) = 19.91327 22.28353 21.09840
# Shear Modulus (GPa) = 31.95751 46.34983 39.15367
#
# Velocity S-wave (km/s) = 3.86113 4.64998 4.27380
# Velocity P-wave (km/s) = 5.40068 6.26300 5.84776
#
# Compressibility (1/GPa) = 0.05021778
#
# Stress axis : x y z
#
# Youngs Moduli (GPa) = 105.11243 53.64639 61.02269
#
# Poissons Ratio (x) = -0.07397 -0.01813
# Poissons Ratio (y) = -0.14493 -0.07092
# Poissons Ratio (z) = -0.03123 -0.06235
#
# Static dielectric constant tensor:
#      x y z
#    x 1.710580 0.000000 -0.002050 
#    y 0.000000 1.839890 0.000020 
#    z -0.002050 0.000020 1.760380 
# 
# From -- ./inp_files/352955.got.cif
#   From: 2010.05.17/outbox.cif.g08.bks.cpg/sg12_177_cif.got.tgz:352955.got - 2010.06.03 13:09:07.
