data_PCOD9181123
_publ_section_title
;
Structure prediction by ZEFSAII (Michael W. Deem and Ramdas Pophale) SiO2 
 PCOD9181123
Probable space group: C 2/M
;
_chemical_formula_sum "Si O2"
_cell_formula_units_Z 50
_cell_length_a 13.878961
_cell_length_b 19.275352
_cell_length_c 7.787630
_cell_angle_alpha 90.000000
_cell_angle_beta 86.560196
_cell_angle_gamma 90.000000
_cell_volume 2079.607840
_symmetry_space_group_name_H-M "C 2/M"
_symmetry_group_IT_number 12
_symmetry_cell_setting 'monoclinic'
loop_
_space_group_symop_operation_xyz
x,y,z
-x,y,-z
-x,-y,-z
x,-y,z
1/2+x,1/2+y,z
1/2-x,1/2+y,-z
1/2-x,1/2-y,-z
1/2+x,1/2-y,z
loop_
_atom_site_type_symbol
_atom_site_label
_atom_site_fract_x
_atom_site_fract_y
_atom_site_fract_z
Si Si1 0.000000 0.500000 0.000000
Si Si2 0.148859 0.125381 0.833680
Si Si3 0.881433 0.724050 0.657877
Si Si4 0.467719 0.500000 0.247491
Si Si5 0.838693 0.379100 0.979292
Si Si6 0.740492 0.353391 0.442674
Si Si7 0.430827 0.774846 0.165115
Si Si8 0.167901 0.000000 0.390928
O O1 0.918022 0.439234 0.966048
O O2 0.230895 0.096323 0.951274
O O3 0.186820 0.135910 0.634583
O O4 0.116000 0.202528 0.882754
O O5 0.063444 0.070775 0.837908
O O6 0.848765 0.676568 0.822096
O O7 0.840812 0.681225 0.498137
O O8 0.825807 0.797057 0.648988
O O9 0.995168 0.734013 0.684913
O O10 0.580973 0.500000 0.266722
O O11 0.397619 0.500000 0.426157
O O12 0.852272 0.336245 0.154991
O O13 0.733871 0.431522 0.373145
O O14 0.500000 0.794944 0.000000
#
# Coordination Sequence:
#
# PCOD9181123 Si02
#       8
#     2   8   8   4   8   8   8   4
#     4  12  18  36  58  82 112 140 180 232 276 312
#     4  10  19  32  52  76 109 140 180 226 272 329
#     4   9  17  32  47  74 110 132 179 223 268 329
#     4   9  17  28  44  73  99 130 172 217 266 313
#     4  10  20  33  53  80 105 141 178 226 275 321
#     4   9  18  30  50  76 104 139 178 227 274 322
#     4  10  19  34  49  75 107 140 181 225 266 326
#     4   9  16  28  44  71 104 132 170 223 272 312
#
# _framework density 24.042994
#
# number of rings (size 3 to 8) (size 9 to 14) (size 15 to 20)
#    0.000    2.400    2.400    1.920    0.000    3.840 
#    0.000    0.400    0.000    2.880    0.000   16.800 
#    0.000    0.000    0.000    0.000    0.000    0.000 
#
# Total GULP energy -139290.191766 kJ/mol
# GULP energy per Si atom -5571.607671 kJ/mol
# Density = 2.398827 g / cm^3
# Si number density = 24.042994 Si / 1000 Ang^3
#
#
#
# Elastic Constant Matrix: (Units=GPa)
#
#
# Indices 1 2 3 4 5 6 
#
# 1 98.4477 59.4057 35.3300 0.0000 49.4227 0.0000
# 2 59.4057 222.8649 58.7039 0.0000 50.0061 0.0000
# 3 35.3300 58.7039 123.0151 0.0000 38.7331 0.0000
# 4 0.0000 0.0000 0.0000 54.2838 0.0000 26.9740
# 5 49.4227 50.0061 38.7331 0.0000 48.7391 0.0000
# 6 0.0000 0.0000 0.0000 26.9740 0.0000 36.6203
#
#
#
# Elastic Compliance Matrix: (Units=1/GPa)
#
#
# Indices 1 2 3 4 5 6 
#
# 1 0.020998 -0.001191 0.001143 0.000000 -0.020979 0.000000
# 2 -0.001191 0.006032 -0.001291 0.000000 -0.003955 0.000000
# 3 0.001143 -0.001291 0.011156 0.000000 -0.008701 0.000000
# 4 0.000000 0.000000 0.000000 0.029057 0.000000 -0.021403
# 5 -0.020979 -0.003955 -0.008701 0.000000 0.052763 0.000000
# 6 0.000000 0.000000 0.000000 -0.021403 0.000000 0.043072
#
#
# Mechanical properties :
#
#
# Convention : Reuss Voigt Hill
#
# Bulk Modulus (GPa) = 28.16211 83.46741 55.81476
# Shear Modulus (GPa) = 28.15427 47.32119 37.73773
#
# Velocity S-wave (km/s) = 3.42570 4.44124 3.96611
# Velocity P-wave (km/s) = 5.23315 7.81606 6.65119
#
# Compressibility (1/GPa) = 0.03550870
#
# Stress axis : x y z
#
# Youngs Moduli (GPa) = 47.62352 165.78208 89.63462
#
# Poissons Ratio (x) = 0.19745 -0.10248
# Poissons Ratio (y) = 0.05672 0.11573
# Poissons Ratio (z) = -0.05445 0.21405
#
# Static dielectric constant tensor:
#      x y z
#    x 2.035880 0.000000 -0.051880 
#    y 0.000000 1.901290 0.000000 
#    z -0.051880 0.000000 2.015060 
# 
# From -- ./inp_files/156264.got.cif
#   From: 2010.05.17/outbox.cif.g08.bks.cpg/sg12_79_cif.got.tgz:156264.got - 2010.06.03 13:09:07.
