data_PCOD9181331
_publ_section_title
;
Structure prediction by ZEFSAII (Michael W. Deem and Ramdas Pophale) SiO2 
 PCOD9181331
Probable space group: C 2/M
;
_chemical_formula_sum "Si O2"
_cell_formula_units_Z 56
_cell_length_a 26.657124
_cell_length_b 8.893505
_cell_length_c 13.343411
_cell_angle_alpha 90.000000
_cell_angle_beta 68.304102
_cell_angle_gamma 90.000000
_cell_volume 2939.294932
_symmetry_space_group_name_H-M "C 2/M"
_symmetry_group_IT_number 12
_symmetry_cell_setting 'monoclinic'
loop_
_space_group_symop_operation_xyz
x,y,z
-x,y,-z
-x,-y,-z
x,-y,z
1/2+x,1/2+y,z
1/2-x,1/2+y,-z
1/2-x,1/2-y,-z
1/2+x,1/2-y,z
loop_
_atom_site_type_symbol
_atom_site_label
_atom_site_fract_x
_atom_site_fract_y
_atom_site_fract_z
Si Si1 0.566303 0.320538 0.798469
Si Si2 0.336293 0.680261 0.599602
Si Si3 0.553983 0.819897 0.400651
Si Si4 0.726120 0.820154 0.768526
Si Si5 0.660758 0.821212 0.613867
Si Si6 0.053458 0.180644 0.181621
Si Si7 0.868870 0.180475 0.048784
O O1 0.574795 0.500000 0.778031
O O2 0.600955 0.232355 0.690199
O O3 0.502991 0.291408 0.834092
O O4 0.590966 0.279897 0.888510
O O5 0.339677 0.500000 0.597456
O O6 0.393056 0.751003 0.587601
O O7 0.288311 0.725725 0.710994
O O8 0.322023 0.736241 0.498815
O O9 0.500000 0.773433 0.500000
O O10 0.551770 0.761311 0.288944
O O11 0.557232 0.000000 0.400548
O O12 0.697793 0.784077 0.682558
O O13 0.689307 0.746330 0.880617
O O14 0.723874 0.000000 0.782006
O O15 0.662087 0.000000 0.596832
O O16 0.057479 0.000000 0.193964
O O17 0.103081 0.229634 0.074739
O O18 0.865310 0.000000 0.049424
#
# Coordination Sequence:
#
# PCOD9181331 Si02
#       7
#     8   8   8   8   8   8   8
#     4   9  17  31  53  81 113 146 178 215 262 315
#     4  11  22  37  57  79 105 141 184 223 264 316
#     4  11  25  42  58  79 107 138 176 222 269 317
#     4   9  20  36  54  80 112 143 176 218 265 316
#     4  10  19  32  52  81 115 144 174 216 267 319
#     4  10  20  35  56  81 109 143 182 221 263 313
#     4   9  18  33  55  83 112 142 178 219 262 313
#
# _framework density 19.052188999999998
#
# number of rings (size 3 to 8) (size 9 to 14) (size 15 to 20)
#    0.000    2.143    0.000    3.000    0.000    8.000 
#    0.000    0.714    0.000    4.286    0.000    0.000 
#    0.000    0.000    0.000    0.000    0.000    0.000 
#
# Total GULP energy -156358.574742 kJ/mol
# GULP energy per Si atom -5584.234812 kJ/mol
# Density = 1.900883 g / cm^3
# Si number density = 19.052189 Si / 1000 Ang^3
#
#
#
# Elastic Constant Matrix: (Units=GPa)
#
#
# Indices 1 2 3 4 5 6 
#
# 1 63.0147 30.5374 48.2210 0.0000 -28.5539 0.0000
# 2 30.5374 30.3137 43.7517 0.0000 -11.8200 0.0000
# 3 48.2210 43.7517 159.5449 0.0000 -29.2094 0.0000
# 4 0.0000 0.0000 0.0000 30.4819 0.0000 -4.3416
# 5 -28.5539 -11.8200 -29.2094 0.0000 31.2527 0.0000
# 6 0.0000 0.0000 0.0000 -4.3416 0.0000 23.3784
#
#
#
# Elastic Compliance Matrix: (Units=1/GPa)
#
#
# Indices 1 2 3 4 5 6 
#
# 1 0.046039 -0.037372 0.001745 0.000000 0.029560 0.000000
# 2 -0.037372 0.086657 -0.015345 0.000000 -0.015712 0.000000
# 3 0.001745 -0.015345 0.011072 0.000000 0.006140 0.000000
# 4 0.000000 0.000000 0.000000 0.033698 0.000000 0.006258
# 5 0.029560 -0.015712 0.006140 0.000000 0.058801 0.000000
# 6 0.000000 0.000000 0.000000 0.006258 0.000000 0.043937
#
#
# Mechanical properties :
#
#
# Convention : Reuss Voigt Hill
#
# Bulk Modulus (GPa) = 23.90877 55.32151 39.61514
# Shear Modulus (GPa) = 12.62346 25.71347 19.16847
#
# Velocity S-wave (km/s) = 2.57684 3.67772 3.17535
# Velocity P-wave (km/s) = 4.62923 6.86542 5.85508
#
# Compressibility (1/GPa) = 0.04182565
#
# Stress axis : x y z
#
# Youngs Moduli (GPa) = 21.72073 11.53974 90.31494
#
# Poissons Ratio (x) = 0.43126 -0.15763
# Poissons Ratio (y) = 0.81174 1.38589
# Poissons Ratio (z) = -0.03791 0.17708
#
# Static dielectric constant tensor:
#      x y z
#    x 1.666410 0.000000 -0.006790 
#    y 0.000000 1.635170 0.000000 
#    z -0.006790 0.000000 1.658890 
# 
# From -- ./inp_files/181045.got.cif
#   From: 2010.05.17/outbox.cif.g08.bks.cpg/sg12_91_cif.got.tgz:181045.got - 2010.06.03 13:09:07.
