data_PCOD9181647
_publ_section_title
;
Structure prediction by ZEFSAII (Michael W. Deem and Ramdas Pophale) SiO2 
 PCOD9181647
Probable space group: C 2/M
;
_chemical_formula_sum "Si O2"
_cell_formula_units_Z 40
_cell_length_a 23.814206
_cell_length_b 11.059758
_cell_length_c 10.234018
_cell_angle_alpha 90.000000
_cell_angle_beta 49.644850
_cell_angle_gamma 90.000000
_cell_volume 2054.039344
_symmetry_space_group_name_H-M "C 2/M"
_symmetry_group_IT_number 12
_symmetry_cell_setting 'monoclinic'
loop_
_space_group_symop_operation_xyz
x,y,z
-x,y,-z
-x,-y,-z
x,-y,z
1/2+x,1/2+y,z
1/2-x,1/2+y,-z
1/2-x,1/2-y,-z
1/2+x,1/2-y,z
loop_
_atom_site_type_symbol
_atom_site_label
_atom_site_fract_x
_atom_site_fract_y
_atom_site_fract_z
Si Si1 0.723912 0.865854 0.279028
Si Si2 0.092608 0.760845 0.575711
Si Si3 0.684165 0.632495 0.218501
Si Si4 0.061093 0.141276 0.182182
Si Si5 0.870552 0.858891 0.203016
O O1 0.640553 0.854041 0.457834
O O2 0.732019 0.753448 0.168154
O O3 0.783682 0.846635 0.302861
O O4 0.738132 0.000000 0.203975
O O5 0.134250 0.862038 0.425780
O O6 0.104511 0.783583 0.710631
O O7 0.006521 0.773209 0.677377
O O8 0.720102 0.500000 0.157029
O O9 0.627739 0.647919 0.184012
O O10 0.036418 0.000000 0.219118
O O11 0.088830 0.170115 0.994362
O O12 0.885825 0.000000 0.207779
#
# Coordination Sequence:
#
# PCOD9181647 Si02
#       5
#     8   8   8   8   8
#     4   9  21  36  53  76 107 143 175 208 255 312
#     4  10  19  32  54  80 102 135 174 214 259 304
#     4   9  19  33  55  81 103 133 176 219 257 301
#     4  10  19  32  53  82 109 131 168 224 268 299
#     4  10  19  33  53  79 109 137 170 214 264 311
#
# _framework density 19.473822999999999
#
# number of rings (size 3 to 8) (size 9 to 14) (size 15 to 20)
#    1.200    1.200    0.000    3.600    0.000    4.000 
#    0.000    2.000    0.000    4.800    0.000    0.000 
#    0.000    0.000    0.000    0.000    0.000    0.000 
#
# Total GULP energy -111345.594147 kJ/mol
# GULP energy per Si atom -5567.279707 kJ/mol
# Density = 1.942950 g / cm^3
# Si number density = 19.473823 Si / 1000 Ang^3
#
#
#
# Elastic Constant Matrix: (Units=GPa)
#
#
# Indices 1 2 3 4 5 6 
#
# 1 58.6101 36.6384 -2.0466 0.0000 6.1777 0.0000
# 2 36.6384 91.1925 1.8675 0.0000 -4.2403 0.0000
# 3 -2.0466 1.8675 28.8529 0.0000 -7.3563 0.0000
# 4 0.0000 0.0000 0.0000 -12.3149 0.0000 22.5290
# 5 6.1777 -4.2403 -7.3563 0.0000 35.6527 0.0000
# 6 0.0000 0.0000 0.0000 22.5290 0.0000 -44.3024
#
#
#
# Elastic Compliance Matrix: (Units=1/GPa)
#
#
# Indices 1 2 3 4 5 6 
#
# 1 0.023760 -0.009803 0.001027 0.000000 -0.005071 0.000000
# 2 -0.009803 0.015076 -0.000824 0.000000 0.003322 0.000000
# 3 0.001027 -0.000824 0.036642 0.000000 0.007284 0.000000
# 4 0.000000 0.000000 0.000000 -1.165111 0.000000 -0.592492
# 5 -0.005071 0.003322 0.007284 0.000000 0.030825 0.000000
# 6 0.000000 0.000000 0.000000 -0.592492 0.000000 -0.323871
#
#
# Mechanical properties :
#
#
# Convention : Reuss Voigt Hill
#
# Bulk Modulus (GPa) = 17.76911 27.95267 22.86089
# Shear Modulus (GPa) = -3.71825 5.28682 0.78429
#
# Velocity S-wave (km/s) = -1.38329 1.64946 0.63531
# Velocity P-wave (km/s) = 2.56770 4.24415 3.50755
#
# Compressibility (1/GPa) = 0.05627743
#
# Stress axis : x y z
#
# Youngs Moduli (GPa) = 42.08693 66.33189 27.29109
#
# Poissons Ratio (x) = 0.65025 -0.02803
# Poissons Ratio (y) = 0.41258 0.02250
# Poissons Ratio (z) = -0.04322 0.05468
#
# Static dielectric constant tensor:
#      x y z
#    x 1.664470 0.000000 0.002300 
#    y 0.000000 1.635660 0.000000 
#    z 0.002300 0.000000 1.714190 
# 
# From -- ./inp_files/174328.got.cif
#   From: 2010.05.17/outbox.cif.g08.bks.cpg/sg12_88_cif.got.tgz:174328.got - 2010.06.03 13:09:07.
