data_PCOD9181676
_publ_section_title
;
Structure prediction by ZEFSAII (Michael W. Deem and Ramdas Pophale) SiO2 
 PCOD9181676
Probable space group: C 2/M
;
_chemical_formula_sum "Si O2"
_cell_formula_units_Z 64
_cell_length_a 29.717403
_cell_length_b 14.928021
_cell_length_c 8.820199
_cell_angle_alpha 90.000000
_cell_angle_beta 53.311694
_cell_angle_gamma 90.000000
_cell_volume 3137.692573
_symmetry_space_group_name_H-M "C 2/M"
_symmetry_group_IT_number 12
_symmetry_cell_setting 'monoclinic'
loop_
_space_group_symop_operation_xyz
x,y,z
-x,y,-z
-x,-y,-z
x,-y,z
1/2+x,1/2+y,z
1/2-x,1/2+y,-z
1/2-x,1/2-y,-z
1/2+x,1/2-y,z
loop_
_atom_site_type_symbol
_atom_site_label
_atom_site_fract_x
_atom_site_fract_y
_atom_site_fract_z
Si Si1 0.221566 0.397461 0.501860
Si Si2 0.836396 0.895876 0.393415
Si Si3 0.179685 0.154538 0.228155
Si Si4 0.056900 0.224229 0.812061
Si Si5 0.895622 0.604516 0.137134
Si Si6 0.288128 0.863426 0.828535
Si Si7 0.596820 0.098400 0.238916
Si Si8 0.441722 0.285173 0.552617
O O1 0.227224 0.500000 0.543602
O O2 0.281647 0.356869 0.419370
O O3 0.167557 0.363145 0.698656
O O4 0.209180 0.396553 0.348768
O O5 0.823892 0.889217 0.598944
O O6 0.890235 0.836287 0.248747
O O7 0.846201 0.000000 0.333524
O O8 0.200679 0.256913 0.207048
O O9 0.115991 0.161592 0.293313
O O10 0.227786 0.114835 0.023416
O O11 0.066046 0.325668 0.851056
O O12 0.054490 0.220623 0.635937
O O13 0.000000 0.189342 0.000000
O O14 0.098417 0.500000 0.826062
O O15 0.904963 0.607635 0.938818
O O16 0.338970 0.897958 0.830043
O O17 0.566567 0.184116 0.370016
O O18 0.574097 0.000000 0.326682
O O19 0.500000 0.322423 0.500000
#
# Coordination Sequence:
#
# PCOD9181676 Si02
#       8
#     8   8   8   8   8   8   8   8
#     4  10  20  33  53  83 116 147 181 226 277 331
#     4  10  22  39  58  82 112 150 196 239 284 337
#     4   9  20  35  54  79 107 145 186 229 283 335
#     4  11  24  40  61  83 108 150 192 238 291 333
#     4  10  21  37  58  87 120 152 186 225 277 344
#     4  10  19  32  53  83 115 148 184 224 279 338
#     4  10  20  34  55  83 116 151 181 217 269 332
#     4  10  21  38  57  78 106 141 185 230 276 330
#
# _framework density 20.397154
#
# number of rings (size 3 to 8) (size 9 to 14) (size 15 to 20)
#    0.000    2.000    0.000    4.125    0.000   10.250 
#    0.000    0.000    0.000    6.000    0.000    0.000 
#    0.000    0.000    0.000    0.000    0.000    0.000 
#
# Total GULP energy -178673.690959 kJ/mol
# GULP energy per Si atom -5583.552842 kJ/mol
# Density = 2.035073 g / cm^3
# Si number density = 20.397154 Si / 1000 Ang^3
#
#
#
# Elastic Constant Matrix: (Units=GPa)
#
#
# Indices 1 2 3 4 5 6 
#
# 1 96.7674 1.9808 10.5831 0.0000 -19.0343 0.0000
# 2 1.9808 48.6108 -0.8037 0.0000 -3.5238 0.0000
# 3 10.5831 -0.8037 66.6477 0.0000 -24.1671 0.0000
# 4 0.0000 0.0000 0.0000 17.5022 0.0000 6.1898
# 5 -19.0343 -3.5238 -24.1671 0.0000 31.5424 0.0000
# 6 0.0000 0.0000 0.0000 6.1898 0.0000 19.0620
#
#
#
# Elastic Compliance Matrix: (Units=1/GPa)
#
#
# Indices 1 2 3 4 5 6 
#
# 1 0.011772 0.000107 0.000986 0.000000 0.007872 0.000000
# 2 0.000107 0.020851 0.001527 0.000000 0.003564 0.000000
# 3 0.000986 0.001527 0.020970 0.000000 0.016832 0.000000
# 4 0.000000 0.000000 0.000000 0.064548 0.000000 -0.020960
# 5 0.007872 0.003564 0.016832 0.000000 0.049748 0.000000
# 6 0.000000 0.000000 0.000000 -0.020960 0.000000 0.059266
#
#
# Mechanical properties :
#
#
# Convention : Reuss Voigt Hill
#
# Bulk Modulus (GPa) = 16.99724 26.17182 21.58453
# Shear Modulus (GPa) = 20.70170 26.97237 23.83704
#
# Velocity S-wave (km/s) = 3.18925 3.64037 3.42225
# Velocity P-wave (km/s) = 4.68114 5.52528 5.12063
#
# Compressibility (1/GPa) = 0.05883308
#
# Stress axis : x y z
#
# Youngs Moduli (GPa) = 84.94456 47.95985 47.68824
#
# Poissons Ratio (x) = -0.00514 -0.04703
# Poissons Ratio (y) = -0.00911 -0.07280
# Poissons Ratio (z) = -0.08378 -0.07322
#
# Static dielectric constant tensor:
#      x y z
#    x 1.751270 0.000000 -0.052820 
#    y 0.000000 1.745460 0.000000 
#    z -0.052820 0.000000 1.720300 
# 
# From -- ./inp_files/111994.got.cif
#   From: 2010.05.17/outbox.cif.g08.bks.cpg/sg12_56_cif.got.tgz:111994.got - 2010.06.03 13:09:07.
