data_PCOD9181056
_publ_section_title
;
Structure prediction by ZEFSAII (Michael W. Deem and Ramdas Pophale) SiO2 
 PCOD9181056
Probable space group: C 2/M
;
_chemical_formula_sum "Si O2"
_cell_formula_units_Z 56
_cell_length_a 26.924654
_cell_length_b 7.457168
_cell_length_c 19.545323
_cell_angle_alpha 90.000000
_cell_angle_beta 141.825004
_cell_angle_gamma 90.000000
_cell_volume 2425.500301
_symmetry_space_group_name_H-M "C 2/M"
_symmetry_group_IT_number 12
_symmetry_cell_setting 'monoclinic'
loop_
_space_group_symop_operation_xyz
x,y,z
-x,y,-z
-x,-y,-z
x,-y,z
1/2+x,1/2+y,z
1/2-x,1/2+y,-z
1/2-x,1/2-y,-z
1/2+x,1/2-y,z
loop_
_atom_site_type_symbol
_atom_site_label
_atom_site_fract_x
_atom_site_fract_y
_atom_site_fract_z
Si Si1 0.627908 0.204049 0.522428
Si Si2 0.288109 0.789659 0.258699
Si Si3 0.939603 0.720024 0.075714
Si Si4 0.766418 0.288411 0.939183
Si Si5 0.802720 0.718872 0.654641
Si Si6 0.079743 0.719476 0.330226
Si Si7 0.387300 0.204388 0.878211
O O1 0.644160 0.281276 0.615680
O O2 0.717316 0.206250 0.585376
O O3 0.576192 0.284960 0.404497
O O4 0.599303 0.000000 0.501062
O O5 0.202692 0.702350 0.185737
O O6 0.279183 0.000000 0.264930
O O7 0.296973 0.774196 0.186911
O O8 0.940791 0.500000 0.074644
O O9 0.854189 0.782132 0.013219
O O10 0.007969 0.774285 0.202604
O O11 0.941946 0.779869 0.998686
O O12 0.769585 0.500000 0.934835
O O13 0.750000 0.250000 0.000000
O O14 0.797728 0.500000 0.652065
O O15 0.838562 0.772918 0.620568
O O16 0.867971 0.779560 0.782644
O O17 0.079622 0.500000 0.332411
O O18 0.412492 0.000000 0.893409
#
# Coordination Sequence:
#
# PCOD9181056 Si02
#       7
#     8   8   8   8   8   8   8
#     4   9  17  28  43  62  88 121 156 187 215 248
#     4   9  16  27  44  66  89 115 145 178 214 254
#     4   8  15  27  43  64  90 114 141 178 222 266
#     4  10  19  32  52  75  92 108 133 172 219 269
#     4   9  16  25  41  63  87 117 156 194 224 251
#     4   9  16  26  41  63  89 119 152 188 222 253
#     4   8  14  25  40  61  87 116 149 186 224 260
#
# _framework density 23.088018999999999
#
# number of rings (size 3 to 8) (size 9 to 14) (size 15 to 20)
#    0.000    3.143    0.000    2.143    0.000    1.143 
#    0.000    2.857    0.000    9.429    0.000   19.000 
#    0.000    0.000    0.000    0.000    0.000    0.000 
#
# Total GULP energy -156107.029703 kJ/mol
# GULP energy per Si atom -5575.251061 kJ/mol
# Density = 2.303547 g / cm^3
# Si number density = 23.088019 Si / 1000 Ang^3
#
#
#
# Elastic Constant Matrix: (Units=GPa)
#
#
# Indices 1 2 3 4 5 6 
#
# 1 50.8984 -3.1820 28.1940 0.0000 -36.6379 0.0000
# 2 -3.1820 80.1782 -5.6182 0.0000 -0.3546 0.0000
# 3 28.1940 -5.6182 176.7487 0.0000 -49.3788 0.0000
# 4 0.0000 0.0000 0.0000 5.9782 0.0000 -1.8531
# 5 -36.6379 -0.3546 -49.3788 0.0000 42.6876 0.0000
# 6 0.0000 0.0000 0.0000 -1.8531 0.0000 7.7787
#
#
#
# Elastic Compliance Matrix: (Units=1/GPa)
#
#
# Indices 1 2 3 4 5 6 
#
# 1 0.056981 0.002997 0.006908 0.000000 0.056922 0.000000
# 2 0.002997 0.012678 0.000994 0.000000 0.003828 0.000000
# 3 0.006908 0.000994 0.009228 0.000000 0.016613 0.000000
# 4 0.000000 0.000000 0.000000 0.180614 0.000000 0.043028
# 5 0.056922 0.003828 0.016613 0.000000 0.091529 0.000000
# 6 0.000000 0.000000 0.000000 0.043028 0.000000 0.138807
#
#
# Mechanical properties :
#
#
# Convention : Reuss Voigt Hill
#
# Bulk Modulus (GPa) = 9.93175 38.51257 24.22216
# Shear Modulus (GPa) = 9.96811 30.51767 20.24289
#
# Velocity S-wave (km/s) = 2.08010 3.63960 2.96424
# Velocity P-wave (km/s) = 3.17492 5.86338 4.71483
#
# Compressibility (1/GPa) = 0.10068715
#
# Stress axis : x y z
#
# Youngs Moduli (GPa) = 17.54963 78.87826 108.36049
#
# Poissons Ratio (x) = -0.23641 -0.74859
# Poissons Ratio (y) = -0.05260 -0.10774
# Poissons Ratio (z) = -0.12124 -0.07843
#
# Static dielectric constant tensor:
#      x y z
#    x 1.864110 0.000000 -0.037450 
#    y 0.000000 1.963320 0.000000 
#    z -0.037450 0.000000 1.974410 
# 
# From -- ./inp_files/287358.got.cif
#   From: 2010.05.17/outbox.cif.g08.bks.cpg/sg12_144_cif.got.tgz:287358.got - 2010.06.03 13:09:07.
