data_PCOD9181549
_publ_section_title
;
Structure prediction by ZEFSAII (Michael W. Deem and Ramdas Pophale) SiO2 
 PCOD9181549
Probable space group: C 2/M
;
_chemical_formula_sum "Si O2"
_cell_formula_units_Z 56
_cell_length_a 19.827810
_cell_length_b 8.222822
_cell_length_c 25.613641
_cell_angle_alpha 90.000000
_cell_angle_beta 47.725209
_cell_angle_gamma 90.000000
_cell_volume 3089.981722
_symmetry_space_group_name_H-M "C 2/M"
_symmetry_group_IT_number 12
_symmetry_cell_setting 'monoclinic'
loop_
_space_group_symop_operation_xyz
x,y,z
-x,y,-z
-x,-y,-z
x,-y,z
1/2+x,1/2+y,z
1/2-x,1/2+y,-z
1/2-x,1/2-y,-z
1/2+x,1/2-y,z
loop_
_atom_site_type_symbol
_atom_site_label
_atom_site_fract_x
_atom_site_fract_y
_atom_site_fract_z
Si Si1 0.544269 0.196813 0.557007
Si Si2 0.461823 0.696192 0.141650
Si Si3 0.602973 0.805582 0.931492
Si Si4 0.139022 0.697327 0.400819
Si Si5 0.340320 0.699230 0.298832
Si Si6 0.666451 0.305676 0.006477
Si Si7 0.667259 0.309675 0.579254
O O1 0.611493 0.244592 0.474236
O O2 0.443533 0.249186 0.592825
O O3 0.577926 0.273211 0.592506
O O4 0.547296 0.000000 0.559090
O O5 0.465761 0.500000 0.139777
O O6 0.393868 0.745717 0.129799
O O7 0.418470 0.753633 0.218672
O O8 0.566075 0.755293 0.078285
O O9 0.606197 0.000000 0.930164
O O10 0.500000 0.750432 0.000000
O O11 0.668455 0.744774 0.943978
O O12 0.137644 0.500000 0.401770
O O13 0.239378 0.748623 0.332686
O O14 0.343935 0.500000 0.297233
O O15 0.343783 0.758186 0.356777
O O16 0.665369 0.500000 0.008935
O O17 0.750000 0.250000 0.000000
O O18 0.683110 0.500000 0.577404
O O19 0.750000 0.250000 0.500000
#
# Coordination Sequence:
#
# PCOD9181549 Si02
#       7
#     8   8   8   8   8   8   8
#     4   9  16  29  49  70  91 119 161 205 243 290
#     4   9  18  33  53  75 100 133 172 209 249 302
#     4   9  17  31  52  76 102 131 163 201 245 295
#     4   8  14  27  49  70  90 122 160 197 241 297
#     4   9  17  31  51  72  96 131 169 204 250 302
#     4  10  19  32  53  80 106 135 171 209 247 294
#     4  11  20  31  49  71  97 130 167 209 253 299
#
# _framework density 18.123083000000001
#
# number of rings (size 3 to 8) (size 9 to 14) (size 15 to 20)
#    0.000    2.714    1.429    2.143    0.000    2.286 
#    0.000    4.286    0.000    3.429    0.000    0.000 
#    0.000    0.000    0.000    0.000    0.000    0.000 
#
# Total GULP energy -155903.008833 kJ/mol
# GULP energy per Si atom -5567.964601 kJ/mol
# Density = 1.808183 g / cm^3
# Si number density = 18.123083 Si / 1000 Ang^3
#
#
#
# Elastic Constant Matrix: (Units=GPa)
#
#
# Indices 1 2 3 4 5 6 
#
# 1 131.1434 9.7712 62.9196 0.0001 15.0053 0.0006
# 2 9.7712 14.9660 12.3262 0.0002 3.8674 0.0009
# 3 62.9196 12.3262 108.7800 0.0000 13.5607 0.0000
# 4 0.0001 0.0002 0.0000 11.4561 0.0000 4.1950
# 5 15.0053 3.8674 13.5607 0.0000 24.1868 0.0001
# 6 0.0006 0.0009 0.0000 4.1950 0.0001 28.9645
#
#
#
# Elastic Compliance Matrix: (Units=1/GPa)
#
#
# Indices 1 2 3 4 5 6 
#
# 1 0.010846 -0.001546 -0.005688 0.000000 -0.003293 0.000000
# 2 -0.001546 0.075251 -0.006722 0.000000 -0.007304 -0.000002
# 3 -0.005688 -0.006722 0.013623 0.000000 -0.003034 0.000000
# 4 0.000000 0.000000 0.000000 0.092178 0.000000 -0.013350
# 5 -0.003293 -0.007304 -0.003034 0.000000 0.046257 0.000000
# 6 0.000000 -0.000002 0.000000 -0.013350 0.000000 0.036459
#
#
# Mechanical properties :
#
#
# Convention : Reuss Voigt Hill
#
# Bulk Modulus (GPa) = 13.92598 47.21373 30.56985
# Shear Modulus (GPa) = 15.31573 24.24632 19.78103
#
# Velocity S-wave (km/s) = 2.91021 3.66166 3.30734
# Velocity P-wave (km/s) = 4.35812 6.63214 5.61153
#
# Compressibility (1/GPa) = 0.07180825
#
# Stress axis : x y z
#
# Youngs Moduli (GPa) = 92.19937 13.28879 73.40654
#
# Poissons Ratio (x) = 0.02054 0.41753
# Poissons Ratio (y) = 0.14253 0.49346
# Poissons Ratio (z) = 0.52442 0.08933
#
# Static dielectric constant tensor:
#      x y z
#    x 1.648690 0.000000 0.008350 
#    y 0.000000 1.635690 0.000000 
#    z 0.008350 0.000000 1.644890 
# 
# From -- ./inp_files/345491.got.cif
#   From: 2010.05.17/outbox.cif.g08.bks.cpg/sg12_173_cif.got.tgz:345491.got - 2010.06.03 13:09:07.
