data_PCOD9181098
_publ_section_title
;
Structure prediction by ZEFSAII (Michael W. Deem and Ramdas Pophale) SiO2 
 PCOD9181098
Probable space group: C 2/M
;
_chemical_formula_sum "Si O2"
_cell_formula_units_Z 56
_cell_length_a 25.907503
_cell_length_b 8.933576
_cell_length_c 19.389934
_cell_angle_alpha 90.000000
_cell_angle_beta 131.033011
_cell_angle_gamma 90.000000
_cell_volume 3385.239881
_symmetry_space_group_name_H-M "C 2/M"
_symmetry_group_IT_number 12
_symmetry_cell_setting 'monoclinic'
loop_
_space_group_symop_operation_xyz
x,y,z
-x,y,-z
-x,-y,-z
x,-y,z
1/2+x,1/2+y,z
1/2-x,1/2+y,-z
1/2-x,1/2-y,-z
1/2+x,1/2-y,z
loop_
_atom_site_type_symbol
_atom_site_label
_atom_site_fract_x
_atom_site_fract_y
_atom_site_fract_z
Si Si1 0.359374 0.178036 0.612937
Si Si2 0.455047 0.820724 0.392831
Si Si3 0.353090 0.678561 0.100133
Si Si4 0.772970 0.178935 0.416786
Si Si5 0.243342 0.822351 0.105852
Si Si6 0.000418 0.821530 0.711757
Si Si7 0.306480 0.678676 0.288514
O O1 0.303058 0.213906 0.622057
O O2 0.325693 0.234831 0.512061
O O3 0.431755 0.257471 0.684696
O O4 0.368551 0.000000 0.618553
O O5 0.500000 0.785240 0.500000
O O6 0.488305 0.751417 0.353479
O O7 0.379320 0.754078 0.335822
O O8 0.451341 0.000000 0.382624
O O9 0.342461 0.500000 0.102899
O O10 0.306154 0.768211 0.112738
O O11 0.431939 0.711888 0.183993
O O12 0.324185 0.711371 0.998609
O O13 0.784669 0.214885 0.347365
O O14 0.783448 0.000000 0.435260
O O15 0.252155 0.738186 0.185394
O O16 0.247597 0.000000 0.120250
O O17 0.995206 0.000000 0.699215
O O18 0.313588 0.500000 0.288253
#
# Coordination Sequence:
#
# PCOD9181098 Si02
#       7
#     8   8   8   8   8   8   8
#     4  10  20  35  55  78 103 133 175 220 257 300
#     4  11  23  35  48  73 106 137 170 209 254 304
#     4   9  19  34  51  74 103 136 171 210 256 311
#     4   9  20  37  55  75 102 138 176 214 257 306
#     4  10  19  32  52  76 103 133 171 214 257 305
#     4  11  21  34  53  76 104 137 171 207 256 313
#     4  11  21  34  52  75 104 137 172 208 256 313
#
# _framework density 16.542401999999999
#
# number of rings (size 3 to 8) (size 9 to 14) (size 15 to 20)
#    0.000    1.857    1.429    3.000    0.000    6.286 
#    0.000    0.000    0.000    0.857    0.000    6.000 
#    0.000    0.000    0.000    0.000    0.000    0.000 
#
# Total GULP energy -156332.995705 kJ/mol
# GULP energy per Si atom -5583.321275 kJ/mol
# Density = 1.650475 g / cm^3
# Si number density = 16.542402 Si / 1000 Ang^3
#
#
#
# Elastic Constant Matrix: (Units=GPa)
#
#
# Indices 1 2 3 4 5 6 
#
# 1 49.2445 21.1785 24.2745 0.0000 13.5057 0.0000
# 2 21.1785 38.9150 32.1247 0.0000 9.3292 0.0000
# 3 24.2745 32.1247 77.5029 0.0000 16.9459 0.0000
# 4 0.0000 0.0000 0.0000 26.8341 0.0000 0.5656
# 5 13.5057 9.3292 16.9459 0.0000 25.2977 0.0000
# 6 0.0000 0.0000 0.0000 0.5656 0.0000 24.8455
#
#
#
# Elastic Compliance Matrix: (Units=1/GPa)
#
#
# Indices 1 2 3 4 5 6 
#
# 1 0.029077 -0.011746 -0.002099 0.000000 -0.009786 0.000000
# 2 -0.011746 0.044187 -0.014580 0.000000 -0.000258 0.000000
# 3 -0.002099 -0.014580 0.021303 0.000000 -0.007773 0.000000
# 4 0.000000 0.000000 0.000000 0.037284 0.000000 -0.000849
# 5 -0.009786 -0.000258 -0.007773 0.000000 0.050055 0.000000
# 6 0.000000 0.000000 0.000000 -0.000849 0.000000 0.040268
#
#
# Mechanical properties :
#
#
# Convention : Reuss Voigt Hill
#
# Bulk Modulus (GPa) = 26.51292 35.64640 31.07966
# Shear Modulus (GPa) = 17.14698 21.26778 19.20738
#
# Velocity S-wave (km/s) = 3.22304 3.58949 3.41119
# Velocity P-wave (km/s) = 5.46925 6.22692 5.86034
#
# Compressibility (1/GPa) = 0.03771746
#
# Stress axis : x y z
#
# Youngs Moduli (GPa) = 34.39175 22.63091 46.94158
#
# Poissons Ratio (x) = 0.26582 0.09852
# Poissons Ratio (y) = 0.40396 0.68442
# Poissons Ratio (z) = 0.07218 0.32997
#
# Static dielectric constant tensor:
#      x y z
#    x 1.531210 0.000000 0.004640 
#    y 0.000000 1.552270 0.000000 
#    z 0.004640 0.000000 1.560550 
# 
# From -- ./inp_files/288260.got.cif
#   From: 2010.05.17/outbox.cif.g08.bks.cpg/sg12_145_cif.got.tgz:288260.got - 2010.06.03 13:09:07.
