data_PCOD9181494
_publ_section_title
;
Structure prediction by ZEFSAII (Michael W. Deem and Ramdas Pophale) SiO2 
 PCOD9181494
Probable space group: C 2/M
;
_chemical_formula_sum "Si O2"
_cell_formula_units_Z 60
_cell_length_a 18.722261
_cell_length_b 9.593522
_cell_length_c 16.830959
_cell_angle_alpha 90.000000
_cell_angle_beta 64.479620
_cell_angle_gamma 90.000000
_cell_volume 2728.096736
_symmetry_space_group_name_H-M "C 2/M"
_symmetry_group_IT_number 12
_symmetry_cell_setting 'monoclinic'
loop_
_space_group_symop_operation_xyz
x,y,z
-x,y,-z
-x,-y,-z
x,-y,z
1/2+x,1/2+y,z
1/2-x,1/2+y,-z
1/2-x,1/2-y,-z
1/2+x,1/2-y,z
loop_
_atom_site_type_symbol
_atom_site_label
_atom_site_fract_x
_atom_site_fract_y
_atom_site_fract_z
Si Si1 0.021310 0.836739 0.380003
Si Si2 0.736971 0.658078 0.889129
Si Si3 0.805508 0.159861 0.717528
Si Si4 0.241793 0.000000 0.534901
Si Si5 0.127987 0.340687 0.040576
Si Si6 0.999058 0.836455 0.800980
Si Si7 0.858688 0.651048 0.290246
Si Si8 0.644163 0.228942 0.525979
O O1 0.110878 0.804399 0.361824
O O2 0.020490 0.819426 0.283749
O O3 0.947926 0.751217 0.449051
O O4 0.006603 0.000000 0.402926
O O5 0.713477 0.500000 0.880698
O O6 0.783694 0.734126 0.796959
O O7 0.798785 0.651432 0.932566
O O8 0.662737 0.753037 0.950347
O O9 0.730550 0.158106 0.696411
O O10 0.814542 0.000000 0.744867
O O11 0.298955 0.876815 0.546559
O O12 0.184863 0.877527 0.522615
O O13 0.105756 0.500000 0.031002
O O14 0.059225 0.255119 0.117488
O O15 0.087624 0.776333 0.766584
O O16 0.993529 0.000000 0.822380
O O17 0.892041 0.500000 0.248889
O O18 0.857728 0.655672 0.385607
#
# Coordination Sequence:
#
# PCOD9181494 Si02
#       8
#     8   8   8   4   8   8   8   8
#     4   9  17  32  55  81 107 138 187 220 264 313
#     4  10  20  33  50  79 110 146 185 228 283 323
#     4  10  20  36  56  77 111 150 183 225 270 333
#     4  10  20  34  62  84 112 140 176 222 264 316
#     4  10  19  32  53  78 110 143 186 236 278 325
#     4  10  19  32  55  80 108 142 184 239 274 317
#     4  10  21  36  55  81 113 146 183 220 275 326
#     4  10  19  36  58  87 111 140 179 222 263 319
#
# _framework density 21.993355999999999
#
# number of rings (size 3 to 8) (size 9 to 14) (size 15 to 20)
#    0.000    2.133    2.667    1.200    0.933    1.600 
#    1.200    0.667    0.000    8.800    0.000    0.000 
#    0.000    0.000    0.000    0.000    0.000    0.000 
#
# Total GULP energy -167099.404803 kJ/mol
# GULP energy per Si atom -5569.980160 kJ/mol
# Density = 2.194330 g / cm^3
# Si number density = 21.993356 Si / 1000 Ang^3
#
#
#
# Elastic Constant Matrix: (Units=GPa)
#
#
# Indices 1 2 3 4 5 6 
#
# 1 78.9780 33.4408 12.0451 0.0000 -29.2239 0.0000
# 2 33.4408 192.4005 56.2340 0.0000 -18.4235 0.0000
# 3 12.0451 56.2340 84.1945 0.0000 -18.6141 0.0000
# 4 0.0000 0.0000 0.0000 34.7897 0.0000 -13.2601
# 5 -29.2239 -18.4235 -18.6141 0.0000 26.0943 0.0000
# 6 0.0000 0.0000 0.0000 -13.2601 0.0000 24.4620
#
#
#
# Elastic Compliance Matrix: (Units=1/GPa)
#
#
# Indices 1 2 3 4 5 6 
#
# 1 0.023253 -0.002756 0.004560 0.000000 0.027349 0.000000
# 2 -0.002756 0.006854 -0.004507 0.000000 -0.001462 0.000000
# 3 0.004560 -0.004507 0.017405 0.000000 0.014342 0.000000
# 4 0.000000 0.000000 0.000000 0.036229 0.000000 0.019639
# 5 0.027349 -0.001462 0.014342 0.000000 0.078150 0.000000
# 6 0.000000 0.000000 0.000000 0.019639 0.000000 0.051525
#
#
# Mechanical properties :
#
#
# Convention : Reuss Voigt Hill
#
# Bulk Modulus (GPa) = 23.74814 62.11254 42.93034
# Shear Modulus (GPa) = 21.47243 33.99275 27.73259
#
# Velocity S-wave (km/s) = 3.12799 3.93567 3.55484
# Velocity P-wave (km/s) = 4.88540 6.99682 6.03417
#
# Compressibility (1/GPa) = 0.04210856
#
# Stress axis : x y z
#
# Youngs Moduli (GPa) = 43.00522 145.90876 57.45317
#
# Poissons Ratio (x) = 0.40206 -0.26201
# Poissons Ratio (y) = 0.11850 0.25891
# Poissons Ratio (z) = -0.19612 0.65754
#
# Static dielectric constant tensor:
#      x y z
#    x 1.836890 0.000000 0.014210 
#    y 0.000000 1.787070 0.000000 
#    z 0.014210 0.000000 1.842770 
# 
# From -- ./inp_files/342399.got.cif
#   From: 2010.05.17/outbox.cif.g08.bks.cpg/sg12_172_cif.got.tgz:342399.got - 2010.06.03 13:09:07.
