data_PCOD9181227
_publ_section_title
;
Structure prediction by ZEFSAII (Michael W. Deem and Ramdas Pophale) SiO2 
 PCOD9181227
Probable space group: C 2/M
;
_chemical_formula_sum "Si O2"
_cell_formula_units_Z 56
_cell_length_a 29.085756
_cell_length_b 7.606733
_cell_length_c 14.435721
_cell_angle_alpha 90.000000
_cell_angle_beta 50.088587
_cell_angle_gamma 90.000000
_cell_volume 2449.816348
_symmetry_space_group_name_H-M "C 2/M"
_symmetry_group_IT_number 12
_symmetry_cell_setting 'monoclinic'
loop_
_space_group_symop_operation_xyz
x,y,z
-x,y,-z
-x,-y,-z
x,-y,z
1/2+x,1/2+y,z
1/2-x,1/2+y,-z
1/2-x,1/2-y,-z
1/2+x,1/2-y,z
loop_
_atom_site_type_symbol
_atom_site_label
_atom_site_fract_x
_atom_site_fract_y
_atom_site_fract_z
Si Si1 0.061253 0.199977 0.535127
Si Si2 0.118078 0.703625 0.277495
Si Si3 0.368821 0.715804 0.057331
Si Si4 0.248898 0.290133 0.110310
Si Si5 0.820110 0.297874 0.520544
Si Si6 0.684456 0.713382 0.685606
Si Si7 0.542759 0.700142 0.205965
O O1 0.071882 0.283555 0.421521
O O2 0.125364 0.201020 0.502313
O O3 0.013291 0.283732 0.667640
O O4 0.041428 0.000000 0.543663
O O5 0.124666 0.500000 0.242151
O O6 0.183020 0.770968 0.227024
O O7 0.094450 0.801546 0.217617
O O8 0.369823 0.500000 0.051812
O O9 0.308067 0.777632 0.084419
O O10 0.361178 0.763608 0.174443
O O11 0.426447 0.777863 0.925150
O O12 0.250471 0.500000 0.122708
O O13 0.250000 0.250000 0.000000
O O14 0.823268 0.500000 0.548721
O O15 0.752382 0.234013 0.625997
O O16 0.827997 0.288073 0.399433
O O17 0.685194 0.500000 0.676613
O O18 0.524626 0.500000 0.205843
#
# Coordination Sequence:
#
# PCOD9181227 Si02
#       7
#     8   8   8   8   8   8   8
#     4  11  23  37  55  78 105 144 190 227 264 320
#     4  11  22  35  54  81 110 143 182 226 277 324
#     4   9  17  33  56  78 106 141 177 221 266 312
#     4  10  19  32  52  78 108 140 175 216 265 316
#     4  10  20  36  58  84 112 137 170 222 276 324
#     4   9  18  35  60  85 108 137 173 216 271 331
#     4  10  21  37  55  76 106 146 189 226 264 317
#
# _framework density 22.858855999999999
#
# number of rings (size 3 to 8) (size 9 to 14) (size 15 to 20)
#    0.000    2.000    1.429    2.571    0.000    6.286 
#    0.000    2.143    0.000    4.286    0.000    0.000 
#    0.000    0.000    0.000    0.000    0.000    0.000 
#
# Total GULP energy -156436.952989 kJ/mol
# GULP energy per Si atom -5587.034035 kJ/mol
# Density = 2.280683 g / cm^3
# Si number density = 22.858856 Si / 1000 Ang^3
#
#
#
# Elastic Constant Matrix: (Units=GPa)
#
#
# Indices 1 2 3 4 5 6 
#
# 1 21.7590 -4.7639 4.4044 -0.0001 0.2325 -0.0009
# 2 -4.7639 51.2533 -2.3371 -0.0001 -3.5073 -0.0014
# 3 4.4044 -2.3371 183.7468 0.0000 1.7482 -0.0002
# 4 -0.0001 -0.0001 0.0000 12.4085 0.0000 2.0091
# 5 0.2325 -3.5073 1.7482 0.0000 23.7690 0.0000
# 6 -0.0009 -0.0014 -0.0002 2.0091 0.0000 17.1958
#
#
#
# Elastic Compliance Matrix: (Units=1/GPa)
#
#
# Indices 1 2 3 4 5 6 
#
# 1 0.047125 0.004349 -0.001077 0.000000 0.000260 0.000003
# 2 0.004349 0.020120 0.000124 0.000000 0.002917 0.000002
# 3 -0.001077 0.000124 0.005473 0.000000 -0.000374 0.000000
# 4 0.000000 0.000000 0.000000 0.082144 0.000000 -0.009597
# 5 0.000260 0.002917 -0.000374 0.000000 0.042527 0.000000
# 6 0.000003 0.000002 0.000000 -0.009597 0.000000 0.059275
#
#
# Mechanical properties :
#
#
# Convention : Reuss Voigt Hill
#
# Bulk Modulus (GPa) = 12.57685 27.92953 20.25319
# Shear Modulus (GPa) = 18.09126 27.97170 23.03148
#
# Velocity S-wave (km/s) = 2.81629 3.50189 3.17764
# Velocity P-wave (km/s) = 4.01114 5.34750 4.72679
#
# Compressibility (1/GPa) = 0.07951118
#
# Stress axis : x y z
#
# Youngs Moduli (GPa) = 21.22001 49.70072 182.70797
#
# Poissons Ratio (x) = -0.21615 0.19673
# Poissons Ratio (y) = -0.09228 -0.02264
# Poissons Ratio (z) = 0.02285 -0.00616
#
# Static dielectric constant tensor:
#      x y z
#    x 1.817230 0.000000 -0.033140 
#    y 0.000000 2.059890 0.000000 
#    z -0.033140 0.000000 1.888430 
# 
# From -- ./inp_files/237427.got.cif
#   From: 2010.05.17/outbox.cif.g08.bks.cpg/sg12_119_cif.got.tgz:237427.got - 2010.06.03 13:09:07.
