data_PCOD9181191
_publ_section_title
;
Structure prediction by ZEFSAII (Michael W. Deem and Ramdas Pophale) SiO2 
 PCOD9181191
Probable space group: C 2/M
;
_chemical_formula_sum "Si O2"
_cell_formula_units_Z 48
_cell_length_a 32.077730
_cell_length_b 8.775983
_cell_length_c 9.911567
_cell_angle_alpha 90.000000
_cell_angle_beta 77.618325
_cell_angle_gamma 90.000000
_cell_volume 2725.342564
_symmetry_space_group_name_H-M "C 2/M"
_symmetry_group_IT_number 12
_symmetry_cell_setting 'monoclinic'
loop_
_space_group_symop_operation_xyz
x,y,z
-x,y,-z
-x,-y,-z
x,-y,z
1/2+x,1/2+y,z
1/2-x,1/2+y,-z
1/2-x,1/2-y,-z
1/2+x,1/2-y,z
loop_
_atom_site_type_symbol
_atom_site_label
_atom_site_fract_x
_atom_site_fract_y
_atom_site_fract_z
Si Si1 0.932643 0.817525 0.338239
Si Si2 0.859517 0.817609 0.174369
Si Si3 0.513020 0.183721 0.144299
Si Si4 0.610979 0.183287 0.119177
Si Si5 0.630640 0.816798 0.407917
Si Si6 0.296911 0.316848 0.451838
O O1 0.901147 0.775617 0.235064
O O2 0.911146 0.742076 0.483672
O O3 0.979287 0.758140 0.269018
O O4 0.931982 0.000000 0.352536
O O5 0.818950 0.773535 0.293785
O O6 0.859529 0.000000 0.161248
O O7 0.862929 0.745112 0.025763
O O8 0.561562 0.231939 0.137794
O O9 0.510373 0.000000 0.158232
O O10 0.500000 0.224354 0.000000
O O11 0.628270 0.229461 0.253330
O O12 0.611364 0.000000 0.113250
O O13 0.671175 0.746294 0.456244
O O14 0.632293 0.000000 0.415202
O O15 0.296101 0.500000 0.459617
O O16 0.250000 0.250000 0.500000
#
# Coordination Sequence:
#
# PCOD9181191 Si02
#       6
#     8   8   8   8   8   8
#     4  10  20  34  52  77 107 145 190 230 270 321
#     4   9  19  34  54  79 108 139 176 221 268 319
#     4  10  19  32  52  77 107 145 190 233 270 316
#     4  10  21  35  53  80 110 144 185 225 272 322
#     4  10  21  37  56  79 111 145 178 224 274 322
#     4  10  21  39  62  88 110 137 177 218 266 327
#
# _framework density 17.612463999999999
#
# number of rings (size 3 to 8) (size 9 to 14) (size 15 to 20)
#    0.000    2.167    1.667    2.500    0.000    6.333 
#    0.000    4.167    0.000    0.000    0.000    0.000 
#    0.000    0.000    0.000    0.000    0.000    0.000 
#
# Total GULP energy -133968.239622 kJ/mol
# GULP energy per Si atom -5582.009984 kJ/mol
# Density = 1.757238 g / cm^3
# Si number density = 17.612464 Si / 1000 Ang^3
#
#
#
# Elastic Constant Matrix: (Units=GPa)
#
#
# Indices 1 2 3 4 5 6 
#
# 1 123.2458 37.5401 81.9423 0.0000 -21.9671 0.0000
# 2 37.5401 38.7129 49.0896 0.0000 -4.2405 0.0000
# 3 81.9423 49.0896 176.2355 0.0000 -9.9716 0.0000
# 4 0.0000 0.0000 0.0000 28.0416 0.0000 -5.9634
# 5 -21.9671 -4.2405 -9.9716 0.0000 20.8685 0.0000
# 6 0.0000 0.0000 0.0000 -5.9634 0.0000 27.4477
#
#
#
# Elastic Compliance Matrix: (Units=1/GPa)
#
#
# Indices 1 2 3 4 5 6 
#
# 1 0.015853 -0.008562 -0.004255 0.000000 0.012914 0.000000
# 2 -0.008562 0.044731 -0.008710 0.000000 -0.004085 0.000000
# 3 -0.004255 -0.008710 0.009995 0.000000 -0.001473 0.000000
# 4 0.000000 0.000000 0.000000 0.037389 0.000000 0.008123
# 5 0.012914 -0.004085 -0.001473 0.000000 0.059979 0.000000
# 6 0.000000 0.000000 0.000000 0.008123 0.000000 0.038198
#
#
# Mechanical properties :
#
#
# Convention : Reuss Voigt Hill
#
# Bulk Modulus (GPa) = 36.33087 75.03759 55.68423
# Shear Modulus (GPa) = 19.35180 26.57970 22.96575
#
# Velocity S-wave (km/s) = 3.31834 3.88898 3.61494
# Velocity P-wave (km/s) = 5.94597 7.92861 7.00776
#
# Compressibility (1/GPa) = 0.02752481
#
# Stress axis : x y z
#
# Youngs Moduli (GPa) = 63.07998 22.35609 100.04573
#
# Poissons Ratio (x) = 0.19142 0.42572
# Poissons Ratio (y) = 0.54010 0.87136
# Poissons Ratio (z) = 0.26842 0.19471
#
# Static dielectric constant tensor:
#      x y z
#    x 1.577830 0.000000 0.002290 
#    y 0.000000 1.592290 0.000000 
#    z 0.002290 0.000000 1.591870 
# 
# From -- ./inp_files/108761.got.cif
#   From: 2010.05.17/outbox.cif.g08.bks.cpg/sg12_55_cif.got.tgz:108761.got - 2010.06.03 13:09:07.
