data_PCOD9181168
_publ_section_title
;
Structure prediction by ZEFSAII (Michael W. Deem and Ramdas Pophale) SiO2 
 PCOD9181168
Probable space group: C 2/M
;
_chemical_formula_sum "Si O2"
_cell_formula_units_Z 48
_cell_length_a 8.229833
_cell_length_b 22.705557
_cell_length_c 15.195706
_cell_angle_alpha 90.000000
_cell_angle_beta 135.394564
_cell_angle_gamma 90.000000
_cell_volume 1993.965470
_symmetry_space_group_name_H-M "C 2/M"
_symmetry_group_IT_number 12
_symmetry_cell_setting 'monoclinic'
loop_
_space_group_symop_operation_xyz
x,y,z
-x,y,-z
-x,-y,-z
x,-y,z
1/2+x,1/2+y,z
1/2-x,1/2+y,-z
1/2-x,1/2-y,-z
1/2+x,1/2-y,z
loop_
_atom_site_type_symbol
_atom_site_label
_atom_site_fract_x
_atom_site_fract_y
_atom_site_fract_z
Si Si1 0.228681 0.311580 0.318582
Si Si2 0.743881 0.937425 0.323687
Si Si3 0.459980 0.807544 0.380310
Si Si4 0.565924 0.936051 0.628450
Si Si5 0.841020 0.562442 0.024366
Si Si6 0.233099 0.813671 0.036795
O O1 0.353994 0.373760 0.347140
O O2 0.327583 0.253380 0.312280
O O3 0.190653 0.305217 0.409012
O O4 0.965940 0.317954 0.183840
O O5 0.652772 0.936706 0.388922
O O6 0.514294 0.938815 0.174517
O O7 0.867429 0.000000 0.354286
O O8 0.500000 0.807322 0.500000
O O9 0.333644 0.870624 0.313950
O O10 0.500000 0.935829 0.500000
O O11 0.684690 0.000000 0.690199
O O12 0.706244 0.500000 0.975515
O O13 0.722988 0.625979 0.976976
O O14 0.000000 0.560798 0.000000
O O15 0.250000 0.750000 0.000000
O O16 0.000000 0.813604 0.000000
#
# Coordination Sequence:
#
# PCOD9181168 Si02
#       6
#     8   8   8   8   8   8
#     4  10  20  34  52  75 102 135 170 214 264 310
#     4   8  15  29  49  71  96 131 172 210 255 310
#     4  10  19  32  52  77 105 135 169 209 258 318
#     4   8  14  26  47  75 103 131 166 211 262 312
#     4   9  18  33  53  77 106 141 179 223 277 330
#     4  11  22  36  55  79 108 143 185 229 274 325
#
# _framework density 24.072634000000001
#
# number of rings (size 3 to 8) (size 9 to 14) (size 15 to 20)
#    0.000    2.667    0.000    2.000    0.000    1.667 
#    0.000    0.000    0.000    4.500    0.000    0.000 
#    0.000    0.000    0.000    0.000    0.000    0.000 
#
# Total GULP energy -133738.299844 kJ/mol
# GULP energy per Si atom -5572.429160 kJ/mol
# Density = 2.401784 g / cm^3
# Si number density = 24.072634 Si / 1000 Ang^3
#
#
#
# Elastic Constant Matrix: (Units=GPa)
#
#
# Indices 1 2 3 4 5 6 
#
# 1 33.5226 68.2631 -4.7558 0.0000 -4.7990 0.0000
# 2 68.2631 350.6867 21.0093 0.0000 3.8711 0.0000
# 3 -4.7558 21.0093 43.9482 0.0000 6.8562 0.0000
# 4 0.0000 0.0000 0.0000 23.1033 0.0000 -7.1641
# 5 -4.7990 3.8711 6.8562 0.0000 27.3889 0.0000
# 6 0.0000 0.0000 0.0000 -7.1641 0.0000 35.1715
#
#
#
# Elastic Compliance Matrix: (Units=1/GPa)
#
#
# Indices 1 2 3 4 5 6 
#
# 1 0.056376 -0.011689 0.010292 0.000000 0.008954 0.000000
# 2 -0.011689 0.005359 -0.003527 0.000000 -0.001923 0.000000
# 3 0.010292 -0.003527 0.026219 0.000000 -0.004261 0.000000
# 4 0.000000 0.000000 0.000000 0.046202 0.000000 0.009411
# 5 0.008954 -0.001923 -0.004261 0.000000 0.039419 0.000000
# 6 0.000000 0.000000 0.000000 0.009411 0.000000 0.030349
#
#
# Mechanical properties :
#
#
# Convention : Reuss Voigt Hill
#
# Bulk Modulus (GPa) = 12.80332 66.35452 39.57892
# Shear Modulus (GPa) = 20.85006 40.04213 30.44609
#
# Velocity S-wave (km/s) = 2.94620 4.08289 3.56020
# Velocity P-wave (km/s) = 4.11141 7.06051 5.77730
#
# Compressibility (1/GPa) = 0.07810473
#
# Stress axis : x y z
#
# Youngs Moduli (GPa) = 17.73814 186.58631 38.14081
#
# Poissons Ratio (x) = 2.18105 -0.39254
# Poissons Ratio (y) = 0.20735 0.13452
# Poissons Ratio (z) = -0.18256 0.65810
#
# Static dielectric constant tensor:
#      x y z
#    x 1.866860 0.000000 0.002670 
#    y 0.000000 1.921740 0.000000 
#    z 0.002670 0.000000 1.967090 
# 
# From -- ./inp_files/257740.got.cif
#   From: 2010.05.17/outbox.cif.g08.bks.cpg/sg12_129_cif.got.tgz:257740.got - 2010.06.03 13:09:07.
