data_PCOD9181292
_publ_section_title
;
Structure prediction by ZEFSAII (Michael W. Deem and Ramdas Pophale) SiO2 
 PCOD9181292
Probable space group: C 2/M
;
_chemical_formula_sum "Si O2"
_cell_formula_units_Z 48
_cell_length_a 24.014902
_cell_length_b 7.377267
_cell_length_c 12.167801
_cell_angle_alpha 90.000000
_cell_angle_beta 62.711367
_cell_angle_gamma 90.000000
_cell_volume 1915.788711
_symmetry_space_group_name_H-M "C 2/M"
_symmetry_group_IT_number 12
_symmetry_cell_setting 'monoclinic'
loop_
_space_group_symop_operation_xyz
x,y,z
-x,y,-z
-x,-y,-z
x,-y,z
1/2+x,1/2+y,z
1/2-x,1/2+y,-z
1/2-x,1/2-y,-z
1/2+x,1/2-y,z
loop_
_atom_site_type_symbol
_atom_site_label
_atom_site_fract_x
_atom_site_fract_y
_atom_site_fract_z
Si Si1 0.504419 0.281415 0.368097
Si Si2 0.133658 0.780104 0.525240
Si Si3 0.814748 0.788730 0.303254
Si Si4 0.372173 0.207247 0.876573
Si Si5 0.708273 0.789435 0.244160
Si Si6 0.571714 0.780426 0.948083
O O1 0.500000 0.232847 0.500000
O O2 0.510098 0.500000 0.356494
O O3 0.437065 0.225676 0.382336
O O4 0.564074 0.204892 0.252415
O O5 0.180280 0.713736 0.578075
O O6 0.154335 0.718850 0.386088
O O7 0.134905 0.000000 0.522098
O O8 0.767328 0.707829 0.256159
O O9 0.884244 0.775393 0.191496
O O10 0.797531 0.000000 0.328800
O O11 0.319047 0.289001 0.844573
O O12 0.353027 0.000000 0.916412
O O13 0.393260 0.288195 0.973464
O O14 0.722726 0.000000 0.207899
O O15 0.569895 0.000000 0.955476
O O16 0.500000 0.718685 0.000000
#
# Coordination Sequence:
#
# PCOD9181292 Si02
#       6
#     8   8   8   8   8   8
#     4  10  19  32  52  80 110 138 175 221 265 313
#     4  10  20  35  55  80 111 143 179 222 267 316
#     4  10  22  38  56  80 109 143 181 221 265 317
#     4  10  21  36  55  80 110 143 179 221 268 317
#     4  10  21  36  54  80 112 142 178 221 266 319
#     4  10  22  40  59  80 107 139 180 226 267 316
#
# _framework density 25.054953000000001
#
# number of rings (size 3 to 8) (size 9 to 14) (size 15 to 20)
#    0.000    2.000    1.667    1.500    0.000    4.000 
#    0.000    0.000    0.000    0.000    0.000    0.000 
#    0.000    0.000    0.000    0.000    0.000    0.000 
#
# Total GULP energy -134185.304838 kJ/mol
# GULP energy per Si atom -5591.054368 kJ/mol
# Density = 2.499793 g / cm^3
# Si number density = 25.054953 Si / 1000 Ang^3
#
#
#
# Elastic Constant Matrix: (Units=GPa)
#
#
# Indices 1 2 3 4 5 6 
#
# 1 152.2943 8.8129 17.2324 0.0000 38.7559 0.0000
# 2 8.8129 96.9425 -8.0487 0.0000 10.9574 0.0000
# 3 17.2324 -8.0487 65.2753 0.0000 29.9268 0.0000
# 4 0.0000 0.0000 0.0000 45.5125 0.0000 -16.6993
# 5 38.7559 10.9574 29.9268 0.0000 55.3425 0.0000
# 6 0.0000 0.0000 0.0000 -16.6993 0.0000 16.1897
#
#
#
# Elastic Compliance Matrix: (Units=1/GPa)
#
#
# Indices 1 2 3 4 5 6 
#
# 1 0.008008 -0.000007 0.000606 0.000000 -0.005934 0.000000
# 2 -0.000007 0.011014 0.003135 0.000000 -0.003871 0.000000
# 3 0.000606 0.003135 0.021308 0.000000 -0.012567 0.000000
# 4 0.000000 0.000000 0.000000 0.035351 0.000000 0.036464
# 5 -0.005934 -0.003871 -0.012567 0.000000 0.029787 0.000000
# 6 0.000000 0.000000 0.000000 0.036464 0.000000 0.099380
#
#
# Mechanical properties :
#
#
# Convention : Reuss Voigt Hill
#
# Bulk Modulus (GPa) = 20.92206 38.94503 29.93354
# Shear Modulus (GPa) = 23.43966 43.17665 33.30815
#
# Velocity S-wave (km/s) = 3.06196 4.15574 3.65005
# Velocity P-wave (km/s) = 4.56830 6.21325 5.45316
#
# Compressibility (1/GPa) = 0.04779644
#
# Stress axis : x y z
#
# Youngs Moduli (GPa) = 124.87108 90.79531 46.93071
#
# Poissons Ratio (x) = 0.00063 -0.02842
# Poissons Ratio (y) = 0.00087 -0.14710
# Poissons Ratio (z) = -0.07563 -0.28460
#
# Static dielectric constant tensor:
#      x y z
#    x 2.022880 0.000000 0.035500 
#    y 0.000000 1.953690 0.000000 
#    z 0.035500 0.000000 1.922190 
# 
# From -- ./inp_files/172878.got.cif
#   From: 2010.05.17/outbox.cif.g08.bks.cpg/sg12_87_cif.got.tgz:172878.got - 2010.06.03 13:09:07.
