data_PCOD9181122
_publ_section_title
;
Structure prediction by ZEFSAII (Michael W. Deem and Ramdas Pophale) SiO2 
 PCOD9181122
Probable space group: C 2/M
;
_chemical_formula_sum "Si O2"
_cell_formula_units_Z 56
_cell_length_a 8.184668
_cell_length_b 15.513291
_cell_length_c 18.491353
_cell_angle_alpha 90.000000
_cell_angle_beta 91.214174
_cell_angle_gamma 90.000000
_cell_volume 2347.340942
_symmetry_space_group_name_H-M "C 2/M"
_symmetry_group_IT_number 12
_symmetry_cell_setting 'monoclinic'
loop_
_space_group_symop_operation_xyz
x,y,z
-x,y,-z
-x,-y,-z
x,-y,z
1/2+x,1/2+y,z
1/2-x,1/2+y,-z
1/2-x,1/2-y,-z
1/2+x,1/2-y,z
loop_
_atom_site_type_symbol
_atom_site_label
_atom_site_fract_x
_atom_site_fract_y
_atom_site_fract_z
Si Si1 0.840797 0.667191 0.899681
Si Si2 0.813224 0.903665 0.976423
Si Si3 0.870837 0.903069 0.294783
Si Si4 0.116137 0.786581 0.444653
Si Si5 0.034183 0.850872 0.154751
Si Si6 0.376054 0.209947 0.345147
Si Si7 0.503659 0.093043 0.224522
O O1 0.817926 0.657607 0.985875
O O2 0.895891 0.756739 0.864458
O O3 0.654616 0.647279 0.873779
O O4 0.967071 0.604430 0.860876
O O5 0.782590 0.000000 0.004246
O O6 0.838188 0.905527 0.890981
O O7 0.000000 0.878048 0.000000
O O8 0.862132 0.814222 0.339517
O O9 0.689876 0.905765 0.256963
O O10 0.009459 0.882703 0.235661
O O11 0.897141 0.000000 0.325352
O O12 0.250000 0.750000 0.500000
O O13 0.216458 0.830079 0.380806
O O14 0.000000 0.836033 0.500000
O O15 0.022395 0.707031 0.404531
O O16 0.413658 0.168541 0.268003
O O17 0.431004 0.000000 0.240641
#
# Coordination Sequence:
#
# PCOD9181122 Si02
#       7
#     8   8   8   8   8   8   8
#     4  10  19  32  52  76 108 144 191 240 283 330
#     4   9  17  30  49  73 102 145 195 239 278 327
#     4  10  20  34  56  85 115 151 192 236 282 335
#     4   9  20  36  62  90 113 151 186 216 275 335
#     4  10  19  32  52  76 108 145 191 238 283 333
#     4  11  18  36  62  83 117 148 184 231 275 335
#     4  10  20  34  56  85 114 151 194 234 281 338
#
# _framework density 23.856781000000002
#
# number of rings (size 3 to 8) (size 9 to 14) (size 15 to 20)
#    0.000    2.143    2.857    1.286    0.000    3.429 
#    0.000    0.714    0.000   20.571    0.000    0.000 
#    0.000    0.000    0.000    0.000    0.000    0.000 
#
# Total GULP energy -155939.394086 kJ/mol
# GULP energy per Si atom -5569.264075 kJ/mol
# Density = 2.380248 g / cm^3
# Si number density = 23.856781 Si / 1000 Ang^3
#
#
#
# Elastic Constant Matrix: (Units=GPa)
#
#
# Indices 1 2 3 4 5 6 
#
# 1 80.4569 6.8216 25.2081 0.0000 -29.4137 0.0000
# 2 6.8216 118.9391 32.2784 0.0000 -27.4242 0.0000
# 3 25.2081 32.2784 138.0652 0.0000 -57.9133 0.0000
# 4 0.0000 0.0000 0.0000 7.1869 0.0000 1.5369
# 5 -29.4137 -27.4242 -57.9133 0.0000 38.9720 0.0000
# 6 0.0000 0.0000 0.0000 1.5369 0.0000 9.3425
#
#
#
# Elastic Compliance Matrix: (Units=1/GPa)
#
#
# Indices 1 2 3 4 5 6 
#
# 1 0.020504 0.003525 0.007869 0.000000 0.029649 0.000000
# 2 0.003525 0.010783 0.003011 0.000000 0.014723 0.000000
# 3 0.007869 0.003011 0.022519 0.000000 0.041522 0.000000
# 4 0.000000 0.000000 0.000000 0.144215 0.000000 -0.023724
# 5 0.029649 0.014723 0.041522 0.000000 0.120100 0.000000
# 6 0.000000 0.000000 0.000000 -0.023724 0.000000 0.110941
#
#
# Mechanical properties :
#
#
# Convention : Reuss Voigt Hill
#
# Bulk Modulus (GPa) = 12.10421 51.78634 31.94528
# Shear Modulus (GPa) = 11.68795 29.31048 20.49921
#
# Velocity S-wave (km/s) = 2.21582 3.50894 2.93450
# Velocity P-wave (km/s) = 3.41045 6.17829 4.99011
#
# Compressibility (1/GPa) = 0.08261589
#
# Stress axis : x y z
#
# Youngs Moduli (GPa) = 48.77129 92.73836 44.40647
#
# Poissons Ratio (x) = -0.32688 -0.34943
# Poissons Ratio (y) = -0.17191 -0.13372
# Poissons Ratio (z) = -0.38378 -0.27925
#
# Static dielectric constant tensor:
#      x y z
#    x 1.999060 0.000000 0.056970 
#    y 0.000000 1.962100 0.000000 
#    z 0.056970 0.000000 2.019310 
# 
# From -- ./inp_files/332568.got.cif
#   From: 2010.05.17/outbox.cif.g08.bks.cpg/sg12_167_cif.got.tgz:332568.got - 2010.06.03 13:09:07.
