data_PCOD9181288
_publ_section_title
;
Structure prediction by ZEFSAII (Michael W. Deem and Ramdas Pophale) SiO2 
 PCOD9181288
Probable space group: C 2/M
;
_chemical_formula_sum "Si O2"
_cell_formula_units_Z 64
_cell_length_a 24.933472
_cell_length_b 9.020467
_cell_length_c 21.053030
_cell_angle_alpha 90.000000
_cell_angle_beta 52.702299
_cell_angle_gamma 90.000000
_cell_volume 3766.737627
_symmetry_space_group_name_H-M "C 2/M"
_symmetry_group_IT_number 12
_symmetry_cell_setting 'monoclinic'
loop_
_space_group_symop_operation_xyz
x,y,z
-x,y,-z
-x,-y,-z
x,-y,z
1/2+x,1/2+y,z
1/2-x,1/2+y,-z
1/2-x,1/2-y,-z
1/2+x,1/2-y,z
loop_
_atom_site_type_symbol
_atom_site_label
_atom_site_fract_x
_atom_site_fract_y
_atom_site_fract_z
Si Si1 0.918344 0.823639 0.736876
Si Si2 0.283155 0.822665 0.789446
Si Si3 0.719468 0.178634 0.711061
Si Si4 0.290631 0.321929 0.528836
Si Si5 0.425067 0.822787 0.237197
Si Si6 0.430365 0.678000 0.371563
Si Si7 0.935531 0.176683 0.874910
Si Si8 0.207772 0.821302 0.973232
O O1 0.858628 0.736616 0.746351
O O2 0.917795 0.795037 0.813339
O O3 0.994075 0.783034 0.660763
O O4 0.908512 0.000000 0.734789
O O5 0.250324 0.753654 0.750575
O O6 0.240089 0.779082 0.882860
O O7 0.283309 0.000000 0.785254
O O8 0.760061 0.223606 0.618293
O O9 0.641109 0.217062 0.755520
O O10 0.724395 0.000000 0.713317
O O11 0.283265 0.500000 0.529584
O O12 0.250000 0.250000 0.500000
O O13 0.369478 0.286000 0.462492
O O14 0.417318 0.755590 0.313429
O O15 0.495128 0.759646 0.160234
O O16 0.428340 0.000000 0.239636
O O17 0.430527 0.500000 0.360683
O O18 0.946374 0.000000 0.873124
O O19 0.870595 0.220828 0.962413
O O20 0.211331 0.000000 0.976926
O O21 0.250000 0.750000 0.000000
#
# Coordination Sequence:
#
# PCOD9181288 Si02
#       8
#     8   8   8   8   8   8   8   8
#     4   9  17  32  53  77 106 141 173 212 269 322
#     4  11  23  36  54  80 107 141 182 222 267 318
#     4  10  22  38  54  76 110 148 180 215 267 324
#     4  10  19  34  56  82 108 139 181 224 264 312
#     4  10  19  32  52  80 109 138 176 220 265 313
#     4   9  18  32  54  81 108 138 175 218 267 318
#     4   9  18  33  54  79 107 139 174 217 269 320
#     4  10  20  35  55  81 108 136 179 226 267 315
#
# _framework density 16.990829999999999
#
# number of rings (size 3 to 8) (size 9 to 14) (size 15 to 20)
#    0.000    2.250    2.500    1.500    0.000    4.500 
#    0.000    1.250    0.000    7.500    0.000    0.000 
#    0.000    0.000    0.000    0.000    0.000    0.000 
#
# Total GULP energy -178506.491103 kJ/mol
# GULP energy per Si atom -5578.327847 kJ/mol
# Density = 1.695216 g / cm^3
# Si number density = 16.990830 Si / 1000 Ang^3
#
#
#
# Elastic Constant Matrix: (Units=GPa)
#
#
# Indices 1 2 3 4 5 6 
#
# 1 162.3907 57.6461 96.5884 0.0008 -17.1629 -0.0006
# 2 57.6461 27.5944 39.6216 0.0028 -4.6741 -0.0030
# 3 96.5884 39.6216 127.7715 0.0005 -14.7116 -0.0008
# 4 0.0008 0.0028 0.0005 22.6051 -0.0003 -1.2129
# 5 -17.1629 -4.6741 -14.7116 -0.0003 30.9092 0.0005
# 6 -0.0006 -0.0030 -0.0008 -1.2129 0.0005 31.3289
#
#
#
# Elastic Compliance Matrix: (Units=1/GPa)
#
#
# Indices 1 2 3 4 5 6 
#
# 1 0.026243 -0.047440 -0.004524 0.000005 0.005245 -0.000004
# 2 -0.047440 0.151084 -0.012052 -0.000016 -0.009231 0.000013
# 3 -0.004524 -0.012052 0.015324 0.000001 0.002959 -0.000001
# 4 0.000005 -0.000016 0.000001 0.044330 0.000001 0.001716
# 5 0.005245 -0.009231 0.002959 0.000001 0.035278 -0.000001
# 6 -0.000004 0.000013 -0.000001 0.001716 -0.000001 0.031986
#
#
# Mechanical properties :
#
#
# Convention : Reuss Voigt Hill
#
# Bulk Modulus (GPa) = 15.47481 78.38542 46.93012
# Shear Modulus (GPa) = 11.01769 25.22869 18.12319
#
# Velocity S-wave (km/s) = 2.54923 3.85754 3.26950
# Velocity P-wave (km/s) = 4.21809 8.12865 6.47562
#
# Compressibility (1/GPa) = 0.06462113
#
# Stress axis : x y z
#
# Youngs Moduli (GPa) = 38.10496 6.61883 65.25682
#
# Poissons Ratio (x) = 0.31400 0.29520
# Poissons Ratio (y) = 1.80769 0.78646
# Poissons Ratio (z) = 0.17237 0.07977
#
# Static dielectric constant tensor:
#      x y z
#    x 1.548920 0.000000 -0.031290 
#    y 0.000000 1.568640 0.000000 
#    z -0.031290 0.000000 1.582190 
# 
# From -- ./inp_files/319950.got.cif
#   From: 2010.05.17/outbox.cif.g08.bks.cpg/sg12_160_cif.got.tgz:319950.got - 2010.06.03 13:09:07.
