data_PCOD9181832
_publ_section_title
;
Structure prediction by ZEFSAII (Michael W. Deem and Ramdas Pophale) SiO2 
 PCOD9181832
Probable space group: C 2/M
;
_chemical_formula_sum "Si O2"
_cell_formula_units_Z 64
_cell_length_a 23.133067
_cell_length_b 7.809136
_cell_length_c 21.995953
_cell_angle_alpha 90.000000
_cell_angle_beta 52.528326
_cell_angle_gamma 90.000000
_cell_volume 3153.626862
_symmetry_space_group_name_H-M "C 2/M"
_symmetry_group_IT_number 12
_symmetry_cell_setting 'monoclinic'
loop_
_space_group_symop_operation_xyz
x,y,z
-x,y,-z
-x,-y,-z
x,-y,z
1/2+x,1/2+y,z
1/2-x,1/2+y,-z
1/2-x,1/2-y,-z
1/2+x,1/2-y,z
loop_
_atom_site_type_symbol
_atom_site_label
_atom_site_fract_x
_atom_site_fract_y
_atom_site_fract_z
Si Si1 0.423382 0.804176 0.567083
Si Si2 0.656112 0.698787 0.498552
Si Si3 0.175948 0.207908 0.617168
Si Si4 0.700818 0.789571 0.265329
Si Si5 0.999614 0.701109 0.931767
Si Si6 0.720709 0.201670 0.115712
Si Si7 0.353360 0.293014 0.229429
Si Si8 0.857073 0.798641 0.951434
O O1 0.500000 0.720466 0.500000
O O2 0.378171 0.804109 0.533726
O O3 0.370069 0.728455 0.652304
O O4 0.439267 0.000000 0.576493
O O5 0.635684 0.500000 0.504144
O O6 0.743138 0.716105 0.437395
O O7 0.636670 0.756250 0.579445
O O8 0.141290 0.258381 0.703305
O O9 0.182880 0.000000 0.611832
O O10 0.703393 0.730467 0.193787
O O11 0.775550 0.738578 0.251461
O O12 0.699002 0.000000 0.268446
O O13 0.983725 0.500000 0.946335
O O14 0.078563 0.727329 0.852107
O O15 0.935877 0.774890 0.930294
O O16 0.000000 0.774208 0.000000
O O17 0.657761 0.222496 0.105678
O O18 0.733695 0.000000 0.116613
O O19 0.794506 0.272402 0.037122
O O20 0.354955 0.500000 0.226013
O O21 0.843400 0.000000 0.953261
#
# Coordination Sequence:
#
# PCOD9181832 Si02
#       8
#     8   8   8   8   8   8   8   8
#     4  10  20  36  56  77 107 146 186 226 273 329
#     4  10  19  32  54  81 110 141 177 223 276 326
#     4   9  18  34  56  80 108 143 179 222 271 325
#     4   9  17  33  57  81 105 139 184 226 268 322
#     4  11  24  39  55  81 117 148 177 225 280 325
#     4   9  18  34  58  83 109 142 184 231 271 313
#     4  10  19  35  59  81 108 145 186 230 271 323
#     4  10  20  36  58  82 109 146 187 221 267 328
#
# _framework density 20.294094000000001
#
# number of rings (size 3 to 8) (size 9 to 14) (size 15 to 20)
#    0.000    2.250    1.250    1.875    0.000    3.750 
#    2.250    1.250    0.000    0.000    0.000    0.000 
#    0.000    0.000    0.000    0.000    0.000    0.000 
#
# Total GULP energy -178530.714890 kJ/mol
# GULP energy per Si atom -5579.084840 kJ/mol
# Density = 2.024790 g / cm^3
# Si number density = 20.294094 Si / 1000 Ang^3
#
#
#
# Elastic Constant Matrix: (Units=GPa)
#
#
# Indices 1 2 3 4 5 6 
#
# 1 58.2719 -6.9669 55.6488 0.0013 0.7835 -0.0022
# 2 -6.9669 23.5303 1.7784 -0.0014 2.8312 -0.0062
# 3 55.6488 1.7784 162.0087 -0.0008 19.2431 -0.0026
# 4 0.0013 -0.0014 -0.0008 3.6267 0.0005 -2.8479
# 5 0.7835 2.8312 19.2431 0.0005 34.3669 0.0007
# 6 -0.0022 -0.0062 -0.0026 -2.8479 0.0007 8.2966
#
#
#
# Elastic Compliance Matrix: (Units=1/GPa)
#
#
# Indices 1 2 3 4 5 6 
#
# 1 0.027829 0.008483 -0.010170 -0.000003 0.004361 0.000009
# 2 0.008483 0.045511 -0.003155 0.000057 -0.002176 0.000055
# 3 -0.010170 -0.003155 0.010329 0.000006 -0.005292 0.000001
# 4 -0.000003 0.000057 0.000006 0.377490 -0.000016 0.129579
# 5 0.004361 -0.002176 -0.005292 -0.000016 0.032141 -0.000011
# 6 0.000009 0.000055 0.000001 0.129579 -0.000011 0.165011
#
#
# Mechanical properties :
#
#
# Convention : Reuss Voigt Hill
#
# Bulk Modulus (GPa) = 13.51627 38.30351 25.90989
# Shear Modulus (GPa) = 7.21859 22.14806 14.68333
#
# Velocity S-wave (km/s) = 1.88805 3.30715 2.69276
# Velocity P-wave (km/s) = 3.38047 5.78776 4.73950
#
# Compressibility (1/GPa) = 0.07398491
#
# Stress axis : x y z
#
# Youngs Moduli (GPa) = 35.93386 21.97292 96.81415
#
# Poissons Ratio (x) = -0.18641 0.98462
# Poissons Ratio (y) = -0.30484 0.30546
# Poissons Ratio (z) = 0.36545 0.06933
#
# Static dielectric constant tensor:
#      x y z
#    x 1.695580 0.000000 0.016370 
#    y 0.000000 1.742170 0.000000 
#    z 0.016370 0.000000 1.734020 
# 
# From -- ./inp_files/319755.got.cif
#   From: 2010.05.17/outbox.cif.g08.bks.cpg/sg12_160_cif.got.tgz:319755.got - 2010.06.03 13:09:07.
