data_PCOD9181379
_publ_section_title
;
Structure prediction by ZEFSAII (Michael W. Deem and Ramdas Pophale) SiO2 
 PCOD9181379
Probable space group: C 2/M
;
_chemical_formula_sum "Si O2"
_cell_formula_units_Z 56
_cell_length_a 20.323591
_cell_length_b 7.617486
_cell_length_c 25.170769
_cell_angle_alpha 90.000000
_cell_angle_beta 44.461851
_cell_angle_gamma 90.000000
_cell_volume 2729.455032
_symmetry_space_group_name_H-M "C 2/M"
_symmetry_group_IT_number 12
_symmetry_cell_setting 'monoclinic'
loop_
_space_group_symop_operation_xyz
x,y,z
-x,y,-z
-x,-y,-z
x,-y,z
1/2+x,1/2+y,z
1/2-x,1/2+y,-z
1/2-x,1/2-y,-z
1/2+x,1/2-y,z
loop_
_atom_site_type_symbol
_atom_site_label
_atom_site_fract_x
_atom_site_fract_y
_atom_site_fract_z
Si Si1 0.300153 0.710297 0.526008
Si Si2 0.836477 0.291875 0.989530
Si Si3 0.495962 0.714000 0.564575
Si Si4 0.330217 0.215048 0.301728
Si Si5 0.289507 0.203396 0.844909
Si Si6 0.203150 0.794141 0.279889
Si Si7 0.043432 0.284752 0.174278
O O1 0.305311 0.500000 0.529175
O O2 0.250000 0.750000 0.500000
O O3 0.406945 0.777112 0.465744
O O4 0.237862 0.773629 0.611469
O O5 0.844566 0.500000 0.991566
O O6 0.803129 0.218750 0.065047
O O7 0.750000 0.250000 0.000000
O O8 0.924649 0.230057 0.903648
O O9 0.500000 0.757791 0.500000
O O10 0.495426 0.500000 0.568433
O O11 0.399839 0.779441 0.646308
O O12 0.283557 0.274140 0.273118
O O13 0.437789 0.272172 0.246875
O O14 0.333491 0.000000 0.300649
O O15 0.277652 0.280111 0.793475
O O16 0.377993 0.276051 0.828320
O O17 0.310067 0.000000 0.824864
O O18 0.197606 0.000000 0.296134
O O19 0.046971 0.500000 0.172608
#
# Coordination Sequence:
#
# PCOD9181379 Si02
#       7
#     8   8   8   8   8   8   8
#     4  10  20  33  52  75 103 133 166 207 248 296
#     4   9  16  30  52  76 103 132 166 208 251 299
#     4   9  16  31  52  74  98 131 172 208 244 292
#     4   9  17  32  52  73  98 132 169 205 247 297
#     4  10  20  33  51  75 104 133 166 209 251 301
#     4  10  19  32  53  75  98 131 172 211 248 294
#     4   8  16  30  50  75  99 126 164 206 247 292
#
# _framework density 20.516915999999998
#
# number of rings (size 3 to 8) (size 9 to 14) (size 15 to 20)
#    0.000    2.714    1.429    1.714    2.000    0.000 
#    0.000    1.429    0.000   11.143    0.000    0.000 
#    0.000    0.000    0.000    0.000    0.000    0.000 
#
# Total GULP energy -156123.754782 kJ/mol
# GULP energy per Si atom -5575.848385 kJ/mol
# Density = 2.047022 g / cm^3
# Si number density = 20.516916 Si / 1000 Ang^3
#
#
#
# Elastic Constant Matrix: (Units=GPa)
#
#
# Indices 1 2 3 4 5 6 
#
# 1 101.9873 1.1978 23.2119 0.0001 13.1348 -0.0021
# 2 1.1978 35.1254 -2.4557 0.0002 -7.4188 -0.0036
# 3 23.2119 -2.4557 63.9062 -0.0003 17.6656 -0.0006
# 4 0.0001 0.0002 -0.0003 4.3541 0.0001 3.3375
# 5 13.1348 -7.4188 17.6656 0.0001 28.6436 0.0001
# 6 -0.0021 -0.0036 -0.0006 3.3375 0.0001 9.6842
#
#
#
# Elastic Compliance Matrix: (Units=1/GPa)
#
#
# Indices 1 2 3 4 5 6 
#
# 1 0.010968 -0.001323 -0.003074 -0.000002 -0.003477 0.000003
# 2 -0.001323 0.030354 -0.000837 -0.000013 0.008984 0.000015
# 3 -0.003074 -0.000837 0.019774 0.000002 -0.011002 0.000000
# 4 -0.000002 -0.000013 0.000002 0.312120 -0.000005 -0.107566
# 5 -0.003477 0.008984 -0.011002 -0.000005 0.045619 0.000003
# 6 0.000003 0.000015 0.000000 -0.107566 0.000003 0.140332
#
#
# Mechanical properties :
#
#
# Convention : Reuss Voigt Hill
#
# Bulk Modulus (GPa) = 19.75175 27.21412 23.48294
# Shear Modulus (GPa) = 8.52503 20.47404 14.49954
#
# Velocity S-wave (km/s) = 2.04062 3.16240 2.66129
# Velocity P-wave (km/s) = 3.89874 5.16017 4.57316
#
# Compressibility (1/GPa) = 0.05062843
#
# Stress axis : x y z
#
# Youngs Moduli (GPa) = 91.17462 32.94495 50.57269
#
# Poissons Ratio (x) = 0.04359 0.15544
# Poissons Ratio (y) = 0.12064 0.04231
# Poissons Ratio (z) = 0.28023 0.02756
#
# Static dielectric constant tensor:
#      x y z
#    x 1.722970 0.000000 -0.017540 
#    y 0.000000 1.788950 0.000000 
#    z -0.017540 0.000000 1.726900 
# 
# From -- ./inp_files/346638.got.cif
#   From: 2010.05.17/outbox.cif.g08.bks.cpg/sg12_174_cif.got.tgz:346638.got - 2010.06.03 13:09:07.
