data_PCOD9181106
_publ_section_title
;
Structure prediction by ZEFSAII (Michael W. Deem and Ramdas Pophale) SiO2 
 PCOD9181106
Probable space group: C 2/M
;
_chemical_formula_sum "Si O2"
_cell_formula_units_Z 64
_cell_length_a 18.438900
_cell_length_b 17.378744
_cell_length_c 19.305501
_cell_angle_alpha 90.000000
_cell_angle_beta 33.138398
_cell_angle_gamma 90.000000
_cell_volume 3381.850096
_symmetry_space_group_name_H-M "C 2/M"
_symmetry_group_IT_number 12
_symmetry_cell_setting 'monoclinic'
loop_
_space_group_symop_operation_xyz
x,y,z
-x,y,-z
-x,-y,-z
x,-y,z
1/2+x,1/2+y,z
1/2-x,1/2+y,-z
1/2-x,1/2-y,-z
1/2+x,1/2-y,z
loop_
_atom_site_type_symbol
_atom_site_label
_atom_site_fract_x
_atom_site_fract_y
_atom_site_fract_z
Si Si1 0.151451 0.177471 0.362737
Si Si2 0.756658 0.411527 0.985244
Si Si3 0.457396 0.412513 0.165044
Si Si4 0.155546 0.087663 0.216506
Si Si5 0.430334 0.740011 0.125404
Si Si6 0.899420 0.847520 0.352546
Si Si7 0.770015 0.590898 0.395310
Si Si8 0.984805 0.305860 0.800403
O O1 0.160818 0.140934 0.278991
O O2 0.278531 0.234343 0.261516
O O3 0.185252 0.115270 0.395680
O O4 0.000000 0.205158 0.500000
O O5 0.802950 0.500000 0.936959
O O6 0.609673 0.407586 0.070443
O O7 0.747949 0.398578 0.075571
O O8 0.848137 0.342951 0.884594
O O9 0.427874 0.500000 0.171279
O O10 0.433593 0.352084 0.123989
O O11 0.372438 0.382908 0.298837
O O12 0.011086 0.099798 0.298992
O O13 0.175184 0.000000 0.223172
O O14 0.516287 0.766896 0.122977
O O15 0.500000 0.770023 0.000000
O O16 0.779902 0.857480 0.500533
O O17 0.957711 0.761958 0.294359
O O18 0.761182 0.500000 0.415036
O O19 0.918796 0.621066 0.266476
#
# Coordination Sequence:
#
# PCOD9181106 Si02
#       8
#     8   8   8   8   8   8   8   8
#     4  11  22  35  53  80 111 143 179 222 261 315
#     4   9  18  34  56  81 107 136 174 219 268 319
#     4   9  19  36  58  80 102 134 180 225 264 316
#     4  10  19  32  54  80 105 139 178 216 257 312
#     4  10  22  37  55  79 108 142 178 219 274 321
#     4  10  19  32  52  76 104 139 179 215 260 313
#     4  11  21  34  52  75 108 146 181 216 259 314
#     4  10  21  34  51  79 111 139 173 219 271 317
#
# _framework density 18.924551999999998
#
# number of rings (size 3 to 8) (size 9 to 14) (size 15 to 20)
#    0.000    2.000    1.250    3.750    0.000    6.250 
#    0.000    0.000    0.000    6.375    0.000    0.000 
#    0.000    0.000    0.000    0.000    0.000    0.000 
#
# Total GULP energy -178301.891977 kJ/mol
# GULP energy per Si atom -5571.934124 kJ/mol
# Density = 1.888148 g / cm^3
# Si number density = 18.924552 Si / 1000 Ang^3
#
#
#
# Elastic Constant Matrix: (Units=GPa)
#
#
# Indices 1 2 3 4 5 6 
#
# 1 16.1847 8.1714 3.9900 0.0003 3.5863 -0.0001
# 2 8.1714 106.2447 42.7578 0.0003 -0.2758 -0.0001
# 3 3.9900 42.7578 49.2593 0.0004 5.0925 -0.0001
# 4 0.0003 0.0003 0.0004 21.6912 -0.0003 -4.1896
# 5 3.5863 -0.2758 5.0925 -0.0003 24.0974 0.0001
# 6 -0.0001 -0.0001 -0.0001 -4.1896 0.0001 16.5581
#
#
#
# Elastic Compliance Matrix: (Units=1/GPa)
#
#
# Indices 1 2 3 4 5 6 
#
# 1 0.066596 -0.005215 0.000167 -0.000001 -0.010006 0.000000
# 2 -0.005215 0.015072 -0.013044 0.000000 0.003705 0.000000
# 3 0.000167 -0.013044 0.032334 0.000000 -0.007007 0.000000
# 4 -0.000001 0.000000 0.000000 0.048470 0.000001 0.012264
# 5 -0.010006 0.003705 -0.007007 0.000001 0.044511 0.000000
# 6 0.000000 0.000000 0.000000 0.012264 0.000000 0.063497
#
#
# Mechanical properties :
#
#
# Convention : Reuss Voigt Hill
#
# Bulk Modulus (GPa) = 12.85040 31.28078 22.06559
# Shear Modulus (GPa) = 15.03294 20.25398 17.64346
#
# Velocity S-wave (km/s) = 2.82150 3.27501 3.05668
# Velocity P-wave (km/s) = 4.17367 5.55572 4.91353
#
# Compressibility (1/GPa) = 0.07781861
#
# Stress axis : x y z
#
# Youngs Moduli (GPa) = 15.01590 66.34679 30.92749
#
# Poissons Ratio (x) = 0.34601 -0.00517
# Poissons Ratio (y) = 0.07831 0.40341
# Poissons Ratio (z) = -0.00251 0.86540
#
# Static dielectric constant tensor:
#      x y z
#    x 1.643150 0.000000 -0.007630 
#    y 0.000000 1.667150 0.000000 
#    z -0.007630 0.000000 1.721570 
# 
# From -- ./inp_files/278160.got.cif
#   From: 2010.05.17/outbox.cif.g08.bks.cpg/sg12_140_cif.got.tgz:278160.got - 2010.06.03 13:09:07.
