data_PCOD9181604
_publ_section_title
;
Structure prediction by ZEFSAII (Michael W. Deem and Ramdas Pophale) SiO2 
 PCOD9181604
Probable space group: C 2/M
;
_chemical_formula_sum "Si O2"
_cell_formula_units_Z 58
_cell_length_a 20.231625
_cell_length_b 10.050441
_cell_length_c 23.389189
_cell_angle_alpha 90.000000
_cell_angle_beta 42.875750
_cell_angle_gamma 90.000000
_cell_volume 3235.953143
_symmetry_space_group_name_H-M "C 2/M"
_symmetry_group_IT_number 12
_symmetry_cell_setting 'monoclinic'
loop_
_space_group_symop_operation_xyz
x,y,z
-x,y,-z
-x,-y,-z
x,-y,z
1/2+x,1/2+y,z
1/2-x,1/2+y,-z
1/2-x,1/2-y,-z
1/2+x,1/2-y,z
loop_
_atom_site_type_symbol
_atom_site_label
_atom_site_fract_x
_atom_site_fract_y
_atom_site_fract_z
Si Si1 0.399286 0.846378 0.527178
Si Si2 0.989399 0.152514 0.382940
Si Si3 0.500000 0.000000 0.000000
Si Si4 0.811591 0.849628 0.669645
Si Si5 0.720657 0.652806 0.906618
Si Si6 0.626364 0.771981 0.861466
Si Si7 0.904740 0.157978 0.799095
Si Si8 0.450766 0.658780 0.900076
O O1 0.500000 0.848106 0.500000
O O2 0.422329 0.761458 0.455825
O O3 0.324709 0.762229 0.613017
O O4 0.371552 0.000000 0.534819
O O5 0.092853 0.157241 0.350720
O O6 0.015210 0.179705 0.300732
O O7 0.953111 0.000000 0.412011
O O8 0.577355 0.114572 0.930371
O O9 0.717666 0.823580 0.767480
O O10 0.808981 0.000000 0.647336
O O11 0.750564 0.500000 0.898161
O O12 0.663671 0.662659 0.882817
O O13 0.811243 0.751799 0.846305
O O14 0.646763 0.696844 0.003559
O O15 0.543527 0.722140 0.871132
O O16 0.941469 0.191153 0.839267
O O17 0.879507 0.000000 0.813250
O O18 0.458596 0.500000 0.900532
#
# Coordination Sequence:
#
# PCOD9181604 Si02
#       8
#     8   8   2   8   8   8   8   8
#     4   9  18  31  50  79 113 142 173 223 286 341
#     4   9  17  32  54  79 108 142 180 227 278 334
#     4  12  24  36  58  88 110 160 194 242 286 320
#     4  10  19  32  53  81 108 141 186 231 276 329
#     4  11  22  36  55  82 112 149 189 240 288 332
#     4  12  22  37  58  82 114 149 196 238 279 334
#     4  10  21  37  59  81 111 150 193 232 277 341
#     4  10  22  39  54  78 112 153 190 234 287 337
#
# _framework density 17.923622999999999
#
# number of rings (size 3 to 8) (size 9 to 14) (size 15 to 20)
#    0.000    1.793    3.448    1.241    0.966    4.414 
#    1.241    0.000    0.000    0.828    0.000    0.000 
#    0.000    0.000    0.000    0.000    0.000    0.000 
#
# Total GULP energy -161529.983285 kJ/mol
# GULP energy per Si atom -5569.999424 kJ/mol
# Density = 1.788283 g / cm^3
# Si number density = 17.923623 Si / 1000 Ang^3
#
#
#
# Elastic Constant Matrix: (Units=GPa)
#
#
# Indices 1 2 3 4 5 6 
#
# 1 41.6077 19.9915 8.5081 0.0000 20.8650 0.0000
# 2 19.9915 86.2304 55.1170 0.0001 19.2186 -0.0001
# 3 8.5081 55.1170 102.9453 0.0000 20.6948 0.0001
# 4 0.0000 0.0001 0.0000 -1.7642 0.0000 62.7240
# 5 20.8650 19.2186 20.6948 0.0000 21.5668 0.0000
# 6 0.0000 -0.0001 0.0001 62.7240 0.0000 -123.9779
#
#
#
# Elastic Compliance Matrix: (Units=1/GPa)
#
#
# Indices 1 2 3 4 5 6 
#
# 1 0.052541 -0.006435 0.010121 0.000000 -0.054810 0.000000
# 2 -0.006435 0.019686 -0.009581 0.000000 -0.002124 0.000000
# 3 0.010121 -0.009581 0.017667 0.000000 -0.018207 0.000000
# 4 0.000000 0.000000 0.000000 0.033367 0.000000 0.016881
# 5 -0.054810 -0.002124 -0.018207 0.000000 0.118757 0.000000
# 6 0.000000 0.000000 0.000000 0.016881 0.000000 0.000475
#
#
# Mechanical properties :
#
#
# Convention : Reuss Voigt Hill
#
# Bulk Modulus (GPa) = 12.80326 44.22406 28.51366
# Shear Modulus (GPa) = 17.83688 -11.02394 3.40647
#
# Velocity S-wave (km/s) = 3.15804 -2.48271 1.38010
# Velocity P-wave (km/s) = 4.52287 4.06309 4.29913
#
# Compressibility (1/GPa) = 0.07810511
#
# Stress axis : x y z
#
# Youngs Moduli (GPa) = 19.03258 50.79732 56.60195
#
# Poissons Ratio (x) = 0.32686 -0.57286
# Poissons Ratio (y) = 0.12247 0.54232
# Poissons Ratio (z) = -0.19263 0.48670
#
# Static dielectric constant tensor:
#      x y z
#    x 1.599140 0.000000 0.018950 
#    y 0.000000 1.604580 0.000000 
#    z 0.018950 0.000000 1.604460 
# 
# From -- ./inp_files/281117.got.cif
#   From: 2010.05.17/outbox.cif.g08.bks.cpg/sg12_141_cif.got.tgz:281117.got - 2010.06.03 13:09:07.
