data_PCOD9181907
_publ_section_title
;
Structure prediction by ZEFSAII (Michael W. Deem and Ramdas Pophale) SiO2 
 PCOD9181907
Probable space group: C 2/M
;
_chemical_formula_sum "Si O2"
_cell_formula_units_Z 64
_cell_length_a 26.449059
_cell_length_b 12.871885
_cell_length_c 14.067954
_cell_angle_alpha 90.000000
_cell_angle_beta 136.807560
_cell_angle_gamma 90.000000
_cell_volume 3278.125864
_symmetry_space_group_name_H-M "C 2/M"
_symmetry_group_IT_number 12
_symmetry_cell_setting 'monoclinic'
loop_
_space_group_symop_operation_xyz
x,y,z
-x,y,-z
-x,-y,-z
x,-y,z
1/2+x,1/2+y,z
1/2-x,1/2+y,-z
1/2-x,1/2-y,-z
1/2+x,1/2-y,z
loop_
_atom_site_type_symbol
_atom_site_label
_atom_site_fract_x
_atom_site_fract_y
_atom_site_fract_z
Si Si1 0.161690 0.116249 0.101582
Si Si2 0.505142 0.617879 0.119480
Si Si3 0.833020 0.121662 0.362796
Si Si4 0.177683 0.620944 0.453869
Si Si5 0.049501 0.620211 0.663719
Si Si6 0.205872 0.722167 0.310773
Si Si7 0.289055 0.791928 0.148192
Si Si8 0.444639 0.257108 0.635423
O O1 0.162110 0.215389 0.171546
O O2 0.227776 0.140052 0.119711
O O3 0.174150 0.000000 0.160679
O O4 0.077706 0.114054 0.951049
O O5 0.535901 0.500000 0.162845
O O6 0.548273 0.690849 0.251284
O O7 0.500000 0.646435 0.000000
O O8 0.768908 0.149681 0.351236
O O9 0.813064 0.194052 0.246229
O O10 0.909716 0.159833 0.514853
O O11 0.833857 0.000000 0.342750
O O12 0.185935 0.500000 0.475154
O O13 0.160430 0.654331 0.322402
O O14 0.252300 0.682450 0.580101
O O15 0.116004 0.665886 0.439110
O O16 0.040807 0.500000 0.682392
O O17 0.135602 0.644443 0.764879
O O18 0.000000 0.633030 0.500000
O O19 0.017541 0.702635 0.695412
O O20 0.250000 0.750000 0.000000
#
# Coordination Sequence:
#
# PCOD9181907 Si02
#       8
#     8   8   8   8   8   8   8   8
#     4  10  20  36  58  83 110 149 197 243 294 354
#     4  10  21  37  60  89 123 162 200 243 300 366
#     4  10  21  37  58  85 118 157 195 242 306 368
#     4  10  19  32  54  83 113 147 188 234 290 353
#     4  11  23  41  64  90 120 161 213 265 318 367
#     4   9  19  33  53  82 114 147 183 236 293 351
#     4  11  23  41  61  87 122 156 203 259 309 369
#     4  11  21  38  59  86 119 157 202 252 300 358
#
# _framework density 19.523351000000002
#
# number of rings (size 3 to 8) (size 9 to 14) (size 15 to 20)
#    0.000    1.750    1.250    3.375    0.000    1.000 
#    0.000    5.625    0.000    9.000    0.000    0.000 
#    0.000    0.000    0.000    0.000    0.000    0.000 
#
# Total GULP energy -178491.182492 kJ/mol
# GULP energy per Si atom -5577.849453 kJ/mol
# Density = 1.947891 g / cm^3
# Si number density = 19.523351 Si / 1000 Ang^3
#
#
#
# Elastic Constant Matrix: (Units=GPa)
#
#
# Indices 1 2 3 4 5 6 
#
# 1 51.7083 17.7912 12.0001 0.0000 7.1303 0.0000
# 2 17.7912 111.2333 27.5418 0.0000 -2.0696 0.0000
# 3 12.0001 27.5418 73.7613 0.0000 -5.8552 0.0000
# 4 0.0000 0.0000 0.0000 19.7154 0.0000 0.9935
# 5 7.1303 -2.0696 -5.8552 0.0000 30.1768 0.0000
# 6 0.0000 0.0000 0.0000 0.9935 0.0000 19.1187
#
#
#
# Elastic Compliance Matrix: (Units=1/GPa)
#
#
# Indices 1 2 3 4 5 6 
#
# 1 0.021829 -0.002871 -0.002950 0.000000 -0.005927 0.000000
# 2 -0.002871 0.010284 -0.003314 0.000000 0.000741 0.000000
# 3 -0.002950 -0.003314 0.015551 0.000000 0.003487 0.000000
# 4 0.000000 0.000000 0.000000 0.050855 0.000000 -0.002643
# 5 -0.005927 0.000741 0.003487 0.000000 0.035266 0.000000
# 6 0.000000 0.000000 0.000000 -0.002643 0.000000 0.052442
#
#
# Mechanical properties :
#
#
# Convention : Reuss Voigt Hill
#
# Bulk Modulus (GPa) = 34.02034 39.04099 36.53067
# Shear Modulus (GPa) = 23.33232 25.76017 24.54625
#
# Velocity S-wave (km/s) = 3.46077 3.63637 3.54966
# Velocity P-wave (km/s) = 5.78209 6.13770 5.96255
#
# Compressibility (1/GPa) = 0.02939418
#
# Stress axis : x y z
#
# Youngs Moduli (GPa) = 45.81047 97.24139 64.30325
#
# Poissons Ratio (x) = 0.27922 0.18967
# Poissons Ratio (y) = 0.13154 0.21309
# Poissons Ratio (z) = 0.13513 0.32225
#
# Static dielectric constant tensor:
#      x y z
#    x 1.716660 0.000000 -0.024850 
#    y 0.000000 1.668140 0.000000 
#    z -0.024850 0.000000 1.741030 
# 
# From -- ./inp_files/250879.got.cif
#   From: 2010.05.17/outbox.cif.g08.bks.cpg/sg12_126_cif.got.tgz:250879.got - 2010.06.03 13:09:07.
