data_PCOD9181084
_publ_section_title
;
Structure prediction by ZEFSAII (Michael W. Deem and Ramdas Pophale) SiO2 
 PCOD9181084
Probable space group: C 2/M
;
_chemical_formula_sum "Si O2"
_cell_formula_units_Z 56
_cell_length_a 18.772495
_cell_length_b 7.693328
_cell_length_c 23.693355
_cell_angle_alpha 90.000000
_cell_angle_beta 128.047192
_cell_angle_gamma 90.000000
_cell_volume 2694.729901
_symmetry_space_group_name_H-M "C 2/M"
_symmetry_group_IT_number 12
_symmetry_cell_setting 'monoclinic'
loop_
_space_group_symop_operation_xyz
x,y,z
-x,y,-z
-x,-y,-z
x,-y,z
1/2+x,1/2+y,z
1/2-x,1/2+y,-z
1/2-x,1/2-y,-z
1/2+x,1/2-y,z
loop_
_atom_site_type_symbol
_atom_site_label
_atom_site_fract_x
_atom_site_fract_y
_atom_site_fract_z
Si Si1 0.453948 0.702329 0.662421
Si Si2 0.296146 0.708739 0.786469
Si Si3 0.992208 0.290266 0.931886
Si Si4 0.651284 0.209266 0.928065
Si Si5 0.353471 0.797818 0.201174
Si Si6 0.161683 0.293293 0.494466
Si Si7 0.219256 0.213106 0.349166
O O1 0.465220 0.500000 0.681100
O O2 0.548470 0.789623 0.722451
O O3 0.421362 0.719473 0.581771
O O4 0.371550 0.769234 0.661663
O O5 0.284897 0.500000 0.777662
O O6 0.396026 0.745446 0.857911
O O7 0.222125 0.779209 0.794332
O O8 0.282803 0.773475 0.716080
O O9 0.998693 0.500000 0.937151
O O10 0.073281 0.224445 0.931791
O O11 0.000000 0.225780 0.000000
O O12 0.642477 0.277763 0.859870
O O13 0.640701 0.000000 0.921157
O O14 0.750000 0.250000 0.000000
O O15 0.328261 0.000000 0.181415
O O16 0.149532 0.500000 0.490293
O O17 0.250000 0.250000 0.500000
O O18 0.192662 0.232573 0.571585
O O19 0.218434 0.000000 0.349989
#
# Coordination Sequence:
#
# PCOD9181084 Si02
#       7
#     8   8   8   8   8   8   8
#     4  10  19  32  52  76 101 132 171 210 251 301
#     4  10  20  35  54  75 100 131 170 210 248 296
#     4  10  21  36  53  75 104 135 166 203 249 299
#     4  10  21  36  54  78 105 133 168 207 250 300
#     4  10  21  35  51  74 103 133 167 210 255 298
#     4   9  16  29  50  75 103 132 166 209 254 300
#     4   8  16  31  51  75  99 127 166 208 249 296
#
# _framework density 20.781302
#
# number of rings (size 3 to 8) (size 9 to 14) (size 15 to 20)
#    0.000    2.429    0.000    3.429    0.000    2.000 
#    0.000    4.286    0.000    4.286    0.000    0.000 
#    0.000    0.000    0.000    0.000    0.000    0.000 
#
# Total GULP energy -156265.619868 kJ/mol
# GULP energy per Si atom -5580.914995 kJ/mol
# Density = 2.073400 g / cm^3
# Si number density = 20.781302 Si / 1000 Ang^3
#
#
#
# Elastic Constant Matrix: (Units=GPa)
#
#
# Indices 1 2 3 4 5 6 
#
# 1 161.9288 4.2335 102.4677 0.0000 -13.6876 0.0000
# 2 4.2335 33.5593 -13.6455 0.0000 -7.9243 0.0000
# 3 102.4677 -13.6455 189.5989 0.0000 -21.3851 0.0000
# 4 0.0000 0.0000 0.0000 25.2492 0.0000 9.9837
# 5 -13.6876 -7.9243 -21.3851 0.0000 33.0576 0.0000
# 6 0.0000 0.0000 0.0000 9.9837 0.0000 3.9725
#
#
#
# Elastic Compliance Matrix: (Units=1/GPa)
#
#
# Indices 1 2 3 4 5 6 
#
# 1 0.009770 -0.003607 -0.005589 0.000000 -0.000435 0.000000
# 2 -0.003607 0.035053 0.005665 0.000000 0.010574 0.000001
# 3 -0.005589 0.005665 0.009271 0.000000 0.005041 0.000000
# 4 0.000000 0.000000 0.000000 6.335657 0.000000-15.922989
# 5 -0.000435 0.010574 0.005041 0.000000 0.035866 0.000001
# 6 0.000000 0.000001 0.000000-15.922989 0.000001 40.269932
#
#
# Mechanical properties :
#
#
# Convention : Reuss Voigt Hill
#
# Bulk Modulus (GPa) = 21.26218 63.46648 42.36433
# Shear Modulus (GPa) = 0.10702 31.92461 16.01582
#
# Velocity S-wave (km/s) = 0.22718 3.92371 2.77913
# Velocity P-wave (km/s) = 3.21285 7.15079 5.54330
#
# Compressibility (1/GPa) = 0.04703186
#
# Stress axis : x y z
#
# Youngs Moduli (GPa) = 102.35918 28.52796 107.86378
#
# Poissons Ratio (x) = 0.10291 0.60280
# Poissons Ratio (y) = 0.36926 -0.61106
# Poissons Ratio (z) = 0.57204 -0.16161
#
# Static dielectric constant tensor:
#      x y z
#    x 1.734820 0.000000 -0.035790 
#    y 0.000000 1.781660 0.000000 
#    z -0.035790 0.000000 1.726690 
# 
# From -- ./inp_files/342502.got.cif
#   From: 2010.05.17/outbox.cif.g08.bks.cpg/sg12_172_cif.got.tgz:342502.got - 2010.06.03 13:09:07.
