data_PCOD9181792
_publ_section_title
;
Structure prediction by ZEFSAII (Michael W. Deem and Ramdas Pophale) SiO2 
 PCOD9181792
Probable space group: C 2/M
;
_chemical_formula_sum "Si O2"
_cell_formula_units_Z 64
_cell_length_a 12.745141
_cell_length_b 20.919433
_cell_length_c 17.440942
_cell_angle_alpha 90.000000
_cell_angle_beta 132.563382
_cell_angle_gamma 90.000000
_cell_volume 3424.953316
_symmetry_space_group_name_H-M "C 2/M"
_symmetry_group_IT_number 12
_symmetry_cell_setting 'monoclinic'
loop_
_space_group_symop_operation_xyz
x,y,z
-x,y,-z
-x,-y,-z
x,-y,z
1/2+x,1/2+y,z
1/2-x,1/2+y,-z
1/2-x,1/2-y,-z
1/2+x,1/2-y,z
loop_
_atom_site_type_symbol
_atom_site_label
_atom_site_fract_x
_atom_site_fract_y
_atom_site_fract_z
Si Si1 0.946077 0.430953 0.722410
Si Si2 0.889293 0.849508 0.785729
Si Si3 0.756183 0.216856 0.241738
Si Si4 0.779244 0.073535 0.865769
Si Si5 0.245393 0.180482 0.586526
Si Si6 0.506984 0.881860 0.086733
Si Si7 0.070149 0.806940 0.354500
Si Si8 0.709218 0.675063 0.991628
O O1 0.887246 0.500000 0.675745
O O2 0.851225 0.378494 0.636169
O O3 0.949928 0.421079 0.816537
O O4 0.108555 0.426332 0.775581
O O5 0.795414 0.789459 0.770260
O O6 0.848542 0.909173 0.818503
O O7 0.877320 0.853408 0.687743
O O8 0.054389 0.832715 0.879246
O O9 0.795059 0.189556 0.344956
O O10 0.622080 0.176561 0.142465
O O11 0.901807 0.208453 0.266742
O O12 0.818567 0.000000 0.910181
O O13 0.810084 0.133793 0.938234
O O14 0.119773 0.172624 0.463580
O O15 0.342313 0.241946 0.616024
O O16 0.500000 0.913790 0.000000
O O17 0.346721 0.858538 0.023042
O O18 0.750000 0.750000 0.000000
#
# Coordination Sequence:
#
# PCOD9181792 Si02
#       8
#     8   8   8   8   8   8   8   8
#     4   9  19  38  60  79 107 151 193 230 275 354
#     4  11  22  33  56  82 115 155 191 243 288 350
#     4  10  19  32  54  80 114 149 184 238 304 349
#     4  10  23  41  59  83 120 164 198 233 296 362
#     4   9  19  35  55  81 112 144 185 239 296 355
#     4  10  20  32  52  82 116 142 182 238 290 341
#     4  10  20  34  54  83 112 142 185 242 302 343
#     4  11  22  35  56  86 118 153 201 244 285 342
#
# _framework density 18.686385999999999
#
# number of rings (size 3 to 8) (size 9 to 14) (size 15 to 20)
#    0.000    2.000    1.250    2.250    5.250    1.250 
#    0.000    2.500    0.000   13.500    0.000    0.000 
#    0.000    0.000    0.000    0.000    0.000    0.000 
#
# Total GULP energy -178187.082331 kJ/mol
# GULP energy per Si atom -5568.346323 kJ/mol
# Density = 1.864385 g / cm^3
# Si number density = 18.686386 Si / 1000 Ang^3
#
#
#
# Elastic Constant Matrix: (Units=GPa)
#
#
# Indices 1 2 3 4 5 6 
#
# 1 85.6336 3.0160 38.7306 0.0000 -0.5347 0.0000
# 2 3.0160 55.7947 19.6758 0.0000 -7.0014 0.0000
# 3 38.7306 19.6758 70.8293 0.0000 -3.7301 0.0000
# 4 0.0000 0.0000 0.0000 13.1582 0.0000 2.4858
# 5 -0.5347 -7.0014 -3.7301 0.0000 24.2144 0.0000
# 6 0.0000 0.0000 0.0000 2.4858 0.0000 9.2190
#
#
#
# Elastic Compliance Matrix: (Units=1/GPa)
#
#
# Indices 1 2 3 4 5 6 
#
# 1 0.015811 0.002385 -0.009329 0.000000 -0.000398 0.000000
# 2 0.002385 0.020832 -0.006827 0.000000 0.005024 0.000000
# 3 -0.009329 -0.006827 0.021173 0.000000 0.001082 0.000000
# 4 0.000000 0.000000 0.000000 0.080077 0.000000 -0.021592
# 5 -0.000398 0.005024 0.001082 0.000000 0.042908 0.000000
# 6 0.000000 0.000000 0.000000 -0.021592 0.000000 0.114294
#
#
# Mechanical properties :
#
#
# Convention : Reuss Voigt Hill
#
# Bulk Modulus (GPa) = 33.03097 37.23359 35.13228
# Shear Modulus (GPa) = 15.02731 19.37400 17.20066
#
# Velocity S-wave (km/s) = 2.83889 3.22343 3.03725
# Velocity P-wave (km/s) = 5.33485 5.81573 5.58047
#
# Compressibility (1/GPa) = 0.03027462
#
# Stress axis : x y z
#
# Youngs Moduli (GPa) = 63.24900 48.00355 47.22983
#
# Poissons Ratio (x) = -0.11450 0.44061
# Poissons Ratio (y) = -0.15086 0.32242
# Poissons Ratio (z) = 0.59005 0.32770
#
# Static dielectric constant tensor:
#      x y z
#    x 1.663460 0.000000 -0.039600 
#    y 0.000000 1.669030 0.000000 
#    z -0.039600 0.000000 1.661940 
# 
# From -- ./inp_files/265099.got.cif
#   From: 2010.05.17/outbox.cif.g08.bks.cpg/sg12_133_cif.got.tgz:265099.got - 2010.06.03 13:09:07.
