data_PCOD9181675
_publ_section_title
;
Structure prediction by ZEFSAII (Michael W. Deem and Ramdas Pophale) SiO2 
 PCOD9181675
Probable space group: C 2/M
;
_chemical_formula_sum "Si O2"
_cell_formula_units_Z 64
_cell_length_a 12.386787
_cell_length_b 24.185126
_cell_length_c 12.120312
_cell_angle_alpha 90.000000
_cell_angle_beta 114.927076
_cell_angle_gamma 90.000000
_cell_volume 3292.712865
_symmetry_space_group_name_H-M "C 2/M"
_symmetry_group_IT_number 12
_symmetry_cell_setting 'monoclinic'
loop_
_space_group_symop_operation_xyz
x,y,z
-x,y,-z
-x,-y,-z
x,-y,z
1/2+x,1/2+y,z
1/2-x,1/2+y,-z
1/2-x,1/2-y,-z
1/2+x,1/2-y,z
loop_
_atom_site_type_symbol
_atom_site_label
_atom_site_fract_x
_atom_site_fract_y
_atom_site_fract_z
Si Si1 0.175419 0.434422 0.753328
Si Si2 0.913466 0.392879 0.704742
Si Si3 0.021164 0.166889 0.880538
Si Si4 0.984798 0.063270 0.272842
Si Si5 0.503139 0.212068 0.135561
Si Si6 0.234357 0.936140 0.459000
Si Si7 0.794464 0.561073 0.857844
Si Si8 0.221242 0.645655 0.961580
O O1 0.180804 0.500000 0.781936
O O2 0.225281 0.428137 0.650878
O O3 0.246012 0.395828 0.870547
O O4 0.039490 0.412259 0.707853
O O5 0.811388 0.397142 0.569595
O O6 0.877767 0.433396 0.788690
O O7 0.919064 0.333385 0.767528
O O8 0.989749 0.111763 0.802511
O O9 0.965974 0.225094 0.820263
O O10 0.163411 0.172742 0.936188
O O11 0.000000 0.159593 0.000000
O O12 0.844327 0.068823 0.239743
O O13 0.091294 0.069759 0.406678
O O14 0.999595 0.000000 0.236411
O O15 0.370946 0.192399 0.112281
O O16 0.500000 0.209243 0.000000
O O17 0.263808 0.000000 0.500568
O O18 0.802256 0.500000 0.910369
O O19 0.829301 0.605591 0.964815
#
# Coordination Sequence:
#
# PCOD9181675 Si02
#       8
#     8   8   8   8   8   8   8   8
#     4  10  20  32  52  82 115 146 179 223 278 330
#     4  11  21  34  54  79 113 148 187 224 268 324
#     4  10  20  34  56  79 107 142 182 221 274 323
#     4   9  20  36  55  81 110 141 182 228 272 326
#     4  10  20  36  52  78 108 142 183 224 270 324
#     4  10  20  36  55  78 111 147 186 227 272 324
#     4  10  19  32  53  83 115 146 181 223 275 325
#     4  10  19  33  53  80 109 144 178 224 269 327
#
# _framework density 19.436861
#
# number of rings (size 3 to 8) (size 9 to 14) (size 15 to 20)
#    0.000    2.000    1.250    3.000    0.000    2.250 
#    0.000    4.375    0.000    0.000   13.000    0.000 
#    0.000    0.000    0.000    0.000    0.000    0.000 
#
# Total GULP energy -178373.972587 kJ/mol
# GULP energy per Si atom -5574.186643 kJ/mol
# Density = 1.939262 g / cm^3
# Si number density = 19.436861 Si / 1000 Ang^3
#
#
#
# Elastic Constant Matrix: (Units=GPa)
#
#
# Indices 1 2 3 4 5 6 
#
# 1 31.7729 12.6287 -0.8398 0.0000 8.2792 0.0000
# 2 12.6287 95.7684 29.6725 0.0000 19.2735 0.0000
# 3 -0.8398 29.6725 56.1267 0.0000 12.2574 0.0000
# 4 0.0000 0.0000 0.0000 22.3747 0.0000 3.5506
# 5 8.2792 19.2735 12.2574 0.0000 20.0251 0.0000
# 6 0.0000 0.0000 0.0000 3.5506 0.0000 5.6483
#
#
#
# Elastic Compliance Matrix: (Units=1/GPa)
#
#
# Indices 1 2 3 4 5 6 
#
# 1 0.037076 -0.003585 0.005823 0.000000 -0.015442 0.000000
# 2 -0.003585 0.014502 -0.005767 0.000000 -0.008945 0.000000
# 3 0.005823 -0.005767 0.023393 0.000000 -0.011176 0.000000
# 4 0.000000 0.000000 0.000000 0.049646 0.000000 -0.031208
# 5 -0.015442 -0.008945 -0.011176 0.000000 0.071772 0.000000
# 6 0.000000 0.000000 0.000000 -0.031208 0.000000 0.196662
#
#
# Mechanical properties :
#
#
# Convention : Reuss Voigt Hill
#
# Bulk Modulus (GPa) = 14.72492 29.62118 22.17305
# Shear Modulus (GPa) = 11.82739 19.09006 15.45872
#
# Velocity S-wave (km/s) = 2.46946 3.13734 2.82322
# Velocity P-wave (km/s) = 3.96525 5.32885 4.69680
#
# Compressibility (1/GPa) = 0.06791206
#
# Stress axis : x y z
#
# Youngs Moduli (GPa) = 26.97154 68.95774 42.74712
#
# Poissons Ratio (x) = 0.24725 -0.24890
# Poissons Ratio (y) = 0.09671 0.24651
# Poissons Ratio (z) = -0.15705 0.39766
#
# Static dielectric constant tensor:
#      x y z
#    x 1.756850 0.000000 0.015100 
#    y 0.000000 1.672920 0.000000 
#    z 0.015100 0.000000 1.673490 
# 
# From -- ./inp_files/135980.got.cif
#   From: 2010.05.17/outbox.cif.g08.bks.cpg/sg12_68_cif.got.tgz:135980.got - 2010.06.03 13:09:07.
