data_PCOD9181537
_publ_section_title
;
Structure prediction by ZEFSAII (Michael W. Deem and Ramdas Pophale) SiO2 
 PCOD9181537
Probable space group: C 2/M
;
_chemical_formula_sum "Si O2"
_cell_formula_units_Z 56
_cell_length_a 9.393321
_cell_length_b 27.226335
_cell_length_c 17.223877
_cell_angle_alpha 90.000000
_cell_angle_beta 139.140881
_cell_angle_gamma 90.000000
_cell_volume 2881.712778
_symmetry_space_group_name_H-M "C 2/M"
_symmetry_group_IT_number 12
_symmetry_cell_setting 'monoclinic'
loop_
_space_group_symop_operation_xyz
x,y,z
-x,y,-z
-x,-y,-z
x,-y,z
1/2+x,1/2+y,z
1/2-x,1/2+y,-z
1/2-x,1/2-y,-z
1/2+x,1/2-y,z
loop_
_atom_site_type_symbol
_atom_site_label
_atom_site_fract_x
_atom_site_fract_y
_atom_site_fract_z
Si Si1 0.395298 0.788196 0.870624
Si Si2 0.741446 0.197121 0.877822
Si Si3 0.734953 0.396249 0.791263
Si Si4 0.578942 0.559442 0.877748
Si Si5 0.615150 0.559434 0.464820
Si Si6 0.344076 0.086828 0.133015
Si Si7 0.604620 0.054707 0.680007
O O1 0.589738 0.785351 0.887433
O O2 0.245950 0.739476 0.814357
O O3 0.260462 0.837568 0.800221
O O4 0.500000 0.793822 0.000000
O O5 0.665367 0.141460 0.834019
O O6 0.000000 0.192122 0.000000
O O7 0.733179 0.416486 0.877649
O O8 0.524566 0.415752 0.659698
O O9 0.941350 0.417138 0.830387
O O10 0.586061 0.500000 0.878640
O O11 0.336574 0.577308 0.753955
O O12 0.649744 0.576978 0.992373
O O13 0.500000 0.570536 0.500000
O O14 0.611529 0.500000 0.455045
O O15 0.867018 0.576283 0.566782
O O16 0.367228 0.051695 0.215309
O O17 0.602013 0.000000 0.644352
#
# Coordination Sequence:
#
# PCOD9181537 Si02
#       7
#     8   8   8   8   8   8   8
#     4  10  20  34  54  81 112 143 182 226 276 333
#     4  10  19  32  53  79 111 145 180 224 271 330
#     4  11  22  36  55  82 111 146 186 231 278 325
#     4  11  23  35  52  83 121 148 176 228 284 331
#     4  10  20  37  60  80 105 147 196 233 262 319
#     4  11  21  35  56  83 114 152 184 220 275 335
#     4  10  21  36  55  81 111 149 192 228 267 323
#
# _framework density 19.432887999999998
#
# number of rings (size 3 to 8) (size 9 to 14) (size 15 to 20)
#    0.000    1.571    1.429    6.000    0.000    5.143 
#    0.000    2.143    0.000    0.857    0.000    0.000 
#    0.000    0.000    0.000    0.000    0.000    0.000 
#
# Total GULP energy -156127.943326 kJ/mol
# GULP energy per Si atom -5575.997976 kJ/mol
# Density = 1.938866 g / cm^3
# Si number density = 19.432888 Si / 1000 Ang^3
#
#
#
# Elastic Constant Matrix: (Units=GPa)
#
#
# Indices 1 2 3 4 5 6 
#
# 1 111.4484 34.6756 18.1094 0.0000 13.8081 0.0000
# 2 34.6756 70.6445 10.4356 0.0000 -0.1504 0.0000
# 3 18.1094 10.4356 92.9915 0.0000 15.6945 0.0000
# 4 0.0000 0.0000 0.0000 6.3970 0.0000 17.6544
# 5 13.8081 -0.1504 15.6945 0.0000 30.6727 0.0000
# 6 0.0000 0.0000 0.0000 17.6544 0.0000 25.0549
#
#
#
# Elastic Compliance Matrix: (Units=1/GPa)
#
#
# Indices 1 2 3 4 5 6 
#
# 1 0.011398 -0.005486 -0.000803 0.000000 -0.004747 0.000000
# 2 -0.005486 0.017062 -0.001398 0.000000 0.003269 0.000000
# 3 -0.000803 -0.001398 0.012047 0.000000 -0.005810 0.000000
# 4 0.000000 0.000000 0.000000 -0.165486 0.000000 0.116606
# 5 -0.004747 0.003269 -0.005810 0.000000 0.037728 0.000000
# 6 0.000000 0.000000 0.000000 0.116606 0.000000 -0.042252
#
#
# Mechanical properties :
#
#
# Convention : Reuss Voigt Hill
#
# Bulk Modulus (GPa) = 39.78780 44.61397 42.20089
# Shear Modulus (GPa) = -47.28154 26.54918 -10.36618
#
# Velocity S-wave (km/s) = -4.93797 3.70022 -2.31213
# Velocity P-wave (km/s) = 3.46301 6.42365 3.82563
#
# Compressibility (1/GPa) = 0.02513333
#
# Stress axis : x y z
#
# Youngs Moduli (GPa) = 87.73145 58.61040 83.00521
#
# Poissons Ratio (x) = 0.32156 0.06664
# Poissons Ratio (y) = 0.48133 0.11604
# Poissons Ratio (z) = 0.07043 0.08193
#
# Static dielectric constant tensor:
#      x y z
#    x 1.714930 0.000000 0.025670 
#    y 0.000000 1.716750 0.000000 
#    z 0.025670 0.000000 1.681020 
# 
# From -- ./inp_files/125191.got.cif
#   From: 2010.05.17/outbox.cif.g08.bks.cpg/sg12_63_cif.got.tgz:125191.got - 2010.06.03 13:09:07.
