data_PCOD9181409
_publ_section_title
;
Structure prediction by ZEFSAII (Michael W. Deem and Ramdas Pophale) SiO2 
 PCOD9181409
Probable space group: C 2/M
;
_chemical_formula_sum "Si O2"
_cell_formula_units_Z 56
_cell_length_a 15.719062
_cell_length_b 7.521903
_cell_length_c 25.090134
_cell_angle_alpha 90.000000
_cell_angle_beta 62.841987
_cell_angle_gamma 90.000000
_cell_volume 2639.525551
_symmetry_space_group_name_H-M "C 2/M"
_symmetry_group_IT_number 12
_symmetry_cell_setting 'monoclinic'
loop_
_space_group_symop_operation_xyz
x,y,z
-x,y,-z
-x,-y,-z
x,-y,z
1/2+x,1/2+y,z
1/2-x,1/2+y,-z
1/2-x,1/2-y,-z
1/2+x,1/2-y,z
loop_
_atom_site_type_symbol
_atom_site_label
_atom_site_fract_x
_atom_site_fract_y
_atom_site_fract_z
Si Si1 0.025256 0.790299 0.934325
Si Si2 0.098282 0.283610 0.502039
Si Si3 0.060547 0.712837 0.631709
Si Si4 0.753822 0.288059 0.627220
Si Si5 0.345493 0.782038 0.711398
Si Si6 0.236953 0.781927 0.848739
Si Si7 0.670078 0.789246 0.067510
O O1 0.933628 0.772775 0.922566
O O2 0.126491 0.721945 0.883691
O O3 0.041604 0.000000 0.937609
O O4 0.000000 0.714485 0.000000
O O5 0.103055 0.500000 0.502613
O O6 0.092874 0.218887 0.564217
O O7 0.185970 0.219046 0.440764
O O8 0.000000 0.238553 0.500000
O O9 0.053233 0.500000 0.628932
O O10 0.142886 0.753213 0.650076
O O11 0.955650 0.776570 0.677714
O O12 0.768590 0.500000 0.623442
O O13 0.794832 0.222083 0.671395
O O14 0.289910 0.724130 0.779984
O O15 0.344772 0.000000 0.711835
O O16 0.292337 0.722178 0.886244
O O17 0.238049 0.000000 0.848133
O O18 0.663218 0.000000 0.074079
O O19 0.750000 0.750000 0.000000
#
# Coordination Sequence:
#
# PCOD9181409 Si02
#       7
#     8   8   8   8   8   8   8
#     4  10  19  35  56  79 106 138 171 209 261 312
#     4   9  15  28  51  76  99 131 175 215 248 298
#     4  10  19  32  53  77 103 135 173 213 257 304
#     4  10  19  32  53  77 102 133 174 216 255 302
#     4   9  18  34  54  74  99 141 181 206 246 313
#     4   9  19  35  54  76 106 138 172 212 258 310
#     4  11  21  35  56  82 108 136 171 214 261 310
#
# _framework density 21.215935000000002
#
# number of rings (size 3 to 8) (size 9 to 14) (size 15 to 20)
#    0.000    2.286    2.857    0.857    0.000    1.429 
#    0.000    0.714    0.000    4.286    0.000    0.000 
#    0.000    0.000    0.000    0.000    0.000    0.000 
#
# Total GULP energy -156397.937468 kJ/mol
# GULP energy per Si atom -5585.640624 kJ/mol
# Density = 2.116765 g / cm^3
# Si number density = 21.215935 Si / 1000 Ang^3
#
#
#
# Elastic Constant Matrix: (Units=GPa)
#
#
# Indices 1 2 3 4 5 6 
#
# 1 191.2842 -10.5736 112.0104 0.0000 -27.6412 0.0000
# 2 -10.5736 50.0366 8.4958 -0.0002 -1.2374 -0.0002
# 3 112.0104 8.4958 198.4753 0.0000 -23.3576 0.0001
# 4 0.0000 -0.0002 0.0000 -3.2562 0.0000 1.2985
# 5 -27.6412 -1.2374 -23.3576 0.0000 9.6979 0.0000
# 6 0.0000 -0.0002 0.0001 1.2985 0.0000 20.0558
#
#
#
# Elastic Compliance Matrix: (Units=1/GPa)
#
#
# Indices 1 2 3 4 5 6 
#
# 1 0.010762 0.003437 -0.003572 0.000000 0.022511 0.000000
# 2 0.003437 0.021233 -0.001922 -0.000001 0.007878 0.000000
# 3 -0.003572 -0.001922 0.008247 0.000000 0.009438 0.000000
# 4 0.000000 -0.000001 0.000000 -0.299374 0.000001 0.019383
# 5 0.022511 0.007878 0.009438 0.000001 0.191012 0.000000
# 6 0.000000 0.000000 0.000000 0.019383 0.000000 0.048606
#
#
# Mechanical properties :
#
#
# Convention : Reuss Voigt Hill
#
# Bulk Modulus (GPa) = 27.67770 73.29569 50.48670
# Shear Modulus (GPa) = -1488.83604 27.29038 -730.77283
#
# Velocity S-wave (km/s) = -26.51937 3.59041 -18.57937
# Velocity P-wave (km/s) = 30.40771 7.19796 20.89041
#
# Compressibility (1/GPa) = 0.03613017
#
# Stress axis : x y z
#
# Youngs Moduli (GPa) = 92.91855 47.09683 121.25537
#
# Poissons Ratio (x) = -0.16189 0.43308
# Poissons Ratio (y) = -0.31939 0.23301
# Poissons Ratio (z) = 0.33187 0.09050
#
# Static dielectric constant tensor:
#      x y z
#    x 1.725810 0.000000 0.002490 
#    y 0.000000 1.812350 0.000000 
#    z 0.002490 0.000000 1.739820 
# 
# From -- ./inp_files/308918.got.cif
#   From: 2010.05.17/outbox.cif.g08.bks.cpg/sg12_155_cif.got.tgz:308918.got - 2010.06.03 13:09:07.
