data_PCOD9181949
_publ_section_title
;
Structure prediction by ZEFSAII (Michael W. Deem and Ramdas Pophale) SiO2 
 PCOD9181949
Probable space group: C 2/M
;
_chemical_formula_sum "Si O2"
_cell_formula_units_Z 56
_cell_length_a 27.039835
_cell_length_b 8.854123
_cell_length_c 14.530862
_cell_angle_alpha 90.000000
_cell_angle_beta 57.988089
_cell_angle_gamma 90.000000
_cell_volume 2949.884563
_symmetry_space_group_name_H-M "C 2/M"
_symmetry_group_IT_number 12
_symmetry_cell_setting 'monoclinic'
loop_
_space_group_symop_operation_xyz
x,y,z
-x,y,-z
-x,-y,-z
x,-y,z
1/2+x,1/2+y,z
1/2-x,1/2+y,-z
1/2-x,1/2-y,-z
1/2+x,1/2-y,z
loop_
_atom_site_type_symbol
_atom_site_label
_atom_site_fract_x
_atom_site_fract_y
_atom_site_fract_z
Si Si1 0.144045 0.678907 0.812171
Si Si2 0.475785 0.323964 0.382380
Si Si3 0.591847 0.180902 0.052796
Si Si4 0.641463 0.680053 0.393369
Si Si5 0.100525 0.678978 0.254159
Si Si6 0.965919 0.824187 0.174790
Si Si7 0.252019 0.820412 0.599623
O O1 0.153786 0.500000 0.791424
O O2 0.082609 0.725774 0.827540
O O3 0.195043 0.768531 0.711800
O O4 0.137431 0.713540 0.927110
O O5 0.491369 0.500000 0.385164
O O6 0.421236 0.282598 0.499249
O O7 0.533121 0.224308 0.338723
O O8 0.457486 0.313080 0.293468
O O9 0.611538 0.221360 0.136628
O O10 0.531085 0.264888 0.092269
O O11 0.580528 0.000000 0.063149
O O12 0.648918 0.500000 0.391261
O O13 0.639122 0.735019 0.290704
O O14 0.691847 0.759560 0.401391
O O15 0.108059 0.500000 0.257014
O O16 0.960474 0.000000 0.153797
O O17 0.250000 0.750000 0.500000
O O18 0.253892 0.000000 0.590477
#
# Coordination Sequence:
#
# PCOD9181949 Si02
#       7
#     8   8   8   8   8   8   8
#     4  11  22  38  59  82 112 152 194 236 286 339
#     4   9  19  34  53  80 115 151 185 226 280 340
#     4   9  20  37  56  81 116 154 191 235 287 341
#     4  11  22  38  59  83 114 152 192 233 281 335
#     4  10  20  35  56  84 116 149 189 235 282 334
#     4  10  19  32  54  85 118 151 189 235 288 345
#     4  12  26  44  64  87 114 145 185 231 280 335
#
# _framework density 18.983795000000001
#
# number of rings (size 3 to 8) (size 9 to 14) (size 15 to 20)
#    0.000    1.714    0.000    4.714    0.000    8.000 
#    0.000    0.714    0.000    0.000    0.000    0.000 
#    0.000    0.000    0.000    0.000    0.000    0.000 
#
# Total GULP energy -156516.999614 kJ/mol
# GULP energy per Si atom -5589.892843 kJ/mol
# Density = 1.894059 g / cm^3
# Si number density = 18.983795 Si / 1000 Ang^3
#
#
#
# Elastic Constant Matrix: (Units=GPa)
#
#
# Indices 1 2 3 4 5 6 
#
# 1 95.5064 53.6643 58.5137 0.0000 25.4103 0.0000
# 2 53.6643 84.9341 59.3466 0.0000 11.5770 0.0000
# 3 58.5137 59.3466 127.0513 0.0000 12.4073 0.0000
# 4 0.0000 0.0000 0.0000 29.0534 0.0000 -1.2469
# 5 25.4103 11.5770 12.4073 0.0000 12.8362 0.0000
# 6 0.0000 0.0000 0.0000 -1.2469 0.0000 36.1914
#
#
#
# Elastic Compliance Matrix: (Units=1/GPa)
#
#
# Indices 1 2 3 4 5 6 
#
# 1 0.033164 -0.010093 -0.005562 0.000000 -0.051172 0.000000
# 2 -0.010093 0.021475 -0.006010 0.000000 0.006420 0.000000
# 3 -0.005562 -0.006010 0.012848 0.000000 0.004012 0.000000
# 4 0.000000 0.000000 0.000000 0.034470 0.000000 0.001188
# 5 -0.051172 0.006420 0.004012 0.000000 0.169535 0.000000
# 6 0.000000 0.000000 0.000000 0.001188 0.000000 0.027672
#
#
# Mechanical properties :
#
#
# Convention : Reuss Voigt Hill
#
# Bulk Modulus (GPa) = 41.39488 72.28234 56.83861
# Shear Modulus (GPa) = 14.26346 24.68069 19.47207
#
# Velocity S-wave (km/s) = 2.74405 3.60959 3.20616
# Velocity P-wave (km/s) = 5.64734 7.45189 6.61147
#
# Compressibility (1/GPa) = 0.02415758
#
# Stress axis : x y z
#
# Youngs Moduli (GPa) = 30.15325 46.56589 77.83363
#
# Poissons Ratio (x) = 0.46997 0.43292
# Poissons Ratio (y) = 0.30432 0.46777
# Poissons Ratio (z) = 0.16772 0.27986
#
# Static dielectric constant tensor:
#      x y z
#    x 1.633070 0.000000 0.025900 
#    y 0.000000 1.637520 0.000000 
#    z 0.025900 0.000000 1.665740 
# 
# From -- ./inp_files/238272.got.cif
#   From: 2010.05.17/outbox.cif.g08.bks.cpg/sg12_120_cif.got.tgz:238272.got - 2010.06.03 13:09:07.
