data_PCOD9181064
_publ_section_title
;
Structure prediction by ZEFSAII (Michael W. Deem and Ramdas Pophale) SiO2 
 PCOD9181064
Probable space group: C 2/M
;
_chemical_formula_sum "Si O2"
_cell_formula_units_Z 56
_cell_length_a 23.472098
_cell_length_b 10.487683
_cell_length_c 13.046444
_cell_angle_alpha 90.000000
_cell_angle_beta 78.378415
_cell_angle_gamma 90.000000
_cell_volume 3145.776059
_symmetry_space_group_name_H-M "C 2/M"
_symmetry_group_IT_number 12
_symmetry_cell_setting 'monoclinic'
loop_
_space_group_symop_operation_xyz
x,y,z
-x,y,-z
-x,-y,-z
x,-y,z
1/2+x,1/2+y,z
1/2-x,1/2+y,-z
1/2-x,1/2-y,-z
1/2+x,1/2-y,z
loop_
_atom_site_type_symbol
_atom_site_label
_atom_site_fract_x
_atom_site_fract_y
_atom_site_fract_z
Si Si1 0.682712 0.721123 0.152556
Si Si2 0.141908 0.351479 0.462521
Si Si3 0.846088 0.351327 0.204851
Si Si4 0.924942 0.647970 0.730971
Si Si5 0.703759 0.638073 0.919387
Si Si6 0.443112 0.153615 0.325570
Si Si7 0.726763 0.357399 0.356152
O O1 0.617255 0.770658 0.182037
O O2 0.728493 0.838347 0.131539
O O3 0.698823 0.648814 0.251481
O O4 0.695521 0.645828 0.044223
O O5 0.158811 0.500000 0.476248
O O6 0.106143 0.350456 0.368767
O O7 0.097225 0.304582 0.565504
O O8 0.195948 0.255912 0.429172
O O9 0.844743 0.500000 0.172931
O O10 0.829846 0.254544 0.121205
O O11 0.907355 0.321364 0.235207
O O12 0.795277 0.338313 0.309488
O O13 0.926893 0.500000 0.764151
O O14 0.990617 0.698775 0.699202
O O15 0.685165 0.500000 0.887321
O O16 0.446443 0.000000 0.336277
O O17 0.717491 0.500000 0.401667
#
# Coordination Sequence:
#
# PCOD9181064 Si02
#       7
#     8   8   8   8   8   8   8
#     4   9  18  30  50  74  97 120 152 194 243 286
#     4   9  17  29  49  75  96 119 157 201 240 278
#     4   9  19  33  48  68  96 130 163 194 232 281
#     4   9  16  28  49  75  97 119 155 201 239 276
#     4  10  19  32  52  75  98 124 155 195 241 285
#     4   9  17  31  49  68  95 129 161 195 236 278
#     4   9  17  30  47  69  98 126 153 189 235 285
#
# _framework density 17.801649000000001
#
# number of rings (size 3 to 8) (size 9 to 14) (size 15 to 20)
#    0.000    2.857    0.000    1.286    0.000    9.714 
#    0.000    1.429    0.000   15.429    0.000    0.000 
#    0.000    0.000    0.000    0.000    0.000    0.000 
#
# Total GULP energy -156033.874543 kJ/mol
# GULP energy per Si atom -5572.638377 kJ/mol
# Density = 1.776113 g / cm^3
# Si number density = 17.801649 Si / 1000 Ang^3
#
#
#
# Elastic Constant Matrix: (Units=GPa)
#
#
# Indices 1 2 3 4 5 6 
#
# 1 73.9222 28.4432 10.7270 0.0000 -8.9480 0.0000
# 2 28.4432 72.1340 17.3393 0.0000 -2.2441 0.0000
# 3 10.7270 17.3393 40.1512 0.0000 -9.3698 0.0000
# 4 0.0000 0.0000 0.0000 2.4457 0.0000 4.9461
# 5 -8.9480 -2.2441 -9.3698 0.0000 12.2409 0.0000
# 6 0.0000 0.0000 0.0000 4.9461 0.0000 6.9120
#
#
#
# Elastic Compliance Matrix: (Units=1/GPa)
#
#
# Indices 1 2 3 4 5 6 
#
# 1 0.017472 -0.006781 0.001158 0.000000 0.012415 0.000000
# 2 -0.006781 0.018179 -0.007814 0.000000 -0.007605 0.000000
# 3 0.001158 -0.007814 0.033887 0.000000 0.025353 0.000000
# 4 0.000000 0.000000 0.000000 -0.914348 0.000000 0.654292
# 5 0.012415 -0.007605 0.025353 0.000000 0.108781 0.000000
# 6 0.000000 0.000000 0.000000 0.654292 0.000000 -0.323525
#
#
# Mechanical properties :
#
#
# Convention : Reuss Voigt Hill
#
# Bulk Modulus (GPa) = 23.43921 33.24737 28.34329
# Shear Modulus (GPa) = -4.90938 12.96625 4.02844
#
# Velocity S-wave (km/s) = -1.66247 2.70177 1.50595
# Velocity P-wave (km/s) = 3.08389 5.33384 4.35662
#
# Compressibility (1/GPa) = 0.04266356
#
# Stress axis : x y z
#
# Youngs Moduli (GPa) = 57.23515 55.00960 29.50961
#
# Poissons Ratio (x) = 0.37304 -0.03417
# Poissons Ratio (y) = 0.38813 0.23057
# Poissons Ratio (z) = -0.06627 0.42982
#
# Static dielectric constant tensor:
#      x y z
#    x 1.616520 0.000000 0.012690 
#    y 0.000000 1.613500 0.000000 
#    z 0.012690 0.000000 1.617090 
# 
# From -- ./inp_files/173875.got.cif
#   From: 2010.05.17/outbox.cif.g08.bks.cpg/sg12_87_cif.got.tgz:173875.got - 2010.06.03 13:09:07.
