data_PCOD9181094
_publ_section_title
;
Structure prediction by ZEFSAII (Michael W. Deem and Ramdas Pophale) SiO2 
 PCOD9181094
Probable space group: C 2/M
;
_chemical_formula_sum "Si O2"
_cell_formula_units_Z 56
_cell_length_a 18.754168
_cell_length_b 7.767339
_cell_length_c 19.367845
_cell_angle_alpha 90.000000
_cell_angle_beta 76.572636
_cell_angle_gamma 90.000000
_cell_volume 2744.193240
_symmetry_space_group_name_H-M "C 2/M"
_symmetry_group_IT_number 12
_symmetry_cell_setting 'monoclinic'
loop_
_space_group_symop_operation_xyz
x,y,z
-x,y,-z
-x,-y,-z
x,-y,z
1/2+x,1/2+y,z
1/2-x,1/2+y,-z
1/2-x,1/2-y,-z
1/2+x,1/2-y,z
loop_
_atom_site_type_symbol
_atom_site_label
_atom_site_fract_x
_atom_site_fract_y
_atom_site_fract_z
Si Si1 0.800224 0.207135 0.135437
Si Si2 0.035909 0.702658 0.562655
Si Si3 0.081433 0.210958 0.003862
Si Si4 0.147461 0.211299 0.726806
Si Si5 0.016205 0.791656 0.280587
Si Si6 0.804359 0.804981 0.427740
Si Si7 0.867376 0.792999 0.856968
O O1 0.821267 0.270253 0.207195
O O2 0.717417 0.250751 0.134365
O O3 0.806379 0.000000 0.135626
O O4 0.858098 0.268719 0.065185
O O5 0.051801 0.500000 0.550900
O O6 0.112652 0.792105 0.563009
O O7 0.000000 0.766182 0.500000
O O8 0.984203 0.727399 0.640736
O O9 0.102945 0.269111 0.075780
O O10 0.081888 0.000000 0.004105
O O11 0.000000 0.264095 0.000000
O O12 0.191552 0.277737 0.649549
O O13 0.062278 0.258789 0.734821
O O14 0.148856 0.000000 0.726244
O O15 0.082112 0.730029 0.217467
O O16 0.017607 0.000000 0.282946
O O17 0.750000 0.750000 0.500000
O O18 0.783798 0.000000 0.418714
O O19 0.874474 0.000000 0.856061
#
# Coordination Sequence:
#
# PCOD9181094 Si02
#       7
#     8   8   8   8   8   8   8
#     4  10  19  32  52  76 102 133 168 206 252 303
#     4  10  21  36  54  77 105 136 173 218 263 309
#     4   9  17  31  54  78  98 130 175 212 242 289
#     4   8  16  32  52  72  95 128 171 213 248 292
#     4   9  18  34  54  73  97 133 174 213 254 302
#     4  10  20  35  55  78 106 138 174 217 263 311
#     4  10  20  33  50  76 107 132 162 209 257 299
#
# _framework density 20.406725999999999
#
# number of rings (size 3 to 8) (size 9 to 14) (size 15 to 20)
#    0.000    2.571    0.000    3.000    0.000    6.286 
#    0.000    7.857    0.000    3.429    0.000    0.000 
#    0.000    0.000    0.000    0.000    0.000    0.000 
#
# Total GULP energy -156254.616614 kJ/mol
# GULP energy per Si atom -5580.522022 kJ/mol
# Density = 2.036028 g / cm^3
# Si number density = 20.406726 Si / 1000 Ang^3
#
#
#
# Elastic Constant Matrix: (Units=GPa)
#
#
# Indices 1 2 3 4 5 6 
#
# 1 121.8059 -8.4123 112.3224 0.0000 -2.1252 0.0000
# 2 -8.4123 22.1779 0.2530 0.0000 -3.3869 0.0000
# 3 112.3224 0.2530 218.5708 0.0000 -7.0604 0.0000
# 4 0.0000 0.0000 0.0000 7.4731 0.0000 -6.4728
# 5 -2.1252 -3.3869 -7.0604 0.0000 45.8787 0.0000
# 6 0.0000 0.0000 0.0000 -6.4728 0.0000 23.9683
#
#
#
# Elastic Compliance Matrix: (Units=1/GPa)
#
#
# Indices 1 2 3 4 5 6 
#
# 1 0.016449 0.006325 -0.008463 0.000000 -0.000073 0.000000
# 2 0.006325 0.048037 -0.003198 0.000000 0.003347 0.000000
# 3 -0.008463 -0.003198 0.008952 0.000000 0.000750 0.000000
# 4 0.000000 0.000000 0.000000 0.174671 0.000000 0.047171
# 5 -0.000073 0.003347 0.000750 0.000000 0.022156 0.000000
# 6 0.000000 0.000000 0.000000 0.047171 0.000000 0.054461
#
#
# Mechanical properties :
#
#
# Convention : Reuss Voigt Hill
#
# Bulk Modulus (GPa) = 15.93213 63.43120 39.68166
# Shear Modulus (GPa) = 14.03236 32.69012 23.36124
#
# Velocity S-wave (km/s) = 2.62512 4.00675 3.38713
# Velocity P-wave (km/s) = 4.12463 7.24958 5.89784
#
# Compressibility (1/GPa) = 0.06276627
#
# Stress axis : x y z
#
# Youngs Moduli (GPa) = 60.79274 20.81744 111.70507
#
# Poissons Ratio (x) = -0.13166 0.94535
# Poissons Ratio (y) = -0.38450 0.35720
# Poissons Ratio (z) = 0.51448 0.06657
#
# Static dielectric constant tensor:
#      x y z
#    x 1.674460 0.000000 -0.001600 
#    y 0.000000 1.767690 0.000000 
#    z -0.001600 0.000000 1.746430 
# 
# From -- ./inp_files/275054.got.cif
#   From: 2010.05.17/outbox.cif.g08.bks.cpg/sg12_138_cif.got.tgz:275054.got - 2010.06.03 13:09:07.
