data_PCOD9181868
_publ_section_title
;
Structure prediction by ZEFSAII (Michael W. Deem and Ramdas Pophale) SiO2 
 PCOD9181868
Probable space group: C 2/M
;
_chemical_formula_sum "Si O2"
_cell_formula_units_Z 64
_cell_length_a 22.024762
_cell_length_b 8.019510
_cell_length_c 15.540817
_cell_angle_alpha 90.000000
_cell_angle_beta 68.934780
_cell_angle_gamma 90.000000
_cell_volume 2561.501131
_symmetry_space_group_name_H-M "C 2/M"
_symmetry_group_IT_number 12
_symmetry_cell_setting 'monoclinic'
loop_
_space_group_symop_operation_xyz
x,y,z
-x,y,-z
-x,-y,-z
x,-y,z
1/2+x,1/2+y,z
1/2-x,1/2+y,-z
1/2-x,1/2-y,-z
1/2+x,1/2-y,z
loop_
_atom_site_type_symbol
_atom_site_label
_atom_site_fract_x
_atom_site_fract_y
_atom_site_fract_z
Si Si1 0.461433 0.696258 0.198779
Si Si2 0.659309 0.192911 0.516747
Si Si3 0.695751 0.694579 0.867673
Si Si4 0.681865 0.193227 0.689628
Si Si5 0.374021 0.699942 0.646200
Si Si6 0.582019 0.703665 0.036199
Si Si7 0.513790 0.304783 0.619622
Si Si8 0.171592 0.196812 0.147169
O O1 0.443939 0.500000 0.192239
O O2 0.395626 0.793543 0.251732
O O3 0.509695 0.757489 0.099590
O O4 0.499936 0.699899 0.270550
O O5 0.690050 0.267244 0.589076
O O6 0.668081 0.262339 0.416738
O O7 0.581290 0.212482 0.569804
O O8 0.676186 0.000000 0.507618
O O9 0.699181 0.500000 0.885679
O O10 0.709737 0.722174 0.760217
O O11 0.751207 0.780491 0.895473
O O12 0.623084 0.751862 0.931105
O O13 0.701564 0.000000 0.679614
O O14 0.376292 0.500000 0.651260
O O15 0.449641 0.754859 0.602980
O O16 0.348421 0.768538 0.749703
O O17 0.576803 0.500000 0.037813
O O18 0.629514 0.760642 0.089465
O O19 0.525958 0.500000 0.591590
O O20 0.158094 0.000000 0.155476
#
# Coordination Sequence:
#
# PCOD9181868 Si02
#       8
#     8   8   8   8   8   8   8   8
#     4   9  16  32  58  84 111 145 181 223 269 322
#     4  10  21  34  51  77 110 145 180 223 274 322
#     4  11  23  38  58  83 108 144 190 233 273 320
#     4  10  22  40  56  76 111 151 188 227 274 326
#     4  10  19  32  54  82 109 142 182 219 264 326
#     4   9  18  35  60  87 114 142 179 223 274 332
#     4   9  16  29  51  79 110 144 180 215 260 325
#     4  10  20  38  60  83 114 147 179 222 275 329
#
# _framework density 24.985347999999998
#
# number of rings (size 3 to 8) (size 9 to 14) (size 15 to 20)
#    0.000    2.250    1.250    1.875    0.000    4.500 
#    0.000    5.625    0.000    0.000    0.000    0.000 
#    0.000    0.000    0.000    0.000    0.000    0.000 
#
# Total GULP energy -178855.287012 kJ/mol
# GULP energy per Si atom -5589.227719 kJ/mol
# Density = 2.492848 g / cm^3
# Si number density = 24.985348 Si / 1000 Ang^3
#
#
#
# Elastic Constant Matrix: (Units=GPa)
#
#
# Indices 1 2 3 4 5 6 
#
# 1 85.2016 -5.5569 13.3911 0.0000 6.1060 0.0000
# 2 -5.5569 22.8165 3.1786 0.0000 -1.4014 0.0000
# 3 13.3911 3.1786 135.5905 0.0000 -0.1556 0.0000
# 4 0.0000 0.0000 0.0000 11.7451 0.0000 1.3604
# 5 6.1060 -1.4014 -0.1556 0.0000 44.7513 0.0000
# 6 0.0000 0.0000 0.0000 1.3604 0.0000 15.7338
#
#
#
# Elastic Compliance Matrix: (Units=1/GPa)
#
#
# Indices 1 2 3 4 5 6 
#
# 1 0.012252 0.003066 -0.001284 0.000000 -0.001580 0.000000
# 2 0.003066 0.044823 -0.001352 0.000000 0.000981 0.000000
# 3 -0.001284 -0.001352 0.007534 0.000000 0.000159 0.000000
# 4 0.000000 0.000000 0.000000 0.086003 0.000000 -0.007436
# 5 -0.001580 0.000981 0.000159 0.000000 0.022593 0.000000
# 6 0.000000 0.000000 0.000000 -0.007436 0.000000 0.064200
#
#
# Mechanical properties :
#
#
# Convention : Reuss Voigt Hill
#
# Bulk Modulus (GPa) = 15.27462 29.51491 22.39477
# Shear Modulus (GPa) = 19.35217 29.95242 24.65230
#
# Velocity S-wave (km/s) = 2.78608 3.46612 3.14454
# Velocity P-wave (km/s) = 4.05911 5.27799 4.70816
#
# Compressibility (1/GPa) = 0.06546806
#
# Stress axis : x y z
#
# Youngs Moduli (GPa) = 81.62054 22.30984 132.73494
#
# Poissons Ratio (x) = -0.06840 0.17039
# Poissons Ratio (y) = -0.25022 0.17952
# Poissons Ratio (z) = 0.10478 0.03017
#
# Static dielectric constant tensor:
#      x y z
#    x 2.001120 0.000000 -0.009860 
#    y 0.000000 1.887900 0.000000 
#    z -0.009860 0.000000 2.047810 
# 
# From -- ./inp_files/243893.got.cif
#   From: 2010.05.17/outbox.cif.g08.bks.cpg/sg12_122_cif.got.tgz:243893.got - 2010.06.03 13:09:07.
