data_PCOD9181252
_publ_section_title
;
Structure prediction by ZEFSAII (Michael W. Deem and Ramdas Pophale) SiO2 
 PCOD9181252
Probable space group: C 2/M
;
_chemical_formula_sum "Si O2"
_cell_formula_units_Z 56
_cell_length_a 10.058728
_cell_length_b 14.601629
_cell_length_c 22.480697
_cell_angle_alpha 90.000000
_cell_angle_beta 132.403890
_cell_angle_gamma 90.000000
_cell_volume 2438.099672
_symmetry_space_group_name_H-M "C 2/M"
_symmetry_group_IT_number 12
_symmetry_cell_setting 'monoclinic'
loop_
_space_group_symop_operation_xyz
x,y,z
-x,y,-z
-x,-y,-z
x,-y,z
1/2+x,1/2+y,z
1/2-x,1/2+y,-z
1/2-x,1/2-y,-z
1/2+x,1/2-y,z
loop_
_atom_site_type_symbol
_atom_site_label
_atom_site_fract_x
_atom_site_fract_y
_atom_site_fract_z
Si Si1 0.827727 0.632777 0.180196
Si Si2 0.562732 0.638713 0.903731
Si Si3 0.061179 0.109488 0.644950
Si Si4 0.151838 0.605444 0.364358
Si Si5 0.318426 0.352454 0.184576
Si Si6 0.076272 0.361451 0.921309
Si Si7 0.848636 0.612169 0.501169
O O1 0.620972 0.603980 0.123238
O O2 0.821369 0.742865 0.180273
O O3 0.907730 0.604873 0.141245
O O4 0.962638 0.605096 0.272857
O O5 0.558815 0.615236 0.832708
O O6 0.570046 0.749727 0.914995
O O7 0.748836 0.608794 0.989811
O O8 0.197952 0.147008 0.635361
O O9 0.128740 0.126464 0.732198
O O10 0.854514 0.139493 0.577159
O O11 0.060551 0.000000 0.637072
O O12 0.208887 0.500000 0.391185
O O13 0.125920 0.643430 0.422812
O O14 0.116739 0.387162 0.111353
O O15 0.857692 0.500000 0.502672
O O16 0.000000 0.644525 0.500000
#
# Coordination Sequence:
#
# PCOD9181252 Si02
#       7
#     8   8   8   8   8   8   8
#     4  10  19  32  52  79 107 137 175 218 261 304
#     4   9  18  28  51  76 103 140 176 223 255 295
#     4  10  20  36  57  78 105 140 175 209 255 316
#     4  10  20  36  57  78 105 140 175 209 255 316
#     4  10  19  32  52  79 107 137 175 218 261 304
#     4   9  16  32  49  74 105 138 182 215 255 303
#     4   9  19  35  56  81 104 131 173 219 256 303
#
# _framework density 22.968709
#
# number of rings (size 3 to 8) (size 9 to 14) (size 15 to 20)
#    0.000    2.429    1.429    1.286    2.000    5.143 
#    0.000    0.714    0.000    5.143    0.000    0.000 
#    0.000    0.000    0.000    0.000    0.000    0.000 
#
# Total GULP energy -156398.004366 kJ/mol
# GULP energy per Si atom -5585.643013 kJ/mol
# Density = 2.291643 g / cm^3
# Si number density = 22.968709 Si / 1000 Ang^3
#
#
#
# Elastic Constant Matrix: (Units=GPa)
#
#
# Indices 1 2 3 4 5 6 
#
# 1 94.2728 6.0650 22.2875 0.0000 0.7020 0.0000
# 2 6.0650 71.2765 -5.0109 0.0000 3.5012 0.0000
# 3 22.2875 -5.0109 101.2645 0.0000 -4.5311 0.0000
# 4 0.0000 0.0000 0.0000 18.7910 0.0000 -5.8314
# 5 0.7020 3.5012 -4.5311 0.0000 29.1813 0.0000
# 6 0.0000 0.0000 0.0000 -5.8314 0.0000 -1.0234
#
#
#
# Elastic Compliance Matrix: (Units=1/GPa)
#
#
# Indices 1 2 3 4 5 6 
#
# 1 0.011289 -0.001115 -0.002564 0.000000 -0.000536 0.000000
# 2 -0.001115 0.014263 0.000882 0.000000 -0.001547 0.000000
# 3 -0.002564 0.000882 0.010554 0.000000 0.001595 0.000000
# 4 0.000000 0.000000 0.000000 0.019224 0.000000 -0.109539
# 5 -0.000536 -0.001547 0.001595 0.000000 0.034715 0.000000
# 6 0.000000 0.000000 0.000000 -0.109539 0.000000 -0.352976
#
#
# Mechanical properties :
#
#
# Convention : Reuss Voigt Hill
#
# Bulk Modulus (GPa) = 32.77250 34.83298 33.80274
# Shear Modulus (GPa) = -20.22925 25.62128 2.69602
#
# Velocity S-wave (km/s) = -2.97093 3.34351 1.08459
# Velocity P-wave (km/s) = 1.59083 5.48669 4.03946
#
# Compressibility (1/GPa) = 0.03051339
#
# Stress axis : x y z
#
# Youngs Moduli (GPa) = 88.57919 70.11283 94.74725
#
# Poissons Ratio (x) = 0.07814 0.24292
# Poissons Ratio (y) = 0.09872 -0.08355
# Poissons Ratio (z) = 0.22710 -0.06183
#
# Static dielectric constant tensor:
#      x y z
#    x 1.829390 0.000000 -0.009360 
#    y 0.000000 1.927660 0.000000 
#    z -0.009360 0.000000 1.811330 
# 
# From -- ./inp_files/301802.got.cif
#   From: 2010.05.17/outbox.cif.g08.bks.cpg/sg12_151_cif.got.tgz:301802.got - 2010.06.03 13:09:07.
