data_PCOD9181875
_publ_section_title
;
Structure prediction by ZEFSAII (Michael W. Deem and Ramdas Pophale) SiO2 
 PCOD9181875
Probable space group: C 2/M
;
_chemical_formula_sum "Si O2"
_cell_formula_units_Z 56
_cell_length_a 30.402604
_cell_length_b 7.594653
_cell_length_c 22.198381
_cell_angle_alpha 90.000000
_cell_angle_beta 29.694699
_cell_angle_gamma 90.000000
_cell_volume 2539.083589
_symmetry_space_group_name_H-M "C 2/M"
_symmetry_group_IT_number 12
_symmetry_cell_setting 'monoclinic'
loop_
_space_group_symop_operation_xyz
x,y,z
-x,y,-z
-x,-y,-z
x,-y,z
1/2+x,1/2+y,z
1/2-x,1/2+y,-z
1/2-x,1/2-y,-z
1/2+x,1/2-y,z
loop_
_atom_site_type_symbol
_atom_site_label
_atom_site_fract_x
_atom_site_fract_y
_atom_site_fract_z
Si Si1 0.205331 0.708441 0.116456
Si Si2 0.600850 0.215465 0.887206
Si Si3 0.732269 0.791881 0.829584
Si Si4 0.888629 0.706667 0.367743
Si Si5 0.417882 0.711750 0.557799
Si Si6 0.800377 0.285995 0.351858
Si Si7 0.991701 0.288700 0.671675
O O1 0.199054 0.500000 0.131056
O O2 0.262156 0.771849 0.105559
O O3 0.104497 0.781098 0.234256
O O4 0.250000 0.750000 0.000000
O O5 0.648178 0.275515 0.892425
O O6 0.661333 0.267414 0.758151
O O7 0.597642 0.000000 0.890545
O O8 0.500000 0.276514 0.000000
O O9 0.824294 0.718498 0.692959
O O10 0.733586 0.000000 0.815852
O O11 0.907302 0.500000 0.336813
O O12 0.863732 0.776977 0.331357
O O13 0.798449 0.724119 0.514211
O O14 0.968869 0.780971 0.312301
O O15 0.500000 0.779690 0.500000
O O16 0.416450 0.500000 0.566084
O O17 0.438742 0.752147 0.464034
O O18 0.797780 0.500000 0.356338
O O19 0.983575 0.500000 0.687234
#
# Coordination Sequence:
#
# PCOD9181875 Si02
#       7
#     8   8   8   8   8   8   8
#     4  11  24  40  57  78 107 143 183 222 268 323
#     4   9  18  32  54  81 105 138 184 226 261 307
#     4  10  20  36  57  82 111 143 181 225 273 321
#     4   9  18  32  52  78 107 137 171 216 268 316
#     4  10  19  32  54  82 111 141 176 219 268 318
#     4   9  17  32  53  77 105 136 175 219 264 312
#     4  10  21  35  53  80 110 142 179 219 267 323
#
# _framework density 22.055202000000001
#
# number of rings (size 3 to 8) (size 9 to 14) (size 15 to 20)
#    0.000    2.286    1.429    1.286    0.000    4.286 
#    0.000    5.000    0.000    5.143    0.000    0.000 
#    0.000    0.000    0.000    0.000    0.000    0.000 
#
# Total GULP energy -156365.192931 kJ/mol
# GULP energy per Si atom -5584.471176 kJ/mol
# Density = 2.200500 g / cm^3
# Si number density = 22.055202 Si / 1000 Ang^3
#
#
#
# Elastic Constant Matrix: (Units=GPa)
#
#
# Indices 1 2 3 4 5 6 
#
# 1 199.4539 -2.3299 51.2604 -0.0033 -11.6878 0.0001
# 2 -2.3299 45.7242 -9.8641 -0.0181 -9.9854 0.0119
# 3 51.2604 -9.8641 64.7133 -0.0110 4.5880 0.0170
# 4 -0.0033 -0.0181 -0.0110 7.9934 0.0157 11.1516
# 5 -11.6878 -9.9854 4.5880 0.0157 30.1527 -0.0088
# 6 0.0001 0.0119 0.0170 11.1516 -0.0088 13.5995
#
#
#
# Elastic Compliance Matrix: (Units=1/GPa)
#
#
# Indices 1 2 3 4 5 6 
#
# 1 0.006624 -0.000114 -0.005503 0.000169 0.003367 -0.000130
# 2 -0.000114 0.024197 0.003249 -0.000508 0.007475 0.000396
# 3 -0.005503 0.003249 0.020604 -0.000592 -0.004192 0.000454
# 4 0.000169 -0.000508 -0.000592 -0.868859 0.000646 0.712465
# 5 0.003367 0.007475 -0.004192 0.000646 0.037582 -0.000507
# 6 -0.000130 0.000396 0.000454 0.712465 -0.000507 -0.510689
#
#
# Mechanical properties :
#
#
# Convention : Reuss Voigt Hill
#
# Bulk Modulus (GPa) = 21.41872 43.11383 32.26627
# Shear Modulus (GPa) = -3.93626 28.40412 12.23393
#
# Velocity S-wave (km/s) = -1.33739 3.59258 2.35775
# Velocity P-wave (km/s) = 2.71066 6.06625 4.69825
#
# Compressibility (1/GPa) = 0.04668813
#
# Stress axis : x y z
#
# Youngs Moduli (GPa) = 150.96733 41.32680 48.53441
#
# Poissons Ratio (x) = 0.00472 0.26708
# Poissons Ratio (y) = 0.01725 -0.15767
# Poissons Ratio (z) = 0.83077 -0.13426
#
# Static dielectric constant tensor:
#      x y z
#    x 1.829770 0.000000 -0.025460 
#    y 0.000000 1.834100 0.000010 
#    z -0.025460 0.000010 1.767520 
# 
# From -- ./inp_files/238953.got.cif
#   From: 2010.05.17/outbox.cif.g08.bks.cpg/sg12_120_cif.got.tgz:238953.got - 2010.06.03 13:09:07.
