data_PCOD9181979
_publ_section_title
;
Structure prediction by ZEFSAII (Michael W. Deem and Ramdas Pophale) SiO2 
 PCOD9181979
Probable space group: C 2/M
;
_chemical_formula_sum "Si O2"
_cell_formula_units_Z 56
_cell_length_a 25.757640
_cell_length_b 18.682354
_cell_length_c 9.632520
_cell_angle_alpha 90.000000
_cell_angle_beta 46.023723
_cell_angle_gamma 90.000000
_cell_volume 3335.686682
_symmetry_space_group_name_H-M "C 2/M"
_symmetry_group_IT_number 12
_symmetry_cell_setting 'monoclinic'
loop_
_space_group_symop_operation_xyz
x,y,z
-x,y,-z
-x,-y,-z
x,-y,z
1/2+x,1/2+y,z
1/2-x,1/2+y,-z
1/2-x,1/2-y,-z
1/2+x,1/2-y,z
loop_
_atom_site_type_symbol
_atom_site_label
_atom_site_fract_x
_atom_site_fract_y
_atom_site_fract_z
Si Si1 0.824550 0.314166 0.721302
Si Si2 0.658978 0.305413 0.102185
Si Si3 0.915302 0.696016 0.969319
Si Si4 0.962336 0.919510 0.717792
Si Si5 0.577377 0.082512 0.281783
Si Si6 0.534675 0.686533 0.793049
Si Si7 0.330428 0.772281 0.398496
O O1 0.852298 0.237686 0.732452
O O2 0.869952 0.375315 0.712145
O O3 0.827128 0.314252 0.550343
O O4 0.742640 0.320733 0.925262
O O5 0.634031 0.249417 0.030526
O O6 0.611053 0.375320 0.169755
O O7 0.924580 0.625245 0.860314
O O8 0.991030 0.738898 0.844481
O O9 0.874082 0.688632 0.192588
O O10 0.000000 0.924674 0.500000
O O11 0.013772 0.870510 0.716736
O O12 0.951054 0.000000 0.793625
O O13 0.500000 0.085263 0.500000
O O14 0.598197 0.000000 0.223466
O O15 0.618029 0.704305 0.663151
O O16 0.500000 0.659358 0.000000
O O17 0.250000 0.750000 0.500000
#
# Coordination Sequence:
#
# PCOD9181979 Si02
#       7
#     8   8   8   8   8   8   8
#     4  10  19  32  55  80 107 137 177 222 271 313
#     4   9  18  33  53  79 104 138 177 222 266 318
#     4   9  18  35  55  82 107 133 176 221 271 312
#     4  10  20  34  52  75 104 137 175 216 261 315
#     4  10  21  37  56  77 106 143 180 219 268 327
#     4   9  19  33  54  77 104 135 171 214 264 307
#     4  11  19  31  55  84 107 135 173 229 263 313
#
# _framework density 16.788148
#
# number of rings (size 3 to 8) (size 9 to 14) (size 15 to 20)
#    0.000    2.286    1.429    1.714    0.000    4.857 
#    0.000    0.714    0.000    5.571    0.000    0.000 
#    0.000    0.000    0.000    0.000    0.000    0.000 
#
# Total GULP energy -156046.927447 kJ/mol
# GULP energy per Si atom -5573.104552 kJ/mol
# Density = 1.674994 g / cm^3
# Si number density = 16.788148 Si / 1000 Ang^3
#
#
#
# Elastic Constant Matrix: (Units=GPa)
#
#
# Indices 1 2 3 4 5 6 
#
# 1 115.6095 54.1257 44.0959 0.0000 -2.3117 0.0000
# 2 54.1257 116.7798 56.7482 0.0000 1.1461 0.0000
# 3 44.0959 56.7482 77.6690 0.0000 17.9911 0.0000
# 4 0.0000 0.0000 0.0000 21.8824 0.0000 31.0674
# 5 -2.3117 1.1461 17.9911 0.0000 42.0057 0.0000
# 6 0.0000 0.0000 0.0000 31.0674 0.0000 176.5998
#
#
#
# Elastic Compliance Matrix: (Units=1/GPa)
#
#
# Indices 1 2 3 4 5 6 
#
# 1 0.012206 -0.003061 -0.005404 0.000000 0.003070 0.000000
# 2 -0.003061 0.014751 -0.009889 0.000000 0.003664 0.000000
# 3 -0.005404 -0.009889 0.025727 0.000000 -0.011047 0.000000
# 4 0.000000 0.000000 0.000000 0.060912 0.000000 -0.010716
# 5 0.003070 0.003664 -0.011047 0.000000 0.028607 0.000000
# 6 0.000000 0.000000 0.000000 -0.010716 0.000000 0.007548
#
#
# Mechanical properties :
#
#
# Convention : Reuss Voigt Hill
#
# Bulk Modulus (GPa) = 62.59364 68.88866 65.74115
# Shear Modulus (GPa) = 26.07097 58.43680 42.25389
#
# Velocity S-wave (km/s) = 3.94501 5.90626 5.02230
# Velocity P-wave (km/s) = 7.62340 9.36136 8.53672
#
# Compressibility (1/GPa) = 0.01597607
#
# Stress axis : x y z
#
# Youngs Moduli (GPa) = 81.92966 67.79041 38.86927
#
# Poissons Ratio (x) = 0.20752 0.21005
# Poissons Ratio (y) = 0.25080 0.38437
# Poissons Ratio (z) = 0.44276 0.67037
#
# Static dielectric constant tensor:
#      x y z
#    x 1.593810 0.000000 0.007410 
#    y 0.000000 1.548430 0.000000 
#    z 0.007410 0.000000 1.580920 
# 
# From -- ./inp_files/98030.got.cif
#   From: 2010.05.17/outbox.cif.g08.bks.cpg/sg12_50_cif.got.tgz:98030.got - 2010.06.03 13:09:07.
