data_PCOD9181731
_publ_section_title
;
Structure prediction by ZEFSAII (Michael W. Deem and Ramdas Pophale) SiO2 
 PCOD9181731
Probable space group: C 2/M
;
_chemical_formula_sum "Si O2"
_cell_formula_units_Z 64
_cell_length_a 19.277253
_cell_length_b 8.818330
_cell_length_c 34.593596
_cell_angle_alpha 90.000000
_cell_angle_beta 142.747360
_cell_angle_gamma 90.000000
_cell_volume 3559.753110
_symmetry_space_group_name_H-M "C 2/M"
_symmetry_group_IT_number 12
_symmetry_cell_setting 'monoclinic'
loop_
_space_group_symop_operation_xyz
x,y,z
-x,y,-z
-x,-y,-z
x,-y,z
1/2+x,1/2+y,z
1/2-x,1/2+y,-z
1/2-x,1/2-y,-z
1/2+x,1/2-y,z
loop_
_atom_site_type_symbol
_atom_site_label
_atom_site_fract_x
_atom_site_fract_y
_atom_site_fract_z
Si Si1 0.766722 0.179203 0.759178
Si Si2 0.522719 0.318355 0.631585
Si Si3 0.498492 0.180817 0.158300
Si Si4 0.697888 0.817615 0.437286
Si Si5 0.925486 0.317947 0.039017
Si Si6 0.928756 0.815897 0.505286
Si Si7 0.658622 0.678732 0.118893
Si Si8 0.290536 0.319202 0.106711
O O1 0.649550 0.261406 0.696404
O O2 0.794055 0.202431 0.816747
O O3 0.876277 0.245342 0.785267
O O4 0.756598 0.000000 0.747822
O O5 0.515930 0.500000 0.630608
O O6 0.429849 0.248242 0.620081
O O7 0.486092 0.271559 0.571629
O O8 0.443747 0.221342 0.092047
O O9 0.410928 0.241505 0.151170
O O10 0.508848 0.000000 0.164833
O O11 0.750000 0.750000 0.500000
O O12 0.793696 0.774777 0.447835
O O13 0.693380 0.000000 0.437501
O O14 0.063017 0.500000 0.959749
O O15 0.028840 0.240021 0.061755
O O16 0.803100 0.273672 0.967453
O O17 0.000000 0.759484 0.500000
O O18 0.932044 0.000000 0.505640
O O19 0.659904 0.500000 0.110907
O O20 0.735306 0.767097 0.122307
O O21 0.303459 0.500000 0.111268
#
# Coordination Sequence:
#
# PCOD9181731 Si02
#       8
#     8   8   8   8   8   8   8   8
#     4  10  21  38  56  73  98 134 176 217 258 306
#     4  10  19  32  54  78 100 133 173 209 248 301
#     4  10  20  35  54  75 102 135 172 212 254 308
#     4   9  16  28  49  75 103 134 167 205 245 289
#     4   9  19  34  52  75 102 133 167 207 260 316
#     4   8  15  29  50  78 108 134 162 199 244 290
#     4  10  21  35  52  74  99 131 172 216 260 308
#     4  11  21  33  51  76 105 133 164 209 265 316
#
# _framework density 17.978774999999999
#
# number of rings (size 3 to 8) (size 9 to 14) (size 15 to 20)
#    0.000    2.375    0.000    3.750    0.000    4.500 
#    0.000    1.250    0.000   19.500    0.000    0.000 
#    0.000    0.000    0.000    0.000    0.000    0.000 
#
# Total GULP energy -178510.915609 kJ/mol
# GULP energy per Si atom -5578.466113 kJ/mol
# Density = 1.793785 g / cm^3
# Si number density = 17.978775 Si / 1000 Ang^3
#
#
#
# Elastic Constant Matrix: (Units=GPa)
#
#
# Indices 1 2 3 4 5 6 
#
# 1 132.1769 36.2467 31.5999 0.0000 33.2374 0.0000
# 2 36.2467 39.7687 25.9089 0.0000 14.4068 0.0001
# 3 31.5999 25.9089 56.1596 0.0000 32.2373 0.0000
# 4 0.0000 0.0000 0.0000 25.5133 0.0000 6.9191
# 5 33.2374 14.4068 32.2373 0.0000 28.4070 0.0000
# 6 0.0000 0.0001 0.0000 6.9191 0.0000 31.4849
#
#
#
# Elastic Compliance Matrix: (Units=1/GPa)
#
#
# Indices 1 2 3 4 5 6 
#
# 1 0.013632 -0.010976 0.009621 0.000000 -0.021302 0.000000
# 2 -0.010976 0.044816 -0.025316 0.000000 0.018843 0.000000
# 3 0.009621 -0.025316 0.066454 0.000000 -0.073833 0.000000
# 4 0.000000 0.000000 0.000000 0.041679 0.000000 -0.009159
# 5 -0.021302 0.018843 -0.073833 0.000000 0.134358 0.000000
# 6 0.000000 0.000000 0.000000 -0.009159 0.000000 0.033774
#
#
# Mechanical properties :
#
#
# Convention : Reuss Voigt Hill
#
# Bulk Modulus (GPa) = 13.97422 46.17957 30.07690
# Shear Modulus (GPa) = 12.13859 26.03768 19.08813
#
# Velocity S-wave (km/s) = 2.60121 3.80971 3.26191
# Velocity P-wave (km/s) = 4.10015 6.71515 5.56347
#
# Compressibility (1/GPa) = 0.07156033
#
# Stress axis : x y z
#
# Youngs Moduli (GPa) = 73.35718 22.31335 15.04790
#
# Poissons Ratio (x) = 0.24491 -0.14478
# Poissons Ratio (y) = 0.80515 0.38096
# Poissons Ratio (z) = -0.70577 0.56489
#
# Static dielectric constant tensor:
#      x y z
#    x 1.620070 0.000000 0.000790 
#    y 0.000000 1.598930 0.000000 
#    z 0.000790 0.000000 1.614910 
# 
# From -- ./inp_files/378441.got.cif
#   From: 2010.05.17/outbox.cif.g08.bks.cpg/sg12_190_cif.got.tgz:378441.got - 2010.06.03 13:09:07.
