data_PCOD9181065
_publ_section_title
;
Structure prediction by ZEFSAII (Michael W. Deem and Ramdas Pophale) SiO2 
 PCOD9181065
Probable space group: C 2/M
;
_chemical_formula_sum "Si O2"
_cell_formula_units_Z 48
_cell_length_a 29.020049
_cell_length_b 7.741105
_cell_length_c 7.810148
_cell_angle_alpha 90.000000
_cell_angle_beta 91.132081
_cell_angle_gamma 90.000000
_cell_volume 1754.185770
_symmetry_space_group_name_H-M "C 2/M"
_symmetry_group_IT_number 12
_symmetry_cell_setting 'monoclinic'
loop_
_space_group_symop_operation_xyz
x,y,z
-x,y,-z
-x,-y,-z
x,-y,z
1/2+x,1/2+y,z
1/2-x,1/2+y,-z
1/2-x,1/2-y,-z
1/2+x,1/2-y,z
loop_
_atom_site_type_symbol
_atom_site_label
_atom_site_fract_x
_atom_site_fract_y
_atom_site_fract_z
Si Si1 0.890295 0.706094 0.056201
Si Si2 0.218372 0.706835 0.663947
Si Si3 0.698071 0.291319 0.123807
Si Si4 0.530857 0.206072 0.166806
Si Si5 0.636403 0.704035 0.434000
Si Si6 0.551121 0.698872 0.608656
O O1 0.895782 0.500000 0.071947
O O2 0.836196 0.741841 0.032019
O O3 0.918706 0.769498 0.888868
O O4 0.917554 0.784157 0.217306
O O5 0.213772 0.500000 0.679287
O O6 0.250000 0.750000 0.500000
O O7 0.250350 0.772223 0.824774
O O8 0.169242 0.778912 0.603087
O O9 0.700186 0.500000 0.129545
O O10 0.666897 0.222836 0.281943
O O11 0.499922 0.251560 0.329350
O O12 0.532407 0.000000 0.167803
O O13 0.500000 0.260190 0.000000
O O14 0.631443 0.500000 0.401227
O O15 0.586403 0.784687 0.473794
O O16 0.548853 0.500000 0.561875
#
# Coordination Sequence:
#
# PCOD9181065 Si02
#       6
#     8   8   8   8   8   8
#     4  10  20  33  50  73  99 128 163 201 241 287
#     4   9  17  30  50  73  97 128 164 199 238 287
#     4   9  18  33  51  72  98 126 160 201 240 283
#     4   8  16  31  48  68  96 127 162 201 236 282
#     4   9  19  34  51  74 101 127 161 203 242 286
#     4  10  19  32  52  75  98 127 162 200 244 290
#
# _framework density 27.363123999999999
#
# number of rings (size 3 to 8) (size 9 to 14) (size 15 to 20)
#    0.000    2.833    0.000    3.500    0.000    8.333 
#    0.000    1.667    0.000    5.000    0.000    0.000 
#    0.000    0.000    0.000    0.000    0.000    0.000 
#
# Total GULP energy -134120.948413 kJ/mol
# GULP energy per Si atom -5588.372851 kJ/mol
# Density = 2.730084 g / cm^3
# Si number density = 27.363124 Si / 1000 Ang^3
#
#
#
# Elastic Constant Matrix: (Units=GPa)
#
#
# Indices 1 2 3 4 5 6 
#
# 1 224.1177 17.7113 -21.7467 0.0000 -0.3412 0.0000
# 2 17.7113 69.2757 -15.9220 0.0000 2.3104 0.0000
# 3 -21.7467 -15.9220 59.9274 0.0000 1.5854 0.0000
# 4 0.0000 0.0000 0.0000 18.8347 0.0000 0.1488
# 5 -0.3412 2.3104 1.5854 0.0000 51.8493 0.0000
# 6 0.0000 0.0000 0.0000 0.1488 0.0000 16.2550
#
#
#
# Elastic Compliance Matrix: (Units=1/GPa)
#
#
# Indices 1 2 3 4 5 6 
#
# 1 0.004672 -0.000858 0.001467 0.000000 0.000024 0.000000
# 2 -0.000858 0.015566 0.003846 0.000000 -0.000817 0.000000
# 3 0.001467 0.003846 0.018260 0.000000 -0.000720 0.000000
# 4 0.000000 0.000000 0.000000 0.053097 0.000000 -0.000486
# 5 0.000024 -0.000817 -0.000720 0.000000 0.019345 0.000000
# 6 0.000000 0.000000 0.000000 -0.000486 0.000000 0.061524
#
#
# Mechanical properties :
#
#
# Convention : Reuss Voigt Hill
#
# Bulk Modulus (GPa) = 21.09415 34.82291 27.95853
# Shear Modulus (GPa) = 27.87724 42.27301 35.07513
#
# Velocity S-wave (km/s) = 3.19531 3.93477 3.58416
# Velocity P-wave (km/s) = 4.61942 5.77902 5.23145
#
# Compressibility (1/GPa) = 0.04740650
#
# Stress axis : x y z
#
# Youngs Moduli (GPa) = 214.03550 64.24418 54.76464
#
# Poissons Ratio (x) = 0.05513 -0.08033
# Poissons Ratio (y) = 0.18368 -0.21061
# Poissons Ratio (z) = -0.31395 -0.24707
#
# Static dielectric constant tensor:
#      x y z
#    x 2.251950 0.000000 -0.110130 
#    y 0.000000 1.955560 0.000000 
#    z -0.110130 0.000000 2.457260 
# 
# From -- ./inp_files/108770.got.cif
#   From: 2010.05.17/outbox.cif.g08.bks.cpg/sg12_55_cif.got.tgz:108770.got - 2010.06.03 13:09:07.
