data_PCOD9181441
_publ_section_title
;
Structure prediction by ZEFSAII (Michael W. Deem and Ramdas Pophale) SiO2 
 PCOD9181441
Probable space group: C 2/M
;
_chemical_formula_sum "Si O2"
_cell_formula_units_Z 56
_cell_length_a 20.207295
_cell_length_b 8.993618
_cell_length_c 23.642223
_cell_angle_alpha 90.000000
_cell_angle_beta 50.113375
_cell_angle_gamma 90.000000
_cell_volume 3296.890647
_symmetry_space_group_name_H-M "C 2/M"
_symmetry_group_IT_number 12
_symmetry_cell_setting 'monoclinic'
loop_
_space_group_symop_operation_xyz
x,y,z
-x,y,-z
-x,-y,-z
x,-y,z
1/2+x,1/2+y,z
1/2-x,1/2+y,-z
1/2-x,1/2-y,-z
1/2+x,1/2-y,z
loop_
_atom_site_type_symbol
_atom_site_label
_atom_site_fract_x
_atom_site_fract_y
_atom_site_fract_z
Si Si1 0.619193 0.677272 0.271645
Si Si2 0.985058 0.822344 0.443320
Si Si3 0.024771 0.678464 0.725958
Si Si4 0.805683 0.179119 0.158952
Si Si5 0.953541 0.322688 0.154752
Si Si6 0.923556 0.829855 0.994992
Si Si7 0.343044 0.177095 0.444493
O O1 0.629654 0.500000 0.260564
O O2 0.567744 0.707764 0.358299
O O3 0.556934 0.739218 0.256548
O O4 0.711121 0.756701 0.220210
O O5 0.904992 0.737693 0.459740
O O6 0.000000 0.780905 0.500000
O O7 0.968759 0.000000 0.449667
O O8 0.010673 0.500000 0.730044
O O9 0.040982 0.716920 0.782230
O O10 0.107005 0.714321 0.641344
O O11 0.873360 0.244522 0.167239
O O12 0.807055 0.000000 0.161533
O O13 0.841388 0.219945 0.076614
O O14 0.943778 0.500000 0.154962
O O15 0.040194 0.270559 0.074949
O O16 0.911476 0.000000 0.982149
O O17 0.000000 0.831908 0.000000
O O18 0.250000 0.250000 0.500000
O O19 0.335508 0.000000 0.451986
#
# Coordination Sequence:
#
# PCOD9181441 Si02
#       7
#     8   8   8   8   8   8   8
#     4  10  20  34  54  77 100 131 171 209 246 296
#     4   9  19  36  55  75 102 133 164 205 256 301
#     4   9  20  37  53  72 103 138 165 201 256 303
#     4  10  20  34  52  74 104 137 166 203 252 300
#     4  10  19  32  53  78 101 129 169 211 249 294
#     4   8  16  31  49  71 100 133 165 202 252 298
#     4  10  20  35  54  75 102 134 169 207 247 296
#
# _framework density 16.985700999999999
#
# number of rings (size 3 to 8) (size 9 to 14) (size 15 to 20)
#    0.000    2.571    0.000    2.571    0.000    6.857 
#    0.000    6.429    0.000    0.000    0.000    0.000 
#    0.000    0.000    0.000    0.000    0.000    0.000 
#
# Total GULP energy -156144.618899 kJ/mol
# GULP energy per Si atom -5576.593532 kJ/mol
# Density = 1.694704 g / cm^3
# Si number density = 16.985701 Si / 1000 Ang^3
#
#
#
# Elastic Constant Matrix: (Units=GPa)
#
#
# Indices 1 2 3 4 5 6 
#
# 1 108.7001 63.4751 108.8865 0.0000 -3.4338 0.0002
# 2 63.4751 61.5418 72.1466 0.0000 -0.5678 0.0003
# 3 108.8865 72.1466 142.5696 0.0000 2.8652 0.0000
# 4 0.0000 0.0000 0.0000 29.6015 0.0000 -4.5622
# 5 -3.4338 -0.5678 2.8652 0.0000 30.8651 0.0000
# 6 0.0002 0.0003 0.0000 -4.5622 0.0000 31.4919
#
#
#
# Elastic Compliance Matrix: (Units=1/GPa)
#
#
# Indices 1 2 3 4 5 6 
#
# 1 0.045581 -0.014654 -0.027544 0.000000 0.007358 0.000000
# 2 -0.014654 0.044872 -0.011520 0.000000 0.000265 0.000000
# 3 -0.027544 -0.011520 0.034010 0.000000 -0.006433 0.000000
# 4 0.000000 0.000000 0.000000 0.034554 0.000000 0.005006
# 5 0.007358 0.000265 -0.006433 0.000000 0.033820 0.000000
# 6 0.000000 0.000000 0.000000 0.005006 0.000000 0.032479
#
#
# Mechanical properties :
#
#
# Convention : Reuss Voigt Hill
#
# Bulk Modulus (GPa) = 58.73764 89.09198 73.91481
# Shear Modulus (GPa) = 14.77423 22.94525 18.85974
#
# Velocity S-wave (km/s) = 2.95244 3.67939 3.33578
# Velocity P-wave (km/s) = 6.80281 8.40331 7.64506
#
# Compressibility (1/GPa) = 0.01702486
#
# Stress axis : x y z
#
# Youngs Moduli (GPa) = 21.93913 22.28577 29.40330
#
# Poissons Ratio (x) = 0.32658 0.80989
# Poissons Ratio (y) = 0.32150 0.33874
# Poissons Ratio (z) = 0.60429 0.25674
#
# Static dielectric constant tensor:
#      x y z
#    x 1.534990 0.000000 -0.002000 
#    y 0.000000 1.567870 0.000000 
#    z -0.002000 0.000000 1.583870 
# 
# From -- ./inp_files/319681.got.cif
#   From: 2010.05.17/outbox.cif.g08.bks.cpg/sg12_160_cif.got.tgz:319681.got - 2010.06.03 13:09:07.
