data_PCOD9181766
_publ_section_title
;
Structure prediction by ZEFSAII (Michael W. Deem and Ramdas Pophale) SiO2 
 PCOD9181766
Probable space group: C 2/M
;
_chemical_formula_sum "Si O2"
_cell_formula_units_Z 40
_cell_length_a 5.177028
_cell_length_b 14.786387
_cell_length_c 25.872196
_cell_angle_alpha 90.000000
_cell_angle_beta 72.492570
_cell_angle_gamma 90.000000
_cell_volume 1888.763649
_symmetry_space_group_name_H-M "C 2/M"
_symmetry_group_IT_number 12
_symmetry_cell_setting 'monoclinic'
loop_
_space_group_symop_operation_xyz
x,y,z
-x,y,-z
-x,-y,-z
x,-y,z
1/2+x,1/2+y,z
1/2-x,1/2+y,-z
1/2-x,1/2-y,-z
1/2+x,1/2-y,z
loop_
_atom_site_type_symbol
_atom_site_label
_atom_site_fract_x
_atom_site_fract_y
_atom_site_fract_z
Si Si1 0.003039 0.610792 0.440381
Si Si2 0.095079 0.108521 0.378642
Si Si3 0.408641 0.190782 0.264642
Si Si4 0.201692 0.391217 0.032545
Si Si5 0.535841 0.190992 0.850464
O O1 0.997599 0.500000 0.441367
O O2 0.284836 0.640034 0.397179
O O3 0.000000 0.640209 0.500000
O O4 0.750533 0.640161 0.420891
O O5 0.265172 0.136317 0.318576
O O6 0.086613 0.000000 0.381332
O O7 0.701013 0.226491 0.265127
O O8 0.437108 0.143105 0.206999
O O9 0.205852 0.500000 0.031214
O O10 0.100027 0.362092 0.094708
O O11 0.500000 0.358325 0.000000
O O12 0.000000 0.359561 0.000000
O O13 0.329333 0.273642 0.850626
#
# Coordination Sequence:
#
# PCOD9181766 Si02
#       5
#     8   8   8   8   8
#     4   9  17  30  50  77 105 130 164 213 258 298
#     4  10  19  32  54  79  99 130 175 212 250 305
#     4  10  21  37  54  74 105 139 169 210 262 304
#     4  10  21  36  54  79 110 139 167 208 262 306
#     4  10  21  36  55  78 102 136 179 213 248 301
#
# _framework density 21.177876000000001
#
# number of rings (size 3 to 8) (size 9 to 14) (size 15 to 20)
#    0.000    2.200    0.000    3.000    0.000    5.600 
#    0.000    0.000    0.000   26.400    0.000    0.000 
#    0.000    0.000    0.000    0.000    0.000    0.000 
#
# Total GULP energy -111735.716798 kJ/mol
# GULP energy per Si atom -5586.785840 kJ/mol
# Density = 2.112967 g / cm^3
# Si number density = 21.177876 Si / 1000 Ang^3
#
#
#
# Elastic Constant Matrix: (Units=GPa)
#
#
# Indices 1 2 3 4 5 6 
#
# 1 91.7865 -2.2079 -2.6464 0.0000 -2.6636 0.0000
# 2 -2.2079 29.1500 2.1067 0.0000 4.1210 0.0000
# 3 -2.6464 2.1067 110.6671 0.0000 -0.2596 0.0000
# 4 0.0000 0.0000 0.0000 36.3018 0.0000 -9.1944
# 5 -2.6636 4.1210 -0.2596 0.0000 37.0973 0.0000
# 6 0.0000 0.0000 0.0000 -9.1944 0.0000 -7.6558
#
#
#
# Elastic Compliance Matrix: (Units=1/GPa)
#
#
# Indices 1 2 3 4 5 6 
#
# 1 0.010940 0.000710 0.000250 0.000000 0.000708 0.000000
# 2 0.000710 0.034949 -0.000657 0.000000 -0.003836 0.000000
# 3 0.000250 -0.000657 0.009055 0.000000 0.000154 0.000000
# 4 0.000000 0.000000 0.000000 0.021122 0.000000 -0.025367
# 5 0.000708 -0.003836 0.000154 0.000000 0.027434 0.000000
# 6 0.000000 0.000000 0.000000 -0.025367 0.000000 -0.100155
#
#
# Mechanical properties :
#
#
# Convention : Reuss Voigt Hill
#
# Bulk Modulus (GPa) = 18.00204 25.12314 21.56259
# Shear Modulus (GPa) = 235.23630 28.77208 132.00419
#
# Velocity S-wave (km/s) = 10.55071 3.68991 7.90357
# Velocity P-wave (km/s) = 12.52766 5.48111 9.66915
#
# Compressibility (1/GPa) = 0.05554925
#
# Stress axis : x y z
#
# Youngs Moduli (GPa) = 91.41027 28.61323 110.43671
#
# Poissons Ratio (x) = -0.02033 -0.02758
# Poissons Ratio (y) = -0.06494 0.07259
# Poissons Ratio (z) = -0.02283 0.01881
#
# Static dielectric constant tensor:
#      x y z
#    x 1.736560 0.000000 0.004090 
#    y 0.000000 1.763770 0.000000 
#    z 0.004090 0.000000 1.755370 
# 
# From -- ./inp_files/252548.got.cif
#   From: 2010.05.17/outbox.cif.g08.bks.cpg/sg12_127_cif.got.tgz:252548.got - 2010.06.03 13:09:07.
