data_PCOD9181333
_publ_section_title
;
Structure prediction by ZEFSAII (Michael W. Deem and Ramdas Pophale) SiO2 
 PCOD9181333
Probable space group: C 2/M
;
_chemical_formula_sum "Si O2"
_cell_formula_units_Z 64
_cell_length_a 30.603553
_cell_length_b 9.025202
_cell_length_c 15.263042
_cell_angle_alpha 90.000000
_cell_angle_beta 41.948733
_cell_angle_gamma 90.000000
_cell_volume 2818.050724
_symmetry_space_group_name_H-M "C 2/M"
_symmetry_group_IT_number 12
_symmetry_cell_setting 'monoclinic'
loop_
_space_group_symop_operation_xyz
x,y,z
-x,y,-z
-x,-y,-z
x,-y,z
1/2+x,1/2+y,z
1/2-x,1/2+y,-z
1/2-x,1/2-y,-z
1/2+x,1/2-y,z
loop_
_atom_site_type_symbol
_atom_site_label
_atom_site_fract_x
_atom_site_fract_y
_atom_site_fract_z
Si Si1 0.692395 0.177661 0.757274
Si Si2 0.519288 0.671309 0.160180
Si Si3 0.417671 0.177020 0.207252
Si Si4 0.675146 0.329558 0.960386
Si Si5 0.125910 0.827167 0.383053
Si Si6 0.001164 0.672062 0.629571
Si Si7 0.654655 0.172125 0.170200
Si Si8 0.673388 0.675201 0.512921
O O1 0.623082 0.220112 0.818406
O O2 0.750607 0.219773 0.604634
O O3 0.693752 0.000000 0.763266
O O4 0.704729 0.244883 0.833831
O O5 0.498730 0.500000 0.200537
O O6 0.485529 0.740796 0.125434
O O7 0.597245 0.675738 0.053658
O O8 0.493488 0.768538 0.279629
O O9 0.369817 0.227697 0.357814
O O10 0.427174 0.000000 0.193034
O O11 0.695391 0.500000 0.932449
O O12 0.683550 0.256755 0.043153
O O13 0.051808 0.766388 0.497694
O O14 0.166109 0.741024 0.248568
O O15 0.151082 0.809814 0.444803
O O16 0.126631 0.000000 0.359229
O O17 0.019924 0.500000 0.594127
O O18 0.924519 0.684087 0.722201
O O19 0.672278 0.000000 0.140006
O O20 0.667773 0.500000 0.544531
#
# Coordination Sequence:
#
# PCOD9181333 Si02
#       8
#     8   8   8   8   8   8   8   8
#     4  10  23  42  61  83 113 153 196 239 289 341
#     4  10  20  35  56  84 119 153 185 232 291 344
#     4  11  22  36  60  90 117 148 190 238 288 346
#     4  10  22  40  61  85 114 151 196 240 284 340
#     4  11  21  33  54  84 116 151 190 233 283 342
#     4  10  19  32  52  81 116 151 188 229 283 343
#     4  10  21  36  56  82 115 153 189 233 285 340
#     4  10  22  40  60  84 118 154 190 237 290 339
#
# _framework density 22.710733999999999
#
# number of rings (size 3 to 8) (size 9 to 14) (size 15 to 20)
#    0.000    1.750    1.250    3.000    0.000    7.000 
#    0.000    3.125    0.000    0.000    0.000    0.000 
#    0.000    0.000    0.000    0.000    0.000    0.000 
#
# Total GULP energy -179020.455929 kJ/mol
# GULP energy per Si atom -5594.389248 kJ/mol
# Density = 2.265904 g / cm^3
# Si number density = 22.710734 Si / 1000 Ang^3
#
#
#
# Elastic Constant Matrix: (Units=GPa)
#
#
# Indices 1 2 3 4 5 6 
#
# 1 98.5681 21.3518 8.0733 0.0000 2.6075 0.0000
# 2 21.3518 52.5267 3.1843 -0.0003 14.8968 -0.0001
# 3 8.0733 3.1843 68.4528 0.0000 12.9455 0.0000
# 4 0.0000 -0.0003 0.0000 18.3873 0.0000 7.2448
# 5 2.6075 14.8968 12.9455 0.0000 39.8346 0.0000
# 6 0.0000 -0.0001 0.0000 7.2448 0.0000 19.8414
#
#
#
# Elastic Compliance Matrix: (Units=1/GPa)
#
#
# Indices 1 2 3 4 5 6 
#
# 1 0.011290 -0.004949 -0.001397 0.000000 0.001566 0.000000
# 2 -0.004949 0.023485 0.001162 0.000000 -0.008836 0.000000
# 3 -0.001397 0.001162 0.015752 0.000000 -0.005462 0.000000
# 4 0.000000 0.000000 0.000000 0.063524 0.000000 -0.023195
# 5 0.001566 -0.008836 -0.005462 0.000000 0.030081 0.000000
# 6 0.000000 0.000000 0.000000 -0.023195 0.000000 0.058869
#
#
# Mechanical properties :
#
#
# Convention : Reuss Voigt Hill
#
# Bulk Modulus (GPa) = 24.90048 31.64071 28.27059
# Shear Modulus (GPa) = 22.05005 28.07522 25.06264
#
# Velocity S-wave (km/s) = 3.11932 3.51979 3.32559
# Velocity P-wave (km/s) = 4.89505 5.52095 5.21739
#
# Compressibility (1/GPa) = 0.04015987
#
# Stress axis : x y z
#
# Youngs Moduli (GPa) = 88.57148 42.58004 63.48252
#
# Poissons Ratio (x) = 0.21072 0.08872
# Poissons Ratio (y) = 0.43832 -0.07378
# Poissons Ratio (z) = 0.12378 -0.04949
#
# Static dielectric constant tensor:
#      x y z
#    x 1.895740 0.000000 -0.037590 
#    y 0.000000 1.757390 0.000000 
#    z -0.037590 0.000000 1.827130 
# 
# From -- ./inp_files/249833.got.cif
#   From: 2010.05.17/outbox.cif.g08.bks.cpg/sg12_125_cif.got.tgz:249833.got - 2010.06.03 13:09:07.
