data_PCOD9181051
_publ_section_title
;
Structure prediction by ZEFSAII (Michael W. Deem and Ramdas Pophale) SiO2 
 PCOD9181051
Probable space group: C 2/M
;
_chemical_formula_sum "Si O2"
_cell_formula_units_Z 64
_cell_length_a 14.696473
_cell_length_b 8.442054
_cell_length_c 24.427575
_cell_angle_alpha 90.000000
_cell_angle_beta 81.058993
_cell_angle_gamma 90.000000
_cell_volume 2993.864334
_symmetry_space_group_name_H-M "C 2/M"
_symmetry_group_IT_number 12
_symmetry_cell_setting 'monoclinic'
loop_
_space_group_symop_operation_xyz
x,y,z
-x,y,-z
-x,-y,-z
x,-y,z
1/2+x,1/2+y,z
1/2-x,1/2+y,-z
1/2-x,1/2-y,-z
1/2+x,1/2-y,z
loop_
_atom_site_type_symbol
_atom_site_label
_atom_site_fract_x
_atom_site_fract_y
_atom_site_fract_z
Si Si1 0.334551 0.316293 0.956915
Si Si2 0.146359 0.809180 0.505708
Si Si3 0.373818 0.688600 0.705415
Si Si4 0.782379 0.814537 0.122509
Si Si5 0.512814 0.690897 0.205002
Si Si6 0.309539 0.686781 0.248054
Si Si7 0.976800 0.683731 0.087694
Si Si8 0.025926 0.193441 0.411692
O O1 0.347977 0.500000 0.966367
O O2 0.295408 0.288417 0.899261
O O3 0.431868 0.229331 0.954201
O O4 0.250000 0.250000 0.000000
O O5 0.250000 0.750000 0.500000
O O6 0.096088 0.761549 0.453821
O O7 0.076450 0.756541 0.560529
O O8 0.148057 0.000000 0.506425
O O9 0.387051 0.500000 0.706086
O O10 0.408061 0.747401 0.761502
O O11 0.266246 0.724866 0.709520
O O12 0.434758 0.751035 0.649694
O O13 0.793391 0.775571 0.185319
O O14 0.883222 0.781677 0.087002
O O15 0.759897 0.000000 0.118185
O O16 0.518554 0.500000 0.193189
O O17 0.417059 0.717696 0.246647
O O18 0.504609 0.778851 0.148200
O O19 0.294387 0.500000 0.256462
O O20 0.954995 0.500000 0.082681
O O21 0.025134 0.000000 0.410237
#
# Coordination Sequence:
#
# PCOD9181051 Si02
#       8
#     8   8   8   8   8   8   8   8
#     4  12  25  41  60  85 114 145 183 227 276 329
#     4   9  17  33  55  73  96 132 175 218 264 314
#     4  10  19  32  52  75 103 139 178 214 256 314
#     4  10  21  40  62  84 111 145 184 228 273 322
#     4   9  19  35  53  75 105 142 178 215 261 318
#     4   9  19  34  52  77 109 139 170 212 265 313
#     4  11  22  38  60  85 112 146 185 225 270 324
#     4   8  17  33  50  72 102 137 172 211 263 323
#
# _framework density 21.377054000000001
#
# number of rings (size 3 to 8) (size 9 to 14) (size 15 to 20)
#    0.000    2.250    0.000    4.875    0.000    6.500 
#    0.000    6.250    0.000    0.000    0.000    0.000 
#    0.000    0.000    0.000    0.000    0.000    0.000 
#
# Total GULP energy -178758.255003 kJ/mol
# GULP energy per Si atom -5586.195469 kJ/mol
# Density = 2.132840 g / cm^3
# Si number density = 21.377054 Si / 1000 Ang^3
#
#
#
# Elastic Constant Matrix: (Units=GPa)
#
#
# Indices 1 2 3 4 5 6 
#
# 1 101.2214 2.7503 14.0039 0.0000 -23.3214 0.0000
# 2 2.7503 26.1497 7.4466 0.0000 -3.2179 0.0000
# 3 14.0039 7.4466 58.5333 0.0000 -20.4796 0.0000
# 4 0.0000 0.0000 0.0000 18.5878 0.0000 -8.2618
# 5 -23.3214 -3.2179 -20.4796 0.0000 23.6748 0.0000
# 6 0.0000 0.0000 0.0000 -8.2618 0.0000 30.8647
#
#
#
# Elastic Compliance Matrix: (Units=1/GPa)
#
#
# Indices 1 2 3 4 5 6 
#
# 1 0.012935 -0.000147 0.001972 0.000000 0.014427 0.000000
# 2 -0.000147 0.039716 -0.004559 0.000000 0.001310 0.000000
# 3 0.001972 -0.004559 0.025318 0.000000 0.023224 0.000000
# 4 0.000000 0.000000 0.000000 0.061064 0.000000 0.016345
# 5 0.014427 0.001310 0.023224 0.000000 0.076719 0.000000
# 6 0.000000 0.000000 0.000000 0.016345 0.000000 0.036775
#
#
# Mechanical properties :
#
#
# Convention : Reuss Voigt Hill
#
# Bulk Modulus (GPa) = 13.79291 26.03401 19.91346
# Shear Modulus (GPa) = 17.72036 25.40570 21.56303
#
# Velocity S-wave (km/s) = 2.88226 3.45114 3.17945
# Velocity P-wave (km/s) = 4.18841 5.29957 4.77641
#
# Compressibility (1/GPa) = 0.07250101
#
# Stress axis : x y z
#
# Youngs Moduli (GPa) = 77.31215 25.17857 39.49739
#
# Poissons Ratio (x) = 0.00369 -0.07789
# Poissons Ratio (y) = 0.01133 0.18008
# Poissons Ratio (z) = -0.15246 0.11480
#
# Static dielectric constant tensor:
#      x y z
#    x 1.792690 0.000000 0.005720 
#    y 0.000000 1.729470 0.000000 
#    z 0.005720 0.000000 1.835120 
# 
# From -- ./inp_files/359789.got.cif
#   From: 2010.05.17/outbox.cif.g08.bks.cpg/sg12_180_cif.got.tgz:359789.got - 2010.06.03 13:09:07.
