data_PCOD9181977
_publ_section_title
;
Structure prediction by ZEFSAII (Michael W. Deem and Ramdas Pophale) SiO2 
 PCOD9181977
Probable space group: C 2/M
;
_chemical_formula_sum "Si O2"
_cell_formula_units_Z 48
_cell_length_a 16.472547
_cell_length_b 17.328426
_cell_length_c 15.568713
_cell_angle_alpha 90.000000
_cell_angle_beta 141.765432
_cell_angle_gamma 90.000000
_cell_volume 2750.304146
_symmetry_space_group_name_H-M "C 2/M"
_symmetry_group_IT_number 12
_symmetry_cell_setting 'monoclinic'
loop_
_space_group_symop_operation_xyz
x,y,z
-x,y,-z
-x,-y,-z
x,-y,z
1/2+x,1/2+y,z
1/2-x,1/2+y,-z
1/2-x,1/2-y,-z
1/2+x,1/2-y,z
loop_
_atom_site_type_symbol
_atom_site_label
_atom_site_fract_x
_atom_site_fract_y
_atom_site_fract_z
Si Si1 0.706577 0.715066 0.826387
Si Si2 0.767183 0.285390 0.608705
Si Si3 0.545062 0.270548 0.865455
Si Si4 0.157602 0.909459 0.636772
Si Si5 0.353376 0.160899 0.360405
Si Si6 0.584704 0.417154 0.157035
O O1 0.619969 0.708258 0.840088
O O2 0.700809 0.643002 0.755289
O O3 0.651311 0.789436 0.730300
O O4 0.852178 0.736616 0.980367
O O5 0.750000 0.250000 0.500000
O O6 0.711322 0.367106 0.595313
O O7 0.691592 0.223704 0.606034
O O8 0.923303 0.286872 0.753256
O O9 0.475345 0.348037 0.839268
O O10 0.000000 0.905397 0.500000
O O11 0.195157 0.000000 0.674831
O O12 0.500000 0.132522 0.500000
O O13 0.236796 0.099190 0.262989
O O14 0.571457 0.500000 0.189652
O O15 0.500000 0.418116 0.000000
#
# Coordination Sequence:
#
# PCOD9181977 Si02
#       6
#     8   8   8   8   8   8
#     4  10  19  35  55  81 107 140 184 229 270 320
#     4  10  19  34  55  80 109 142 184 225 270 325
#     4  10  20  33  57  81 105 144 190 226 264 331
#     4  10  21  36  56  81 112 145 179 227 283 332
#     4  10  19  32  55  79 107 139 182 224 266 321
#     4  10  20  35  52  75 108 141 175 222 272 317
#
# _framework density 17.452615000000002
#
# number of rings (size 3 to 8) (size 9 to 14) (size 15 to 20)
#    0.000    2.000    1.667    4.000    0.000    1.000 
#    0.000    6.667    0.000    4.000    0.000    0.000 
#    0.000    0.000    0.000    0.000    0.000    0.000 
#
# Total GULP energy -133705.895166 kJ/mol
# GULP energy per Si atom -5571.078965 kJ/mol
# Density = 1.741289 g / cm^3
# Si number density = 17.452615 Si / 1000 Ang^3
#
#
#
# Elastic Constant Matrix: (Units=GPa)
#
#
# Indices 1 2 3 4 5 6 
#
# 1 54.9051 44.7285 54.8691 0.0001 7.8392 0.0001
# 2 44.7285 109.6795 40.8630 0.0001 4.0734 0.0000
# 3 54.8691 40.8630 127.4937 0.0001 18.9330 0.0000
# 4 0.0001 0.0001 0.0001 6.7645 0.0001 2.2584
# 5 7.8392 4.0734 18.9330 0.0001 37.0498 0.0000
# 6 0.0001 0.0000 0.0000 2.2584 0.0000 22.0582
#
#
#
# Elastic Compliance Matrix: (Units=1/GPa)
#
#
# Indices 1 2 3 4 5 6 
#
# 1 0.042263 -0.011883 -0.014333 0.000000 -0.000311 0.000000
# 2 -0.011883 0.013708 0.000618 0.000000 0.000691 0.000000
# 3 -0.014333 0.000618 0.014472 0.000000 -0.004431 0.000000
# 4 0.000000 0.000000 0.000000 0.153062 0.000000 -0.015671
# 5 -0.000311 0.000691 -0.004431 0.000000 0.029245 0.000000
# 6 0.000000 0.000000 0.000000 -0.015671 0.000000 0.046939
#
#
# Mechanical properties :
#
#
# Convention : Reuss Voigt Hill
#
# Bulk Modulus (GPa) = 51.96230 63.66662 57.81446
# Shear Modulus (GPa) = 13.99384 23.28234 18.63809
#
# Velocity S-wave (km/s) = 2.83471 3.65640 3.27146
# Velocity P-wave (km/s) = 6.36805 7.37459 6.88973
#
# Compressibility (1/GPa) = 0.01924472
#
# Stress axis : x y z
#
# Youngs Moduli (GPa) = 23.66160 72.95173 69.09879
#
# Poissons Ratio (x) = 0.86691 0.99043
# Poissons Ratio (y) = 0.28118 -0.04271
# Poissons Ratio (z) = 0.33915 -0.04509
#
# Static dielectric constant tensor:
#      x y z
#    x 1.603410 0.000000 -0.002050 
#    y 0.000000 1.600630 0.000000 
#    z -0.002050 0.000000 1.630640 
# 
# From -- ./inp_files/87737.got.cif
#   From: 2010.05.17/outbox.cif.g08.bks.cpg/sg12_44_cif.got.tgz:87737.got - 2010.06.03 13:09:07.
