data_PCOD9181322
_publ_section_title
;
Structure prediction by ZEFSAII (Michael W. Deem and Ramdas Pophale) SiO2 
 PCOD9181322
Probable space group: C 2/M
;
_chemical_formula_sum "Si O2"
_cell_formula_units_Z 56
_cell_length_a 19.812119
_cell_length_b 8.951803
_cell_length_c 31.412991
_cell_angle_alpha 90.000000
_cell_angle_beta 32.005449
_cell_angle_gamma 90.000000
_cell_volume 2952.749012
_symmetry_space_group_name_H-M "C 2/M"
_symmetry_group_IT_number 12
_symmetry_cell_setting 'monoclinic'
loop_
_space_group_symop_operation_xyz
x,y,z
-x,y,-z
-x,-y,-z
x,-y,z
1/2+x,1/2+y,z
1/2-x,1/2+y,-z
1/2-x,1/2-y,-z
1/2+x,1/2-y,z
loop_
_atom_site_type_symbol
_atom_site_label
_atom_site_fract_x
_atom_site_fract_y
_atom_site_fract_z
Si Si1 0.796573 0.676666 0.644101
Si Si2 0.252329 0.322701 0.429723
Si Si3 0.502395 0.321905 0.589940
Si Si4 0.042638 0.679000 0.814848
Si Si5 0.644685 0.679665 0.024772
Si Si6 0.166376 0.321472 0.145982
Si Si7 0.456362 0.320847 0.708748
O O1 0.790317 0.500000 0.655529
O O2 0.781039 0.699559 0.602049
O O3 0.926959 0.742096 0.592579
O O4 0.680283 0.759208 0.729552
O O5 0.243022 0.500000 0.444380
O O6 0.398050 0.275302 0.358534
O O7 0.147954 0.232744 0.512071
O O8 0.498442 0.500000 0.587148
O O9 0.436415 0.281499 0.670118
O O10 0.042734 0.500000 0.818405
O O11 0.985750 0.751317 0.888195
O O12 0.946418 0.720064 0.827253
O O13 0.643549 0.500000 0.029635
O O14 0.750000 0.750000 0.000000
O O15 0.700047 0.716972 0.948494
O O16 0.161845 0.500000 0.152763
O O17 0.137212 0.248468 0.206630
O O18 0.450731 0.500000 0.715548
#
# Coordination Sequence:
#
# PCOD9181322 Si02
#       7
#     8   8   8   8   8   8   8
#     4  11  22  37  58  80 108 145 181 224 272 322
#     4  10  21  38  58  80 104 138 185 228 271 322
#     4  11  24  38  54  79 110 144 181 224 273 323
#     4  10  19  32  52  81 111 141 179 222 270 322
#     4   9  17  29  47  77 112 143 177 220 269 318
#     4   9  18  31  51  80 110 140 177 220 265 315
#     4  10  21  37  56  79 109 144 181 223 270 321
#
# _framework density 18.965378000000001
#
# number of rings (size 3 to 8) (size 9 to 14) (size 15 to 20)
#    0.000    2.000    1.429    3.429    0.000    7.429 
#    0.000    0.000    0.000    0.857    0.000    6.000 
#    0.000    0.000    0.000    0.000    0.000    0.000 
#
# Total GULP energy -156303.894865 kJ/mol
# GULP energy per Si atom -5582.281959 kJ/mol
# Density = 1.892221 g / cm^3
# Si number density = 18.965378 Si / 1000 Ang^3
#
#
#
# Elastic Constant Matrix: (Units=GPa)
#
#
# Indices 1 2 3 4 5 6 
#
# 1 29.9333 15.4985 -11.0891 -0.0001 8.2768 -0.0023
# 2 15.4985 43.9940 31.8360 0.0016 12.5574 -0.0014
# 3 -11.0891 31.8360 97.1602 0.0000 15.3685 -0.0006
# 4 -0.0001 0.0016 0.0000 36.4883 0.0002 2.3811
# 5 8.2768 12.5574 15.3685 0.0002 20.9941 0.0002
# 6 -0.0023 -0.0014 -0.0006 2.3811 0.0002 19.1162
#
#
#
# Elastic Compliance Matrix: (Units=1/GPa)
#
#
# Indices 1 2 3 4 5 6 
#
# 1 0.063262 -0.031237 0.020861 0.000001 -0.021527 0.000006
# 2 -0.031237 0.048195 -0.018938 -0.000002 -0.002649 0.000000
# 3 0.020861 -0.018938 0.020796 0.000001 -0.012120 0.000002
# 4 0.000001 -0.000002 0.000001 0.027631 0.000000 -0.003442
# 5 -0.021527 -0.002649 -0.012120 0.000000 0.066576 -0.000004
# 6 0.000006 0.000000 0.000002 -0.003442 -0.000004 0.052740
#
#
# Mechanical properties :
#
#
# Convention : Reuss Voigt Hill
#
# Bulk Modulus (GPa) = 13.58265 27.06423 20.32344
# Shear Modulus (GPa) = 13.79803 24.30921 19.05362
#
# Velocity S-wave (km/s) = 2.70022 3.58406 3.17306
# Velocity P-wave (km/s) = 4.11083 5.60613 4.91567
#
# Compressibility (1/GPa) = 0.07362335
#
# Stress axis : x y z
#
# Youngs Moduli (GPa) = 15.80729 20.74886 48.08706
#
# Poissons Ratio (x) = 0.64814 -1.00313
# Poissons Ratio (y) = 0.49378 0.91068
# Poissons Ratio (z) = -0.32975 0.39295
#
# Static dielectric constant tensor:
#      x y z
#    x 1.651920 0.000000 0.009260 
#    y 0.000000 1.627010 0.000000 
#    z 0.009260 0.000000 1.678400 
# 
# From -- ./inp_files/275700.got.cif
#   From: 2010.05.17/outbox.cif.g08.bks.cpg/sg12_138_cif.got.tgz:275700.got - 2010.06.03 13:09:07.
