data_PCOD9181539
_publ_section_title
;
Structure prediction by ZEFSAII (Michael W. Deem and Ramdas Pophale) SiO2 
 PCOD9181539
Probable space group: C 2/M
;
_chemical_formula_sum "Si O2"
_cell_formula_units_Z 64
_cell_length_a 27.367592
_cell_length_b 11.453670
_cell_length_c 14.643210
_cell_angle_alpha 90.000000
_cell_angle_beta 136.147807
_cell_angle_gamma 90.000000
_cell_volume 3179.989254
_symmetry_space_group_name_H-M "C 2/M"
_symmetry_group_IT_number 12
_symmetry_cell_setting 'monoclinic'
loop_
_space_group_symop_operation_xyz
x,y,z
-x,y,-z
-x,-y,-z
x,-y,z
1/2+x,1/2+y,z
1/2-x,1/2+y,-z
1/2-x,1/2-y,-z
1/2+x,1/2-y,z
loop_
_atom_site_type_symbol
_atom_site_label
_atom_site_fract_x
_atom_site_fract_y
_atom_site_fract_z
Si Si1 0.024574 0.820061 0.436535
Si Si2 0.225240 0.632417 0.842029
Si Si3 0.591377 0.867499 0.298106
Si Si4 0.003405 0.871727 0.199338
Si Si5 0.832380 0.712948 0.420643
Si Si6 0.867943 0.742984 0.995873
Si Si7 0.587569 0.135387 0.761825
Si Si8 0.697292 0.865436 0.271606
O O1 0.005358 0.876359 0.312898
O O2 0.107629 0.795082 0.543729
O O3 0.000000 0.872594 0.500000
O O4 0.979798 0.700642 0.368408
O O5 0.240234 0.500000 0.891809
O O6 0.199376 0.635094 0.702441
O O7 0.159419 0.678996 0.811342
O O8 0.295071 0.709066 0.938956
O O9 0.545058 0.747892 0.228675
O O10 0.629126 0.856125 0.447009
O O11 0.649839 0.859607 0.297852
O O12 0.559023 0.000000 0.247859
O O13 0.923715 0.847615 0.059462
O O14 0.028932 0.000000 0.201136
O O15 0.768156 0.789433 0.373295
O O16 0.903766 0.659290 0.119046
O O17 0.848462 0.681080 0.875394
O O18 0.581673 0.000000 0.734455
O O19 0.716566 0.000000 0.280896
#
# Coordination Sequence:
#
# PCOD9181539 Si02
#       8
#     8   8   8   8   8   8   8   8
#     4  10  20  36  57  86 120 155 195 237 290 358
#     4  10  19  32  53  79 111 154 200 245 296 352
#     4  10  22  41  65  91 120 156 205 255 305 359
#     4  10  23  41  62  89 125 161 199 249 304 361
#     4  10  20  35  58  87 123 152 192 246 303 359
#     4  10  21  37  56  80 118 155 202 250 297 354
#     4  10  20  33  55  82 113 157 201 248 295 347
#     4  10  22  40  62  89 118 158 204 256 306 356
#
# _framework density 20.125855000000001
#
# number of rings (size 3 to 8) (size 9 to 14) (size 15 to 20)
#    0.000    2.000    1.250    1.875    0.000    8.500 
#    0.000    5.625    0.000    0.000    0.000    0.000 
#    0.000    0.000    0.000    0.000    0.000    0.000 
#
# Total GULP energy -178440.104823 kJ/mol
# GULP energy per Si atom -5576.253276 kJ/mol
# Density = 2.008005 g / cm^3
# Si number density = 20.125855 Si / 1000 Ang^3
#
#
#
# Elastic Constant Matrix: (Units=GPa)
#
#
# Indices 1 2 3 4 5 6 
#
# 1 90.1894 35.4659 10.8487 0.0000 5.9287 0.0000
# 2 35.4659 107.1144 18.1924 0.0000 14.1325 0.0000
# 3 10.8487 18.1924 42.9245 0.0000 14.6627 0.0000
# 4 0.0000 0.0000 0.0000 -3.0880 0.0000 10.2113
# 5 5.9287 14.1325 14.6627 0.0000 24.1098 0.0000
# 6 0.0000 0.0000 0.0000 10.2113 0.0000 -5.9066
#
#
#
# Elastic Compliance Matrix: (Units=1/GPa)
#
#
# Indices 1 2 3 4 5 6 
#
# 1 0.012844 -0.004001 -0.001606 0.000000 0.000164 0.000000
# 2 -0.004001 0.011650 -0.002436 0.000000 -0.004364 0.000000
# 3 -0.001606 -0.002436 0.030435 0.000000 -0.016687 0.000000
# 4 0.000000 0.000000 0.000000 0.068657 0.000000 0.118693
# 5 0.000164 -0.004364 -0.016687 0.000000 0.054143 0.000000
# 6 0.000000 0.000000 0.000000 0.118693 0.000000 0.035894
#
#
# Mechanical properties :
#
#
# Convention : Reuss Voigt Hill
#
# Bulk Modulus (GPa) = 25.74518 41.02692 33.38605
# Shear Modulus (GPa) = 20.60520 14.73777 17.67149
#
# Velocity S-wave (km/s) = 3.20319 2.70900 2.96640
# Velocity P-wave (km/s) = 5.14785 5.49676 5.32517
#
# Compressibility (1/GPa) = 0.03884222
#
# Stress axis : x y z
#
# Youngs Moduli (GPa) = 77.85903 85.83606 32.85687
#
# Poissons Ratio (x) = 0.34347 0.05278
# Poissons Ratio (y) = 0.31155 0.08003
# Poissons Ratio (z) = 0.12506 0.20907
#
# Static dielectric constant tensor:
#      x y z
#    x 1.720410 0.000000 0.004850 
#    y 0.000000 1.749270 0.000000 
#    z 0.004850 0.000000 1.689240 
# 
# From -- ./inp_files/245983.got.cif
#   From: 2010.05.17/outbox.cif.g08.bks.cpg/sg12_123_cif.got.tgz:245983.got - 2010.06.03 13:09:07.
