data_PCOD9181573
_publ_section_title
;
Structure prediction by ZEFSAII (Michael W. Deem and Ramdas Pophale) SiO2 
 PCOD9181573
Probable space group: C 2/M
;
_chemical_formula_sum "Si O2"
_cell_formula_units_Z 48
_cell_length_a 10.572697
_cell_length_b 14.245476
_cell_length_c 13.470149
_cell_angle_alpha 90.000000
_cell_angle_beta 94.887365
_cell_angle_gamma 90.000000
_cell_volume 2021.404489
_symmetry_space_group_name_H-M "C 2/M"
_symmetry_group_IT_number 12
_symmetry_cell_setting 'monoclinic'
loop_
_space_group_symop_operation_xyz
x,y,z
-x,y,-z
-x,-y,-z
x,-y,z
1/2+x,1/2+y,z
1/2-x,1/2+y,-z
1/2-x,1/2-y,-z
1/2+x,1/2-y,z
loop_
_atom_site_type_symbol
_atom_site_label
_atom_site_fract_x
_atom_site_fract_y
_atom_site_fract_z
Si Si1 0.213511 0.387935 0.524074
Si Si2 0.892565 0.762329 0.235087
Si Si3 0.873256 0.188588 0.021307
Si Si4 0.193247 0.100818 0.180286
Si Si5 0.023641 0.388546 0.340214
Si Si6 0.472936 0.394119 0.633680
O O1 0.229473 0.500000 0.523890
O O2 0.142410 0.362798 0.417891
O O3 0.357439 0.355447 0.557310
O O4 0.105694 0.374131 0.602354
O O5 0.777040 0.691340 0.210061
O O6 0.008642 0.686462 0.250927
O O7 0.911244 0.825137 0.334401
O O8 0.886312 0.829770 0.138713
O O9 0.862735 0.110943 0.934419
O O10 0.750000 0.250000 0.000000
O O11 0.000000 0.244591 0.000000
O O12 0.094035 0.098890 0.263067
O O13 0.263174 0.000000 0.190055
O O14 0.032595 0.500000 0.317120
O O15 0.511767 0.500000 0.608305
#
# Coordination Sequence:
#
# PCOD9181573 Si02
#       6
#     8   8   8   8   8   8
#     4   8  15  29  50  79 110 138 182 238 282 327
#     4  11  20  31  54  83 112 141 186 236 296 338
#     4  10  21  36  54  83 115 154 193 244 295 340
#     4  10  20  36  57  80 108 147 193 236 283 338
#     4   9  16  29  52  80 110 144 181 230 285 342
#     4  10  19  32  53  80 109 141 185 234 280 335
#
# _framework density 23.745865999999999
#
# number of rings (size 3 to 8) (size 9 to 14) (size 15 to 20)
#    0.000    2.333    3.333    1.500    0.000    1.667 
#    0.000    0.000    0.000   14.500    0.000    2.333 
#    0.000    0.000    0.000    0.000    0.000    0.000 
#
# Total GULP energy -133737.663801 kJ/mol
# GULP energy per Si atom -5572.402658 kJ/mol
# Density = 2.369182 g / cm^3
# Si number density = 23.745866 Si / 1000 Ang^3
#
#
#
# Elastic Constant Matrix: (Units=GPa)
#
#
# Indices 1 2 3 4 5 6 
#
# 1 90.6315 29.4776 30.5814 0.0000 23.6423 0.0000
# 2 29.4776 117.4981 35.3028 0.0000 10.5121 0.0000
# 3 30.5814 35.3028 149.9421 0.0000 33.7729 0.0000
# 4 0.0000 0.0000 0.0000 22.6942 0.0000 12.4013
# 5 23.6423 10.5121 33.7729 0.0000 37.9008 0.0000
# 6 0.0000 0.0000 0.0000 12.4013 0.0000 16.1353
#
#
#
# Elastic Compliance Matrix: (Units=1/GPa)
#
#
# Indices 1 2 3 4 5 6 
#
# 1 0.014058 -0.002691 -0.000534 0.000000 -0.007547 0.000000
# 2 -0.002691 0.009692 -0.001884 0.000000 0.000669 0.000000
# 3 -0.000534 -0.001884 0.008794 0.000000 -0.006981 0.000000
# 4 0.000000 0.000000 0.000000 0.075972 0.000000 -0.058391
# 5 -0.007547 0.000669 -0.006981 0.000000 0.037128 0.000000
# 6 0.000000 0.000000 0.000000 -0.058391 0.000000 0.106854
#
#
# Mechanical properties :
#
#
# Convention : Reuss Voigt Hill
#
# Bulk Modulus (GPa) = 44.78949 60.97727 52.88338
# Shear Modulus (GPa) = 18.50775 32.86005 25.68390
#
# Velocity S-wave (km/s) = 2.79482 3.72401 3.29236
# Velocity P-wave (km/s) = 5.41458 6.65025 6.06397
#
# Compressibility (1/GPa) = 0.02232667
#
# Stress axis : x y z
#
# Youngs Moduli (GPa) = 71.13464 103.17716 113.71452
#
# Poissons Ratio (x) = 0.27768 0.06068
# Poissons Ratio (y) = 0.19144 0.21421
# Poissons Ratio (z) = 0.03796 0.19436
#
# Static dielectric constant tensor:
#      x y z
#    x 1.965630 0.000000 0.011570 
#    y 0.000000 1.935730 0.000000 
#    z 0.011570 0.000000 1.981410 
# 
# From -- ./inp_files/204513.got.cif
#   From: 2010.05.17/outbox.cif.g08.bks.cpg/sg12_103_cif.got.tgz:204513.got - 2010.06.03 13:09:07.
