data_PCOD9181383
_publ_section_title
;
Structure prediction by ZEFSAII (Michael W. Deem and Ramdas Pophale) SiO2 
 PCOD9181383
Probable space group: C 2/M
;
_chemical_formula_sum "Si O2"
_cell_formula_units_Z 64
_cell_length_a 20.102581
_cell_length_b 25.655100
_cell_length_c 8.210562
_cell_angle_alpha 90.000000
_cell_angle_beta 44.798812
_cell_angle_gamma 90.000000
_cell_volume 2983.685705
_symmetry_space_group_name_H-M "C 2/M"
_symmetry_group_IT_number 12
_symmetry_cell_setting 'monoclinic'
loop_
_space_group_symop_operation_xyz
x,y,z
-x,y,-z
-x,-y,-z
x,-y,z
1/2+x,1/2+y,z
1/2-x,1/2+y,-z
1/2-x,1/2-y,-z
1/2+x,1/2-y,z
loop_
_atom_site_type_symbol
_atom_site_label
_atom_site_fract_x
_atom_site_fract_y
_atom_site_fract_z
Si Si1 0.442919 0.196191 0.929798
Si Si2 0.236676 0.058420 0.235380
Si Si3 0.645359 0.280447 0.393294
Si Si4 0.270320 0.152874 0.382616
Si Si5 0.132412 0.335544 0.436978
Si Si6 0.106972 0.875802 0.246531
Si Si7 0.046590 0.807741 0.093940
Si Si8 0.386660 0.057813 0.712661
O O1 0.520454 0.174220 0.670675
O O2 0.396545 0.253617 0.994996
O O3 0.500000 0.201131 0.000000
O O4 0.358638 0.157578 0.107017
O O5 0.223888 0.098898 0.405922
O O6 0.168252 0.076901 0.206977
O O7 0.214486 0.000000 0.325582
O O8 0.340603 0.058166 0.972230
O O9 0.703608 0.299127 0.449858
O O10 0.660917 0.220954 0.315846
O O11 0.656856 0.324454 0.237619
O O12 0.537816 0.289735 0.638568
O O13 0.310888 0.157497 0.492279
O O14 0.146356 0.388515 0.314397
O O15 0.096441 0.858758 0.077439
O O16 0.000000 0.882155 0.500000
O O17 0.000000 0.816995 0.000000
O O18 0.500000 0.058904 0.500000
O O19 0.357868 0.000000 0.694117
#
# Coordination Sequence:
#
# PCOD9181383 Si02
#       8
#     8   8   8   8   8   8   8   8
#     4   8  16  29  46  72 102 131 160 198 245 295
#     4  10  22  38  54  73  99 134 174 216 258 301
#     4   9  19  32  48  77 109 133 158 201 254 305
#     4  10  19  33  52  74 102 131 169 209 247 299
#     4  10  19  32  53  76 101 134 169 206 249 299
#     4   9  19  35  54  77 104 133 167 206 254 311
#     4   9  17  31  51  74 105 136 164 201 249 304
#     4  10  22  38  52  71 102 136 171 213 257 296
#
# _framework density 21.449981000000001
#
# number of rings (size 3 to 8) (size 9 to 14) (size 15 to 20)
#    0.000    2.625    0.000    1.875    0.000    6.250 
#    0.000    2.500    0.000    4.875    0.000    0.000 
#    0.000    0.000    0.000    0.000    0.000    0.000 
#
# Total GULP energy -178342.668137 kJ/mol
# GULP energy per Si atom -5573.208379 kJ/mol
# Density = 2.140116 g / cm^3
# Si number density = 21.449981 Si / 1000 Ang^3
#
#
#
# Elastic Constant Matrix: (Units=GPa)
#
#
# Indices 1 2 3 4 5 6 
#
# 1 43.7850 10.5698 -6.9306 0.0000 -2.7366 0.0000
# 2 10.5698 108.5212 -4.5833 0.0000 -8.7458 0.0000
# 3 -6.9306 -4.5833 24.1546 0.0000 -8.9870 0.0000
# 4 0.0000 0.0000 0.0000 17.3655 0.0000 -0.8482
# 5 -2.7366 -8.7458 -8.9870 0.0000 21.1821 0.0000
# 6 0.0000 0.0000 0.0000 -0.8482 0.0000 20.0998
#
#
#
# Elastic Compliance Matrix: (Units=1/GPa)
#
#
# Indices 1 2 3 4 5 6 
#
# 1 0.025100 -0.001518 0.009365 0.000000 0.006589 0.000000
# 2 -0.001518 0.009941 0.003449 0.000000 0.005372 0.000000
# 3 0.009365 0.003449 0.054292 0.000000 0.025669 0.000000
# 4 0.000000 0.000000 0.000000 0.057704 0.000000 0.002435
# 5 0.006589 0.005372 0.025669 0.000000 0.061170 0.000000
# 6 0.000000 0.000000 0.000000 0.002435 0.000000 0.049855
#
#
# Mechanical properties :
#
#
# Convention : Reuss Voigt Hill
#
# Bulk Modulus (GPa) = 8.93446 19.39697 14.16571
# Shear Modulus (GPa) = 18.33002 23.55648 20.94325
#
# Velocity S-wave (km/s) = 2.92643 3.31751 3.12809
# Velocity P-wave (km/s) = 3.94880 4.87207 4.43453
#
# Compressibility (1/GPa) = 0.11192616
#
# Stress axis : x y z
#
# Youngs Moduli (GPa) = 39.84132 100.59071 18.41893
#
# Poissons Ratio (x) = 0.15271 -0.17250
# Poissons Ratio (y) = 0.06048 -0.06354
# Poissons Ratio (z) = -0.37312 -0.34699
#
# Static dielectric constant tensor:
#      x y z
#    x 1.813650 0.000000 -0.010100 
#    y 0.000000 1.804880 0.000000 
#    z -0.010100 0.000000 1.854270 
# 
# From -- ./inp_files/90631.got.cif
#   From: 2010.05.17/outbox.cif.g08.bks.cpg/sg12_46_cif.got.tgz:90631.got - 2010.06.03 13:09:07.
