data_PCOD9181482
_publ_section_title
;
Structure prediction by ZEFSAII (Michael W. Deem and Ramdas Pophale) SiO2 
 PCOD9181482
Probable space group: C 2/M
;
_chemical_formula_sum "Si O2"
_cell_formula_units_Z 64
_cell_length_a 18.882155
_cell_length_b 13.287878
_cell_length_c 19.760028
_cell_angle_alpha 90.000000
_cell_angle_beta 34.929332
_cell_angle_gamma 90.000000
_cell_volume 2838.703601
_symmetry_space_group_name_H-M "C 2/M"
_symmetry_group_IT_number 12
_symmetry_cell_setting 'monoclinic'
loop_
_space_group_symop_operation_xyz
x,y,z
-x,y,-z
-x,-y,-z
x,-y,z
1/2+x,1/2+y,z
1/2-x,1/2+y,-z
1/2-x,1/2-y,-z
1/2+x,1/2-y,z
loop_
_atom_site_type_symbol
_atom_site_label
_atom_site_fract_x
_atom_site_fract_y
_atom_site_fract_z
Si Si1 0.121783 0.320870 0.438390
Si Si2 0.135564 0.387307 0.802705
Si Si3 0.599844 0.253952 0.030582
Si Si4 0.650924 0.385484 0.474294
Si Si5 0.809436 0.381156 0.466860
Si Si6 0.419586 0.115920 0.759733
Si Si7 0.779505 0.886291 0.962919
Si Si8 0.748439 0.726099 0.794660
O O1 0.083197 0.206448 0.490605
O O2 0.175676 0.365610 0.465023
O O3 0.227419 0.320188 0.298222
O O4 0.000000 0.368656 0.500000
O O5 0.091084 0.500000 0.851915
O O6 0.222903 0.391500 0.668677
O O7 0.218154 0.341274 0.798665
O O8 0.022077 0.311724 0.880503
O O9 0.607874 0.330624 0.087247
O O10 0.716590 0.179232 0.953863
O O11 0.635844 0.306929 0.931652
O O12 0.597685 0.500000 0.516714
O O13 0.692136 0.344189 0.515862
O O14 0.797995 0.500000 0.463747
O O15 0.941935 0.352839 0.331052
O O16 0.366341 0.190794 0.745348
O O17 0.423044 0.000000 0.730831
O O18 0.328905 0.113597 0.894847
O O19 0.807886 0.000000 0.921214
#
# Coordination Sequence:
#
# PCOD9181482 Si02
#       8
#     8   8   8   8   8   8   8   8
#     4  11  21  35  54  80 111 149 179 220 271 323
#     4  10  20  35  56  80 107 138 176 222 272 321
#     4  10  19  32  53  78 105 141 176 221 265 321
#     4   9  20  37  57  82 108 141 183 226 271 323
#     4  10  19  33  58  84 107 138 185 231 268 312
#     4   9  17  32  54  79 107 138 175 221 271 320
#     4   9  18  32  52  78 108 138 173 220 271 322
#     4  10  21  34  48  78 111 137 180 217 266 322
#
# _framework density 22.545503
#
# number of rings (size 3 to 8) (size 9 to 14) (size 15 to 20)
#    0.000    2.250    1.250    1.875    0.000    4.500 
#    0.000    0.625    0.000    3.750    0.000    0.000 
#    0.000    0.000    0.000    0.000    0.000    0.000 
#
# Total GULP energy -178383.330940 kJ/mol
# GULP energy per Si atom -5574.479092 kJ/mol
# Density = 2.249419 g / cm^3
# Si number density = 22.545503 Si / 1000 Ang^3
#
#
#
# Elastic Constant Matrix: (Units=GPa)
#
#
# Indices 1 2 3 4 5 6 
#
# 1 113.8777 31.5653 10.7374 0.0000 11.6548 0.0000
# 2 31.5653 74.4392 2.5665 0.0000 -14.9641 0.0000
# 3 10.7374 2.5665 43.8303 0.0000 8.4005 0.0000
# 4 0.0000 0.0000 0.0000 23.5162 0.0000 -2.3992
# 5 11.6548 -14.9641 8.4005 0.0000 24.1456 0.0000
# 6 0.0000 0.0000 0.0000 -2.3992 0.0000 25.3038
#
#
#
# Elastic Compliance Matrix: (Units=1/GPa)
#
#
# Indices 1 2 3 4 5 6 
#
# 1 0.011757 -0.006926 -0.000605 0.000000 -0.009757 0.000000
# 2 -0.006926 0.019781 -0.002627 0.000000 0.016516 0.000000
# 3 -0.000605 -0.002627 0.025043 0.000000 -0.010049 0.000000
# 4 0.000000 0.000000 0.000000 0.042939 0.000000 0.004071
# 5 -0.009757 0.016516 -0.010049 0.000000 0.059857 0.000000
# 6 0.000000 0.000000 0.000000 0.004071 0.000000 0.039906
#
#
# Mechanical properties :
#
#
# Convention : Reuss Voigt Hill
#
# Bulk Modulus (GPa) = 27.57392 35.76505 31.66948
# Shear Modulus (GPa) = 21.58084 27.07832 24.32958
#
# Velocity S-wave (km/s) = 3.09724 3.46938 3.28858
# Velocity P-wave (km/s) = 5.00474 5.65214 5.33827
#
# Compressibility (1/GPa) = 0.03626615
#
# Stress axis : x y z
#
# Youngs Moduli (GPa) = 85.05839 50.55265 39.93096
#
# Poissons Ratio (x) = 0.35012 0.02414
# Poissons Ratio (y) = 0.58909 0.10490
# Poissons Ratio (z) = 0.05143 0.13281
#
# Static dielectric constant tensor:
#      x y z
#    x 1.864850 0.000000 0.027970 
#    y 0.000000 1.881440 0.000000 
#    z 0.027970 0.000000 1.853210 
# 
# From -- ./inp_files/278151.got.cif
#   From: 2010.05.17/outbox.cif.g08.bks.cpg/sg12_140_cif.got.tgz:278151.got - 2010.06.03 13:09:07.
