data_PCOD9181526
_publ_section_title
;
Structure prediction by ZEFSAII (Michael W. Deem and Ramdas Pophale) SiO2 
 PCOD9181526
Probable space group: C 2/M
;
_chemical_formula_sum "Si O2"
_cell_formula_units_Z 56
_cell_length_a 20.331733
_cell_length_b 9.678814
_cell_length_c 26.891701
_cell_angle_alpha 90.000000
_cell_angle_beta 144.685194
_cell_angle_gamma 90.000000
_cell_volume 3059.103175
_symmetry_space_group_name_H-M "C 2/M"
_symmetry_group_IT_number 12
_symmetry_cell_setting 'monoclinic'
loop_
_space_group_symop_operation_xyz
x,y,z
-x,y,-z
-x,-y,-z
x,-y,z
1/2+x,1/2+y,z
1/2-x,1/2+y,-z
1/2-x,1/2-y,-z
1/2+x,1/2-y,z
loop_
_atom_site_type_symbol
_atom_site_label
_atom_site_fract_x
_atom_site_fract_y
_atom_site_fract_z
Si Si1 0.839101 0.345955 0.496041
Si Si2 0.499430 0.163545 0.059611
Si Si3 0.861916 0.344850 0.628681
Si Si4 0.968059 0.155133 0.422803
Si Si5 0.705690 0.663520 0.019807
Si Si6 0.241435 0.162344 0.768966
Si Si7 0.877769 0.661597 0.218187
O O1 0.840114 0.500000 0.476112
O O2 0.834067 0.355220 0.552718
O O3 0.732958 0.258839 0.409936
O O4 0.954611 0.266308 0.556225
O O5 0.626863 0.199383 0.156112
O O6 0.476657 0.000000 0.055819
O O7 0.500000 0.180275 0.000000
O O8 0.406087 0.260953 0.027241
O O9 0.852542 0.500000 0.644305
O O10 0.992150 0.295914 0.712755
O O11 0.836674 0.177807 0.328019
O O12 0.000000 0.160787 0.500000
O O13 0.997146 0.000000 0.422393
O O14 0.686717 0.500000 0.997116
O O15 0.801052 0.670677 0.121799
O O16 0.750000 0.750000 0.000000
O O17 0.181008 0.249172 0.775087
O O18 0.240477 0.000000 0.782690
O O19 0.883702 0.500000 0.237452
#
# Coordination Sequence:
#
# PCOD9181526 Si02
#       7
#     8   8   8   8   8   8   8
#     4  10  19  32  53  79 107 140 179 226 278 329
#     4  10  20  37  62  91 121 152 193 245 295 352
#     4   9  18  33  53  78 107 138 177 227 278 328
#     4  10  21  37  55  77 110 151 192 233 282 339
#     4  11  24  41  62  87 120 158 194 239 296 355
#     4  10  20  35  59  86 111 148 194 239 287 342
#     4  10  20  36  59  85 111 145 189 238 288 341
#
# _framework density 18.306018000000002
#
# number of rings (size 3 to 8) (size 9 to 14) (size 15 to 20)
#    0.000    2.000    2.857    0.857    0.000    2.857 
#    2.571    0.000    0.000    0.000    0.000    0.000 
#    0.000    0.000    0.000    0.000    0.000    0.000 
#
# Total GULP energy -156166.227323 kJ/mol
# GULP energy per Si atom -5577.365262 kJ/mol
# Density = 1.826435 g / cm^3
# Si number density = 18.306018 Si / 1000 Ang^3
#
#
#
# Elastic Constant Matrix: (Units=GPa)
#
#
# Indices 1 2 3 4 5 6 
#
# 1 48.6516 46.9207 39.0814 0.0000 10.1767 0.0000
# 2 46.9207 99.1080 61.7490 0.0000 20.0481 0.0000
# 3 39.0814 61.7490 139.4055 0.0000 28.1493 0.0000
# 4 0.0000 0.0000 0.0000 -14.2945 0.0000 -19.0575
# 5 10.1767 20.0481 28.1493 0.0000 31.0636 0.0000
# 6 0.0000 0.0000 0.0000 -19.0575 0.0000 -11.8794
#
#
#
# Elastic Compliance Matrix: (Units=1/GPa)
#
#
# Indices 1 2 3 4 5 6 
#
# 1 0.039295 -0.016357 -0.004043 0.000000 0.001347 0.000000
# 2 -0.016357 0.021199 -0.003823 0.000000 -0.004858 0.000000
# 3 -0.004043 -0.003823 0.011303 0.000000 -0.006450 0.000000
# 4 0.000000 0.000000 0.000000 0.061431 0.000000 -0.098550
# 5 0.001347 -0.004858 -0.006450 0.000000 0.040731 0.000000
# 6 0.000000 0.000000 0.000000 -0.098550 0.000000 0.073920
#
#
# Mechanical properties :
#
#
# Convention : Reuss Voigt Hill
#
# Bulk Modulus (GPa) = 42.82609 64.74082 53.78346
# Shear Modulus (GPa) = 16.44148 10.27221 13.35684
#
# Velocity S-wave (km/s) = 3.00016 2.37141 2.70412
# Velocity P-wave (km/s) = 5.95371 6.55292 6.26048
#
# Compressibility (1/GPa) = 0.02335025
#
# Stress axis : x y z
#
# Youngs Moduli (GPa) = 25.44826 47.17243 88.47454
#
# Poissons Ratio (x) = 0.77161 0.35769
# Poissons Ratio (y) = 0.41626 0.33827
# Poissons Ratio (z) = 0.10288 0.18036
#
# Static dielectric constant tensor:
#      x y z
#    x 1.608260 0.000000 -0.007530 
#    y 0.000000 1.641320 0.000000 
#    z -0.007530 0.000000 1.640740 
# 
# From -- ./inp_files/380815.got.cif
#   From: 2010.05.17/outbox.cif.g08.bks.cpg/sg12_191_cif.got.tgz:380815.got - 2010.06.03 13:09:07.
