data_PCOD9181335
_publ_section_title
;
Structure prediction by ZEFSAII (Michael W. Deem and Ramdas Pophale) SiO2 
 PCOD9181335
Probable space group: C 2/M
;
_chemical_formula_sum "Si O2"
_cell_formula_units_Z 60
_cell_length_a 17.197736
_cell_length_b 16.111890
_cell_length_c 9.994150
_cell_angle_alpha 90.000000
_cell_angle_beta 70.548386
_cell_angle_gamma 90.000000
_cell_volume 2611.198474
_symmetry_space_group_name_H-M "C 2/M"
_symmetry_group_IT_number 12
_symmetry_cell_setting 'monoclinic'
loop_
_space_group_symop_operation_xyz
x,y,z
-x,y,-z
-x,-y,-z
x,-y,z
1/2+x,1/2+y,z
1/2-x,1/2+y,-z
1/2-x,1/2-y,-z
1/2+x,1/2-y,z
loop_
_atom_site_type_symbol
_atom_site_label
_atom_site_fract_x
_atom_site_fract_y
_atom_site_fract_z
Si Si1 0.348540 0.794691 0.814330
Si Si2 0.436597 0.329826 0.920471
Si Si3 0.656469 0.364184 0.350787
Si Si4 0.436713 0.594020 0.326441
Si Si5 0.231607 0.094669 0.742878
Si Si6 0.498791 0.900792 0.342084
Si Si7 0.819017 0.599202 0.410108
Si Si8 0.112117 0.000000 0.145739
O O1 0.367361 0.738197 0.932247
O O2 0.358772 0.728782 0.688174
O O3 0.263926 0.843213 0.836742
O O4 0.421865 0.860633 0.767937
O O5 0.496939 0.339579 0.755688
O O6 0.405343 0.424105 0.954456
O O7 0.500000 0.306845 0.000000
O O8 0.597416 0.394281 0.505706
O O9 0.748911 0.365170 0.355709
O O10 0.644504 0.427235 0.235477
O O11 0.478990 0.500000 0.288492
O O12 0.358983 0.599919 0.271841
O O13 0.291010 0.110551 0.579949
O O14 0.244938 0.000000 0.779028
O O15 0.500000 0.884535 0.500000
O O16 0.411216 0.868952 0.336989
O O17 0.500945 0.000000 0.324066
O O18 0.818075 0.500000 0.389475
#
# Coordination Sequence:
#
# PCOD9181335 Si02
#       8
#     8   8   8   8   8   8   8   4
#     4  11  23  33  54  84 116 146 185 230 270 336
#     4  11  25  40  56  80 106 151 191 237 280 316
#     4  10  20  32  52  90 118 144 172 218 291 331
#     4  10  20  35  58  82 113 147 180 224 271 342
#     4   9  18  34  54  79 110 150 183 216 270 330
#     4  10  19  32  52  81 116 154 181 212 263 336
#     4   9  16  30  52  76 123 153 173 212 259 348
#     4  10  19  37  60  78 116 141 179 219 268 354
#
# _framework density 22.977954
#
# number of rings (size 3 to 8) (size 9 to 14) (size 15 to 20)
#    0.000    2.000    3.333    1.400    1.867    5.333 
#    0.000    0.667    0.000    1.600    0.000    0.000 
#    0.000    0.000    0.000    0.000    0.000    0.000 
#
# Total GULP energy -167308.997314 kJ/mol
# GULP energy per Si atom -5576.966577 kJ/mol
# Density = 2.292566 g / cm^3
# Si number density = 22.977954 Si / 1000 Ang^3
#
#
#
# Elastic Constant Matrix: (Units=GPa)
#
#
# Indices 1 2 3 4 5 6 
#
# 1 164.1780 41.3448 20.9342 0.0000 24.4251 0.0000
# 2 41.3448 69.6440 18.2630 0.0000 25.7114 0.0000
# 3 20.9342 18.2630 57.5478 0.0000 20.0666 0.0000
# 4 0.0000 0.0000 0.0000 13.8079 0.0000 1.1364
# 5 24.4251 25.7114 20.0666 0.0000 39.5040 0.0000
# 6 0.0000 0.0000 0.0000 1.1364 0.0000 15.1240
#
#
#
# Elastic Compliance Matrix: (Units=1/GPa)
#
#
# Indices 1 2 3 4 5 6 
#
# 1 0.007350 -0.003442 -0.000945 0.000000 -0.001824 0.000000
# 2 -0.003442 0.020718 -0.001656 0.000000 -0.010515 0.000000
# 3 -0.000945 -0.001656 0.021469 0.000000 -0.009243 0.000000
# 4 0.000000 0.000000 0.000000 0.072873 0.000000 -0.005476
# 5 -0.001824 -0.010515 -0.009243 0.000000 0.037981 0.000000
# 6 0.000000 0.000000 0.000000 -0.005476 0.000000 0.066531
#
#
# Mechanical properties :
#
#
# Convention : Reuss Voigt Hill
#
# Bulk Modulus (GPa) = 26.70209 50.27263 38.48736
# Shear Modulus (GPa) = 19.88125 27.74237 23.81181
#
# Velocity S-wave (km/s) = 2.94467 3.47846 3.22264
# Velocity P-wave (km/s) = 4.81741 6.16920 5.53473
#
# Compressibility (1/GPa) = 0.03745026
#
# Stress axis : x y z
#
# Youngs Moduli (GPa) = 136.06182 48.26609 46.57783
#
# Poissons Ratio (x) = 0.16613 0.04403
# Poissons Ratio (y) = 0.46832 0.07715
# Poissons Ratio (z) = 0.12862 0.07995
#
# Static dielectric constant tensor:
#      x y z
#    x 1.803280 0.000000 0.057480 
#    y 0.000000 1.845140 0.000000 
#    z 0.057480 0.000000 1.835990 
# 
# From -- ./inp_files/156117.got.cif
#   From: 2010.05.17/outbox.cif.g08.bks.cpg/sg12_79_cif.got.tgz:156117.got - 2010.06.03 13:09:07.
