data_PCOD9181835
_publ_section_title
;
Structure prediction by ZEFSAII (Michael W. Deem and Ramdas Pophale) SiO2 
 PCOD9181835
Probable space group: C 2/M
;
_chemical_formula_sum "Si O2"
_cell_formula_units_Z 56
_cell_length_a 14.818405
_cell_length_b 8.264351
_cell_length_c 26.846162
_cell_angle_alpha 90.000000
_cell_angle_beta 65.279870
_cell_angle_gamma 90.000000
_cell_volume 2986.421125
_symmetry_space_group_name_H-M "C 2/M"
_symmetry_group_IT_number 12
_symmetry_cell_setting 'monoclinic'
loop_
_space_group_symop_operation_xyz
x,y,z
-x,y,-z
-x,-y,-z
x,-y,z
1/2+x,1/2+y,z
1/2-x,1/2+y,-z
1/2-x,1/2-y,-z
1/2+x,1/2-y,z
loop_
_atom_site_type_symbol
_atom_site_label
_atom_site_fract_x
_atom_site_fract_y
_atom_site_fract_z
Si Si1 0.677311 0.804733 0.763792
Si Si2 0.331016 0.310983 0.441497
Si Si3 0.759802 0.190632 0.638669
Si Si4 0.966418 0.193870 0.850945
Si Si5 0.260207 0.697452 0.849969
Si Si6 0.454149 0.804370 0.062594
Si Si7 0.970704 0.310532 0.562482
O O1 0.721046 0.749875 0.701064
O O2 0.563857 0.752401 0.798787
O O3 0.741142 0.750543 0.797212
O O4 0.679806 0.000000 0.763529
O O5 0.349106 0.500000 0.446083
O O6 0.250000 0.250000 0.500000
O O7 0.290141 0.281704 0.395862
O O8 0.432200 0.214756 0.426942
O O9 0.877263 0.216505 0.605646
O O10 0.737154 0.000000 0.639374
O O11 0.863154 0.253218 0.850595
O O12 0.983220 0.249723 0.903867
O O13 0.965249 0.000000 0.850339
O O14 0.262233 0.500000 0.849766
O O15 0.160375 0.747257 0.902527
O O16 0.454448 0.000000 0.062307
O O17 0.500000 0.746945 0.000000
O O18 0.944147 0.500000 0.565120
O O19 0.000000 0.254662 0.500000
#
# Coordination Sequence:
#
# PCOD9181835 Si02
#       7
#     8   8   8   8   8   8   8
#     4   9  20  39  58  78 108 145 184 225 271 332
#     4  12  24  39  60  84 113 148 186 229 280 340
#     4  11  23  39  61  87 114 147 188 235 288 342
#     4  10  19  32  54  81 110 144 182 231 281 322
#     4   8  16  33  54  76 107 144 181 222 272 326
#     4   9  18  34  54  76 108 151 191 226 273 334
#     4  11  23  39  60  85 114 147 183 227 278 338
#
# _framework density 18.751543000000002
#
# number of rings (size 3 to 8) (size 9 to 14) (size 15 to 20)
#    0.000    2.000    1.429    3.429    0.000    3.714 
#    0.000    7.143    0.000    0.000    0.000    0.000 
#    0.000    0.000    0.000    0.000    0.000    0.000 
#
# Total GULP energy -156323.484163 kJ/mol
# GULP energy per Si atom -5582.981577 kJ/mol
# Density = 1.870886 g / cm^3
# Si number density = 18.751543 Si / 1000 Ang^3
#
#
#
# Elastic Constant Matrix: (Units=GPa)
#
#
# Indices 1 2 3 4 5 6 
#
# 1 158.3992 -4.5219 77.8830 0.0000 2.1758 0.0000
# 2 -4.5219 19.5572 14.1368 0.0000 2.6552 0.0000
# 3 77.8830 14.1368 175.9929 0.0000 9.5631 0.0000
# 4 0.0000 0.0000 0.0000 22.9146 0.0000 0.5731
# 5 2.1758 2.6552 9.5631 0.0000 11.2105 0.0000
# 6 0.0000 0.0000 0.0000 0.5731 0.0000 29.0099
#
#
#
# Elastic Compliance Matrix: (Units=1/GPa)
#
#
# Indices 1 2 3 4 5 6 
#
# 1 0.008508 0.004899 -0.004200 0.000000 0.000772 0.000000
# 2 0.004899 0.058104 -0.006329 0.000000 -0.009313 0.000000
# 3 -0.004200 -0.006329 0.008309 0.000000 -0.004773 0.000000
# 4 0.000000 0.000000 0.000000 0.043662 0.000000 -0.000862
# 5 0.000772 -0.009313 -0.004773 0.000000 0.095330 0.000000
# 6 0.000000 0.000000 0.000000 -0.000862 0.000000 0.034488
#
#
# Mechanical properties :
#
#
# Convention : Reuss Voigt Hill
#
# Bulk Modulus (GPa) = 15.70877 58.77166 37.24021
# Shear Modulus (GPa) = 17.80112 30.39043 24.09578
#
# Velocity S-wave (km/s) = 3.08444 4.03015 3.58858
# Velocity P-wave (km/s) = 4.59135 7.28467 6.08880
#
# Compressibility (1/GPa) = 0.06365872
#
# Stress axis : x y z
#
# Youngs Moduli (GPa) = 117.54108 17.21052 120.35716
#
# Poissons Ratio (x) = -0.08431 0.50554
# Poissons Ratio (y) = -0.57578 0.76173
# Poissons Ratio (z) = 0.49371 0.10892
#
# Static dielectric constant tensor:
#      x y z
#    x 1.626950 0.000000 0.007890 
#    y 0.000000 1.648210 0.000000 
#    z 0.007890 0.000000 1.632830 
# 
# From -- ./inp_files/359660.got.cif
#   From: 2010.05.17/outbox.cif.g08.bks.cpg/sg12_180_cif.got.tgz:359660.got - 2010.06.03 13:09:07.
