data_PCOD9181933
_publ_section_title
;
Structure prediction by ZEFSAII (Michael W. Deem and Ramdas Pophale) SiO2 
 PCOD9181933
Probable space group: C 2/M
;
_chemical_formula_sum "Si O2"
_cell_formula_units_Z 56
_cell_length_a 30.731191
_cell_length_b 8.825135
_cell_length_c 12.027140
_cell_angle_alpha 90.000000
_cell_angle_beta 118.063483
_cell_angle_gamma 90.000000
_cell_volume 2878.338362
_symmetry_space_group_name_H-M "C 2/M"
_symmetry_group_IT_number 12
_symmetry_cell_setting 'monoclinic'
loop_
_space_group_symop_operation_xyz
x,y,z
-x,y,-z
-x,-y,-z
x,-y,z
1/2+x,1/2+y,z
1/2-x,1/2+y,-z
1/2-x,1/2-y,-z
1/2+x,1/2-y,z
loop_
_atom_site_type_symbol
_atom_site_label
_atom_site_fract_x
_atom_site_fract_y
_atom_site_fract_z
Si Si1 0.839228 0.179670 0.364377
Si Si2 0.251833 0.679583 0.877433
Si Si3 0.057040 0.682617 0.085477
Si Si4 0.352589 0.177381 0.960686
Si Si5 0.508076 0.173545 0.377761
Si Si6 0.405285 0.678261 0.640671
Si Si7 0.600574 0.174634 0.749223
O O1 0.792228 0.260594 0.253668
O O2 0.858323 0.228805 0.509522
O O3 0.882986 0.218487 0.330149
O O4 0.830907 0.000000 0.357033
O O5 0.248057 0.500000 0.884592
O O6 0.303481 0.727220 0.882817
O O7 0.250000 0.750000 0.000000
O O8 0.054591 0.500000 0.080741
O O9 0.097606 0.728143 0.041860
O O10 0.080860 0.736457 0.229867
O O11 0.000000 0.736407 0.000000
O O12 0.344070 0.000000 0.922246
O O13 0.362488 0.185503 0.104292
O O14 0.500000 0.179973 0.500000
O O15 0.547769 0.288692 0.381151
O O16 0.453540 0.204034 0.267040
O O17 0.522540 0.000000 0.365670
O O18 0.400068 0.500000 0.656304
O O19 0.600085 0.000000 0.707173
#
# Coordination Sequence:
#
# PCOD9181933 Si02
#       7
#     8   8   8   8   8   8   8
#     4  11  23  38  57  86 123 160 201 249 307 365
#     4  12  24  39  62  92 125 162 205 253 311 371
#     4  10  22  43  69  93 121 163 211 254 299 364
#     4  10  21  38  62  91 122 158 205 257 308 360
#     4  10  19  32  54  84 117 157 202 244 296 367
#     4  11  24  39  58  87 125 164 203 256 312 363
#     4  10  19  33  56  86 119 156 198 246 304 366
#
# _framework density 19.455670999999999
#
# number of rings (size 3 to 8) (size 9 to 14) (size 15 to 20)
#    0.000    1.429    2.857    3.000    0.000    5.714 
#    0.000    2.143    0.000    0.000    0.000    0.000 
#    0.000    0.000    0.000    0.000    0.000    0.000 
#
# Total GULP energy -156263.553817 kJ/mol
# GULP energy per Si atom -5580.841208 kJ/mol
# Density = 1.941139 g / cm^3
# Si number density = 19.455671 Si / 1000 Ang^3
#
#
#
# Elastic Constant Matrix: (Units=GPa)
#
#
# Indices 1 2 3 4 5 6 
#
# 1 85.2962 29.6129 47.2118 0.0000 11.4761 0.0000
# 2 29.6129 44.3097 33.5523 0.0000 10.9593 0.0000
# 3 47.2118 33.5523 119.6277 0.0000 17.8558 0.0000
# 4 0.0000 0.0000 0.0000 26.9270 0.0000 1.3884
# 5 11.4761 10.9593 17.8558 0.0000 32.5811 0.0000
# 6 0.0000 0.0000 0.0000 1.3884 0.0000 28.1732
#
#
#
# Elastic Compliance Matrix: (Units=1/GPa)
#
#
# Indices 1 2 3 4 5 6 
#
# 1 0.016980 -0.007802 -0.004370 0.000000 -0.000962 0.000000
# 2 -0.007802 0.033244 -0.005431 0.000000 -0.005458 0.000000
# 3 -0.004370 -0.005431 0.012094 0.000000 -0.003262 0.000000
# 4 0.000000 0.000000 0.000000 0.037232 0.000000 -0.001835
# 5 -0.000962 -0.005458 -0.003262 0.000000 0.034655 0.000000
# 6 0.000000 0.000000 0.000000 -0.001835 0.000000 0.035585
#
#
# Mechanical properties :
#
#
# Convention : Reuss Voigt Hill
#
# Bulk Modulus (GPa) = 36.87969 52.22085 44.55027
# Shear Modulus (GPa) = 23.36085 26.79335 25.07710
#
# Velocity S-wave (km/s) = 3.46890 3.71502 3.59407
# Velocity P-wave (km/s) = 5.91957 6.73061 6.33807
#
# Compressibility (1/GPa) = 0.02711519
#
# Stress axis : x y z
#
# Youngs Moduli (GPa) = 58.89119 30.08021 82.68680
#
# Poissons Ratio (x) = 0.23467 0.36132
# Poissons Ratio (y) = 0.45944 0.44903
# Poissons Ratio (z) = 0.25734 0.16335
#
# Static dielectric constant tensor:
#      x y z
#    x 1.707330 0.000000 0.027030 
#    y 0.000000 1.666710 0.000000 
#    z 0.027030 0.000000 1.727290 
# 
# From -- ./inp_files/187718.got.cif
#   From: 2010.05.17/outbox.cif.g08.bks.cpg/sg12_94_cif.got.tgz:187718.got - 2010.06.03 13:09:07.
