data_PCOD9181223
_publ_section_title
;
Structure prediction by ZEFSAII (Michael W. Deem and Ramdas Pophale) SiO2 
 PCOD9181223
Probable space group: C 2/M
;
_chemical_formula_sum "Si O2"
_cell_formula_units_Z 56
_cell_length_a 18.426927
_cell_length_b 8.916690
_cell_length_c 29.555379
_cell_angle_alpha 90.000000
_cell_angle_beta 140.892601
_cell_angle_gamma 90.000000
_cell_volume 3063.150179
_symmetry_space_group_name_H-M "C 2/M"
_symmetry_group_IT_number 12
_symmetry_cell_setting 'monoclinic'
loop_
_space_group_symop_operation_xyz
x,y,z
-x,y,-z
-x,-y,-z
x,-y,z
1/2+x,1/2+y,z
1/2-x,1/2+y,-z
1/2-x,1/2-y,-z
1/2+x,1/2-y,z
loop_
_atom_site_type_symbol
_atom_site_label
_atom_site_fract_x
_atom_site_fract_y
_atom_site_fract_z
Si Si1 0.729958 0.819646 0.353286
Si Si2 0.104499 0.821073 0.651186
Si Si3 0.875860 0.680404 0.066810
Si Si4 0.538222 0.680353 0.069569
Si Si5 0.414460 0.826991 0.502174
Si Si6 0.530721 0.817605 0.789769
Si Si7 0.305094 0.180962 0.212670
O O1 0.801099 0.783225 0.341970
O O2 0.797644 0.747769 0.427980
O O3 0.598745 0.768557 0.284370
O O4 0.732379 0.000000 0.359382
O O5 0.143427 0.750185 0.716992
O O6 0.982881 0.758308 0.574535
O O7 0.099317 0.000000 0.652149
O O8 0.868542 0.500000 0.062678
O O9 0.957997 0.737821 0.066763
O O10 0.928636 0.728329 0.140754
O O11 0.750000 0.750000 0.000000
O O12 0.526548 0.500000 0.069584
O O13 0.671445 0.721009 0.141692
O O14 0.500000 0.716192 0.000000
O O15 0.500000 0.820888 0.500000
O O16 0.396972 0.000000 0.505791
O O17 0.620471 0.770529 0.794714
O O18 0.529026 0.000000 0.789109
O O19 0.311614 0.000000 0.218701
#
# Coordination Sequence:
#
# PCOD9181223 Si02
#       7
#     8   8   8   8   8   8   8
#     4   9  17  32  54  77 102 135 175 218 266 319
#     4  10  19  32  52  78 107 138 175 221 271 320
#     4  11  22  38  60  85 113 145 184 227 273 325
#     4  10  21  38  59  83 113 148 184 223 271 326
#     4   9  17  30  50  77 106 135 172 218 266 318
#     4   9  19  36  56  77 105 143 181 219 268 324
#     4  10  20  35  55  77 105 142 181 220 265 319
#
# _framework density 18.281834
#
# number of rings (size 3 to 8) (size 9 to 14) (size 15 to 20)
#    0.000    2.286    0.000    3.000    0.000    6.571 
#    0.000    5.714    0.000    0.000    0.000    0.000 
#    0.000    0.000    0.000    0.000    0.000    0.000 
#
# Total GULP energy -156314.613419 kJ/mol
# GULP energy per Si atom -5582.664765 kJ/mol
# Density = 1.824022 g / cm^3
# Si number density = 18.281834 Si / 1000 Ang^3
#
#
#
# Elastic Constant Matrix: (Units=GPa)
#
#
# Indices 1 2 3 4 5 6 
#
# 1 131.6195 50.8632 105.5377 0.0000 5.3316 0.0000
# 2 50.8632 36.2915 60.0231 0.0000 -0.2492 0.0000
# 3 105.5377 60.0231 214.9068 0.0000 5.7187 0.0000
# 4 0.0000 0.0000 0.0000 32.5620 0.0000 -1.0830
# 5 5.3316 -0.2492 5.7187 0.0000 31.5578 0.0000
# 6 0.0000 0.0000 0.0000 -1.0830 0.0000 20.7142
#
#
#
# Elastic Compliance Matrix: (Units=1/GPa)
#
#
# Indices 1 2 3 4 5 6 
#
# 1 0.017951 -0.019908 -0.003186 0.000000 -0.002613 0.000000
# 2 -0.019908 0.073575 -0.010931 0.000000 0.005925 0.000000
# 3 -0.003186 -0.010931 0.009303 0.000000 -0.001234 0.000000
# 4 0.000000 0.000000 0.000000 0.030764 0.000000 0.001608
# 5 -0.002613 0.005925 -0.001234 0.000000 0.032400 0.000000
# 6 0.000000 0.000000 0.000000 0.001608 0.000000 0.048360
#
#
# Mechanical properties :
#
#
# Convention : Reuss Voigt Hill
#
# Bulk Modulus (GPa) = 30.50544 90.62952 60.56748
# Shear Modulus (GPa) = 17.16274 28.05973 22.61123
#
# Velocity S-wave (km/s) = 3.06729 3.92196 3.52065
# Velocity P-wave (km/s) = 5.40988 8.37796 7.05184
#
# Compressibility (1/GPa) = 0.03278104
#
# Stress axis : x y z
#
# Youngs Moduli (GPa) = 55.70647 13.59161 107.48735
#
# Poissons Ratio (x) = 0.27058 0.34244
# Poissons Ratio (y) = 1.10899 1.17489
# Poissons Ratio (z) = 0.17747 0.14856
#
# Static dielectric constant tensor:
#      x y z
#    x 1.611420 0.000000 0.007420 
#    y 0.000000 1.617780 0.000000 
#    z 0.007420 0.000000 1.605020 
# 
# From -- ./inp_files/274992.got.cif
#   From: 2010.05.17/outbox.cif.g08.bks.cpg/sg12_138_cif.got.tgz:274992.got - 2010.06.03 13:09:07.
