data_PCOD9181354
_publ_section_title
;
Structure prediction by ZEFSAII (Michael W. Deem and Ramdas Pophale) SiO2 
 PCOD9181354
Probable space group: C 2/M
;
_chemical_formula_sum "Si O2"
_cell_formula_units_Z 56
_cell_length_a 11.635169
_cell_length_b 17.218021
_cell_length_c 17.940315
_cell_angle_alpha 90.000000
_cell_angle_beta 134.892798
_cell_angle_gamma 90.000000
_cell_volume 2546.138676
_symmetry_space_group_name_H-M "C 2/M"
_symmetry_group_IT_number 12
_symmetry_cell_setting 'monoclinic'
loop_
_space_group_symop_operation_xyz
x,y,z
-x,y,-z
-x,-y,-z
x,-y,z
1/2+x,1/2+y,z
1/2-x,1/2+y,-z
1/2-x,1/2-y,-z
1/2+x,1/2-y,z
loop_
_atom_site_type_symbol
_atom_site_label
_atom_site_fract_x
_atom_site_fract_y
_atom_site_fract_z
Si Si1 0.827759 0.321488 0.687470
Si Si2 0.201310 0.345272 0.843487
Si Si3 0.630837 0.589494 0.499841
Si Si4 0.297662 0.838252 0.998420
Si Si5 0.592244 0.087623 0.642806
Si Si6 0.177738 0.317152 0.147983
Si Si7 0.222250 0.336459 0.565852
O O1 0.793355 0.398050 0.623253
O O2 0.757444 0.327787 0.738729
O O3 0.747837 0.249455 0.607867
O O4 0.021145 0.309485 0.776426
O O5 0.248768 0.381288 0.945710
O O6 0.173453 0.399336 0.759688
O O7 0.314841 0.274552 0.868588
O O8 0.500000 0.615824 0.500000
O O9 0.605178 0.500000 0.469627
O O10 0.642637 0.639613 0.431424
O O11 0.491151 0.843162 0.073132
O O12 0.250000 0.750000 0.000000
O O13 0.237676 0.855206 0.886429
O O14 0.447084 0.147609 0.555500
O O15 0.718780 0.106530 0.634995
O O16 0.529279 0.000000 0.606684
#
# Coordination Sequence:
#
# PCOD9181354 Si02
#       7
#     8   8   8   8   8   8   8
#     4  11  22  32  55  81 109 142 188 239 270 327
#     4  10  19  32  52  83 109 137 181 220 284 324
#     4  11  25  39  52  72 110 157 191 227 278 330
#     4   8  16  31  53  77 112 136 167 216 278 328
#     4  11  22  36  56  78 112 149 185 233 277 330
#     4   9  17  32  51  81 109 135 173 224 273 327
#     4  11  22  36  55  78 107 147 192 231 278 315
#
# _framework density 21.994088999999999
#
# number of rings (size 3 to 8) (size 9 to 14) (size 15 to 20)
#    0.000    1.857    2.857    2.143    4.000    0.000 
#    0.000    0.000    0.000    0.857    0.000   12.000 
#    0.000    0.000    0.000    0.000    0.000    0.000 
#
# Total GULP energy -155996.503517 kJ/mol
# GULP energy per Si atom -5571.303697 kJ/mol
# Density = 2.194403 g / cm^3
# Si number density = 21.994089 Si / 1000 Ang^3
#
#
#
# Elastic Constant Matrix: (Units=GPa)
#
#
# Indices 1 2 3 4 5 6 
#
# 1 81.5957 3.9714 42.8828 0.0000 -47.0254 0.0000
# 2 3.9714 33.2513 19.3750 0.0000 -9.8040 0.0000
# 3 42.8828 19.3750 92.1706 0.0000 -56.8796 0.0000
# 4 0.0000 0.0000 0.0000 2.7519 0.0000 3.5095
# 5 -47.0254 -9.8040 -56.8796 0.0000 57.4922 0.0000
# 6 0.0000 0.0000 0.0000 3.5095 0.0000 8.7740
#
#
#
# Elastic Compliance Matrix: (Units=1/GPa)
#
#
# Indices 1 2 3 4 5 6 
#
# 1 0.023564 0.002494 0.001718 0.000001 0.021399 0.000000
# 2 0.002494 0.034781 -0.009122 0.000000 -0.001053 0.000000
# 3 0.001718 -0.009122 0.030490 0.000001 0.030015 0.000000
# 4 0.000001 0.000000 0.000001 0.741730 0.000002 -0.296681
# 5 0.021399 -0.001053 0.030015 0.000002 0.064413 0.000000
# 6 0.000000 0.000000 0.000000 -0.296681 0.000000 0.232641
#
#
# Mechanical properties :
#
#
# Convention : Reuss Voigt Hill
#
# Bulk Modulus (GPa) = 12.65565 37.71955 25.18760
# Shear Modulus (GPa) = 4.29636 23.18952 13.74294
#
# Velocity S-wave (km/s) = 1.39916 3.25060 2.50241
# Velocity P-wave (km/s) = 2.89427 5.59246 4.45267
#
# Compressibility (1/GPa) = 0.07901611
#
# Stress axis : x y z
#
# Youngs Moduli (GPa) = 42.43753 28.75171 32.79738
#
# Poissons Ratio (x) = -0.07170 -0.05635
# Poissons Ratio (y) = -0.10584 0.29916
# Poissons Ratio (z) = -0.07292 0.26226
#
# Static dielectric constant tensor:
#      x y z
#    x 1.910600 0.000000 0.001390 
#    y 0.000000 1.755760 0.000000 
#    z 0.001390 0.000000 1.946900 
# 
# From -- ./inp_files/263973.got.cif
#   From: 2010.05.17/outbox.cif.g08.bks.cpg/sg12_132_cif.got.tgz:263973.got - 2010.06.03 13:09:07.
