data_PCOD9181561
_publ_section_title
;
Structure prediction by ZEFSAII (Michael W. Deem and Ramdas Pophale) SiO2 
 PCOD9181561
Probable space group: C 2/M
;
_chemical_formula_sum "Si O2"
_cell_formula_units_Z 64
_cell_length_a 25.539312
_cell_length_b 8.916737
_cell_length_c 15.470488
_cell_angle_alpha 90.000000
_cell_angle_beta 91.780171
_cell_angle_gamma 90.000000
_cell_volume 3521.352572
_symmetry_space_group_name_H-M "C 2/M"
_symmetry_group_IT_number 12
_symmetry_cell_setting 'monoclinic'
loop_
_space_group_symop_operation_xyz
x,y,z
-x,y,-z
-x,-y,-z
x,-y,z
1/2+x,1/2+y,z
1/2-x,1/2+y,-z
1/2-x,1/2-y,-z
1/2+x,1/2-y,z
loop_
_atom_site_type_symbol
_atom_site_label
_atom_site_fract_x
_atom_site_fract_y
_atom_site_fract_z
Si Si1 0.194275 0.833228 0.905455
Si Si2 0.751225 0.318244 0.597588
Si Si3 0.342099 0.182652 0.738040
Si Si4 0.182259 0.668589 0.071089
Si Si5 0.829041 0.676688 0.270877
Si Si6 0.547204 0.824703 0.322028
Si Si7 0.062333 0.836124 0.488850
Si Si8 0.933781 0.176350 0.314672
O O1 0.255236 0.847891 0.932152
O O2 0.193263 0.726230 0.822780
O O3 0.174826 0.000000 0.881008
O O4 0.165653 0.766728 0.988136
O O5 0.750089 0.500000 0.591429
O O6 0.750000 0.250000 0.500000
O O7 0.802750 0.272506 0.657993
O O8 0.702664 0.261837 0.654453
O O9 0.326510 0.232451 0.833388
O O10 0.402627 0.226141 0.729418
O O11 0.339542 0.000000 0.737528
O O12 0.159284 0.500000 0.065123
O O13 0.824733 0.500000 0.285284
O O14 0.889477 0.727822 0.266788
O O15 0.568046 0.793759 0.420383
O O16 0.492991 0.736137 0.306764
O O17 0.537202 0.000000 0.308587
O O18 0.082544 0.807848 0.585132
O O19 0.000000 0.848111 0.500000
O O20 0.080753 0.000000 0.457681
O O21 0.932002 0.000000 0.293725
#
# Coordination Sequence:
#
# PCOD9181561 Si02
#       8
#     8   8   8   8   8   8   8   8
#     4  10  19  34  57  84 113 143 179 231 285 334
#     4  11  23  41  57  81 118 160 196 231 278 333
#     4   9  19  36  57  80 114 152 186 226 277 333
#     4   9  17  34  57  81 111 146 182 225 277 336
#     4  12  24  38  58  84 112 149 193 235 280 340
#     4  10  19  32  53  80 107 142 187 232 274 326
#     4   8  16  31  48  68  97 135 180 227 276 319
#     4  10  21  37  54  75 107 146 186 235 286 330
#
# _framework density 18.174834000000001
#
# number of rings (size 3 to 8) (size 9 to 14) (size 15 to 20)
#    0.000    2.125    1.250    3.375    1.750    3.250 
#    0.000    3.125    0.000    0.750    0.000    5.250 
#    0.000    0.000    0.000    0.000    0.000    0.000 
#
# Total GULP energy -178162.515865 kJ/mol
# GULP energy per Si atom -5567.578621 kJ/mol
# Density = 1.813347 g / cm^3
# Si number density = 18.174834 Si / 1000 Ang^3
#
#
#
# Elastic Constant Matrix: (Units=GPa)
#
#
# Indices 1 2 3 4 5 6 
#
# 1 73.6141 31.3256 28.1242 0.0000 -7.1304 0.0000
# 2 31.3256 76.5076 34.0248 0.0000 -4.3885 0.0000
# 3 28.1242 34.0248 97.0578 0.0000 -18.7589 0.0000
# 4 0.0000 0.0000 0.0000 21.8309 0.0000 -2.5254
# 5 -7.1304 -4.3885 -18.7589 0.0000 15.4547 0.0000
# 6 0.0000 0.0000 0.0000 -2.5254 0.0000 13.6875
#
#
#
# Elastic Compliance Matrix: (Units=1/GPa)
#
#
# Indices 1 2 3 4 5 6 
#
# 1 0.017292 -0.005869 -0.002265 0.000000 0.003563 0.000000
# 2 -0.005869 0.017574 -0.005251 0.000000 -0.004091 0.000000
# 3 -0.002265 -0.005251 0.016083 0.000000 0.016986 0.000000
# 4 0.000000 0.000000 0.000000 0.046806 0.000000 0.008636
# 5 0.003563 -0.004091 0.016986 0.000000 0.085804 0.000000
# 6 0.000000 0.000000 0.000000 0.008636 0.000000 0.074653
#
#
# Mechanical properties :
#
#
# Convention : Reuss Voigt Hill
#
# Bulk Modulus (GPa) = 41.35560 48.23653 44.79607
# Shear Modulus (GPa) = 17.06248 20.44160 18.75204
#
# Velocity S-wave (km/s) = 3.06730 3.35732 3.21558
# Velocity P-wave (km/s) = 5.94543 6.45188 6.20383
#
# Compressibility (1/GPa) = 0.02418052
#
# Stress axis : x y z
#
# Youngs Moduli (GPa) = 57.83027 56.90223 62.17714
#
# Poissons Ratio (x) = 0.33393 0.14082
# Poissons Ratio (y) = 0.33938 0.32649
# Poissons Ratio (z) = 0.13097 0.29879
#
# Static dielectric constant tensor:
#      x y z
#    x 1.648470 0.000000 0.019680 
#    y 0.000000 1.647460 0.000000 
#    z 0.019680 0.000000 1.664550 
# 
# From -- ./inp_files/238816.got.cif
#   From: 2010.05.17/outbox.cif.g08.bks.cpg/sg12_120_cif.got.tgz:238816.got - 2010.06.03 13:09:07.
