data_PCOD9181568
_publ_section_title
;
Structure prediction by ZEFSAII (Michael W. Deem and Ramdas Pophale) SiO2 
 PCOD9181568
Probable space group: C 2/M
;
_chemical_formula_sum "Si O2"
_cell_formula_units_Z 56
_cell_length_a 18.524255
_cell_length_b 10.372118
_cell_length_c 21.999145
_cell_angle_alpha 90.000000
_cell_angle_beta 46.665774
_cell_angle_gamma 90.000000
_cell_volume 3074.434021
_symmetry_space_group_name_H-M "C 2/M"
_symmetry_group_IT_number 12
_symmetry_cell_setting 'monoclinic'
loop_
_space_group_symop_operation_xyz
x,y,z
-x,y,-z
-x,-y,-z
x,-y,z
1/2+x,1/2+y,z
1/2-x,1/2+y,-z
1/2-x,1/2-y,-z
1/2+x,1/2-y,z
loop_
_atom_site_type_symbol
_atom_site_label
_atom_site_fract_x
_atom_site_fract_y
_atom_site_fract_z
Si Si1 0.874250 0.854601 0.193795
Si Si2 0.826942 0.148954 0.836238
Si Si3 0.390440 0.223389 0.057186
Si Si4 0.453556 0.344101 0.651310
Si Si5 0.681971 0.347986 0.502304
Si Si6 0.221417 0.849409 0.336321
Si Si7 0.602193 0.649130 0.078501
O O1 0.887631 0.826055 0.113991
O O2 0.804381 0.746236 0.262660
O O3 0.983987 0.847204 0.159234
O O4 0.835984 0.000000 0.224461
O O5 0.714075 0.150183 0.877728
O O6 0.899102 0.206741 0.743432
O O7 0.841921 0.205833 0.894995
O O8 0.856979 0.000000 0.826348
O O9 0.500000 0.159301 0.000000
O O10 0.384805 0.281050 0.992970
O O11 0.453831 0.500000 0.654585
O O12 0.567335 0.307385 0.577770
O O13 0.382394 0.313419 0.635939
O O14 0.692331 0.500000 0.514410
O O15 0.750000 0.250000 0.500000
O O16 0.709376 0.340349 0.415414
O O17 0.243393 0.000000 0.308204
O O18 0.632009 0.500000 0.052177
#
# Coordination Sequence:
#
# PCOD9181568 Si02
#       7
#     8   8   8   8   8   8   8
#     4  10  20  34  56  83 109 146 188 229 278 331
#     4  10  19  32  53  80 108 144 188 230 272 327
#     4  10  19  33  52  77 109 143 183 234 284 328
#     4   9  18  35  58  81 107 147 191 223 263 331
#     4  10  22  38  61  88 115 147 182 226 278 329
#     4  10  20  37  59  83 112 145 186 230 273 324
#     4   9  19  33  51  75 106 145 192 232 271 332
#
# _framework density 18.214734
#
# number of rings (size 3 to 8) (size 9 to 14) (size 15 to 20)
#    0.000    2.286    1.429    1.286    2.000    4.286 
#    0.000    2.857    0.000    3.429    0.000    0.000 
#    0.000    0.000    0.000    0.000    0.000    0.000 
#
# Total GULP energy -155964.048111 kJ/mol
# GULP energy per Si atom -5570.144575 kJ/mol
# Density = 1.817328 g / cm^3
# Si number density = 18.214734 Si / 1000 Ang^3
#
#
#
# Elastic Constant Matrix: (Units=GPa)
#
#
# Indices 1 2 3 4 5 6 
#
# 1 109.1538 32.3014 42.4952 0.0000 5.0698 0.0000
# 2 32.3014 57.9541 39.9860 0.0000 -3.8584 0.0000
# 3 42.4952 39.9860 97.9407 0.0000 -7.0940 0.0000
# 4 0.0000 0.0000 0.0000 3.4396 0.0000 -4.8393
# 5 5.0698 -3.8584 -7.0940 0.0000 29.0987 0.0000
# 6 0.0000 0.0000 0.0000 -4.8393 0.0000 25.5810
#
#
#
# Elastic Compliance Matrix: (Units=1/GPa)
#
#
# Indices 1 2 3 4 5 6 
#
# 1 0.012074 -0.004420 -0.003695 0.000000 -0.003590 0.000000
# 2 -0.004420 0.025658 -0.008404 0.000000 0.002123 0.000000
# 3 -0.003695 -0.008404 0.015484 0.000000 0.003304 0.000000
# 4 0.000000 0.000000 0.000000 0.396179 0.000000 0.074948
# 5 -0.003590 0.002123 0.003304 0.000000 0.036078 0.000000
# 6 0.000000 0.000000 0.000000 0.074948 0.000000 0.053270
#
#
# Mechanical properties :
#
#
# Convention : Reuss Voigt Hill
#
# Bulk Modulus (GPa) = 49.55456 54.95709 52.25583
# Shear Modulus (GPa) = 8.64295 21.64161 15.14228
#
# Velocity S-wave (km/s) = 2.18067 3.45068 2.88639
# Velocity P-wave (km/s) = 5.79700 6.79069 6.31343
#
# Compressibility (1/GPa) = 0.02017978
#
# Stress axis : x y z
#
# Youngs Moduli (GPa) = 82.81979 38.97399 64.58435
#
# Poissons Ratio (x) = 0.17226 0.23861
# Poissons Ratio (y) = 0.36604 0.54276
# Poissons Ratio (z) = 0.30598 0.32753
#
# Static dielectric constant tensor:
#      x y z
#    x 1.635040 0.000000 0.005520 
#    y 0.000000 1.614360 0.000000 
#    z 0.005520 0.000000 1.653180 
# 
# From -- ./inp_files/315270.got.cif
#   From: 2010.05.17/outbox.cif.g08.bks.cpg/sg12_158_cif.got.tgz:315270.got - 2010.06.03 13:09:07.
