data_PCOD9181395
_publ_section_title
;
Structure prediction by ZEFSAII (Michael W. Deem and Ramdas Pophale) SiO2 
 PCOD9181395
Probable space group: C 2/M
;
_chemical_formula_sum "Si O2"
_cell_formula_units_Z 56
_cell_length_a 14.820330
_cell_length_b 9.428521
_cell_length_c 23.928877
_cell_angle_alpha 90.000000
_cell_angle_beta 113.066391
_cell_angle_gamma 90.000000
_cell_volume 3076.351047
_symmetry_space_group_name_H-M "C 2/M"
_symmetry_group_IT_number 12
_symmetry_cell_setting 'monoclinic'
loop_
_space_group_symop_operation_xyz
x,y,z
-x,y,-z
-x,-y,-z
x,-y,z
1/2+x,1/2+y,z
1/2-x,1/2+y,-z
1/2-x,1/2-y,-z
1/2+x,1/2-y,z
loop_
_atom_site_type_symbol
_atom_site_label
_atom_site_fract_x
_atom_site_fract_y
_atom_site_fract_z
Si Si1 0.883796 0.669502 0.268387
Si Si2 0.386403 0.337437 0.071173
Si Si3 0.154901 0.672002 0.501574
Si Si4 0.802190 0.667382 0.822337
Si Si5 0.003272 0.334723 0.192300
Si Si6 0.940463 0.328167 0.405109
Si Si7 0.846011 0.336970 0.956098
O O1 0.866871 0.500000 0.266348
O O2 0.792488 0.744842 0.216995
O O3 0.975010 0.695130 0.249130
O O4 0.903679 0.721575 0.335905
O O5 0.417680 0.500000 0.074201
O O6 0.441499 0.259848 0.134713
O O7 0.270249 0.335221 0.057417
O O8 0.398525 0.256062 0.015597
O O9 0.166918 0.500000 0.501596
O O10 0.250000 0.750000 0.500000
O O11 0.128940 0.711921 0.559622
O O12 0.053763 0.710603 0.444653
O O13 0.777970 0.500000 0.822988
O O14 0.850149 0.712751 0.893021
O O15 0.883337 0.683797 0.794374
O O16 0.978473 0.500000 0.174936
O O17 0.940118 0.500000 0.404371
O O18 0.879647 0.500000 0.967620
#
# Coordination Sequence:
#
# PCOD9181395 Si02
#       7
#     8   8   8   8   8   8   8
#     4  10  20  36  56  77 104 140 181 217 250 305
#     4  10  19  32  53  76  99 130 172 219 264 315
#     4   9  17  33  57  82 111 143 176 215 255 302
#     4  10  21  37  54  76 105 138 173 215 270 318
#     4  10  21  35  53  75 102 136 173 214 264 319
#     4   8  17  34  54  77 109 148 177 204 258 315
#     4   9  18  33  52  72  99 134 169 211 268 325
#
# _framework density 18.203385000000001
#
# number of rings (size 3 to 8) (size 9 to 14) (size 15 to 20)
#    0.000    2.571    1.429    1.286    0.000    3.429 
#    0.000    7.143    0.000    0.000    0.000    0.000 
#    0.000    0.000    0.000    0.000    0.000    0.000 
#
# Total GULP energy -156169.555451 kJ/mol
# GULP energy per Si atom -5577.484123 kJ/mol
# Density = 1.816195 g / cm^3
# Si number density = 18.203385 Si / 1000 Ang^3
#
#
#
# Elastic Constant Matrix: (Units=GPa)
#
#
# Indices 1 2 3 4 5 6 
#
# 1 92.7380 31.8435 41.6243 0.0000 -19.7820 0.0000
# 2 31.8435 30.8329 25.8281 0.0000 -11.6683 0.0000
# 3 41.6243 25.8281 97.6286 0.0000 -26.7602 0.0000
# 4 0.0000 0.0000 0.0000 19.5971 0.0000 -0.0389
# 5 -19.7820 -11.6683 -26.7602 0.0000 17.7053 0.0000
# 6 0.0000 0.0000 0.0000 -0.0389 0.0000 19.2408
#
#
#
# Elastic Compliance Matrix: (Units=1/GPa)
#
#
# Indices 1 2 3 4 5 6 
#
# 1 0.018222 -0.014205 -0.001701 0.000000 0.008426 0.000000
# 2 -0.014205 0.056591 -0.005195 0.000000 0.013572 0.000000
# 3 -0.001701 -0.005195 0.018581 0.000000 0.022759 0.000000
# 4 0.000000 0.000000 0.000000 0.051028 0.000000 0.000103
# 5 0.008426 0.013572 0.022759 0.000000 0.109238 0.000000
# 6 0.000000 0.000000 0.000000 0.000103 0.000000 0.051973
#
#
# Mechanical properties :
#
#
# Convention : Reuss Voigt Hill
#
# Bulk Modulus (GPa) = 19.53449 46.64348 33.08899
# Shear Modulus (GPa) = 13.70243 19.43556 16.56900
#
# Velocity S-wave (km/s) = 2.74659 3.27110 3.02025
# Velocity P-wave (km/s) = 4.56211 6.32028 5.51175
#
# Compressibility (1/GPa) = 0.05119150
#
# Stress axis : x y z
#
# Youngs Moduli (GPa) = 54.87992 17.67056 53.81871
#
# Poissons Ratio (x) = 0.25101 0.09156
# Poissons Ratio (y) = 0.77957 0.27959
# Poissons Ratio (z) = 0.09336 0.09180
#
# Static dielectric constant tensor:
#      x y z
#    x 1.639080 0.000000 -0.024730 
#    y 0.000000 1.614900 0.000000 
#    z -0.024730 0.000000 1.619200 
# 
# From -- ./inp_files/338183.got.cif
#   From: 2010.05.17/outbox.cif.g08.bks.cpg/sg12_170_cif.got.tgz:338183.got - 2010.06.03 13:09:07.
