data_PCOD9181071
_publ_section_title
;
Structure prediction by ZEFSAII (Michael W. Deem and Ramdas Pophale) SiO2 
 PCOD9181071
Probable space group: C 2/M
;
_chemical_formula_sum "Si O2"
_cell_formula_units_Z 64
_cell_length_a 15.320269
_cell_length_b 31.287873
_cell_length_c 8.288328
_cell_angle_alpha 90.000000
_cell_angle_beta 59.287395
_cell_angle_gamma 90.000000
_cell_volume 3415.674355
_symmetry_space_group_name_H-M "C 2/M"
_symmetry_group_IT_number 12
_symmetry_cell_setting 'monoclinic'
loop_
_space_group_symop_operation_xyz
x,y,z
-x,y,-z
-x,-y,-z
x,-y,z
1/2+x,1/2+y,z
1/2-x,1/2+y,-z
1/2-x,1/2-y,-z
1/2+x,1/2-y,z
loop_
_atom_site_type_symbol
_atom_site_label
_atom_site_fract_x
_atom_site_fract_y
_atom_site_fract_z
Si Si1 0.387848 0.625052 0.541113
Si Si2 0.442556 0.919719 0.211691
Si Si3 0.384174 0.130110 0.553042
Si Si4 0.560719 0.686928 0.777543
Si Si5 0.749421 0.952956 0.767263
Si Si6 0.638283 0.293464 0.217616
Si Si7 0.252722 0.211685 0.768986
Si Si8 0.360390 0.951033 0.791774
O O1 0.500000 0.614605 0.500000
O O2 0.398812 0.644764 0.351983
O O3 0.318528 0.584220 0.632147
O O4 0.349082 0.664036 0.689243
O O5 0.391628 0.881656 0.358797
O O6 0.356214 0.951020 0.230263
O O7 0.526511 0.942899 0.242911
O O8 0.500000 0.902764 0.000000
O O9 0.500000 0.138149 0.500000
O O10 0.315725 0.170206 0.658906
O O11 0.345853 0.086767 0.677532
O O12 0.478642 0.708077 0.733718
O O13 0.656509 0.715520 0.739810
O O14 0.500000 0.676615 0.000000
O O15 0.795396 0.000000 0.709672
O O16 0.716628 0.945852 0.984852
O O17 0.675935 0.252895 0.283213
O O18 0.705657 0.295553 0.991911
O O19 0.353215 0.000000 0.739036
#
# Coordination Sequence:
#
# PCOD9181071 Si02
#       8
#     8   8   8   8   8   8   8   8
#     4  10  20  35  54  75 102 136 174 214 258 313
#     4   9  18  32  49  72 103 138 172 208 256 311
#     4  10  20  31  50  77 106 138 172 214 258 306
#     4   9  19  36  57  79 103 138 175 208 259 317
#     4  10  19  32  52  75  99 131 174 220 261 305
#     4   9  20  36  57  80 104 137 174 213 261 318
#     4  10  19  36  57  79 108 136 171 220 262 303
#     4   9  18  32  49  72 104 139 172 209 259 316
#
# _framework density 18.73715
#
# number of rings (size 3 to 8) (size 9 to 14) (size 15 to 20)
#    0.000    2.500    0.000    1.875    0.000    6.500 
#    0.000    2.500    0.000    9.375    0.000    0.000 
#    0.000    0.000    0.000    0.000    0.000    0.000 
#
# Total GULP energy -178535.902794 kJ/mol
# GULP energy per Si atom -5579.246962 kJ/mol
# Density = 1.869450 g / cm^3
# Si number density = 18.737150 Si / 1000 Ang^3
#
#
#
# Elastic Constant Matrix: (Units=GPa)
#
#
# Indices 1 2 3 4 5 6 
#
# 1 62.2787 62.6758 44.7760 0.0000 -0.9976 0.0000
# 2 62.6758 140.8647 68.1497 0.0000 -12.8512 0.0000
# 3 44.7760 68.1497 69.3538 0.0000 -4.8183 0.0000
# 4 0.0000 0.0000 0.0000 18.5152 0.0000 -6.2111
# 5 -0.9976 -12.8512 -4.8183 0.0000 21.6084 0.0000
# 6 0.0000 0.0000 0.0000 -6.2111 0.0000 10.3153
#
#
#
# Elastic Compliance Matrix: (Units=1/GPa)
#
#
# Indices 1 2 3 4 5 6 
#
# 1 0.035972 -0.009899 -0.014008 0.000000 -0.007350 0.000000
# 2 -0.009899 0.016848 -0.009650 0.000000 0.007411 0.000000
# 3 -0.014008 -0.009650 0.033012 0.000000 0.000976 0.000000
# 4 0.000000 0.000000 0.000000 0.067680 0.000000 0.040752
# 5 -0.007350 0.007411 0.000976 0.000000 0.050564 0.000000
# 6 0.000000 0.000000 0.000000 0.040752 0.000000 0.121481
#
#
# Mechanical properties :
#
#
# Convention : Reuss Voigt Hill
#
# Bulk Modulus (GPa) = 53.41951 69.30003 61.35977
# Shear Modulus (GPa) = 12.53410 16.54751 14.54080
#
# Velocity S-wave (km/s) = 2.58920 2.97499 2.78877
# Velocity P-wave (km/s) = 6.12458 6.99045 6.57179
#
# Compressibility (1/GPa) = 0.01871975
#
# Stress axis : x y z
#
# Youngs Moduli (GPa) = 27.79912 59.35419 30.29156
#
# Poissons Ratio (x) = 0.58755 0.42432
# Poissons Ratio (y) = 0.27518 0.29230
# Poissons Ratio (z) = 0.38941 0.57275
#
# Static dielectric constant tensor:
#      x y z
#    x 1.669470 0.000000 0.007880 
#    y 0.000000 1.611400 0.000000 
#    z 0.007880 0.000000 1.669320 
# 
# From -- ./inp_files/68208.got.cif
#   From: 2010.05.17/outbox.cif.g08.bks.cpg/sg12_35_cif.got.tgz:68208.got - 2010.06.03 13:09:07.
