data_PCOD9181952
_publ_section_title
;
Structure prediction by ZEFSAII (Michael W. Deem and Ramdas Pophale) SiO2 
 PCOD9181952
Probable space group: C 2/M
;
_chemical_formula_sum "Si O2"
_cell_formula_units_Z 64
_cell_length_a 28.221143
_cell_length_b 13.523423
_cell_length_c 15.426531
_cell_angle_alpha 90.000000
_cell_angle_beta 143.520901
_cell_angle_gamma 90.000000
_cell_volume 3500.281094
_symmetry_space_group_name_H-M "C 2/M"
_symmetry_group_IT_number 12
_symmetry_cell_setting 'monoclinic'
loop_
_space_group_symop_operation_xyz
x,y,z
-x,y,-z
-x,-y,-z
x,-y,z
1/2+x,1/2+y,z
1/2-x,1/2+y,-z
1/2-x,1/2-y,-z
1/2+x,1/2-y,z
loop_
_atom_site_type_symbol
_atom_site_label
_atom_site_fract_x
_atom_site_fract_y
_atom_site_fract_z
Si Si1 0.979404 0.774060 0.180415
Si Si2 0.594135 0.607066 0.626718
Si Si3 0.835345 0.116826 0.863120
Si Si4 0.213657 0.726255 0.352891
Si Si5 0.446040 0.111870 0.835176
Si Si6 0.748061 0.112437 0.905852
Si Si7 0.368829 0.614936 0.520627
Si Si8 0.132770 0.737056 0.827855
O O1 0.011103 0.683185 0.170263
O O2 0.056458 0.840061 0.317178
O O3 0.941098 0.735327 0.214603
O O4 0.911961 0.835258 0.026604
O O5 0.500000 0.601380 0.500000
O O6 0.628934 0.500000 0.704527
O O7 0.611658 0.621915 0.552246
O O8 0.620875 0.694793 0.726643
O O9 0.815302 0.181004 0.748379
O O10 0.760296 0.121876 0.820116
O O11 0.849944 0.000000 0.867021
O O12 0.250000 0.750000 0.500000
O O13 0.138125 0.656912 0.259681
O O14 0.286058 0.670822 0.412488
O O15 0.436788 0.000000 0.788404
O O16 0.500000 0.109663 0.000000
O O17 0.666310 0.135687 0.836665
O O18 0.774430 0.000000 0.964185
O O19 0.803614 0.199716 0.023377
O O20 0.360050 0.500000 0.531280
#
# Coordination Sequence:
#
# PCOD9181952 Si02
#       8
#     8   8   8   8   8   8   8   8
#     4  11  21  40  63  92 119 154 205 250 298 353
#     4  10  19  32  54  85 120 153 187 228 288 346
#     4  10  22  40  64  90 120 157 198 246 300 355
#     4  12  24  42  63  87 120 155 200 246 304 363
#     4  11  24  45  66  84 116 158 198 248 302 358
#     4   9  19  35  56  85 119 155 194 236 286 345
#     4  11  23  38  60  92 125 159 199 250 299 352
#     4  10  19  33  59  85 119 157 192 240 288 342
#
# _framework density 18.284246
#
# number of rings (size 3 to 8) (size 9 to 14) (size 15 to 20)
#    0.000    1.500    3.750    1.875    0.000    2.500 
#    0.000    0.625    0.000    0.375    0.000    0.000 
#    0.000    0.000    0.000    0.000    0.000    0.000 
#
# Total GULP energy -178319.194518 kJ/mol
# GULP energy per Si atom -5572.474829 kJ/mol
# Density = 1.824263 g / cm^3
# Si number density = 18.284246 Si / 1000 Ang^3
#
#
#
# Elastic Constant Matrix: (Units=GPa)
#
#
# Indices 1 2 3 4 5 6 
#
# 1 89.5991 82.2478 33.4355 0.0000 11.7718 0.0000
# 2 82.2478 117.4011 41.8789 0.0000 -4.3968 0.0000
# 3 33.4355 41.8789 80.7600 0.0000 -0.8952 0.0000
# 4 0.0000 0.0000 0.0000 29.1512 0.0000 7.9678
# 5 11.7718 -4.3968 -0.8952 0.0000 30.2103 0.0000
# 6 0.0000 0.0000 0.0000 7.9678 0.0000 45.6463
#
#
#
# Elastic Compliance Matrix: (Units=1/GPa)
#
#
# Indices 1 2 3 4 5 6 
#
# 1 0.040947 -0.028607 -0.002342 0.000000 -0.020188 0.000000
# 2 -0.028607 0.030493 -0.003797 0.000000 0.015472 0.000000
# 3 -0.002342 -0.003797 0.015330 0.000000 0.000814 0.000000
# 4 0.000000 0.000000 0.000000 0.036023 0.000000 -0.006288
# 5 -0.020188 0.015472 0.000814 0.000000 0.043244 0.000000
# 6 0.000000 0.000000 0.000000 -0.006288 0.000000 0.023005
#
#
# Mechanical properties :
#
#
# Convention : Reuss Voigt Hill
#
# Bulk Modulus (GPa) = 57.87781 66.98716 62.43249
# Shear Modulus (GPa) = 18.91838 29.68143 24.29990
#
# Velocity S-wave (km/s) = 3.22014 4.03343 3.64951
# Velocity P-wave (km/s) = 6.74899 7.64248 7.20959
#
# Compressibility (1/GPa) = 0.01727778
#
# Stress axis : x y z
#
# Youngs Moduli (GPa) = 24.42181 32.79436 65.23113
#
# Poissons Ratio (x) = 0.93815 0.15276
# Poissons Ratio (y) = 0.69863 0.24771
# Poissons Ratio (z) = 0.05719 0.12453
#
# Static dielectric constant tensor:
#      x y z
#    x 1.639030 0.000000 0.025860 
#    y 0.000000 1.658550 0.000000 
#    z 0.025860 0.000000 1.658760 
# 
# From -- ./inp_files/245972.got.cif
#   From: 2010.05.17/outbox.cif.g08.bks.cpg/sg12_123_cif.got.tgz:245972.got - 2010.06.03 13:09:07.
