data_PCOD9181243
_publ_section_title
;
Structure prediction by ZEFSAII (Michael W. Deem and Ramdas Pophale) SiO2 
 PCOD9181243
Probable space group: C 2/M
;
_chemical_formula_sum "Si O2"
_cell_formula_units_Z 64
_cell_length_a 16.958647
_cell_length_b 18.220376
_cell_length_c 16.549059
_cell_angle_alpha 90.000000
_cell_angle_beta 140.099864
_cell_angle_gamma 90.000000
_cell_volume 3280.089035
_symmetry_space_group_name_H-M "C 2/M"
_symmetry_group_IT_number 12
_symmetry_cell_setting 'monoclinic'
loop_
_space_group_symop_operation_xyz
x,y,z
-x,y,-z
-x,-y,-z
x,-y,z
1/2+x,1/2+y,z
1/2-x,1/2+y,-z
1/2-x,1/2-y,-z
1/2+x,1/2-y,z
loop_
_atom_site_type_symbol
_atom_site_label
_atom_site_fract_x
_atom_site_fract_y
_atom_site_fract_z
Si Si1 0.017755 0.917085 0.838546
Si Si2 0.777250 0.416369 0.135741
Si Si3 0.374616 0.653781 0.855144
Si Si4 0.628322 0.084973 0.194358
Si Si5 0.895252 0.082474 0.486037
Si Si6 0.971973 0.816795 0.294620
Si Si7 0.055936 0.684250 0.846145
Si Si8 0.805672 0.697712 0.880154
O O1 0.050268 0.889024 0.776322
O O2 0.911252 0.867073 0.793886
O O3 0.973719 0.000000 0.807438
O O4 0.146802 0.913219 0.986920
O O5 0.820519 0.500000 0.171851
O O6 0.740652 0.387582 0.195877
O O7 0.867629 0.365212 0.156577
O O8 0.355013 0.738465 0.860446
O O9 0.500000 0.630243 0.000000
O O10 0.763418 0.087501 0.340363
O O11 0.541885 0.133841 0.183965
O O12 0.644030 0.122455 0.118585
O O13 0.588827 0.000000 0.158650
O O14 0.000000 0.083226 0.500000
O O15 0.923151 0.153706 0.563143
O O16 0.901391 0.000000 0.529845
O O17 0.994733 0.750816 0.248894
O O18 0.841894 0.800213 0.235003
O O19 0.144145 0.711683 0.989417
#
# Coordination Sequence:
#
# PCOD9181243 Si02
#       8
#     8   8   8   8   8   8   8   8
#     4  10  20  33  53  82 112 149 200 244 285 345
#     4  10  19  32  52  78 117 159 190 232 289 355
#     4  10  19  34  51  77 115 156 195 232 286 348
#     4  11  25  42  63  89 120 164 210 254 304 359
#     4  10  22  43  65  87 117 156 210 265 302 346
#     4  12  22  37  63  88 119 162 202 245 306 359
#     4  12  23  38  56  90 130 158 195 242 304 382
#     4  12  22  37  60  88 126 163 194 241 307 374
#
# _framework density 19.511665000000001
#
# number of rings (size 3 to 8) (size 9 to 14) (size 15 to 20)
#    0.000    1.125    3.750    4.875    0.000    4.000 
#    0.000    0.000    0.000    0.000    0.000    0.000 
#    0.000    6.000    0.000    0.000    0.000    0.000 
#
# Total GULP energy -178520.542131 kJ/mol
# GULP energy per Si atom -5578.766942 kJ/mol
# Density = 1.946726 g / cm^3
# Si number density = 19.511665 Si / 1000 Ang^3
#
#
#
# Elastic Constant Matrix: (Units=GPa)
#
#
# Indices 1 2 3 4 5 6 
#
# 1 84.3144 46.9905 -0.7972 0.0000 4.7611 0.0000
# 2 46.9905 96.3569 32.6539 0.0000 -10.8993 0.0000
# 3 -0.7972 32.6539 39.9610 0.0000 0.4199 0.0000
# 4 0.0000 0.0000 0.0000 28.7724 0.0001 -5.5892
# 5 4.7611 -10.8993 0.4199 0.0001 16.4958 0.0000
# 6 0.0000 0.0000 0.0000 -5.5892 0.0000 29.2107
#
#
#
# Elastic Compliance Matrix: (Units=1/GPa)
#
#
# Indices 1 2 3 4 5 6 
#
# 1 0.024302 -0.019945 0.016999 0.000000 -0.020625 0.000000
# 2 -0.019945 0.032496 -0.027245 0.000000 0.027921 0.000000
# 3 0.016999 -0.027245 0.047880 0.000000 -0.024127 0.000000
# 4 0.000000 0.000000 0.000000 0.036097 0.000000 0.006907
# 5 -0.020625 0.027921 -0.024127 0.000000 0.085637 0.000000
# 6 0.000000 0.000000 0.000000 0.006907 0.000000 0.035556
#
#
# Mechanical properties :
#
#
# Convention : Reuss Voigt Hill
#
# Bulk Modulus (GPa) = 22.57520 42.03628 32.30574
# Shear Modulus (GPa) = 14.83178 24.34814 19.58996
#
# Velocity S-wave (km/s) = 2.76007 3.53636 3.17205
# Velocity P-wave (km/s) = 4.66396 6.18590 5.47805
#
# Compressibility (1/GPa) = 0.04429640
#
# Stress axis : x y z
#
# Youngs Moduli (GPa) = 41.14952 30.77309 20.88547
#
# Poissons Ratio (x) = 0.61377 -0.35504
# Poissons Ratio (y) = 0.82073 0.56903
# Poissons Ratio (z) = -0.69952 0.83842
#
# Static dielectric constant tensor:
#      x y z
#    x 1.686180 0.000000 -0.035770 
#    y 0.000000 1.723460 0.000000 
#    z -0.035770 0.000000 1.762480 
# 
# From -- ./inp_files/216854.got.cif
#   From: 2010.05.17/outbox.cif.g08.bks.cpg/sg12_109_cif.got.tgz:216854.got - 2010.06.03 13:09:07.
