data_PCOD9181382
_publ_section_title
;
Structure prediction by ZEFSAII (Michael W. Deem and Ramdas Pophale) SiO2 
 PCOD9181382
Probable space group: C 2/M
;
_chemical_formula_sum "Si O2"
_cell_formula_units_Z 48
_cell_length_a 14.303459
_cell_length_b 8.240642
_cell_length_c 22.506471
_cell_angle_alpha 90.000000
_cell_angle_beta 128.348399
_cell_angle_gamma 90.000000
_cell_volume 2080.489199
_symmetry_space_group_name_H-M "C 2/M"
_symmetry_group_IT_number 12
_symmetry_cell_setting 'monoclinic'
loop_
_space_group_symop_operation_xyz
x,y,z
-x,y,-z
-x,-y,-z
x,-y,z
1/2+x,1/2+y,z
1/2-x,1/2+y,-z
1/2-x,1/2-y,-z
1/2+x,1/2-y,z
loop_
_atom_site_type_symbol
_atom_site_label
_atom_site_fract_x
_atom_site_fract_y
_atom_site_fract_z
Si Si1 0.980342 0.685575 0.842858
Si Si2 0.146195 0.191962 0.003223
Si Si3 0.301535 0.188439 0.165320
Si Si4 0.217189 0.686316 0.326898
Si Si5 0.701791 0.000000 0.584642
Si Si6 0.979206 0.500000 0.591369
Si Si7 0.935037 0.176071 0.327863
O O1 0.953798 0.500000 0.847514
O O2 0.025743 0.768559 0.920807
O O3 0.090724 0.687833 0.840052
O O4 0.869763 0.746724 0.760582
O O5 0.153325 0.000000 0.012160
O O6 0.250000 0.250000 0.000000
O O7 0.187439 0.254725 0.083981
O O8 0.348298 0.294229 0.237753
O O9 0.283113 0.000000 0.177290
O O10 0.180819 0.500000 0.329508
O O11 0.226065 0.832982 0.376778
O O12 0.348330 0.670297 0.350520
O O13 0.596007 0.000000 0.593636
O O14 0.635157 0.000000 0.495709
O O15 0.987049 0.336887 0.633342
O O16 0.994493 0.000000 0.345975
#
# Coordination Sequence:
#
# PCOD9181382 Si02
#       7
#     8   8   8   8   4   4   8
#     4   9  18  32  50  72 100 134 166 212 248 287
#     4   9  17  28  45  69  99 130 170 210 244 283
#     4   9  17  31  49  71 100 135 167 209 248 289
#     4   9  19  34  51  77 104 127 167 209 246 299
#     4   9  18  32  56  77  97 135 158 201 262 293
#     4   9  18  34  52  77 105 123 164 209 244 305
#     4  10  19  32  53  76 101 133 164 205 253 296
#
# _framework density 23.071497000000001
#
# number of rings (size 3 to 8) (size 9 to 14) (size 15 to 20)
#    0.000    2.833    0.833    1.500    1.167    4.000 
#    0.000    4.167    0.000    6.000    0.000    0.000 
#    0.000    0.000    0.000    0.000    0.000    0.000 
#
# Total GULP energy -133903.828467 kJ/mol
# GULP energy per Si atom -5579.326186 kJ/mol
# Density = 2.301898 g / cm^3
# Si number density = 23.071497 Si / 1000 Ang^3
#
#
#
# Elastic Constant Matrix: (Units=GPa)
#
#
# Indices 1 2 3 4 5 6 
#
# 1 61.6077 11.8198 -1.5663 0.0000 1.9887 0.0000
# 2 11.8198 152.7379 105.3866 0.0000 1.7541 0.0000
# 3 -1.5663 105.3866 158.5672 0.0000 12.3808 0.0000
# 4 0.0000 0.0000 0.0000 17.9645 0.0000 5.1061
# 5 1.9887 1.7541 12.3808 0.0000 17.9695 0.0000
# 6 0.0000 0.0000 0.0000 5.1061 0.0000 14.6231
#
#
#
# Elastic Compliance Matrix: (Units=1/GPa)
#
#
# Indices 1 2 3 4 5 6 
#
# 1 0.016948 -0.002887 0.002336 0.000000 -0.003203 0.000000
# 2 -0.002887 0.012956 -0.009052 0.000000 0.005292 0.000000
# 3 0.002336 -0.009052 0.012996 0.000000 -0.008329 0.000000
# 4 0.000000 0.000000 0.000000 0.061799 0.000000 -0.021579
# 5 -0.003203 0.005292 -0.008329 0.000000 0.061226 0.000000
# 6 0.000000 0.000000 0.000000 -0.021579 0.000000 0.075920
#
#
# Mechanical properties :
#
#
# Convention : Reuss Voigt Hill
#
# Bulk Modulus (GPa) = 42.20382 67.13255 54.66819
# Shear Modulus (GPa) = 18.59088 27.26294 22.92691
#
# Velocity S-wave (km/s) = 2.84173 3.44128 3.15577
# Velocity P-wave (km/s) = 5.39440 6.70452 6.08483
#
# Compressibility (1/GPa) = 0.02369454
#
# Stress axis : x y z
#
# Youngs Moduli (GPa) = 59.00279 77.18614 76.94563
#
# Poissons Ratio (x) = 0.22280 -0.17975
# Poissons Ratio (y) = 0.17032 0.69653
# Poissons Ratio (z) = -0.13783 0.69871
#
# Static dielectric constant tensor:
#      x y z
#    x 1.920340 0.000000 0.007060 
#    y 0.000000 1.843170 0.000000 
#    z 0.007060 0.000000 1.869280 
# 
# From -- ./inp_files/342067.got.cif
#   From: 2010.05.17/outbox.cif.g08.bks.cpg/sg12_172_cif.got.tgz:342067.got - 2010.06.03 13:09:07.
