data_PCOD9181530
_publ_section_title
;
Structure prediction by ZEFSAII (Michael W. Deem and Ramdas Pophale) SiO2 
 PCOD9181530
Probable space group: C 2/M
;
_chemical_formula_sum "Si O2"
_cell_formula_units_Z 56
_cell_length_a 13.076334
_cell_length_b 12.989818
_cell_length_c 22.497866
_cell_angle_alpha 90.000000
_cell_angle_beta 39.835524
_cell_angle_gamma 90.000000
_cell_volume 2447.979553
_symmetry_space_group_name_H-M "C 2/M"
_symmetry_group_IT_number 12
_symmetry_cell_setting 'monoclinic'
loop_
_space_group_symop_operation_xyz
x,y,z
-x,y,-z
-x,-y,-z
x,-y,z
1/2+x,1/2+y,z
1/2-x,1/2+y,-z
1/2-x,1/2-y,-z
1/2+x,1/2-y,z
loop_
_atom_site_type_symbol
_atom_site_label
_atom_site_fract_x
_atom_site_fract_y
_atom_site_fract_z
Si Si1 0.529294 0.690633 0.752161
Si Si2 0.865355 0.116157 0.479125
Si Si3 0.617924 0.877479 0.148823
Si Si4 0.825847 0.120373 0.731001
Si Si5 0.676435 0.831097 0.442392
Si Si6 0.104778 0.235285 0.901220
Si Si7 0.840141 0.120931 0.949076
O O1 0.533087 0.813251 0.761488
O O2 0.448556 0.651625 0.728357
O O3 0.706803 0.649174 0.665883
O O4 0.402272 0.653701 0.857479
O O5 0.752404 0.121876 0.469600
O O6 0.820156 0.209667 0.542122
O O7 0.053219 0.134199 0.378184
O O8 0.849772 0.000000 0.509529
O O9 0.755460 0.831721 0.130599
O O10 0.602439 0.000000 0.159667
O O11 0.677727 0.846468 0.055396
O O12 0.678443 0.192019 0.817258
O O13 0.779703 0.000000 0.753819
O O14 0.500000 0.861531 0.500000
O O15 0.983319 0.154684 0.927561
O O16 0.000000 0.290728 0.000000
O O17 0.825847 0.000000 0.953572
#
# Coordination Sequence:
#
# PCOD9181530 Si02
#       7
#     8   8   8   8   8   8   8
#     4  10  20  34  54  79 109 140 181 228 276 328
#     4   9  20  40  61  82 113 154 192 234 291 345
#     4   9  18  34  53  76 108 145 180 220 270 328
#     4   9  18  34  55  74 104 146 183 221 274 333
#     4  10  22  38  61  86 116 149 192 244 286 340
#     4   9  18  31  51  79 109 141 180 224 268 321
#     4  10  19  32  53  79 108 141 179 223 275 327
#
# _framework density 22.876007000000001
#
# number of rings (size 3 to 8) (size 9 to 14) (size 15 to 20)
#    0.000    2.571    0.000    1.286    2.000    3.714 
#    0.000    0.714    0.000    0.000    0.000    0.000 
#    0.000    0.000    0.000    0.000    0.000    0.000 
#
# Total GULP energy -156062.241272 kJ/mol
# GULP energy per Si atom -5573.651474 kJ/mol
# Density = 2.282394 g / cm^3
# Si number density = 22.876007 Si / 1000 Ang^3
#
#
#
# Elastic Constant Matrix: (Units=GPa)
#
#
# Indices 1 2 3 4 5 6 
#
# 1 50.4696 -7.3569 6.3382 0.0000 -7.6706 0.0000
# 2 -7.3569 43.2601 15.9911 0.0000 10.1791 0.0000
# 3 6.3382 15.9911 79.6607 0.0000 -18.2031 0.0000
# 4 0.0000 0.0000 0.0000 12.1747 0.0000 2.8437
# 5 -7.6706 10.1791 -18.2031 0.0000 32.0185 0.0000
# 6 0.0000 0.0000 0.0000 2.8437 0.0000 8.4062
#
#
#
# Elastic Compliance Matrix: (Units=1/GPa)
#
#
# Indices 1 2 3 4 5 6 
#
# 1 0.020986 0.003504 -0.001700 0.000000 0.002948 0.000000
# 2 0.003504 0.030722 -0.009753 0.000000 -0.014473 0.000000
# 3 -0.001700 -0.009753 0.017540 0.000000 0.012666 0.000000
# 4 0.000000 0.000000 0.000000 0.089185 0.000000 -0.030170
# 5 0.002948 -0.014473 0.012666 0.000000 0.043740 0.000000
# 6 0.000000 0.000000 0.000000 -0.030170 0.000000 0.129166
#
#
# Mechanical properties :
#
#
# Convention : Reuss Voigt Hill
#
# Bulk Modulus (GPa) = 18.74381 22.59281 20.66831
# Shear Modulus (GPa) = 13.69784 21.08109 17.38947
#
# Velocity S-wave (km/s) = 2.44967 3.03898 2.76009
# Velocity P-wave (km/s) = 4.02649 4.71291 4.38315
#
# Compressibility (1/GPa) = 0.05335095
#
# Stress axis : x y z
#
# Youngs Moduli (GPa) = 47.65072 32.54951 57.01097
#
# Poissons Ratio (x) = -0.11404 0.09689
# Poissons Ratio (y) = -0.16695 0.55603
# Poissons Ratio (z) = 0.08098 0.31746
#
# Static dielectric constant tensor:
#      x y z
#    x 1.916410 0.000000 0.019050 
#    y 0.000000 1.855220 0.000000 
#    z 0.019050 0.000000 1.944260 
# 
# From -- ./inp_files/246621.got.cif
#   From: 2010.05.17/outbox.cif.g08.bks.cpg/sg12_124_cif.got.tgz:246621.got - 2010.06.03 13:09:07.
