data_PCOD9181742
_publ_section_title
;
Structure prediction by ZEFSAII (Michael W. Deem and Ramdas Pophale) SiO2 
 PCOD9181742
Probable space group: C 2/M
;
_chemical_formula_sum "Si O2"
_cell_formula_units_Z 64
_cell_length_a 29.072331
_cell_length_b 8.878649
_cell_length_c 14.605588
_cell_angle_alpha 90.000000
_cell_angle_beta 93.418296
_cell_angle_gamma 90.000000
_cell_volume 3763.331015
_symmetry_space_group_name_H-M "C 2/M"
_symmetry_group_IT_number 12
_symmetry_cell_setting 'monoclinic'
loop_
_space_group_symop_operation_xyz
x,y,z
-x,y,-z
-x,-y,-z
x,-y,z
1/2+x,1/2+y,z
1/2-x,1/2+y,-z
1/2-x,1/2-y,-z
1/2+x,1/2-y,z
loop_
_atom_site_type_symbol
_atom_site_label
_atom_site_fract_x
_atom_site_fract_y
_atom_site_fract_z
Si Si1 0.241220 0.180633 0.099231
Si Si2 0.098988 0.680414 0.955058
Si Si3 0.669363 0.319567 0.815994
Si Si4 0.425261 0.181246 0.723491
Si Si5 0.447536 0.181470 0.517353
Si Si6 0.906218 0.179388 0.337418
Si Si7 0.024702 0.680775 0.802129
Si Si8 0.363322 0.320375 0.859832
O O1 0.280606 0.247243 0.169240
O O2 0.189895 0.219200 0.126677
O O3 0.245162 0.000000 0.094309
O O4 0.250000 0.250000 0.000000
O O5 0.104170 0.500000 0.957898
O O6 0.137970 0.751234 0.893667
O O7 0.050253 0.715931 0.900428
O O8 0.106452 0.746779 0.055849
O O9 0.671795 0.500000 0.827780
O O10 0.641918 0.285526 0.719176
O O11 0.433956 0.223536 0.618953
O O12 0.471653 0.223341 0.784791
O O13 0.382262 0.258919 0.766462
O O14 0.420304 0.000000 0.727348
O O15 0.500000 0.229346 0.500000
O O16 0.414054 0.248937 0.437052
O O17 0.446581 0.000000 0.511242
O O18 0.945629 0.243426 0.274652
O O19 0.910552 0.000000 0.343288
O O20 0.027530 0.500000 0.789262
O O21 0.367460 0.500000 0.864497
#
# Coordination Sequence:
#
# PCOD9181742 Si02
#       8
#     8   8   8   8   8   8   8   8
#     4  11  22  36  57  81 107 142 181 225 273 321
#     4  10  19  32  54  78 105 145 186 220 262 316
#     4  10  20  34  53  81 113 140 175 224 272 321
#     4  10  21  37  56  77 106 145 186 223 265 317
#     4  10  19  35  58  81 108 142 182 227 266 313
#     4  10  20  32  52  83 114 141 173 221 276 323
#     4   9  18  34  53  76 107 144 186 224 257 311
#     4  11  24  38  52  76 112 144 177 225 275 322
#
# _framework density 17.006211
#
# number of rings (size 3 to 8) (size 9 to 14) (size 15 to 20)
#    0.000    1.875    2.500    1.875    0.000    5.250 
#    0.000    2.500    0.000    0.750    0.000    0.000 
#    0.000    0.000    0.000    0.000    0.000    0.000 
#
# Total GULP energy -178644.126197 kJ/mol
# GULP energy per Si atom -5582.628944 kJ/mol
# Density = 1.696750 g / cm^3
# Si number density = 17.006211 Si / 1000 Ang^3
#
#
#
# Elastic Constant Matrix: (Units=GPa)
#
#
# Indices 1 2 3 4 5 6 
#
# 1 109.6256 44.3088 68.7009 0.0000 -0.6191 0.0000
# 2 44.3088 35.4759 39.9585 0.0000 -0.9501 0.0000
# 3 68.7009 39.9585 113.3435 0.0000 -0.9370 0.0000
# 4 0.0000 0.0000 0.0000 29.4165 0.0000 0.8613
# 5 -0.6191 -0.9501 -0.9370 0.0000 23.5237 0.0000
# 6 0.0000 0.0000 0.0000 0.8613 0.0000 24.5391
#
#
#
# Elastic Compliance Matrix: (Units=1/GPa)
#
#
# Indices 1 2 3 4 5 6 
#
# 1 0.020365 -0.019140 -0.005600 0.000000 -0.000460 0.000000
# 2 -0.019140 0.064779 -0.011222 0.000000 0.001665 0.000000
# 3 -0.005600 -0.011222 0.016174 0.000000 0.000044 0.000000
# 4 0.000000 0.000000 0.000000 0.034029 0.000000 -0.001194
# 5 -0.000460 0.001665 0.000044 0.000000 0.042567 0.000000
# 6 0.000000 0.000000 0.000000 -0.001194 0.000000 0.040793
#
#
# Mechanical properties :
#
#
# Convention : Reuss Voigt Hill
#
# Bulk Modulus (GPa) = 34.02186 62.70905 48.36545
# Shear Modulus (GPa) = 16.64287 22.52764 19.58526
#
# Velocity S-wave (km/s) = 3.13171 3.64355 3.39728
# Velocity P-wave (km/s) = 5.75550 7.39289 6.62498
#
# Compressibility (1/GPa) = 0.02939287
#
# Stress axis : x y z
#
# Youngs Moduli (GPa) = 49.10425 15.43716 61.82945
#
# Poissons Ratio (x) = 0.29547 0.34623
# Poissons Ratio (y) = 0.93987 0.69385
# Poissons Ratio (z) = 0.27497 0.17324
#
# Static dielectric constant tensor:
#      x y z
#    x 1.576540 0.000000 0.017290 
#    y 0.000000 1.567270 0.000000 
#    z 0.017290 0.000000 1.571220 
# 
# From -- ./inp_files/248418.got.cif
#   From: 2010.05.17/outbox.cif.g08.bks.cpg/sg12_125_cif.got.tgz:248418.got - 2010.06.03 13:09:07.
