data_PCOD9181246
_publ_section_title
;
Structure prediction by ZEFSAII (Michael W. Deem and Ramdas Pophale) SiO2 
 PCOD9181246
Probable space group: C 2/M
;
_chemical_formula_sum "Si O2"
_cell_formula_units_Z 56
_cell_length_a 21.151432
_cell_length_b 7.703475
_cell_length_c 18.195951
_cell_angle_alpha 90.000000
_cell_angle_beta 108.801500
_cell_angle_gamma 90.000000
_cell_volume 2806.638256
_symmetry_space_group_name_H-M "C 2/M"
_symmetry_group_IT_number 12
_symmetry_cell_setting 'monoclinic'
loop_
_space_group_symop_operation_xyz
x,y,z
-x,y,-z
-x,-y,-z
x,-y,z
1/2+x,1/2+y,z
1/2-x,1/2+y,-z
1/2-x,1/2-y,-z
1/2+x,1/2-y,z
loop_
_atom_site_type_symbol
_atom_site_label
_atom_site_fract_x
_atom_site_fract_y
_atom_site_fract_z
Si Si1 0.158383 0.702249 0.655632
Si Si2 0.674996 0.209108 0.497756
Si Si3 0.802847 0.795030 0.915646
Si Si4 0.438330 0.786845 0.252730
Si Si5 0.304516 0.798767 0.754937
Si Si6 0.590688 0.787493 0.327323
Si Si7 0.843491 0.709345 0.087494
O O1 0.140264 0.500000 0.640683
O O2 0.160928 0.777819 0.574408
O O3 0.106180 0.774788 0.694997
O O4 0.232841 0.710906 0.716654
O O5 0.750000 0.250000 0.500000
O O6 0.623194 0.269352 0.416412
O O7 0.670589 0.000000 0.498907
O O8 0.825679 0.715888 0.847512
O O9 0.728438 0.727893 0.908626
O O10 0.797555 0.000000 0.901682
O O11 0.847470 0.762809 0.004139
O O12 0.514736 0.730957 0.287847
O O13 0.401547 0.732311 0.163937
O O14 0.437357 0.000000 0.252566
O O15 0.360218 0.730673 0.719853
O O16 0.293565 0.000000 0.732355
O O17 0.590039 0.000000 0.326683
O O18 0.841635 0.500000 0.088275
#
# Coordination Sequence:
#
# PCOD9181246 Si02
#       7
#     8   8   8   8   8   8   8
#     4  10  19  32  54  79 103 136 175 218 262 302
#     4  10  19  32  52  79 107 136 174 215 260 305
#     4  10  19  32  52  79 106 132 172 218 259 304
#     4   9  17  33  53  76 107 136 172 218 261 305
#     4  11  20  32  52  78 106 137 175 213 256 311
#     4   9  19  33  51  77 107 139 173 215 261 306
#     4   9  17  31  52  77 103 134 170 214 263 305
#
# _framework density 19.952696
#
# number of rings (size 3 to 8) (size 9 to 14) (size 15 to 20)
#    0.000    2.286    2.857    0.857    0.000    1.143 
#    0.000    3.571    0.000    9.429    0.000    2.000 
#    0.000    0.000    0.000    0.000    0.000    0.000 
#
# Total GULP energy -156284.906539 kJ/mol
# GULP energy per Si atom -5581.603805 kJ/mol
# Density = 1.990728 g / cm^3
# Si number density = 19.952696 Si / 1000 Ang^3
#
#
#
# Elastic Constant Matrix: (Units=GPa)
#
#
# Indices 1 2 3 4 5 6 
#
# 1 114.1546 -2.8615 75.7959 0.0000 2.1385 0.0000
# 2 -2.8615 32.7517 -2.8136 0.0000 0.2488 0.0000
# 3 75.7959 -2.8136 176.6647 0.0000 -4.9250 0.0000
# 4 0.0000 0.0000 0.0000 15.0657 0.0000 -0.0721
# 5 2.1385 0.2488 -4.9250 0.0000 35.1363 0.0000
# 6 0.0000 0.0000 0.0000 -0.0721 0.0000 12.7136
#
#
#
# Elastic Compliance Matrix: (Units=1/GPa)
#
#
# Indices 1 2 3 4 5 6 
#
# 1 0.012341 0.000632 -0.005326 0.000000 -0.001502 0.000000
# 2 0.000632 0.030608 0.000210 0.000000 -0.000226 0.000000
# 3 -0.005326 0.000210 0.007989 0.000000 0.001443 0.000000
# 4 0.000000 0.000000 0.000000 0.066378 0.000000 0.000377
# 5 -0.001502 -0.000226 0.001443 0.000000 0.028756 0.000000
# 6 0.000000 0.000000 0.000000 0.000377 0.000000 0.078658
#
#
# Mechanical properties :
#
#
# Convention : Reuss Voigt Hill
#
# Bulk Modulus (GPa) = 23.82718 51.53474 37.68096
# Shear Modulus (GPa) = 20.18667 29.47978 24.83323
#
# Velocity S-wave (km/s) = 3.18422 3.84797 3.53172
# Velocity P-wave (km/s) = 5.04844 6.75478 5.96296
#
# Compressibility (1/GPa) = 0.04196888
#
# Stress axis : x y z
#
# Youngs Moduli (GPa) = 81.03298 32.67144 125.16835
#
# Poissons Ratio (x) = -0.02065 0.66670
# Poissons Ratio (y) = -0.05121 -0.02629
# Poissons Ratio (z) = 0.43162 -0.00686
#
# Static dielectric constant tensor:
#      x y z
#    x 1.669380 0.000000 -0.018600 
#    y 0.000000 1.756020 0.000000 
#    z -0.018600 0.000000 1.702070 
# 
# From -- ./inp_files/281744.got.cif
#   From: 2010.05.17/outbox.cif.g08.bks.cpg/sg12_141_cif.got.tgz:281744.got - 2010.06.03 13:09:07.
