data_PCOD9181789
_publ_section_title
;
Structure prediction by ZEFSAII (Michael W. Deem and Ramdas Pophale) SiO2 
 PCOD9181789
Probable space group: C 2/M
;
_chemical_formula_sum "Si O2"
_cell_formula_units_Z 64
_cell_length_a 32.691186
_cell_length_b 13.833366
_cell_length_c 9.518272
_cell_angle_alpha 90.000000
_cell_angle_beta 125.190892
_cell_angle_gamma 90.000000
_cell_volume 3517.745543
_symmetry_space_group_name_H-M "C 2/M"
_symmetry_group_IT_number 12
_symmetry_cell_setting 'monoclinic'
loop_
_space_group_symop_operation_xyz
x,y,z
-x,y,-z
-x,-y,-z
x,-y,z
1/2+x,1/2+y,z
1/2-x,1/2+y,-z
1/2-x,1/2-y,-z
1/2+x,1/2-y,z
loop_
_atom_site_type_symbol
_atom_site_label
_atom_site_fract_x
_atom_site_fract_y
_atom_site_fract_z
Si Si1 0.946446 0.114393 0.316428
Si Si2 0.296081 0.279882 0.283654
Si Si3 0.005786 0.117048 0.169305
Si Si4 0.282753 0.113327 0.481281
Si Si5 0.332925 0.613349 0.791889
Si Si6 0.884145 0.883804 0.615101
Si Si7 0.192652 0.384819 0.154431
Si Si8 0.649091 0.734295 0.894471
O O1 0.902008 0.187218 0.265551
O O2 0.000000 0.123908 0.500000
O O3 0.960969 0.139566 0.184563
O O4 0.931968 0.000000 0.301569
O O5 0.295914 0.183219 0.378832
O O6 0.339889 0.346000 0.432776
O O7 0.243883 0.335335 0.201673
O O8 0.311172 0.261871 0.152896
O O9 0.061083 0.147686 0.327134
O O10 0.006590 0.000000 0.167690
O O11 0.000000 0.152307 0.000000
O O12 0.222719 0.124059 0.383171
O O13 0.309183 0.137977 0.681791
O O14 0.292059 0.000000 0.468554
O O15 0.341934 0.500000 0.833653
O O16 0.372225 0.646822 0.751942
O O17 0.334770 0.664800 0.944889
O O18 0.883183 0.000000 0.612794
O O19 0.195152 0.500000 0.145852
O O20 0.149065 0.337353 0.974055
#
# Coordination Sequence:
#
# PCOD9181789 Si02
#       8
#     8   8   8   8   8   8   8   8
#     4  10  21  38  56  78 113 150 181 221 275 333
#     4  12  22  36  53  81 112 147 187 225 269 324
#     4   9  17  30  49  76 106 136 177 226 270 314
#     4  10  21  38  57  76 107 151 189 227 271 316
#     4  10  19  33  53  79 111 149 187 222 267 323
#     4  10  19  32  54  80 109 148 188 224 268 326
#     4  11  23  39  56  78 110 147 187 230 272 320
#     4  12  24  35  53  84 113 150 184 226 277 334
#
# _framework density 18.193470000000001
#
# number of rings (size 3 to 8) (size 9 to 14) (size 15 to 20)
#    0.000    1.500    2.500    3.750    0.000    5.500 
#    0.000    0.000    0.000    0.375    0.000    0.875 
#    0.000   10.000    0.000    0.000    0.000    0.000 
#
# Total GULP energy -178582.543713 kJ/mol
# GULP energy per Si atom -5580.704491 kJ/mol
# Density = 1.815206 g / cm^3
# Si number density = 18.193470 Si / 1000 Ang^3
#
#
#
# Elastic Constant Matrix: (Units=GPa)
#
#
# Indices 1 2 3 4 5 6 
#
# 1 79.9888 36.9986 20.6458 0.0000 -10.6729 0.0000
# 2 36.9986 79.2176 31.5264 0.0000 -6.8242 0.0000
# 3 20.6458 31.5264 76.4057 0.0000 -7.0073 0.0000
# 4 0.0000 0.0000 0.0000 23.4748 0.0000 8.1704
# 5 -10.6729 -6.8242 -7.0073 0.0000 36.0963 0.0000
# 6 0.0000 0.0000 0.0000 8.1704 0.0000 13.5264
#
#
#
# Elastic Compliance Matrix: (Units=1/GPa)
#
#
# Indices 1 2 3 4 5 6 
#
# 1 0.016465 -0.006886 -0.001304 0.000000 0.003314 0.000000
# 2 -0.006886 0.018083 -0.005573 0.000000 0.000301 0.000000
# 3 -0.001304 -0.005573 0.015891 0.000000 0.001646 0.000000
# 4 0.000000 0.000000 0.000000 0.053939 0.000000 -0.032580
# 5 0.003314 0.000301 0.001646 0.000000 0.029060 0.000000
# 6 0.000000 0.000000 0.000000 -0.032580 0.000000 0.093609
#
#
# Mechanical properties :
#
#
# Convention : Reuss Voigt Hill
#
# Bulk Modulus (GPa) = 43.64244 45.99486 44.81865
# Shear Modulus (GPa) = 19.06860 24.38225 21.72542
#
# Velocity S-wave (km/s) = 3.24095 3.66480 3.45937
# Velocity P-wave (km/s) = 6.16807 6.57598 6.37529
#
# Compressibility (1/GPa) = 0.02291348
#
# Stress axis : x y z
#
# Youngs Moduli (GPa) = 60.73313 55.29931 62.92872
#
# Poissons Ratio (x) = 0.38078 0.08206
# Poissons Ratio (y) = 0.41819 0.35072
# Poissons Ratio (z) = 0.07920 0.30820
#
# Static dielectric constant tensor:
#      x y z
#    x 1.646930 0.000000 -0.009710 
#    y 0.000000 1.619840 0.000000 
#    z -0.009710 0.000000 1.694770 
# 
# From -- ./inp_files/111690.got.cif
#   From: 2010.05.17/outbox.cif.g08.bks.cpg/sg12_56_cif.got.tgz:111690.got - 2010.06.03 13:09:07.
