data_PCOD9181131
_publ_section_title
;
Structure prediction by ZEFSAII (Michael W. Deem and Ramdas Pophale) SiO2 
 PCOD9181131
Probable space group: C 2/M
;
_chemical_formula_sum "Si O2"
_cell_formula_units_Z 64
_cell_length_a 20.951520
_cell_length_b 9.275489
_cell_length_c 24.831435
_cell_angle_alpha 90.000000
_cell_angle_beta 52.924472
_cell_angle_gamma 90.000000
_cell_volume 3850.089179
_symmetry_space_group_name_H-M "C 2/M"
_symmetry_group_IT_number 12
_symmetry_cell_setting 'monoclinic'
loop_
_space_group_symop_operation_xyz
x,y,z
-x,y,-z
-x,-y,-z
x,-y,z
1/2+x,1/2+y,z
1/2-x,1/2+y,-z
1/2-x,1/2-y,-z
1/2+x,1/2-y,z
loop_
_atom_site_type_symbol
_atom_site_label
_atom_site_fract_x
_atom_site_fract_y
_atom_site_fract_z
Si Si1 0.573436 0.665984 0.505692
Si Si2 0.399890 0.175357 0.789096
Si Si3 0.574292 0.827273 0.001426
Si Si4 0.322658 0.171302 0.629389
Si Si5 0.835354 0.173192 0.227096
Si Si6 0.283563 0.673467 0.130819
Si Si7 0.533447 0.828152 0.359158
Si Si8 0.504160 0.173879 0.153384
O O1 0.500000 0.670527 0.500000
O O2 0.591601 0.500000 0.507904
O O3 0.646004 0.744440 0.438536
O O4 0.539426 0.747449 0.575031
O O5 0.307393 0.221012 0.833885
O O6 0.446073 0.221102 0.711520
O O7 0.444742 0.218599 0.820596
O O8 0.398719 0.000000 0.788168
O O9 0.549473 0.789387 0.074818
O O10 0.585958 0.000000 0.992418
O O11 0.500000 0.790366 0.000000
O O12 0.652785 0.747664 0.940528
O O13 0.236046 0.213528 0.695879
O O14 0.387391 0.195046 0.644354
O O15 0.322915 0.000000 0.618396
O O16 0.807072 0.206878 0.180606
O O17 0.917709 0.252839 0.197141
O O18 0.845740 0.000000 0.224826
O O19 0.287410 0.500000 0.122740
O O20 0.518335 0.000000 0.366822
O O21 0.494863 0.000000 0.159075
#
# Coordination Sequence:
#
# PCOD9181131 Si02
#       8
#     8   8   8   8   8   8   8   8
#     4   9  17  27  41  70 107 134 159 197 246 296
#     4   9  18  34  54  76 100 131 172 212 250 297
#     4  10  20  34  50  73 105 137 167 202 251 309
#     4   9  16  28  48  73  98 127 164 207 249 290
#     4  10  19  32  52  77 102 127 166 215 254 291
#     4  10  19  33  55  78  98 127 170 216 253 290
#     4   9  15  28  50  71  95 129 167 204 246 295
#     4  10  21  36  53  72 101 138 170 203 251 309
#
# _framework density 16.622992
#
# number of rings (size 3 to 8) (size 9 to 14) (size 15 to 20)
#    0.000    2.500    2.500    0.375    0.000    3.250 
#    0.000    1.875    0.000    0.750    0.000    0.000 
#    0.000    0.000    0.000    0.000    0.000    0.000 
#
# Total GULP energy -178422.804094 kJ/mol
# GULP energy per Si atom -5575.712628 kJ/mol
# Density = 1.658516 g / cm^3
# Si number density = 16.622992 Si / 1000 Ang^3
#
#
#
# Elastic Constant Matrix: (Units=GPa)
#
#
# Indices 1 2 3 4 5 6 
#
# 1 110.4792 39.9937 89.4599 0.0000 -1.0821 0.0000
# 2 39.9937 30.5934 64.8774 0.0001 -4.0911 0.0001
# 3 89.4599 64.8774 204.6238 0.0000 -9.2037 0.0000
# 4 0.0000 0.0001 0.0000 1.0638 0.0000 -4.0566
# 5 -1.0821 -4.0911 -9.2037 0.0000 22.8477 -0.0001
# 6 0.0000 0.0001 0.0000 -4.0566 -0.0001 15.9554
#
#
#
# Elastic Compliance Matrix: (Units=1/GPa)
#
#
# Indices 1 2 3 4 5 6 
#
# 1 0.017530 -0.020735 -0.001242 0.000035 -0.003383 0.000009
# 2 -0.020735 0.124905 -0.030121 -0.000287 0.009250 -0.000074
# 3 -0.001242 -0.030121 0.015007 0.000074 0.000593 0.000019
# 4 0.000035 -0.000287 0.000074 30.824858 0.000011 7.837073
# 5 -0.003383 0.009250 0.000593 0.000011 0.045503 0.000003
# 6 0.000009 -0.000074 0.000019 7.837073 0.000003 2.055213
#
#
# Mechanical properties :
#
#
# Convention : Reuss Voigt Hill
#
# Bulk Modulus (GPa) = 18.78074 81.59541 50.18807
# Shear Modulus (GPa) = 0.15058 18.06442 9.10750
#
# Velocity S-wave (km/s) = 0.30130 3.30011 2.34324
# Velocity P-wave (km/s) = 3.38284 7.98207 6.13013
#
# Compressibility (1/GPa) = 0.05324605
#
# Stress axis : x y z
#
# Youngs Moduli (GPa) = 57.04441 8.00610 66.63710
#
# Poissons Ratio (x) = 0.16601 0.08276
# Poissons Ratio (y) = 1.18282 2.00715
# Poissons Ratio (z) = 0.07085 0.24115
#
# Static dielectric constant tensor:
#      x y z
#    x 1.540440 0.000000 0.007990 
#    y 0.000000 1.551740 0.000000 
#    z 0.007990 0.000000 1.548520 
# 
# From -- ./inp_files/320101.got.cif
#   From: 2010.05.17/outbox.cif.g08.bks.cpg/sg12_161_cif.got.tgz:320101.got - 2010.06.03 13:09:07.
