data_PCOD9181129
_publ_section_title
;
Structure prediction by ZEFSAII (Michael W. Deem and Ramdas Pophale) SiO2 
 PCOD9181129
Probable space group: C 2/M
;
_chemical_formula_sum "Si O2"
_cell_formula_units_Z 48
_cell_length_a 30.291524
_cell_length_b 9.190082
_cell_length_c 10.422386
_cell_angle_alpha 90.000000
_cell_angle_beta 80.349471
_cell_angle_gamma 90.000000
_cell_volume 2860.341447
_symmetry_space_group_name_H-M "C 2/M"
_symmetry_group_IT_number 12
_symmetry_cell_setting 'monoclinic'
loop_
_space_group_symop_operation_xyz
x,y,z
-x,y,-z
-x,-y,-z
x,-y,z
1/2+x,1/2+y,z
1/2-x,1/2+y,-z
1/2-x,1/2-y,-z
1/2+x,1/2-y,z
loop_
_atom_site_type_symbol
_atom_site_label
_atom_site_fract_x
_atom_site_fract_y
_atom_site_fract_z
Si Si1 0.886618 0.174496 0.832212
Si Si2 0.885962 0.825756 0.533073
Si Si3 0.283057 0.675377 0.883707
Si Si4 0.029455 0.674683 0.609546
Si Si5 0.782489 0.824848 0.585469
Si Si6 0.472504 0.824990 0.887014
O O1 0.894621 0.212658 0.678365
O O2 0.835055 0.213582 0.886303
O O3 0.924094 0.252016 0.898048
O O4 0.890515 0.000000 0.841556
O O5 0.922321 0.747691 0.428067
O O6 0.834357 0.787356 0.531254
O O7 0.890233 0.000000 0.519806
O O8 0.279404 0.500000 0.894044
O O9 0.273701 0.715350 0.739093
O O10 0.250000 0.750000 0.000000
O O11 0.965465 0.500000 0.393196
O O12 0.000000 0.716135 0.500000
O O13 0.002212 0.716920 0.749264
O O14 0.750000 0.750000 0.500000
O O15 0.778471 0.000000 0.579272
O O16 0.467077 0.000000 0.888339
O O17 0.500000 0.784230 0.000000
#
# Coordination Sequence:
#
# PCOD9181129 Si02
#       6
#     8   8   8   8   8   8
#     4   9  18  34  55  76 101 133 171 212 252 301
#     4   9  18  33  54  78 102 132 170 211 254 299
#     4   9  19  36  56  79 105 135 175 218 259 309
#     4  10  19  32  52  77 101 129 171 212 244 298
#     4   9  19  36  55  78 108 138 171 214 262 311
#     4  10  21  36  51  72 105 138 167 206 256 302
#
# _framework density 16.781212
#
# number of rings (size 3 to 8) (size 9 to 14) (size 15 to 20)
#    0.000    2.667    1.667    2.000    0.000    3.333 
#    3.000    3.333    0.000    0.000    0.000    0.000 
#    0.000    0.000    0.000    0.000    0.000    0.000 
#
# Total GULP energy -133810.725757 kJ/mol
# GULP energy per Si atom -5575.446907 kJ/mol
# Density = 1.674302 g / cm^3
# Si number density = 16.781212 Si / 1000 Ang^3
#
#
#
# Elastic Constant Matrix: (Units=GPa)
#
#
# Indices 1 2 3 4 5 6 
#
# 1 157.6281 49.3605 92.8994 0.0000 8.0246 0.0000
# 2 49.3605 18.0482 37.5543 0.0000 0.9262 0.0000
# 3 92.8994 37.5543 118.5747 0.0000 -2.0785 0.0000
# 4 0.0000 0.0000 0.0000 24.4792 0.0000 -3.2427
# 5 8.0246 0.9262 -2.0785 0.0000 32.8199 0.0000
# 6 0.0000 0.0000 0.0000 -3.2427 0.0000 37.7162
#
#
#
# Elastic Compliance Matrix: (Units=1/GPa)
#
#
# Indices 1 2 3 4 5 6 
#
# 1 0.050968 -0.163291 0.011660 0.000000 -0.007115 0.000000
# 2 -0.163291 0.687686 -0.089607 0.000000 0.014843 0.000000
# 3 0.011660 -0.089607 0.027703 0.000000 0.001432 0.000000
# 4 0.000000 0.000000 0.000000 0.041322 0.000000 0.003553
# 5 -0.007115 0.014843 0.001432 0.000000 0.031881 0.000000
# 6 0.000000 0.000000 0.000000 0.003553 0.000000 0.026819
#
#
# Mechanical properties :
#
#
# Convention : Reuss Voigt Hill
#
# Bulk Modulus (GPa) = 3.52259 72.65328 38.08793
# Shear Modulus (GPa) = 3.46385 26.63218 15.04801
#
# Velocity S-wave (km/s) = 1.43826 3.98807 2.99777
# Velocity P-wave (km/s) = 2.20495 8.03708 5.89307
#
# Compressibility (1/GPa) = 0.28388168
#
# Stress axis : x y z
#
# Youngs Moduli (GPa) = 19.62008 1.45415 36.09694
#
# Poissons Ratio (x) = 0.23745 -0.42089
# Poissons Ratio (y) = 3.20378 3.23453
# Poissons Ratio (z) = -0.22877 0.13030
#
# Static dielectric constant tensor:
#      x y z
#    x 1.552950 0.000000 0.000390 
#    y 0.000000 1.556510 0.000000 
#    z 0.000390 0.000000 1.555340 
# 
# From -- ./inp_files/172081.got.cif
#   From: 2010.05.17/outbox.cif.g08.bks.cpg/sg12_87_cif.got.tgz:172081.got - 2010.06.03 13:09:07.
