data_PCOD9181595
_publ_section_title
;
Structure prediction by ZEFSAII (Michael W. Deem and Ramdas Pophale) SiO2 
 PCOD9181595
Probable space group: C 2/M
;
_chemical_formula_sum "Si O2"
_cell_formula_units_Z 56
_cell_length_a 22.864633
_cell_length_b 14.002895
_cell_length_c 22.413466
_cell_angle_alpha 90.000000
_cell_angle_beta 157.776294
_cell_angle_gamma 90.000000
_cell_volume 2714.188322
_symmetry_space_group_name_H-M "C 2/M"
_symmetry_group_IT_number 12
_symmetry_cell_setting 'monoclinic'
loop_
_space_group_symop_operation_xyz
x,y,z
-x,y,-z
-x,-y,-z
x,-y,z
1/2+x,1/2+y,z
1/2-x,1/2+y,-z
1/2-x,1/2-y,-z
1/2+x,1/2-y,z
loop_
_atom_site_type_symbol
_atom_site_label
_atom_site_fract_x
_atom_site_fract_y
_atom_site_fract_z
Si Si1 0.664673 0.611879 0.084444
Si Si2 0.833120 0.710090 0.830425
Si Si3 0.466819 0.717242 0.157953
Si Si4 0.419903 0.392290 0.328201
Si Si5 0.736846 0.393082 0.946558
Si Si6 0.720130 0.267801 0.592648
Si Si7 0.513563 0.891642 0.444306
O O1 0.615901 0.500000 0.044818
O O2 0.651583 0.682175 0.129024
O O3 0.851564 0.610253 0.256125
O O4 0.583195 0.665838 0.952057
O O5 0.683438 0.663914 0.720959
O O6 0.808005 0.707686 0.736782
O O7 0.000000 0.662272 0.000000
O O8 0.409563 0.642940 0.153543
O O9 0.644772 0.749562 0.326937
O O10 0.368264 0.813349 0.075561
O O11 0.451499 0.500000 0.378565
O O12 0.312397 0.395253 0.168559
O O13 0.578393 0.342015 0.456871
O O14 0.782540 0.500000 0.008795
O O15 0.636105 0.168020 0.524299
O O16 0.500000 0.853848 0.500000
O O17 0.565693 0.000000 0.500396
#
# Coordination Sequence:
#
# PCOD9181595 Si02
#       7
#     8   8   8   8   8   8   8
#     4  11  21  37  58  89 125 164 206 244 304 371
#     4  12  22  39  60  91 127 167 205 255 308 368
#     4  11  23  40  65  93 123 162 204 265 314 367
#     4  11  24  43  65  88 123 169 213 261 311 360
#     4  10  22  44  67  88 120 163 216 262 308 364
#     4  12  22  37  61  90 129 158 205 255 315 380
#     4  10  19  32  53  80 120 168 201 237 296 369
#
# _framework density 20.632318999999999
#
# number of rings (size 3 to 8) (size 9 to 14) (size 15 to 20)
#    0.000    1.000    5.714    0.857    0.000    4.000 
#    0.000    0.000    0.000    3.429    0.000    0.000 
#    0.000    0.000    0.000    0.000    0.000    0.000 
#
# Total GULP energy -156227.964031 kJ/mol
# GULP energy per Si atom -5579.570144 kJ/mol
# Density = 2.058536 g / cm^3
# Si number density = 20.632319 Si / 1000 Ang^3
#
#
#
# Elastic Constant Matrix: (Units=GPa)
#
#
# Indices 1 2 3 4 5 6 
#
# 1 18.7825 18.1103 10.3880 -0.0050 20.8025 -0.0020
# 2 18.1103 123.9733 26.3033 -0.0102 27.2232 -0.0024
# 3 10.3880 26.3033 65.9679 -0.0104 33.3198 -0.0020
# 4 -0.0050 -0.0102 -0.0104 -0.4939 -0.0029 -9.8491
# 5 20.8025 27.2232 33.3198 -0.0029 40.1034 0.0000
# 6 -0.0020 -0.0024 -0.0020 -9.8491 0.0000 12.7008
#
#
#
# Elastic Compliance Matrix: (Units=1/GPa)
#
#
# Indices 1 2 3 4 5 6 
#
# 1 0.152813 -0.006763 0.028175 -0.000119 -0.098086 -0.000065
# 2 -0.006763 0.009811 -0.002162 -0.000005 -0.001355 -0.000004
# 3 0.028175 -0.002162 0.031403 -0.000051 -0.039239 -0.000031
# 4 -0.000119 -0.000005 -0.000051 -0.122978 0.000099 -0.095366
# 5 -0.098086 -0.001355 -0.039239 0.000099 0.109336 0.000055
# 6 -0.000065 -0.000004 -0.000031 -0.095366 0.000055 0.004782
#
#
# Mechanical properties :
#
#
# Convention : Reuss Voigt Hill
#
# Bulk Modulus (GPa) = 4.30057 35.36965 19.83511
# Shear Modulus (GPa) = 22.30394 20.72354 21.51374
#
# Velocity S-wave (km/s) = 3.29145 3.17270 3.23262
# Velocity P-wave (km/s) = 4.06618 5.53185 4.85465
#
# Compressibility (1/GPa) = 0.23252751
#
# Stress axis : x y z
#
# Youngs Moduli (GPa) = 6.54394 101.93159 31.84371
#
# Poissons Ratio (x) = 0.68932 -0.89720
# Poissons Ratio (y) = 0.04425 0.06886
# Poissons Ratio (z) = -0.18438 0.22041
#
# Static dielectric constant tensor:
#      x y z
#    x 3.001960 -0.000020 -0.886470 
#    y -0.000020 1.762990 0.000020 
#    z -0.886470 0.000020 2.394920 
# 
# From -- ./inp_files/349819.got.cif
#   From: 2010.05.17/outbox.cif.g08.bks.cpg/sg12_175_cif.got.tgz:349819.got - 2010.06.03 13:09:07.
