data_PCOD9181501
_publ_section_title
;
Structure prediction by ZEFSAII (Michael W. Deem and Ramdas Pophale) SiO2 
 PCOD9181501
Probable space group: C 2/M
;
_chemical_formula_sum "Si O2"
_cell_formula_units_Z 56
_cell_length_a 12.847976
_cell_length_b 26.356531
_cell_length_c 12.378516
_cell_angle_alpha 90.000000
_cell_angle_beta 50.136308
_cell_angle_gamma 90.000000
_cell_volume 3217.439414
_symmetry_space_group_name_H-M "C 2/M"
_symmetry_group_IT_number 12
_symmetry_cell_setting 'monoclinic'
loop_
_space_group_symop_operation_xyz
x,y,z
-x,y,-z
-x,-y,-z
x,-y,z
1/2+x,1/2+y,z
1/2-x,1/2+y,-z
1/2-x,1/2-y,-z
1/2+x,1/2-y,z
loop_
_atom_site_type_symbol
_atom_site_label
_atom_site_fract_x
_atom_site_fract_y
_atom_site_fract_z
Si Si1 0.729105 0.275784 0.834339
Si Si2 0.649136 0.836535 0.866790
Si Si3 0.835331 0.942405 0.109442
Si Si4 0.531822 0.241436 0.596197
Si Si5 0.751106 0.671905 0.432294
Si Si6 0.665732 0.635744 0.708611
Si Si7 0.842324 0.856511 0.937038
O O1 0.646528 0.224959 0.867538
O O2 0.712696 0.313949 0.743370
O O3 0.883437 0.256376 0.746665
O O4 0.683097 0.308217 0.968018
O O5 0.704620 0.850862 0.711338
O O6 0.755852 0.852302 0.886950
O O7 0.500000 0.854918 0.000000
O O8 0.795558 0.912360 0.244243
O O9 0.786096 0.000000 0.135663
O O10 0.797413 0.905879 0.035601
O O11 0.000000 0.943629 0.000000
O O12 0.500000 0.217787 0.500000
O O13 0.615679 0.292907 0.515799
O O14 0.628145 0.208557 0.607811
O O15 0.725553 0.634750 0.549320
O O16 0.502735 0.639367 0.810328
#
# Coordination Sequence:
#
# PCOD9181501 Si02
#       7
#     8   8   8   8   8   8   8
#     4  11  19  33  49  73 104 140 180 213 245 290
#     4  12  23  34  46  70 106 148 175 206 247 298
#     4   8  16  34  58  82 102 122 157 210 265 310
#     4  11  19  33  48  68  99 150 180 208 245 282
#     4  11  22  33  47  71 104 137 184 210 245 300
#     4  10  19  32  53  79 102 132 168 217 258 298
#     4  10  21  32  51  77 105 134 173 209 255 302
#
# _framework density 17.405145000000001
#
# number of rings (size 3 to 8) (size 9 to 14) (size 15 to 20)
#    0.000    1.571    2.857    5.143    0.000    0.000 
#    0.000    0.000    0.000    1.286    0.000   21.000 
#    0.000    0.000    0.000    0.000    0.000    0.000 
#
# Total GULP energy -156251.167051 kJ/mol
# GULP energy per Si atom -5580.398823 kJ/mol
# Density = 1.736553 g / cm^3
# Si number density = 17.405145 Si / 1000 Ang^3
#
#
#
# Elastic Constant Matrix: (Units=GPa)
#
#
# Indices 1 2 3 4 5 6 
#
# 1 73.3698 25.8101 38.5518 0.0000 21.0243 0.0000
# 2 25.8101 65.5341 35.9455 0.0000 12.0670 0.0000
# 3 38.5518 35.9455 126.8433 0.0000 24.8252 0.0000
# 4 0.0000 0.0000 0.0000 10.2180 0.0000 -2.0885
# 5 21.0243 12.0670 24.8252 0.0000 41.6445 0.0000
# 6 0.0000 0.0000 0.0000 -2.0885 0.0000 8.6490
#
#
#
# Elastic Compliance Matrix: (Units=1/GPa)
#
#
# Indices 1 2 3 4 5 6 
#
# 1 0.018656 -0.004451 -0.003190 0.000000 -0.006227 0.000000
# 2 -0.004451 0.019357 -0.003934 0.000000 -0.001017 0.000000
# 3 -0.003190 -0.003934 0.010675 0.000000 -0.003613 0.000000
# 4 0.000000 0.000000 0.000000 0.102947 0.000000 0.024860
# 5 -0.006227 -0.001017 -0.003613 0.000000 0.029605 0.000000
# 6 0.000000 0.000000 0.000000 0.024860 0.000000 0.121624
#
#
# Mechanical properties :
#
#
# Convention : Reuss Voigt Hill
#
# Bulk Modulus (GPa) = 39.15630 51.81799 45.48715
# Shear Modulus (GPa) = 14.94646 23.13161 19.03904
#
# Velocity S-wave (km/s) = 2.93360 3.64951 3.31096
# Velocity P-wave (km/s) = 5.83271 6.89890 6.38809
#
# Compressibility (1/GPa) = 0.02553867
#
# Stress axis : x y z
#
# Youngs Moduli (GPa) = 53.60204 51.66050 93.67469
#
# Poissons Ratio (x) = 0.22995 0.29883
# Poissons Ratio (y) = 0.23859 0.36848
# Poissons Ratio (z) = 0.17099 0.20321
#
# Static dielectric constant tensor:
#      x y z
#    x 1.602500 0.000000 0.000550 
#    y 0.000000 1.574350 0.000000 
#    z 0.000550 0.000000 1.641150 
# 
# From -- ./inp_files/136933.got.cif
#   From: 2010.05.17/outbox.cif.g08.bks.cpg/sg12_69_cif.got.tgz:136933.got - 2010.06.03 13:09:07.
