data_PCOD9181547
_publ_section_title
;
Structure prediction by ZEFSAII (Michael W. Deem and Ramdas Pophale) SiO2 
 PCOD9181547
Probable space group: C 2/M
;
_chemical_formula_sum "Si O2"
_cell_formula_units_Z 56
_cell_length_a 16.213971
_cell_length_b 7.470421
_cell_length_c 27.217027
_cell_angle_alpha 90.000000
_cell_angle_beta 39.034879
_cell_angle_gamma 90.000000
_cell_volume 2076.219350
_symmetry_space_group_name_H-M "C 2/M"
_symmetry_group_IT_number 12
_symmetry_cell_setting 'monoclinic'
loop_
_space_group_symop_operation_xyz
x,y,z
-x,y,-z
-x,-y,-z
x,-y,z
1/2+x,1/2+y,z
1/2-x,1/2+y,-z
1/2-x,1/2-y,-z
1/2+x,1/2-y,z
loop_
_atom_site_type_symbol
_atom_site_label
_atom_site_fract_x
_atom_site_fract_y
_atom_site_fract_z
Si Si1 0.157538 0.282781 0.472930
Si Si2 0.181738 0.708787 0.910062
Si Si3 0.741144 0.205662 0.332923
Si Si4 0.898194 0.714694 0.950046
Si Si5 0.786271 0.790657 0.766053
Si Si6 0.475437 0.784091 0.809982
Si Si7 0.437594 0.288881 0.380931
O O1 0.156397 0.500000 0.471826
O O2 0.154862 0.221155 0.417797
O O3 0.298947 0.215908 0.427330
O O4 0.058344 0.231112 0.561762
O O5 0.144834 0.500000 0.925413
O O6 0.184685 0.783645 0.853158
O O7 0.335964 0.722140 0.853599
O O8 0.102554 0.784691 0.993532
O O9 0.740300 0.288365 0.279509
O O10 0.894859 0.215417 0.276972
O O11 0.703439 0.000000 0.343554
O O12 0.919430 0.500000 0.942677
O O13 0.980414 0.778422 0.864995
O O14 0.750000 0.750000 0.000000
O O15 0.931799 0.709822 0.702967
O O16 0.793878 0.000000 0.775280
O O17 0.476622 0.000000 0.808547
O O18 0.435689 0.500000 0.371481
#
# Coordination Sequence:
#
# PCOD9181547 Si02
#       7
#     8   8   8   8   8   8   8
#     4   9  19  36  56  77 100 129 167 208 252 304
#     4   9  17  33  56  78 104 137 170 208 256 306
#     4  11  23  37  52  72 103 141 177 212 254 304
#     4   8  15  28  49  77 103 130 166 208 254 302
#     4  10  21  36  53  75 105 139 174 211 252 302
#     4  10  19  32  53  80 106 132 170 216 257 303
#     4   9  18  34  56  79 101 127 163 208 256 303
#
# _framework density 26.972100999999999
#
# number of rings (size 3 to 8) (size 9 to 14) (size 15 to 20)
#    0.000    2.571    0.000    1.714    0.000    5.714 
#    0.000    6.429    0.000    4.286    0.000    0.000 
#    0.000    0.000    0.000    0.000    0.000    0.000 
#
# Total GULP energy -156527.757307 kJ/mol
# GULP energy per Si atom -5590.277047 kJ/mol
# Density = 2.691071 g / cm^3
# Si number density = 26.972101 Si / 1000 Ang^3
#
#
#
# Elastic Constant Matrix: (Units=GPa)
#
#
# Indices 1 2 3 4 5 6 
#
# 1 101.1942 -2.7256 33.6025 -0.0001 26.5796 0.0011
# 2 -2.7256 97.4092 0.5477 -0.0011 4.5255 -0.0023
# 3 33.6025 0.5477 212.5814 -0.0001 30.9589 0.0001
# 4 -0.0001 -0.0011 -0.0001 1.4893 -0.0005 4.1779
# 5 26.5796 4.5255 30.9589 -0.0005 57.2052 0.0003
# 6 0.0011 -0.0023 0.0001 4.1779 0.0003 11.6663
#
#
#
# Elastic Compliance Matrix: (Units=1/GPa)
#
#
# Indices 1 2 3 4 5 6 
#
# 1 0.011529 0.000552 -0.001126 -0.000539 -0.004791 0.000192
# 2 0.000552 0.010332 0.000046 -0.000393 -0.001099 0.000143
# 3 -0.001126 0.000046 0.005218 0.000208 -0.002304 -0.000075
# 4 -0.000539 -0.000393 0.000208********** -0.001279 52.047273
# 5 -0.004791 -0.001099 -0.002304 -0.001279 0.021041 0.000458
# 6 0.000192 0.000143 -0.000075 52.047273 0.000458-18.553091
#
#
# Mechanical properties :
#
#
# Convention : Reuss Voigt Hill
#
# Bulk Modulus (GPa) = 38.42883 52.67045 45.54964
# Shear Modulus (GPa) = -0.03052 39.38950 19.67949
#
# Velocity S-wave (km/s) = -0.10649 3.82564 2.70409
# Velocity P-wave (km/s) = 3.77670 6.25173 5.16467
#
# Compressibility (1/GPa) = 0.02602213
#
# Stress axis : x y z
#
# Youngs Moduli (GPa) = 86.73640 96.78494 191.66215
#
# Poissons Ratio (x) = -0.05338 0.21583
# Poissons Ratio (y) = -0.04784 -0.00885
# Poissons Ratio (z) = 0.09767 -0.00447
#
# Static dielectric constant tensor:
#      x y z
#    x 2.179990 0.000000 0.005130 
#    y 0.000000 2.089700 0.000000 
#    z 0.005130 0.000000 2.095040 
# 
# From -- ./inp_files/342236.got.cif
#   From: 2010.05.17/outbox.cif.g08.bks.cpg/sg12_172_cif.got.tgz:342236.got - 2010.06.03 13:09:07.
