data_PCOD9181120
_publ_section_title
;
Structure prediction by ZEFSAII (Michael W. Deem and Ramdas Pophale) SiO2 
 PCOD9181120
Probable space group: C 2/M
;
_chemical_formula_sum "Si O2"
_cell_formula_units_Z 52
_cell_length_a 20.454958
_cell_length_b 18.839257
_cell_length_c 7.635368
_cell_angle_alpha 90.000000
_cell_angle_beta 76.178984
_cell_angle_gamma 90.000000
_cell_volume 2857.146190
_symmetry_space_group_name_H-M "C 2/M"
_symmetry_group_IT_number 12
_symmetry_cell_setting 'monoclinic'
loop_
_space_group_symop_operation_xyz
x,y,z
-x,y,-z
-x,-y,-z
x,-y,z
1/2+x,1/2+y,z
1/2-x,1/2+y,-z
1/2-x,1/2-y,-z
1/2+x,1/2-y,z
loop_
_atom_site_type_symbol
_atom_site_label
_atom_site_fract_x
_atom_site_fract_y
_atom_site_fract_z
Si Si1 0.500000 0.126315 0.500000
Si Si2 0.600755 0.076063 0.715045
Si Si3 0.542907 0.255449 0.252141
Si Si4 0.178447 0.815211 0.231753
Si Si5 0.090144 0.265000 0.827167
Si Si6 0.275893 0.313861 0.197293
Si Si7 0.742058 0.581300 0.480301
O O1 0.550396 0.081208 0.583934
O O2 0.543431 0.180130 0.350724
O O3 0.587514 0.149908 0.820352
O O4 0.678093 0.079554 0.607020
O O5 0.590130 0.000000 0.814122
O O6 0.597583 0.308273 0.299021
O O7 0.462823 0.268181 0.277350
O O8 0.568054 0.251804 0.037414
O O9 0.210305 0.736590 0.241013
O O10 0.207972 0.870481 0.351826
O O11 0.203255 0.832219 0.016459
O O12 0.164487 0.234549 0.758962
O O13 0.268478 0.381371 0.325848
O O14 0.717424 0.500000 0.492603
#
# Coordination Sequence:
#
# PCOD9181120 Si02
#       7
#     4   8   8   8   8   8   8
#     4  10  19  32  52  76 107 142 174 220 263 326
#     4  10  20  34  49  74 111 146 176 215 265 322
#     4   9  19  31  53  81 104 131 182 225 268 313
#     4  10  20  35  58  84 108 141 187 229 270 321
#     4   9  18  35  52  78 105 139 182 222 266 322
#     4  10  20  35  59  80 107 145 185 228 274 316
#     4  11  23  36  55  83 114 147 180 224 277 326
#
# _framework density 18.199978999999999
#
# number of rings (size 3 to 8) (size 9 to 14) (size 15 to 20)
#    0.000    2.154    1.538    1.615    4.308    0.615 
#    0.000    6.923    0.000    1.846    0.000    4.308 
#    0.000    0.000    0.000    0.000    0.000    0.000 
#
# Total GULP energy -144854.082402 kJ/mol
# GULP energy per Si atom -5571.310862 kJ/mol
# Density = 1.815856 g / cm^3
# Si number density = 18.199979 Si / 1000 Ang^3
#
#
#
# Elastic Constant Matrix: (Units=GPa)
#
#
# Indices 1 2 3 4 5 6 
#
# 1 88.2264 27.0623 19.2078 0.0000 9.6714 0.0000
# 2 27.0623 83.9326 37.5808 0.0000 16.3175 0.0000
# 3 19.2078 37.5808 57.3947 0.0000 15.0721 0.0000
# 4 0.0000 0.0000 0.0000 12.0540 0.0000 -2.8919
# 5 9.6714 16.3175 15.0721 0.0000 14.6505 0.0000
# 6 0.0000 0.0000 0.0000 -2.8919 0.0000 -22.3579
#
#
#
# Elastic Compliance Matrix: (Units=1/GPa)
#
#
# Indices 1 2 3 4 5 6 
#
# 1 0.012932 -0.002728 -0.001504 0.000000 -0.003951 0.000000
# 2 -0.002728 0.018614 -0.008637 0.000000 -0.010046 0.000000
# 3 -0.001504 -0.008637 0.028493 0.000000 -0.018700 0.000000
# 4 0.000000 0.000000 0.000000 0.080463 0.000000 -0.010407
# 5 -0.003951 -0.010046 -0.018700 0.000000 0.101292 0.000000
# 6 0.000000 0.000000 0.000000 -0.010407 0.000000 -0.043381
#
#
# Mechanical properties :
#
#
# Convention : Reuss Voigt Hill
#
# Bulk Modulus (GPa) = 29.15421 44.13948 36.64685
# Shear Modulus (GPa) = 21.22375 10.58283 15.90329
#
# Velocity S-wave (km/s) = 3.41859 2.41399 2.95923
# Velocity P-wave (km/s) = 5.62458 5.66348 5.64406
#
# Compressibility (1/GPa) = 0.03430036
#
# Stress axis : x y z
#
# Youngs Moduli (GPa) = 77.32864 53.72244 35.09683
#
# Poissons Ratio (x) = 0.14656 0.05278
# Poissons Ratio (y) = 0.21096 0.30314
# Poissons Ratio (z) = 0.11630 0.46401
#
# Static dielectric constant tensor:
#      x y z
#    x 1.678500 0.000000 0.008660 
#    y 0.000000 1.599360 0.000000 
#    z 0.008660 0.000000 1.646090 
# 
# From -- ./inp_files/87202.got.cif
#   From: 2010.05.17/outbox.cif.g08.bks.cpg/sg12_44_cif.got.tgz:87202.got - 2010.06.03 13:09:07.
