data_PCOD9181707
_publ_section_title
;
Structure prediction by ZEFSAII (Michael W. Deem and Ramdas Pophale) SiO2 
 PCOD9181707
Probable space group: C 2/M
;
_chemical_formula_sum "Si O2"
_cell_formula_units_Z 56
_cell_length_a 8.449628
_cell_length_b 31.006422
_cell_length_c 19.323652
_cell_angle_alpha 90.000000
_cell_angle_beta 30.203835
_cell_angle_gamma 90.000000
_cell_volume 2546.910000
_symmetry_space_group_name_H-M "C 2/M"
_symmetry_group_IT_number 12
_symmetry_cell_setting 'monoclinic'
loop_
_space_group_symop_operation_xyz
x,y,z
-x,y,-z
-x,-y,-z
x,-y,z
1/2+x,1/2+y,z
1/2-x,1/2+y,-z
1/2-x,1/2-y,-z
1/2+x,1/2-y,z
loop_
_atom_site_type_symbol
_atom_site_label
_atom_site_fract_x
_atom_site_fract_y
_atom_site_fract_z
Si Si1 0.974110 0.953754 0.317790
Si Si2 0.291007 0.641644 0.247450
Si Si3 0.990594 0.140019 0.675715
Si Si4 0.180410 0.545807 0.049604
Si Si5 0.809578 0.547147 0.722035
Si Si6 0.733236 0.860081 0.052138
Si Si7 0.742063 0.203109 0.537416
O O1 0.959302 0.909879 0.365751
O O2 0.329080 0.952115 0.151422
O O3 0.737909 0.953564 0.342880
O O4 0.947703 0.000000 0.364317
O O5 0.387831 0.641020 0.291393
O O6 0.100732 0.597448 0.298434
O O7 0.086667 0.684197 0.309990
O O8 0.611811 0.641489 0.081989
O O9 0.625637 0.154535 0.810796
O O10 0.178583 0.170278 0.554096
O O11 0.190189 0.500000 0.084814
O O12 0.203644 0.589240 0.084317
O O13 0.464214 0.545584 0.888497
O O14 0.958233 0.500000 0.684916
O O15 0.000000 0.839742 0.000000
O O16 0.750000 0.250000 0.500000
O O17 0.000000 0.201100 0.500000
#
# Coordination Sequence:
#
# PCOD9181707 Si02
#       7
#     8   8   8   8   8   8   8
#     4   8  13  23  44  76 113 153 196 238 278 326
#     4  10  20  37  61  89 121 158 200 244 290 342
#     4  10  20  37  61  89 121 158 200 244 290 342
#     4   8  13  21  37  66 108 156 200 239 280 328
#     4   8  13  23  44  76 113 153 196 238 278 326
#     4  10  19  32  53  85 123 160 197 241 293 342
#     4  12  26  46  69  90 113 145 188 239 299 364
#
# _framework density 21.987428000000001
#
# number of rings (size 3 to 8) (size 9 to 14) (size 15 to 20)
#    0.000    2.571    0.000    3.000    0.000    5.429 
#    0.000    1.429    0.000    6.857    0.000    0.000 
#    0.000    0.000    0.000    0.000    0.000    0.000 
#
# Total GULP energy -156010.994110 kJ/mol
# GULP energy per Si atom -5571.821218 kJ/mol
# Density = 2.193738 g / cm^3
# Si number density = 21.987428 Si / 1000 Ang^3
#
#
#
# Elastic Constant Matrix: (Units=GPa)
#
#
# Indices 1 2 3 4 5 6 
#
# 1 66.1382 0.3833 5.7624 0.0001 -3.2063 0.0001
# 2 0.3833 116.9060 19.4920 0.0000 1.9246 -0.0001
# 3 5.7624 19.4920 75.4725 0.0004 -2.8840 0.0004
# 4 0.0001 0.0000 0.0004 5.4791 -0.0001 -22.9723
# 5 -3.2063 1.9246 -2.8840 -0.0001 33.5112 -0.0002
# 6 0.0001 -0.0001 0.0004 -22.9723 -0.0002 -11.1041
#
#
#
# Elastic Compliance Matrix: (Units=1/GPa)
#
#
# Indices 1 2 3 4 5 6 
#
# 1 0.015285 0.000119 -0.001146 0.000000 0.001357 0.000000
# 2 0.000119 0.008957 -0.002349 0.000000 -0.000705 0.000000
# 3 -0.001146 -0.002349 0.013991 0.000000 0.001229 0.000000
# 4 0.000000 0.000000 0.000000 0.018866 0.000000 -0.039031
# 5 0.001357 -0.000705 0.001229 0.000000 0.030117 0.000000
# 6 0.000000 0.000000 0.000000 -0.039031 0.000000 -0.009309
#
#
# Mechanical properties :
#
#
# Convention : Reuss Voigt Hill
#
# Bulk Modulus (GPa) = 31.76646 34.42135 33.09390
# Shear Modulus (GPa) = 52.54706 21.10251 36.82479
#
# Velocity S-wave (km/s) = 4.89393 3.10135 4.09689
# Velocity P-wave (km/s) = 6.81271 5.33980 6.12072
#
# Compressibility (1/GPa) = 0.03147975
#
# Stress axis : x y z
#
# Youngs Moduli (GPa) = 65.42459 111.64709 71.47426
#
# Poissons Ratio (x) = -0.01324 0.08189
# Poissons Ratio (y) = -0.00776 0.16791
# Poissons Ratio (z) = 0.07496 0.26229
#
# Static dielectric constant tensor:
#      x y z
#    x 1.837950 0.000000 -0.015510 
#    y 0.000000 1.850530 0.000000 
#    z -0.015510 0.000000 1.850800 
# 
# From -- ./inp_files/302972.got.cif
#   From: 2010.05.17/outbox.cif.g08.bks.cpg/sg12_152_cif.got.tgz:302972.got - 2010.06.03 13:09:07.
