data_PCOD9181993
_publ_section_title
;
Structure prediction by ZEFSAII (Michael W. Deem and Ramdas Pophale) SiO2 
 PCOD9181993
Probable space group: C 2/M
;
_chemical_formula_sum "Si O2"
_cell_formula_units_Z 56
_cell_length_a 28.100386
_cell_length_b 7.479971
_cell_length_c 13.830658
_cell_angle_alpha 90.000000
_cell_angle_beta 61.398320
_cell_angle_gamma 90.000000
_cell_volume 2552.314535
_symmetry_space_group_name_H-M "C 2/M"
_symmetry_group_IT_number 12
_symmetry_cell_setting 'monoclinic'
loop_
_space_group_symop_operation_xyz
x,y,z
-x,y,-z
-x,-y,-z
x,-y,z
1/2+x,1/2+y,z
1/2-x,1/2+y,-z
1/2-x,1/2-y,-z
1/2+x,1/2-y,z
loop_
_atom_site_type_symbol
_atom_site_label
_atom_site_fract_x
_atom_site_fract_y
_atom_site_fract_z
Si Si1 0.404092 0.718392 0.744112
Si Si2 0.690034 0.287428 0.019380
Si Si3 0.168705 0.292696 0.820015
Si Si4 0.977075 0.783444 0.302606
Si Si5 0.115400 0.218693 0.457636
Si Si6 0.050439 0.290572 0.891101
Si Si7 0.265851 0.714148 0.594755
O O1 0.403615 0.500000 0.744470
O O2 0.355644 0.777975 0.861354
O O3 0.462694 0.775135 0.726208
O O4 0.394928 0.774499 0.642540
O O5 0.683571 0.500000 0.017732
O O6 0.750000 0.250000 0.000000
O O7 0.681575 0.212715 0.920672
O O8 0.165294 0.500000 0.791940
O O9 0.109518 0.212207 0.857363
O O10 0.218559 0.214372 0.710629
O O11 0.932316 0.724229 0.423872
O O12 0.961612 0.723701 0.210432
O O13 0.977101 0.000000 0.302425
O O14 0.174215 0.280323 0.436940
O O15 0.115000 0.000000 0.458732
O O16 0.053381 0.500000 0.916277
O O17 0.000000 0.212386 0.000000
O O18 0.268570 0.500000 0.605749
O O19 0.250000 0.750000 0.500000
#
# Coordination Sequence:
#
# PCOD9181993 Si02
#       7
#     8   8   8   8   8   8   8
#     4   9  18  33  53  78 106 135 170 213 260 309
#     4  11  22  36  56  80 107 139 175 217 262 310
#     4  10  21  37  55  76 106 143 179 216 261 311
#     4  10  19  32  55  82 103 130 172 219 259 301
#     4   9  17  31  52  77 104 133 167 210 261 311
#     4  10  21  36  53  74 105 144 177 210 259 313
#     4  10  20  34  53  76 104 138 173 215 265 314
#
# _framework density 21.940868999999999
#
# number of rings (size 3 to 8) (size 9 to 14) (size 15 to 20)
#    0.000    2.143    0.000    3.429    0.000    5.429 
#    0.000    0.714    0.000    4.286    0.000    0.000 
#    0.000    0.000    0.000    0.000    0.000    0.000 
#
# Total GULP energy -156543.304762 kJ/mol
# GULP energy per Si atom -5590.832313 kJ/mol
# Density = 2.189093 g / cm^3
# Si number density = 21.940869 Si / 1000 Ang^3
#
#
#
# Elastic Constant Matrix: (Units=GPa)
#
#
# Indices 1 2 3 4 5 6 
#
# 1 223.8809 -13.7336 110.1611 0.0000 -22.4594 0.0000
# 2 -13.7336 60.4976 -17.6650 0.0000 -13.8514 0.0000
# 3 110.1611 -17.6650 203.9807 0.0000 -25.7018 0.0000
# 4 0.0000 0.0000 0.0000 3.7008 0.0000 16.1429
# 5 -22.4594 -13.8514 -25.7018 0.0000 47.9910 0.0000
# 6 0.0000 0.0000 0.0000 16.1429 0.0000 10.8610
#
#
#
# Elastic Compliance Matrix: (Units=1/GPa)
#
#
# Indices 1 2 3 4 5 6 
#
# 1 0.006182 0.000846 -0.003078 0.000000 0.001489 0.000000
# 2 0.000846 0.018915 0.002058 0.000000 0.006957 0.000000
# 3 -0.003078 0.002058 0.007117 0.000000 0.002965 0.000000
# 4 0.000000 0.000000 0.000000 -0.049278 0.000000 0.073244
# 5 0.001489 0.006957 0.002965 0.000000 0.025130 0.000000
# 6 0.000000 0.000000 0.000000 0.073244 0.000000 -0.016791
#
#
# Mechanical properties :
#
#
# Convention : Reuss Voigt Hill
#
# Bulk Modulus (GPa) = 31.38166 71.76492 51.57329
# Shear Modulus (GPa) = 2226.63168 39.81700 1133.22434
#
# Velocity S-wave (km/s) = 31.89100 4.26460 22.75108
# Velocity P-wave (km/s) = 37.01867 7.55172 26.71526
#
# Compressibility (1/GPa) = 0.03186574
#
# Stress axis : x y z
#
# Youngs Moduli (GPa) = 161.74799 52.86684 140.51777
#
# Poissons Ratio (x) = -0.04471 0.43252
# Poissons Ratio (y) = -0.13678 -0.28920
# Poissons Ratio (z) = 0.49787 -0.10880
#
# Static dielectric constant tensor:
#      x y z
#    x 1.758830 0.000000 -0.038710 
#    y 0.000000 1.889260 0.000000 
#    z -0.038710 0.000000 1.750960 
# 
# From -- ./inp_files/174788.got.cif
#   From: 2010.05.17/outbox.cif.g08.bks.cpg/sg12_88_cif.got.tgz:174788.got - 2010.06.03 13:09:07.
