data_PCOD9181186
_publ_section_title
;
Structure prediction by ZEFSAII (Michael W. Deem and Ramdas Pophale) SiO2 
 PCOD9181186
Probable space group: C 2/M
;
_chemical_formula_sum "Si O2"
_cell_formula_units_Z 64
_cell_length_a 17.488905
_cell_length_b 12.167968
_cell_length_c 20.975025
_cell_angle_alpha 90.000000
_cell_angle_beta 46.668959
_cell_angle_gamma 90.000000
_cell_volume 3246.811804
_symmetry_space_group_name_H-M "C 2/M"
_symmetry_group_IT_number 12
_symmetry_cell_setting 'monoclinic'
loop_
_space_group_symop_operation_xyz
x,y,z
-x,y,-z
-x,-y,-z
x,-y,z
1/2+x,1/2+y,z
1/2-x,1/2+y,-z
1/2-x,1/2-y,-z
1/2+x,1/2-y,z
loop_
_atom_site_type_symbol
_atom_site_label
_atom_site_fract_x
_atom_site_fract_y
_atom_site_fract_z
Si Si1 0.910380 0.371519 0.003930
Si Si2 0.074869 0.666998 0.405186
Si Si3 0.851522 0.874936 0.557570
Si Si4 0.512348 0.307726 0.640683
Si Si5 0.701472 0.376975 0.765668
Si Si6 0.377137 0.774577 0.300927
Si Si7 0.089522 0.627997 0.141310
Si Si8 0.706276 0.278394 0.178047
O O1 0.936402 0.500000 0.981361
O O2 0.796002 0.357275 0.100054
O O3 0.906358 0.328718 0.933844
O O4 0.000000 0.323984 0.000000
O O5 0.103464 0.788552 0.416823
O O6 0.184594 0.611425 0.332383
O O7 0.000000 0.616329 0.500000
O O8 0.011797 0.687380 0.376339
O O9 0.919666 0.866244 0.453426
O O10 0.731551 0.834343 0.618730
O O11 0.855787 0.000000 0.578013
O O12 0.582661 0.297562 0.662880
O O13 0.393036 0.338665 0.730565
O O14 0.659993 0.500000 0.802500
O O15 0.636632 0.303874 0.752758
O O16 0.732262 0.303602 0.809094
O O17 0.468940 0.860301 0.232538
O O18 0.122827 0.500000 0.125184
O O19 0.156755 0.704336 0.150086
#
# Coordination Sequence:
#
# PCOD9181186 Si02
#       8
#     8   8   8   8   8   8   8   8
#     4  10  21  37  59  86 112 140 175 217 271 326
#     4   8  17  33  49  70  99 134 179 225 265 312
#     4  10  19  32  52  77 107 142 179 220 266 318
#     4   9  19  33  50  74 106 141 176 215 263 312
#     4  10  20  34  52  74 103 141 180 220 270 320
#     4  10  20  35  53  77 110 143 179 224 268 315
#     4  10  20  36  60  85 108 141 182 221 265 316
#     4  10  20  37  58  80 109 143 180 224 264 313
#
# _framework density 19.711645000000001
#
# number of rings (size 3 to 8) (size 9 to 14) (size 15 to 20)
#    0.000    2.375    0.000    2.250    0.000    3.500 
#    0.000    8.750    0.000   12.750    0.000    0.000 
#    0.000    0.000    0.000    0.000    0.000    0.000 
#
# Total GULP energy -178238.178648 kJ/mol
# GULP energy per Si atom -5569.943083 kJ/mol
# Density = 1.966678 g / cm^3
# Si number density = 19.711645 Si / 1000 Ang^3
#
#
#
# Elastic Constant Matrix: (Units=GPa)
#
#
# Indices 1 2 3 4 5 6 
#
# 1 118.4551 17.7131 23.1257 0.0000 19.4166 0.0000
# 2 17.7131 64.7262 -9.8881 0.0000 10.0150 0.0000
# 3 23.1257 -9.8881 83.2207 0.0000 3.8408 0.0000
# 4 0.0000 0.0000 0.0000 10.8273 0.0000 -7.0381
# 5 19.4166 10.0150 3.8408 0.0000 36.6300 0.0000
# 6 0.0000 0.0000 0.0000 -7.0381 0.0000 117.1633
#
#
#
# Elastic Compliance Matrix: (Units=1/GPa)
#
#
# Indices 1 2 3 4 5 6 
#
# 1 0.010103 -0.002535 -0.002908 0.000000 -0.004357 0.000000
# 2 -0.002535 0.017153 0.002911 0.000000 -0.003651 0.000000
# 3 -0.002908 0.002911 0.013200 0.000000 -0.000639 0.000000
# 4 0.000000 0.000000 0.000000 0.096112 0.000000 0.005774
# 5 -0.004357 -0.003651 -0.000639 0.000000 0.030675 0.000000
# 6 0.000000 0.000000 0.000000 0.005774 0.000000 0.008882
#
#
# Mechanical properties :
#
#
# Convention : Reuss Voigt Hill
#
# Bulk Modulus (GPa) = 28.25422 36.47817 32.36620
# Shear Modulus (GPa) = 25.90876 48.62087 37.26481
#
# Velocity S-wave (km/s) = 3.62938 4.97188 4.35270
# Velocity P-wave (km/s) = 5.65050 7.17674 6.45886
#
# Compressibility (1/GPa) = 0.03539294
#
# Stress axis : x y z
#
# Youngs Moduli (GPa) = 98.98131 58.29870 75.76020
#
# Poissons Ratio (x) = 0.14777 0.22027
# Poissons Ratio (y) = 0.25089 -0.22054
# Poissons Ratio (z) = 0.28779 -0.16971
#
# Static dielectric constant tensor:
#      x y z
#    x 1.701300 0.000000 0.011570 
#    y 0.000000 1.697660 0.000000 
#    z 0.011570 0.000000 1.717250 
# 
# From -- ./inp_files/315692.got.cif
#   From: 2010.05.17/outbox.cif.g08.bks.cpg/sg12_158_cif.got.tgz:315692.got - 2010.06.03 13:09:07.
