data_PCOD9181651
_publ_section_title
;
Structure prediction by ZEFSAII (Michael W. Deem and Ramdas Pophale) SiO2 
 PCOD9181651
Probable space group: C 2/M
;
_chemical_formula_sum "Si O2"
_cell_formula_units_Z 64
_cell_length_a 20.765390
_cell_length_b 8.555643
_cell_length_c 20.791731
_cell_angle_alpha 90.000000
_cell_angle_beta 77.620782
_cell_angle_gamma 90.000000
_cell_volume 3608.002746
_symmetry_space_group_name_H-M "C 2/M"
_symmetry_group_IT_number 12
_symmetry_cell_setting 'monoclinic'
loop_
_space_group_symop_operation_xyz
x,y,z
-x,y,-z
-x,-y,-z
x,-y,z
1/2+x,1/2+y,z
1/2-x,1/2+y,-z
1/2-x,1/2-y,-z
1/2+x,1/2-y,z
loop_
_atom_site_type_symbol
_atom_site_label
_atom_site_fract_x
_atom_site_fract_y
_atom_site_fract_z
Si Si1 0.773906 0.687244 0.306947
Si Si2 0.255893 0.312672 0.926920
Si Si3 0.100607 0.187102 0.654812
Si Si4 0.374232 0.311369 0.674608
Si Si5 0.998425 0.686863 0.426347
Si Si6 0.031258 0.189871 0.803288
Si Si7 0.884773 0.190476 0.822279
Si Si8 0.163454 0.812401 0.838130
O O1 0.776947 0.500000 0.300743
O O2 0.827012 0.744582 0.347518
O O3 0.698148 0.731099 0.336187
O O4 0.796129 0.758274 0.233620
O O5 0.256924 0.500000 0.927845
O O6 0.323603 0.256479 0.878317
O O7 0.196506 0.257121 0.894128
O O8 0.250000 0.250000 0.000000
O O9 0.056582 0.234857 0.726586
O O10 0.063061 0.244145 0.599904
O O11 0.104551 0.000000 0.654225
O O12 0.381115 0.500000 0.670748
O O13 0.434646 0.238447 0.623424
O O14 0.376543 0.265303 0.749347
O O15 0.993517 0.500000 0.426154
O O16 0.000000 0.739921 0.500000
O O17 0.088027 0.238787 0.840730
O O18 0.956842 0.244064 0.830049
O O19 0.030137 0.000000 0.804238
O O20 0.884252 0.000000 0.823784
O O21 0.165145 0.000000 0.840824
#
# Coordination Sequence:
#
# PCOD9181651 Si02
#       8
#     8   8   8   8   8   8   8   8
#     4  10  19  33  55  85 117 146 181 232 285 328
#     4  11  22  37  56  78 110 149 184 228 282 336
#     4  10  19  34  57  83 111 146 188 230 276 336
#     4  10  19  35  59  84 110 145 190 231 275 333
#     4  11  24  39  55  81 117 151 184 230 286 338
#     4   8  15  29  53  81 105 131 175 228 266 313
#     4   9  16  32  56  81 106 137 181 230 274 321
#     4  10  19  32  53  82 111 143 183 226 276 335
#
# _framework density 17.738346
#
# number of rings (size 3 to 8) (size 9 to 14) (size 15 to 20)
#    0.000    2.125    2.500    2.625    0.000    2.000 
#    0.000    1.250    0.000    3.750    0.000    0.000 
#    0.000    0.000    0.000    0.000    0.000    0.000 
#
# Total GULP energy -178550.877782 kJ/mol
# GULP energy per Si atom -5579.714931 kJ/mol
# Density = 1.769797 g / cm^3
# Si number density = 17.738346 Si / 1000 Ang^3
#
#
#
# Elastic Constant Matrix: (Units=GPa)
#
#
# Indices 1 2 3 4 5 6 
#
# 1 149.7503 28.7289 63.4476 0.0000 19.6823 0.0000
# 2 28.7289 37.0806 22.2089 0.0000 6.0309 0.0000
# 3 63.4476 22.2089 100.8791 0.0000 13.8976 0.0000
# 4 0.0000 0.0000 0.0000 25.1022 0.0000 2.8670
# 5 19.6823 6.0309 13.8976 0.0000 28.3762 0.0000
# 6 0.0000 0.0000 0.0000 2.8670 0.0000 28.4868
#
#
#
# Elastic Compliance Matrix: (Units=1/GPa)
#
#
# Indices 1 2 3 4 5 6 
#
# 1 0.010043 -0.004266 -0.004871 0.000000 -0.003674 0.000000
# 2 -0.004266 0.033202 -0.004356 0.000000 -0.001964 0.000000
# 3 -0.004871 -0.004356 0.014308 0.000000 -0.002703 0.000000
# 4 0.000000 0.000000 0.000000 0.040300 0.000000 -0.004056
# 5 -0.003674 -0.001964 -0.002703 0.000000 0.039530 0.000000
# 6 0.000000 0.000000 0.000000 -0.004056 0.000000 0.035512
#
#
# Mechanical properties :
#
#
# Convention : Reuss Voigt Hill
#
# Bulk Modulus (GPa) = 32.71539 57.38676 45.05108
# Shear Modulus (GPa) = 23.80157 27.94799 25.87478
#
# Velocity S-wave (km/s) = 3.66705 3.97365 3.82343
# Velocity P-wave (km/s) = 6.03432 7.31268 6.70404
#
# Compressibility (1/GPa) = 0.03056665
#
# Stress axis : x y z
#
# Youngs Moduli (GPa) = 99.57301 30.11888 69.89137
#
# Poissons Ratio (x) = 0.12848 0.34045
# Poissons Ratio (y) = 0.42477 0.30444
# Poissons Ratio (z) = 0.48504 0.13119
#
# Static dielectric constant tensor:
#      x y z
#    x 1.622790 0.000000 0.004370 
#    y 0.000000 1.606410 0.000000 
#    z 0.004370 0.000000 1.573430 
# 
# From -- ./inp_files/319123.got.cif
#   From: 2010.05.17/outbox.cif.g08.bks.cpg/sg12_160_cif.got.tgz:319123.got - 2010.06.03 13:09:07.
