data_PCOD9181709
_publ_section_title
;
Structure prediction by ZEFSAII (Michael W. Deem and Ramdas Pophale) SiO2 
 PCOD9181709
Probable space group: C 2/M
;
_chemical_formula_sum "Si O2"
_cell_formula_units_Z 44
_cell_length_a 22.891642
_cell_length_b 18.100260
_cell_length_c 14.135948
_cell_angle_alpha 90.000000
_cell_angle_beta 20.942902
_cell_angle_gamma 90.000000
_cell_volume 2093.566243
_symmetry_space_group_name_H-M "C 2/M"
_symmetry_group_IT_number 12
_symmetry_cell_setting 'monoclinic'
loop_
_space_group_symop_operation_xyz
x,y,z
-x,y,-z
-x,-y,-z
x,-y,z
1/2+x,1/2+y,z
1/2-x,1/2+y,-z
1/2-x,1/2-y,-z
1/2+x,1/2-y,z
loop_
_atom_site_type_symbol
_atom_site_label
_atom_site_fract_x
_atom_site_fract_y
_atom_site_fract_z
Si Si1 0.152302 0.793381 0.546807
Si Si2 0.366188 0.291534 0.629488
Si Si3 0.000000 0.639690 0.000000
Si Si4 0.511989 0.861256 0.188080
Si Si5 0.482488 0.420664 0.913272
Si Si6 0.387091 0.885954 0.580567
O O1 0.072265 0.812792 0.567333
O O2 0.341416 0.808245 0.240141
O O3 0.110712 0.709109 0.631625
O O4 0.080133 0.850489 0.729167
O O5 0.500000 0.316487 0.500000
O O6 0.359454 0.202301 0.637361
O O7 0.192634 0.326334 0.917402
O O8 0.002264 0.599643 0.893702
O O9 0.473800 0.898522 0.346757
O O10 0.552313 0.500000 0.775006
O O11 0.500000 0.419500 0.000000
O O12 0.295881 0.416520 0.158170
O O13 0.500000 0.909806 0.500000
#
# Coordination Sequence:
#
# PCOD9181709 Si02
#       6
#     8   8   4   8   8   8
#     4  10  20  33  54  78 113 147 180 230 272 340
#     4   9  19  32  55  87 114 144 174 222 288 338
#     4  10  20  32  51  86 111 144 180 230 286 332
#     4  10  19  32  53  86 117 145 175 225 287 339
#     4  11  24  40  57  79 112 154 193 230 273 327
#     4  10  21  35  58  86 116 147 184 230 282 335
#
# _framework density 21.016769
#
# number of rings (size 3 to 8) (size 9 to 14) (size 15 to 20)
#    0.000    2.000    1.818    1.636    3.818    2.545 
#    0.000    0.455    0.000    4.909    0.000    0.000 
#    0.000    0.000    0.000    0.000    0.000    0.000 
#
# Total GULP energy -122674.026780 kJ/mol
# GULP energy per Si atom -5576.092126 kJ/mol
# Density = 2.096893 g / cm^3
# Si number density = 21.016769 Si / 1000 Ang^3
#
#
#
# Elastic Constant Matrix: (Units=GPa)
#
#
# Indices 1 2 3 4 5 6 
#
# 1 174.9832 23.8284 43.5028 -0.0007 3.9541 -0.0001
# 2 23.8284 42.2685 15.2504 -0.0011 1.0086 -0.0017
# 3 43.5028 15.2504 77.8997 -0.0028 -3.0017 0.0003
# 4 -0.0007 -0.0011 -0.0028 -20.1780 0.0006 -15.5325
# 5 3.9541 1.0086 -3.0017 0.0006 38.8942 -0.0010
# 6 -0.0001 -0.0017 0.0003 -15.5325 -0.0010 69.7283
#
#
#
# Elastic Compliance Matrix: (Units=1/GPa)
#
#
# Indices 1 2 3 4 5 6 
#
# 1 0.006941 -0.002669 -0.003388 0.000000 -0.000898 0.000000
# 2 -0.002669 0.026525 -0.003729 -0.000001 -0.000704 0.000000
# 3 -0.003388 -0.003729 0.015522 -0.000001 0.001639 0.000000
# 4 0.000000 -0.000001 -0.000001 -0.042305 0.000000 -0.009424
# 5 -0.000898 -0.000704 0.001639 0.000000 0.025947 0.000000
# 6 0.000000 0.000000 0.000000 -0.009424 0.000000 0.012242
#
#
# Mechanical properties :
#
#
# Convention : Reuss Voigt Hill
#
# Bulk Modulus (GPa) = 33.99598 51.14607 42.57103
# Shear Modulus (GPa) = 67.33880 31.86022 49.59951
#
# Velocity S-wave (km/s) = 5.66657 3.89773 4.86325
# Velocity P-wave (km/s) = 7.68272 6.68170 7.19963
#
# Compressibility (1/GPa) = 0.02941525
#
# Stress axis : x y z
#
# Youngs Moduli (GPa) = 144.07295 37.69988 64.42288
#
# Poissons Ratio (x) = 0.10062 0.21828
# Poissons Ratio (y) = 0.38453 0.24026
# Poissons Ratio (z) = 0.48815 0.14060
#
# Static dielectric constant tensor:
#      x y z
#    x 1.844440 0.000000 0.006370 
#    y 0.000000 1.721250 0.000000 
#    z 0.006370 0.000000 1.745270 
# 
# From -- ./inp_files/241712.got.cif
#   From: 2010.05.17/outbox.cif.g08.bks.cpg/sg12_121_cif.got.tgz:241712.got - 2010.06.03 13:09:07.
