data_PCOD9181365
_publ_section_title
;
Structure prediction by ZEFSAII (Michael W. Deem and Ramdas Pophale) SiO2 
 PCOD9181365
Probable space group: C 2/M
;
_chemical_formula_sum "Si O2"
_cell_formula_units_Z 52
_cell_length_a 21.019758
_cell_length_b 17.601747
_cell_length_c 10.940276
_cell_angle_alpha 90.000000
_cell_angle_beta 43.457717
_cell_angle_gamma 90.000000
_cell_volume 2784.107385
_symmetry_space_group_name_H-M "C 2/M"
_symmetry_group_IT_number 12
_symmetry_cell_setting 'monoclinic'
loop_
_space_group_symop_operation_xyz
x,y,z
-x,y,-z
-x,-y,-z
x,-y,z
1/2+x,1/2+y,z
1/2-x,1/2+y,-z
1/2-x,1/2-y,-z
1/2+x,1/2-y,z
loop_
_atom_site_type_symbol
_atom_site_label
_atom_site_fract_x
_atom_site_fract_y
_atom_site_fract_z
Si Si1 0.691444 0.584461 0.831221
Si Si2 0.604059 0.908290 0.821223
Si Si3 0.387537 0.409846 0.794829
Si Si4 0.811343 0.694280 0.502224
Si Si5 0.436280 0.325235 0.349662
Si Si6 0.213344 0.090383 0.311122
Si Si7 0.500000 0.636444 0.000000
O O1 0.729958 0.500000 0.754242
O O2 0.748401 0.650689 0.687165
O O3 0.587620 0.588415 0.921950
O O4 0.678006 0.595432 0.994999
O O5 0.638545 0.867864 0.651203
O O6 0.681580 0.884396 0.812853
O O7 0.606818 0.000000 0.805685
O O8 0.500000 0.886192 0.000000
O O9 0.413600 0.500000 0.746659
O O10 0.477931 0.359708 0.695856
O O11 0.334844 0.383956 0.746689
O O12 0.750000 0.750000 0.500000
O O13 0.889864 0.746703 0.453824
O O14 0.352038 0.384442 0.485940
O O15 0.466960 0.318111 0.165729
O O16 0.214637 0.000000 0.304109
#
# Coordination Sequence:
#
# PCOD9181365 Si02
#       7
#     8   8   8   8   8   8   4
#     4  10  20  35  55  81 112 149 194 239 288 341
#     4  10  22  38  61  85 108 148 200 240 277 331
#     4   9  20  37  62  89 116 148 186 236 293 348
#     4  12  22  36  55  80 117 154 189 234 293 335
#     4  11  21  33  54  86 119 152 184 227 290 349
#     4  10  19  37  62  87 117 150 188 238 287 344
#     4  10  19  32  52  84 115 144 186 242 293 340
#
# _framework density 18.677441999999999
#
# number of rings (size 3 to 8) (size 9 to 14) (size 15 to 20)
#    0.000    1.692    3.077    1.615    1.077    4.308 
#    0.000    0.769    3.385    0.000    0.000    5.385 
#    0.000    0.000    0.000    0.000    0.000    0.000 
#
# Total GULP energy -145051.486133 kJ/mol
# GULP energy per Si atom -5578.903313 kJ/mol
# Density = 1.863493 g / cm^3
# Si number density = 18.677442 Si / 1000 Ang^3
#
#
#
# Elastic Constant Matrix: (Units=GPa)
#
#
# Indices 1 2 3 4 5 6 
#
# 1 94.2157 32.0565 55.4307 0.0000 -15.0246 0.0000
# 2 32.0565 56.8873 42.1690 0.0000 -6.4516 0.0000
# 3 55.4307 42.1690 116.0538 0.0000 -13.6111 0.0000
# 4 0.0000 0.0000 0.0000 23.7601 0.0000 0.0998
# 5 -15.0246 -6.4516 -13.6111 0.0000 22.8785 0.0000
# 6 0.0000 0.0000 0.0000 0.0998 0.0000 14.5446
#
#
#
# Elastic Compliance Matrix: (Units=1/GPa)
#
#
# Indices 1 2 3 4 5 6 
#
# 1 0.016329 -0.004456 -0.005450 0.000000 0.006225 0.000000
# 2 -0.004456 0.025336 -0.007077 0.000000 0.000008 0.000000
# 3 -0.005450 -0.007077 0.014123 0.000000 0.002827 0.000000
# 4 0.000000 0.000000 0.000000 0.042089 0.000000 -0.000289
# 5 0.006225 0.000008 0.002827 0.000000 0.049481 0.000000
# 6 0.000000 0.000000 0.000000 -0.000289 0.000000 0.068756
#
#
# Mechanical properties :
#
#
# Convention : Reuss Voigt Hill
#
# Bulk Modulus (GPa) = 45.82387 58.49659 52.16023
# Shear Modulus (GPa) = 19.42843 21.40333 20.41588
#
# Velocity S-wave (km/s) = 3.22872 3.38885 3.30976
# Velocity P-wave (km/s) = 6.20380 6.83373 6.52637
#
# Compressibility (1/GPa) = 0.02182269
#
# Stress axis : x y z
#
# Youngs Moduli (GPa) = 61.24004 39.46894 70.80638
#
# Poissons Ratio (x) = 0.17586 0.38592
# Poissons Ratio (y) = 0.27286 0.50110
# Poissons Ratio (z) = 0.33378 0.27933
#
# Static dielectric constant tensor:
#      x y z
#    x 1.665000 0.000000 -0.002850 
#    y 0.000000 1.655620 0.000000 
#    z -0.002850 0.000000 1.642680 
# 
# From -- ./inp_files/168702.got.cif
#   From: 2010.05.17/outbox.cif.g08.bks.cpg/sg12_85_cif.got.tgz:168702.got - 2010.06.03 13:09:07.
