data_PCOD9181638
_publ_section_title
;
Structure prediction by ZEFSAII (Michael W. Deem and Ramdas Pophale) SiO2 
 PCOD9181638
Probable space group: C 2/M
;
_chemical_formula_sum "Si O2"
_cell_formula_units_Z 56
_cell_length_a 15.328795
_cell_length_b 15.025195
_cell_length_c 15.772215
_cell_angle_alpha 90.000000
_cell_angle_beta 138.380850
_cell_angle_gamma 90.000000
_cell_volume 2412.704164
_symmetry_space_group_name_H-M "C 2/M"
_symmetry_group_IT_number 12
_symmetry_cell_setting 'monoclinic'
loop_
_space_group_symop_operation_xyz
x,y,z
-x,y,-z
-x,-y,-z
x,-y,z
1/2+x,1/2+y,z
1/2-x,1/2+y,-z
1/2-x,1/2-y,-z
1/2+x,1/2-y,z
loop_
_atom_site_type_symbol
_atom_site_label
_atom_site_fract_x
_atom_site_fract_y
_atom_site_fract_z
Si Si1 0.255197 0.103379 0.842468
Si Si2 0.841868 0.209547 0.390192
Si Si3 0.982169 0.900218 0.190983
Si Si4 0.392309 0.771647 0.063298
Si Si5 0.146292 0.597761 0.646516
Si Si6 0.485137 0.100055 0.274586
Si Si7 0.219246 0.898374 0.489485
O O1 0.211581 0.144758 0.721681
O O2 0.131459 0.106620 0.818436
O O3 0.293657 0.000000 0.862541
O O4 0.365680 0.166393 0.963788
O O5 0.793106 0.309756 0.339129
O O6 0.805716 0.171584 0.454992
O O7 0.000000 0.210879 0.500000
O O8 0.960109 0.823857 0.106028
O O9 0.116738 0.887259 0.339948
O O10 0.974448 0.000000 0.150691
O O11 0.468652 0.828557 0.189582
O O12 0.250000 0.750000 0.000000
O O13 0.207240 0.500000 0.673710
O O14 0.000000 0.593412 0.500000
O O15 0.122548 0.608308 0.730248
O O16 0.627600 0.108368 0.421705
O O17 0.475759 0.000000 0.231828
O O18 0.198541 0.000000 0.506972
#
# Coordination Sequence:
#
# PCOD9181638 Si02
#       7
#     8   8   8   8   8   8   8
#     4  10  19  32  53  81 114 149 195 247 292 351
#     4  11  20  34  58  86 117 158 199 245 301 362
#     4   9  18  33  52  81 115 148 193 247 299 349
#     4  10  20  34  54  79 114 155 203 244 287 353
#     4   9  19  35  54  79 115 154 198 245 285 341
#     4  10  21  38  59  86 120 157 198 249 308 358
#     4  10  21  36  58  91 124 154 193 249 312 363
#
# _framework density 23.210470000000001
#
# number of rings (size 3 to 8) (size 9 to 14) (size 15 to 20)
#    0.000    2.143    1.429    2.571    2.000    1.714 
#    0.000    1.429    0.000    2.571    0.000    0.000 
#    0.000    4.571    0.000    0.000    0.000    0.000 
#
# Total GULP energy -156663.796577 kJ/mol
# GULP energy per Si atom -5595.135592 kJ/mol
# Density = 2.315764 g / cm^3
# Si number density = 23.210470 Si / 1000 Ang^3
#
#
#
# Elastic Constant Matrix: (Units=GPa)
#
#
# Indices 1 2 3 4 5 6 
#
# 1 59.1446 46.2776 -0.4505 0.0000 2.0693 0.0000
# 2 46.2776 228.5948 78.4137 0.0000 -11.4677 0.0000
# 3 -0.4505 78.4137 91.3870 0.0000 -1.9165 0.0000
# 4 0.0000 0.0000 0.0000 40.6911 0.0000 -4.5103
# 5 2.0693 -11.4677 -1.9165 0.0000 21.2363 0.0000
# 6 0.0000 0.0000 0.0000 -4.5103 0.0000 3.0191
#
#
#
# Elastic Compliance Matrix: (Units=1/GPa)
#
#
# Indices 1 2 3 4 5 6 
#
# 1 0.022483 -0.006830 0.005859 0.000000 -0.005350 0.000000
# 2 -0.006830 0.008454 -0.007191 0.000000 0.004582 0.000000
# 3 0.005859 -0.007191 0.017081 0.000000 -0.002913 0.000000
# 4 0.000000 0.000000 0.000000 0.029452 0.000000 0.043999
# 5 -0.005350 0.004582 -0.002913 0.000000 0.049822 0.000000
# 6 0.000000 0.000000 0.000000 0.043999 0.000000 0.396952
#
#
# Mechanical properties :
#
#
# Convention : Reuss Voigt Hill
#
# Bulk Modulus (GPa) = 31.55221 69.73424 50.64322
# Shear Modulus (GPa) = 9.07222 29.98169 19.52695
#
# Velocity S-wave (km/s) = 1.97918 3.59797 2.90366
# Velocity P-wave (km/s) = 4.34124 6.88259 5.75397
#
# Compressibility (1/GPa) = 0.03169350
#
# Stress axis : x y z
#
# Youngs Moduli (GPa) = 44.47720 118.28948 58.54560
#
# Poissons Ratio (x) = 0.80789 -0.34301
# Poissons Ratio (y) = 0.30377 0.42102
# Poissons Ratio (z) = -0.26058 0.85066
#
# Static dielectric constant tensor:
#      x y z
#    x 1.874870 0.000000 0.022860 
#    y 0.000000 1.878860 0.000000 
#    z 0.022860 0.000000 1.841070 
# 
# From -- ./inp_files/284572.got.cif
#   From: 2010.05.17/outbox.cif.g08.bks.cpg/sg12_143_cif.got.tgz:284572.got - 2010.06.03 13:09:07.
