data_PCOD9181230
_publ_section_title
;
Structure prediction by ZEFSAII (Michael W. Deem and Ramdas Pophale) SiO2 
 PCOD9181230
Probable space group: C 2/M
;
_chemical_formula_sum "Si O2"
_cell_formula_units_Z 44
_cell_length_a 27.235213
_cell_length_b 11.319854
_cell_length_c 15.575194
_cell_angle_alpha 90.000000
_cell_angle_beta 25.237715
_cell_angle_gamma 90.000000
_cell_volume 2047.371237
_symmetry_space_group_name_H-M "C 2/M"
_symmetry_group_IT_number 12
_symmetry_cell_setting 'monoclinic'
loop_
_space_group_symop_operation_xyz
x,y,z
-x,y,-z
-x,-y,-z
x,-y,z
1/2+x,1/2+y,z
1/2-x,1/2+y,-z
1/2-x,1/2-y,-z
1/2+x,1/2-y,z
loop_
_atom_site_type_symbol
_atom_site_label
_atom_site_fract_x
_atom_site_fract_y
_atom_site_fract_z
Si Si1 0.855318 0.812444 0.382565
Si Si2 0.500000 0.687603 0.000000
Si Si3 0.724131 0.135051 0.925922
Si Si4 0.538201 0.135070 0.655161
Si Si5 0.674907 0.125195 0.801510
Si Si6 0.631912 0.864574 0.322116
O O1 0.750000 0.750000 0.500000
O O2 0.789610 0.878582 0.562382
O O3 0.932526 0.718632 0.312240
O O4 0.932553 0.871392 0.186192
O O5 0.404797 0.769749 0.104852
O O6 0.707906 0.134815 0.848524
O O7 0.799518 0.252242 0.824207
O O8 0.764403 0.000000 0.885915
O O9 0.593869 0.150098 0.166071
O O10 0.622077 0.151258 0.441182
O O11 0.549601 0.000000 0.665932
O O12 0.612355 0.000000 0.889124
O O13 0.500000 0.862245 0.500000
O O14 0.675730 0.000000 0.235923
#
# Coordination Sequence:
#
# PCOD9181230 Si02
#       6
#     8   4   8   8   8   8
#     4  10  20  32  51  80 112 148 192 237 278 334
#     4  10  19  32  53  76 108 148 195 236 279 338
#     4  10  20  36  61  88 113 147 194 240 285 340
#     4  10  20  37  60  82 113 155 195 236 290 349
#     4  10  19  32  52  78 108 145 190 239 281 331
#     4  10  22  41  63  87 117 152 189 235 295 359
#
# _framework density 21.490973
#
# number of rings (size 3 to 8) (size 9 to 14) (size 15 to 20)
#    0.000    2.000    3.636    0.273    0.000    4.000 
#    0.000    2.273    0.000    1.091    0.000    0.000 
#    0.000    0.000    0.000    0.000    0.000    0.000 
#
# Total GULP energy -122605.458625 kJ/mol
# GULP energy per Si atom -5572.975392 kJ/mol
# Density = 2.144206 g / cm^3
# Si number density = 21.490973 Si / 1000 Ang^3
#
#
#
# Elastic Constant Matrix: (Units=GPa)
#
#
# Indices 1 2 3 4 5 6 
#
# 1 69.9662 22.3956 14.3614 0.0000 16.6159 0.0000
# 2 22.3956 156.5313 47.0708 0.0000 -15.0206 0.0000
# 3 14.3614 47.0708 98.0112 0.0000 25.0174 0.0000
# 4 0.0000 0.0000 0.0000 -59.7403 0.0000 158.1648
# 5 16.6159 -15.0206 25.0174 0.0000 41.4629 0.0000
# 6 0.0000 0.0000 0.0000 158.1648 0.0000 -446.7654
#
#
#
# Elastic Compliance Matrix: (Units=1/GPa)
#
#
# Indices 1 2 3 4 5 6 
#
# 1 0.017440 -0.003929 0.001748 0.000000 -0.009467 0.000000
# 2 -0.003929 0.009728 -0.006380 0.000000 0.008948 0.000000
# 3 0.001748 -0.006380 0.016288 0.000000 -0.012840 0.000000
# 4 0.000000 0.000000 0.000000 -0.266918 0.000000 -0.094495
# 5 -0.009467 0.008948 -0.012840 0.000000 0.038901 0.000000
# 6 0.000000 0.000000 0.000000 -0.094495 0.000000 -0.035692
#
#
# Mechanical properties :
#
#
# Convention : Reuss Voigt Hill
#
# Bulk Modulus (GPa) = 37.97488 54.68489 46.32988
# Shear Modulus (GPa) = -25.72646 -76.96316 -51.34481
#
# Velocity S-wave (km/s) = -3.46364 -5.99079 -4.89318
# Velocity P-wave (km/s) = 1.30873 4.72779 3.21242
#
# Compressibility (1/GPa) = 0.02633320
#
# Stress axis : x y z
#
# Youngs Moduli (GPa) = 57.34001 102.79616 61.39380
#
# Poissons Ratio (x) = 0.40392 -0.10733
# Poissons Ratio (y) = 0.22531 0.39171
# Poissons Ratio (z) = -0.10024 0.65587
#
# Static dielectric constant tensor:
#      x y z
#    x 1.771670 0.000000 0.049520 
#    y 0.000000 1.724940 0.000000 
#    z 0.049520 0.000000 1.798080 
# 
# From -- ./inp_files/262236.got.cif
#   From: 2010.05.17/outbox.cif.g08.bks.cpg/sg12_132_cif.got.tgz:262236.got - 2010.06.03 13:09:07.
