data_PCOD9181228
_publ_section_title
;
Structure prediction by ZEFSAII (Michael W. Deem and Ramdas Pophale) SiO2 
 PCOD9181228
Probable space group: C 2/M
;
_chemical_formula_sum "Si O2"
_cell_formula_units_Z 56
_cell_length_a 27.397643
_cell_length_b 9.088693
_cell_length_c 14.300586
_cell_angle_alpha 90.000000
_cell_angle_beta 121.464154
_cell_angle_gamma 90.000000
_cell_volume 3037.390589
_symmetry_space_group_name_H-M "C 2/M"
_symmetry_group_IT_number 12
_symmetry_cell_setting 'monoclinic'
loop_
_space_group_symop_operation_xyz
x,y,z
-x,y,-z
-x,-y,-z
x,-y,z
1/2+x,1/2+y,z
1/2-x,1/2+y,-z
1/2-x,1/2-y,-z
1/2+x,1/2-y,z
loop_
_atom_site_type_symbol
_atom_site_label
_atom_site_fract_x
_atom_site_fract_y
_atom_site_fract_z
Si Si1 0.630832 0.676634 0.682954
Si Si2 0.903760 0.325151 0.745479
Si Si3 0.750000 0.323274 0.898861
Si Si4 0.518401 0.333828 0.909693
Si Si5 0.130832 0.676634 0.078710
Si Si6 0.403760 0.674849 0.562040
Si Si7 0.518401 0.166172 0.627108
O O1 0.622400 0.500000 0.682797
O O2 0.692579 0.716357 0.785145
O O3 0.624910 0.712676 0.566519
O O4 0.580402 0.758972 0.688242
O O5 0.903014 0.500000 0.734295
O O6 0.875090 0.287324 0.816699
O O7 0.877335 0.250000 0.627335
O O8 0.968805 0.266443 0.817590
O O9 0.750000 0.500000 0.909388
O O10 0.807421 0.283642 0.899988
O O11 0.750000 0.250000 0.000000
O O12 0.519030 0.500000 0.871477
O O13 0.500000 0.344154 0.000000
O O14 0.580402 0.258972 0.972563
O O15 0.122400 0.500000 0.062003
O O16 0.403014 0.500000 0.571733
O O17 0.468806 0.733557 0.620021
O O18 0.500000 0.155847 0.500000
O O19 0.519030 0.000000 0.666584
#
# Coordination Sequence:
#
# PCOD9181228 Si02
#       7
#     8   8   8   8   8   8   8
#     4   9  19  36  55  75 105 142 176 214 261 311
#     4  10  19  32  52  78 108 141 175 212 258 312
#     4  10  22  40  59  78 100 132 175 218 261 310
#     4   9  17  30  50  76 105 136 171 211 254 302
#     4   9  19  36  55  75 105 142 176 214 261 311
#     4  10  19  32  52  78 108 141 175 212 258 312
#     4   9  17  30  50  76 105 136 171 211 254 302
#
# _framework density 18.436878
#
# number of rings (size 3 to 8) (size 9 to 14) (size 15 to 20)
#    0.000    2.571    0.000    1.714    0.000    6.857 
#    0.000    3.571    0.000    0.000    0.000    0.000 
#    0.000    0.000    0.000    0.000    0.000    0.000 
#
# Total GULP energy -156179.291436 kJ/mol
# GULP energy per Si atom -5577.831837 kJ/mol
# Density = 1.839491 g / cm^3
# Si number density = 18.436878 Si / 1000 Ang^3
#
#
#
# Elastic Constant Matrix: (Units=GPa)
#
#
# Indices 1 2 3 4 5 6 
#
# 1 120.1654 42.3373 73.8049 0.0000 12.1179 0.0000
# 2 42.3373 56.2217 43.3135 0.0000 -1.1832 0.0000
# 3 73.8049 43.3135 109.4722 0.0000 0.8387 0.0000
# 4 0.0000 0.0000 0.0000 27.3594 0.0000 -5.3444
# 5 12.1179 -1.1832 0.8387 0.0000 31.8479 0.0000
# 6 0.0000 0.0000 0.0000 -5.3444 0.0000 22.9492
#
#
#
# Elastic Compliance Matrix: (Units=1/GPa)
#
#
# Indices 1 2 3 4 5 6 
#
# 1 0.016283 -0.005712 -0.008670 0.000000 -0.006179 0.000000
# 2 -0.005712 0.027637 -0.007110 0.000000 0.003387 0.000000
# 3 -0.008670 -0.007110 0.017773 0.000000 0.002567 0.000000
# 4 0.000000 0.000000 0.000000 0.038292 0.000000 0.008918
# 5 -0.006179 0.003387 0.002567 0.000000 0.033809 0.000000
# 6 0.000000 0.000000 0.000000 0.008918 0.000000 0.045651
#
#
# Mechanical properties :
#
#
# Convention : Reuss Voigt Hill
#
# Bulk Modulus (GPa) = 53.45015 67.19675 60.32345
# Shear Modulus (GPa) = 21.86599 24.85821 23.36210
#
# Velocity S-wave (km/s) = 3.44756 3.67589 3.56355
# Velocity P-wave (km/s) = 6.70085 7.38527 7.05137
#
# Compressibility (1/GPa) = 0.01870902
#
# Stress axis : x y z
#
# Youngs Moduli (GPa) = 61.41462 36.18379 56.26359
#
# Poissons Ratio (x) = 0.20668 0.48782
# Poissons Ratio (y) = 0.35080 0.40001
# Poissons Ratio (z) = 0.53248 0.25725
#
# Static dielectric constant tensor:
#      x y z
#    x 1.623920 0.000000 -0.034750 
#    y 0.000000 1.631740 0.000000 
#    z -0.034750 0.000000 1.652600 
# 
# From -- ./inp_files/238886.got.cif
#   From: 2010.05.17/outbox.cif.g08.bks.cpg/sg12_120_cif.got.tgz:238886.got - 2010.06.03 13:09:07.
