data_PCOD9181476
_publ_section_title
;
Structure prediction by ZEFSAII (Michael W. Deem and Ramdas Pophale) SiO2 
 PCOD9181476
Probable space group: C 2/M
;
_chemical_formula_sum "Si O2"
_cell_formula_units_Z 48
_cell_length_a 24.144739
_cell_length_b 9.236953
_cell_length_c 13.694825
_cell_angle_alpha 90.000000
_cell_angle_beta 107.300861
_cell_angle_gamma 90.000000
_cell_volume 2916.085696
_symmetry_space_group_name_H-M "C 2/M"
_symmetry_group_IT_number 12
_symmetry_cell_setting 'monoclinic'
loop_
_space_group_symop_operation_xyz
x,y,z
-x,y,-z
-x,-y,-z
x,-y,z
1/2+x,1/2+y,z
1/2-x,1/2+y,-z
1/2-x,1/2-y,-z
1/2+x,1/2-y,z
loop_
_atom_site_type_symbol
_atom_site_label
_atom_site_fract_x
_atom_site_fract_y
_atom_site_fract_z
Si Si1 0.996630 0.326848 0.612575
Si Si2 0.270717 0.673714 0.109196
Si Si3 0.127372 0.671493 0.728802
Si Si4 0.681621 0.333640 0.580867
Si Si5 0.303324 0.169497 0.736924
Si Si6 0.111371 0.832030 0.346940
O O1 0.986540 0.500000 0.606858
O O2 0.945336 0.249120 0.643371
O O3 0.000000 0.280518 0.500000
O O4 0.058844 0.298997 0.695092
O O5 0.274289 0.500000 0.100951
O O6 0.332185 0.739362 0.176251
O O7 0.225084 0.705129 0.173186
O O8 0.250000 0.750000 0.000000
O O9 0.136754 0.500000 0.746381
O O10 0.148463 0.722022 0.632823
O O11 0.670158 0.500000 0.609116
O O12 0.749761 0.310229 0.633249
O O13 0.657762 0.322165 0.459916
O O14 0.357742 0.261242 0.730056
O O15 0.318640 0.000000 0.744647
O O16 0.098474 0.000000 0.323236
#
# Coordination Sequence:
#
# PCOD9181476 Si02
#       6
#     8   8   8   8   8   8
#     4  10  20  34  50  72 105 147 186 214 250 305
#     4  10  21  38  60  83 105 131 167 216 271 318
#     4  10  19  32  53  78 104 138 179 218 257 305
#     4   9  18  31  46  70 104 140 175 214 258 304
#     4   9  19  34  50  71 103 137 170 210 259 315
#     4  11  21  30  47  74 105 142 179 216 257 301
#
# _framework density 16.460419999999999
#
# number of rings (size 3 to 8) (size 9 to 14) (size 15 to 20)
#    0.000    2.167    1.667    3.000    0.000    5.667 
#    0.000    0.000    0.000    1.000    0.000    7.000 
#    0.000    0.000    0.000    0.000    0.000    0.000 
#
# Total GULP energy -133847.440226 kJ/mol
# GULP energy per Si atom -5576.976676 kJ/mol
# Density = 1.642296 g / cm^3
# Si number density = 16.460420 Si / 1000 Ang^3
#
#
#
# Elastic Constant Matrix: (Units=GPa)
#
#
# Indices 1 2 3 4 5 6 
#
# 1 129.6846 85.2937 51.4603 0.0000 -5.2091 0.0000
# 2 85.2937 85.5497 55.0236 0.0000 -2.2164 0.0000
# 3 51.4603 55.0236 78.1760 0.0000 3.7923 0.0000
# 4 0.0000 0.0000 0.0000 24.6674 0.0000 -0.6364
# 5 -5.2091 -2.2164 3.7923 0.0000 7.4210 0.0000
# 6 0.0000 0.0000 0.0000 -0.6364 0.0000 31.3613
#
#
#
# Elastic Compliance Matrix: (Units=1/GPa)
#
#
# Indices 1 2 3 4 5 6 
#
# 1 0.023050 -0.023235 0.000751 0.000000 0.008857 0.000000
# 2 -0.023235 0.046397 -0.017681 0.000000 0.006583 0.000000
# 3 0.000751 -0.017681 0.025607 0.000000 -0.017840 0.000000
# 4 0.000000 0.000000 0.000000 0.040561 0.000000 0.000823
# 5 0.008857 0.006583 -0.017840 0.000000 0.152053 0.000000
# 6 0.000000 0.000000 0.000000 0.000823 0.000000 0.031903
#
#
# Mechanical properties :
#
#
# Convention : Reuss Voigt Hill
#
# Bulk Modulus (GPa) = 67.91215 75.21839 71.56527
# Shear Modulus (GPa) = 12.35150 19.46547 15.90849
#
# Velocity S-wave (km/s) = 2.74227 3.44257 3.11218
# Velocity P-wave (km/s) = 7.16758 7.84840 7.51570
#
# Compressibility (1/GPa) = 0.01472491
#
# Stress axis : x y z
#
# Youngs Moduli (GPa) = 43.38306 21.55313 39.05138
#
# Poissons Ratio (x) = 0.50079 -0.02932
# Poissons Ratio (y) = 1.00800 0.69046
# Poissons Ratio (z) = -0.03258 0.38108
#
# Static dielectric constant tensor:
#      x y z
#    x 1.542650 0.000000 0.004920 
#    y 0.000000 1.552880 0.000000 
#    z 0.004920 0.000000 1.546560 
# 
# From -- ./inp_files/172441.got.cif
#   From: 2010.05.17/outbox.cif.g08.bks.cpg/sg12_87_cif.got.tgz:172441.got - 2010.06.03 13:09:07.
