data_PCOD9181659
_publ_section_title
;
Structure prediction by ZEFSAII (Michael W. Deem and Ramdas Pophale) SiO2 
 PCOD9181659
Probable space group: C 2/M
;
_chemical_formula_sum "Si O2"
_cell_formula_units_Z 60
_cell_length_a 18.033009
_cell_length_b 9.352221
_cell_length_c 20.463862
_cell_angle_alpha 90.000000
_cell_angle_beta 105.684073
_cell_angle_gamma 90.000000
_cell_volume 3322.704528
_symmetry_space_group_name_H-M "C 2/M"
_symmetry_group_IT_number 12
_symmetry_cell_setting 'monoclinic'
loop_
_space_group_symop_operation_xyz
x,y,z
-x,y,-z
-x,-y,-z
x,-y,z
1/2+x,1/2+y,z
1/2-x,1/2+y,-z
1/2-x,1/2-y,-z
1/2+x,1/2-y,z
loop_
_atom_site_type_symbol
_atom_site_label
_atom_site_fract_x
_atom_site_fract_y
_atom_site_fract_z
Si Si1 0.174510 0.832719 0.005103
Si Si2 0.427225 0.334795 0.276346
Si Si3 0.000000 0.747448 0.500000
Si Si4 0.267644 0.829908 0.571948
Si Si5 0.433331 0.164337 0.928129
Si Si6 0.541648 0.666730 0.863777
Si Si7 0.641794 0.163572 0.623061
Si Si8 0.584701 0.343222 0.391659
O O1 0.111333 0.823721 0.932065
O O2 0.189869 0.000000 0.021153
O O3 0.250000 0.750000 0.000000
O O4 0.135974 0.756447 0.058392
O O5 0.399131 0.500000 0.275254
O O6 0.429667 0.292752 0.201297
O O7 0.381509 0.229214 0.312783
O O8 0.514116 0.335116 0.324883
O O9 0.933855 0.668163 0.442307
O O10 0.952399 0.830629 0.544667
O O11 0.250000 0.750000 0.500000
O O12 0.206656 0.765032 0.607890
O O13 0.354545 0.780694 0.607460
O O14 0.260757 0.000000 0.564817
O O15 0.472586 0.237371 0.874975
O O16 0.411227 0.000000 0.911324
O O17 0.500000 0.164868 0.000000
O O18 0.517340 0.500000 0.855422
O O19 0.667764 0.000000 0.633527
O O20 0.622263 0.500000 0.395221
#
# Coordination Sequence:
#
# PCOD9181659 Si02
#       8
#     8   8   4   8   8   8   8   8
#     4  10  19  32  53  82 114 145 180 223 269 315
#     4   9  20  38  58  80 107 141 180 221 267 322
#     4  10  20  32  56  78 108 132 172 218 268 314
#     4  12  24  37  55  78 106 137 172 218 273 323
#     4   9  17  30  51  79 108 138 176 221 264 310
#     4   9  18  35  57  79 108 145 181 219 266 319
#     4  11  22  36  55  80 109 139 178 222 270 322
#     4  10  20  35  56  80 106 135 173 217 268 321
#
# _framework density 18.057577999999999
#
# number of rings (size 3 to 8) (size 9 to 14) (size 15 to 20)
#    0.000    2.000    1.333    2.800    0.000    5.867 
#    0.000    1.333    0.000    0.000    0.000    0.000 
#    0.000    0.000    0.000    0.000    0.000    0.000 
#
# Total GULP energy -167357.647574 kJ/mol
# GULP energy per Si atom -5578.588252 kJ/mol
# Density = 1.801648 g / cm^3
# Si number density = 18.057578 Si / 1000 Ang^3
#
#
#
# Elastic Constant Matrix: (Units=GPa)
#
#
# Indices 1 2 3 4 5 6 
#
# 1 94.1420 73.4162 17.5038 0.0000 -26.4742 0.0000
# 2 73.4162 166.7152 39.5464 0.0000 -27.7517 0.0000
# 3 17.5038 39.5464 69.4238 0.0000 -29.8105 0.0000
# 4 0.0000 0.0000 0.0000 15.7020 0.0000 -2.7135
# 5 -26.4742 -27.7517 -29.8105 0.0000 21.2382 0.0000
# 6 0.0000 0.0000 0.0000 -2.7135 0.0000 28.6829
#
#
#
# Elastic Compliance Matrix: (Units=1/GPa)
#
#
# Indices 1 2 3 4 5 6 
#
# 1 0.028309 -0.008517 0.020358 0.000000 0.052734 0.000000
# 2 -0.008517 0.010229 -0.006290 0.000000 -0.006080 0.000000
# 3 0.020358 -0.006290 0.050901 0.000000 0.088604 0.000000
# 4 0.000000 0.000000 0.000000 0.064745 0.000000 0.006125
# 5 0.052734 -0.006080 0.088604 0.000000 0.229243 0.000000
# 6 0.000000 0.000000 0.000000 0.006125 0.000000 0.035443
#
#
# Mechanical properties :
#
#
# Convention : Reuss Voigt Hill
#
# Bulk Modulus (GPa) = 9.94625 65.69042 37.81834
# Shear Modulus (GPa) = 11.33064 26.44559 18.88811
#
# Velocity S-wave (km/s) = 2.50766 3.83105 3.23769
# Velocity P-wave (km/s) = 3.72887 7.48509 5.91317
#
# Compressibility (1/GPa) = 0.10054036
#
# Stress axis : x y z
#
# Youngs Moduli (GPa) = 35.32472 97.76131 19.64597
#
# Poissons Ratio (x) = 0.83266 -0.39996
# Poissons Ratio (y) = 0.30087 0.12357
# Poissons Ratio (z) = -0.71915 0.61492
#
# Static dielectric constant tensor:
#      x y z
#    x 1.492040 0.000000 -0.024380 
#    y 0.000000 1.621310 0.000000 
#    z -0.024380 0.000000 1.598560 
# 
# From -- ./inp_files/314233.got.cif
#   From: 2010.05.17/outbox.cif.g08.bks.cpg/sg12_158_cif.got.tgz:314233.got - 2010.06.03 13:09:07.
