data_PCOD9181842
_publ_section_title
;
Structure prediction by ZEFSAII (Michael W. Deem and Ramdas Pophale) SiO2 
 PCOD9181842
Probable space group: C 2/M
;
_chemical_formula_sum "Si O2"
_cell_formula_units_Z 56
_cell_length_a 25.273606
_cell_length_b 20.193342
_cell_length_c 11.858471
_cell_angle_alpha 90.000000
_cell_angle_beta 27.361334
_cell_angle_gamma 90.000000
_cell_volume 2781.535688
_symmetry_space_group_name_H-M "C 2/M"
_symmetry_group_IT_number 12
_symmetry_cell_setting 'monoclinic'
loop_
_space_group_symop_operation_xyz
x,y,z
-x,y,-z
-x,-y,-z
x,-y,z
1/2+x,1/2+y,z
1/2-x,1/2+y,-z
1/2-x,1/2-y,-z
1/2+x,1/2-y,z
loop_
_atom_site_type_symbol
_atom_site_label
_atom_site_fract_x
_atom_site_fract_y
_atom_site_fract_z
Si Si1 0.491629 0.275622 0.236228
Si Si2 0.124887 0.721828 0.193371
Si Si3 0.864974 0.426717 0.782088
Si Si4 0.520332 0.869576 0.094334
Si Si5 0.669847 0.673566 0.752681
Si Si6 0.262829 0.321212 0.623269
Si Si7 0.677573 0.925991 0.396434
O O1 0.583792 0.260526 0.159312
O O2 0.472535 0.204762 0.210965
O O3 0.368813 0.305278 0.505429
O O4 0.545043 0.325202 0.044262
O O5 0.148595 0.643359 0.129706
O O6 0.000000 0.724265 0.500000
O O7 0.250000 0.750000 0.000000
O O8 0.828219 0.500000 0.895797
O O9 0.812902 0.416660 0.755319
O O10 0.000000 0.432033 0.500000
O O11 0.451475 0.915726 0.310772
O O12 0.500000 0.884135 0.000000
O O13 0.656613 0.866982 0.857455
O O14 0.687650 0.654899 0.590016
O O15 0.707716 0.749819 0.698445
O O16 0.747980 0.626861 0.679524
O O17 0.714832 0.000000 0.353030
#
# Coordination Sequence:
#
# PCOD9181842 Si02
#       7
#     8   8   8   8   8   8   8
#     4  11  21  33  59  80 113 152 186 240 296 351
#     4  11  24  38  58  91 124 150 195 256 307 353
#     4   9  19  36  57  81 114 158 201 243 294 361
#     4  11  19  32  52  83 115 146 189 234 288 339
#     4  10  19  34  53  80 114 144 194 229 285 351
#     4  10  19  32  54  81 113 147 187 235 289 352
#     4  11  21  35  56  82 116 158 197 237 288 347
#
# _framework density 20.132763000000001
#
# number of rings (size 3 to 8) (size 9 to 14) (size 15 to 20)
#    0.000    1.571    2.857    4.714    4.000    0.286 
#    0.000    0.000    0.000    3.000    0.000    0.000 
#    0.000    0.000    0.000    0.000    0.000    0.000 
#
# Total GULP energy -155994.429636 kJ/mol
# GULP energy per Si atom -5571.229630 kJ/mol
# Density = 2.008694 g / cm^3
# Si number density = 20.132763 Si / 1000 Ang^3
#
#
#
# Elastic Constant Matrix: (Units=GPa)
#
#
# Indices 1 2 3 4 5 6 
#
# 1 66.9932 8.5307 11.2287 -0.0001 -6.0903 0.0001
# 2 8.5307 51.5612 6.3660 0.0000 -4.4383 0.0000
# 3 11.2287 6.3660 73.9101 -0.0001 -7.4461 0.0001
# 4 -0.0001 0.0000 -0.0001 44.0016 0.0000 -23.0288
# 5 -6.0903 -4.4383 -7.4461 0.0000 32.4185 0.0000
# 6 0.0001 0.0000 0.0001 -23.0288 0.0000 41.0035
#
#
#
# Elastic Compliance Matrix: (Units=1/GPa)
#
#
# Indices 1 2 3 4 5 6 
#
# 1 0.015736 -0.002169 -0.001982 0.000000 0.002204 0.000000
# 2 -0.002169 0.020078 -0.001192 0.000000 0.002068 0.000000
# 3 -0.001982 -0.001192 0.014208 0.000000 0.002728 0.000000
# 4 0.000000 0.000000 0.000000 0.032188 0.000000 0.018078
# 5 0.002204 0.002068 0.002728 0.000000 0.032170 0.000000
# 6 0.000000 0.000000 0.000000 0.018078 0.000000 0.034541
#
#
# Mechanical properties :
#
#
# Convention : Reuss Voigt Hill
#
# Bulk Modulus (GPa) = 25.42083 27.19060 26.30572
# Shear Modulus (GPa) = 28.94881 34.57399 31.76140
#
# Velocity S-wave (km/s) = 3.79607 4.14853 3.97621
# Velocity P-wave (km/s) = 5.64514 6.04003 5.84592
#
# Compressibility (1/GPa) = 0.03933782
#
# Stress axis : x y z
#
# Youngs Moduli (GPa) = 63.55009 49.80480 70.38048
#
# Poissons Ratio (x) = 0.10803 0.13948
# Poissons Ratio (y) = 0.13784 0.08386
# Poissons Ratio (z) = 0.12594 0.05935
#
# Static dielectric constant tensor:
#      x y z
#    x 1.822600 0.000000 0.004330 
#    y 0.000000 1.690140 0.000000 
#    z 0.004330 0.000000 1.817670 
# 
# From -- ./inp_files/177872.got.cif
#   From: 2010.05.17/outbox.cif.g08.bks.cpg/sg12_89_cif.got.tgz:177872.got - 2010.06.03 13:09:07.
