data_PCOD9181483
_publ_section_title
;
Structure prediction by ZEFSAII (Michael W. Deem and Ramdas Pophale) SiO2 
 PCOD9181483
Probable space group: C 2/M
;
_chemical_formula_sum "Si O2"
_cell_formula_units_Z 40
_cell_length_a 19.967846
_cell_length_b 14.356770
_cell_length_c 7.117556
_cell_angle_alpha 90.000000
_cell_angle_beta 119.295598
_cell_angle_gamma 90.000000
_cell_volume 1779.461357
_symmetry_space_group_name_H-M "C 2/M"
_symmetry_group_IT_number 12
_symmetry_cell_setting 'monoclinic'
loop_
_space_group_symop_operation_xyz
x,y,z
-x,y,-z
-x,-y,-z
x,-y,z
1/2+x,1/2+y,z
1/2-x,1/2+y,-z
1/2-x,1/2-y,-z
1/2+x,1/2-y,z
loop_
_atom_site_type_symbol
_atom_site_label
_atom_site_fract_x
_atom_site_fract_y
_atom_site_fract_z
Si Si1 0.472587 0.793772 0.743841
Si Si2 0.806089 0.220059 0.903844
Si Si3 0.965072 0.893981 0.163123
Si Si4 0.620951 0.898414 0.910643
Si Si5 0.317848 0.105122 0.425061
O O1 0.480132 0.687790 0.680342
O O2 0.537780 0.858823 0.744740
O O3 0.391236 0.839591 0.599046
O O4 0.500000 0.792056 0.000000
O O5 0.758480 0.167604 0.678517
O O6 0.750000 0.250000 0.000000
O O7 0.879613 0.153377 0.050874
O O8 0.839696 0.321602 0.904642
O O9 0.963462 0.000000 0.237086
O O10 0.000000 0.902832 0.000000
O O11 0.666344 0.905045 0.777787
O O12 0.614600 0.000000 0.988801
O O13 0.309149 0.000000 0.488061
#
# Coordination Sequence:
#
# PCOD9181483 Si02
#       5
#     8   8   8   8   8
#     4  10  20  33  51  77 107 140 182 228 272 325
#     4   9  18  33  55  80 105 135 184 239 276 322
#     4   9  18  35  56  76 106 149 188 223 275 341
#     4   9  18  33  52  74 104 141 176 220 280 339
#     4  10  19  32  53  78 105 142 185 228 279 333
#
# _framework density 22.478714
#
# number of rings (size 3 to 8) (size 9 to 14) (size 15 to 20)
#    0.000    2.600    0.000    1.800    0.000    4.000 
#    0.000   10.000    0.000   21.600    0.000    0.000 
#    0.000    0.000    0.000    0.000    0.000    0.000 
#
# Total GULP energy -111421.542112 kJ/mol
# GULP energy per Si atom -5571.077106 kJ/mol
# Density = 2.242755 g / cm^3
# Si number density = 22.478714 Si / 1000 Ang^3
#
#
#
# Elastic Constant Matrix: (Units=GPa)
#
#
# Indices 1 2 3 4 5 6 
#
# 1 71.9373 26.1011 6.9722 0.0000 7.2500 0.0000
# 2 26.1011 278.0694 79.9107 0.0000 41.2235 0.0000
# 3 6.9722 79.9107 81.0533 0.0000 28.8241 0.0000
# 4 0.0000 0.0000 0.0000 5.0944 0.0000 -2.0739
# 5 7.2500 41.2235 28.8241 0.0000 41.7724 0.0000
# 6 0.0000 0.0000 0.0000 -2.0739 0.0000 20.7076
#
#
#
# Elastic Compliance Matrix: (Units=1/GPa)
#
#
# Indices 1 2 3 4 5 6 
#
# 1 0.014477 -0.001290 0.000619 0.000000 -0.001667 0.000000
# 2 -0.001290 0.005267 -0.004391 0.000000 -0.001945 0.000000
# 3 0.000619 -0.004391 0.020024 0.000000 -0.009592 0.000000
# 4 0.000000 0.000000 0.000000 0.204639 0.000000 0.020495
# 5 -0.001667 -0.001945 -0.009592 0.000000 0.032766 0.000000
# 6 0.000000 0.000000 0.000000 0.020495 0.000000 0.050344
#
#
# Mechanical properties :
#
#
# Convention : Reuss Voigt Hill
#
# Bulk Modulus (GPa) = 33.73166 73.00312 53.36739
# Shear Modulus (GPa) = 14.38760 34.71994 24.55377
#
# Velocity S-wave (km/s) = 2.53267 3.93437 3.30860
# Velocity P-wave (km/s) = 4.85708 7.29288 6.19586
#
# Compressibility (1/GPa) = 0.02964574
#
# Stress axis : x y z
#
# Youngs Moduli (GPa) = 69.07547 189.84979 49.94017
#
# Poissons Ratio (x) = 0.24483 -0.03091
# Poissons Ratio (y) = 0.08908 0.21927
# Poissons Ratio (z) = -0.04276 0.83355
#
# Static dielectric constant tensor:
#      x y z
#    x 2.041800 0.000000 -0.072830 
#    y 0.000000 1.893350 0.000000 
#    z -0.072830 0.000000 1.874720 
# 
# From -- ./inp_files/72324.got.cif
#   From: 2010.05.17/outbox.cif.g08.bks.cpg/sg12_37_cif.got.tgz:72324.got - 2010.06.03 13:09:07.
