data_PCOD9181283
_publ_section_title
;
Structure prediction by ZEFSAII (Michael W. Deem and Ramdas Pophale) SiO2 
 PCOD9181283
Probable space group: C 2/M
;
_chemical_formula_sum "Si O2"
_cell_formula_units_Z 56
_cell_length_a 19.853773
_cell_length_b 7.740440
_cell_length_c 25.435384
_cell_angle_alpha 90.000000
_cell_angle_beta 135.829558
_cell_angle_gamma 90.000000
_cell_volume 2723.655210
_symmetry_space_group_name_H-M "C 2/M"
_symmetry_group_IT_number 12
_symmetry_cell_setting 'monoclinic'
loop_
_space_group_symop_operation_xyz
x,y,z
-x,y,-z
-x,-y,-z
x,-y,z
1/2+x,1/2+y,z
1/2-x,1/2+y,-z
1/2-x,1/2-y,-z
1/2+x,1/2-y,z
loop_
_atom_site_type_symbol
_atom_site_label
_atom_site_fract_x
_atom_site_fract_y
_atom_site_fract_z
Si Si1 0.607254 0.295157 0.811289
Si Si2 0.441289 0.790067 0.799759
Si Si3 0.501249 0.196022 0.057720
Si Si4 0.458514 0.292496 0.641228
Si Si5 0.207092 0.292136 0.370862
Si Si6 0.203962 0.803149 0.029411
Si Si7 0.572370 0.288103 0.494242
O O1 0.621075 0.500000 0.813388
O O2 0.537811 0.263715 0.822605
O O3 0.545592 0.227690 0.727102
O O4 0.711152 0.214764 0.880366
O O5 0.443808 0.727242 0.861172
O O6 0.352295 0.731204 0.713649
O O7 0.441220 0.000000 0.801212
O O8 0.539617 0.000000 0.072203
O O9 0.500000 0.282958 0.000000
O O10 0.389389 0.190661 0.011490
O O11 0.467040 0.500000 0.644836
O O12 0.358203 0.253115 0.615120
O O13 0.459013 0.230819 0.581656
O O14 0.210092 0.500000 0.369945
O O15 0.317028 0.230701 0.434986
O O16 0.170807 0.000000 0.007886
O O17 0.250000 0.750000 0.000000
O O18 0.500000 0.233591 0.500000
O O19 0.572443 0.500000 0.494177
#
# Coordination Sequence:
#
# PCOD9181283 Si02
#       7
#     8   8   8   8   8   8   8
#     4  10  19  32  52  80 106 135 175 221 269 311
#     4   9  17  31  51  76 104 137 176 217 262 312
#     4  10  21  37  54  77 110 145 181 220 262 315
#     4   9  18  32  52  78 104 134 174 216 259 307
#     4   9  17  30  52  78 100 133 175 213 258 307
#     4  12  23  36  57  81 107 140 180 222 268 318
#     4   9  17  31  50  76 108 137 170 212 258 309
#
# _framework density 20.560606
#
# number of rings (size 3 to 8) (size 9 to 14) (size 15 to 20)
#    0.000    2.286    1.429    2.143    0.000    0.857 
#    2.571    0.000    0.000    1.714    0.000    0.000 
#    0.000    0.000    0.000    0.000    0.000    0.000 
#
# Total GULP energy -156262.255855 kJ/mol
# GULP energy per Si atom -5580.794852 kJ/mol
# Density = 2.051381 g / cm^3
# Si number density = 20.560606 Si / 1000 Ang^3
#
#
#
# Elastic Constant Matrix: (Units=GPa)
#
#
# Indices 1 2 3 4 5 6 
#
# 1 92.9454 -6.0909 68.9283 0.0000 -28.6914 0.0000
# 2 -6.0909 48.1220 0.8136 0.0000 -2.3055 -0.0001
# 3 68.9283 0.8136 142.3639 0.0000 -27.7613 0.0000
# 4 0.0000 0.0000 0.0000 11.3431 0.0000 0.4999
# 5 -28.6914 -2.3055 -27.7613 0.0000 37.2337 0.0000
# 6 0.0000 -0.0001 0.0000 0.4999 0.0000 11.1343
#
#
#
# Elastic Compliance Matrix: (Units=1/GPa)
#
#
# Indices 1 2 3 4 5 6 
#
# 1 0.019575 0.003066 -0.007625 0.000000 0.009588 0.000000
# 2 0.003066 0.021325 -0.001039 0.000000 0.002908 0.000000
# 3 -0.007625 -0.001039 0.011191 0.000000 0.002404 0.000000
# 4 0.000000 0.000000 0.000000 0.088334 0.000000 -0.003966
# 5 0.009588 0.002908 0.002404 0.000000 0.036218 0.000000
# 6 0.000000 0.000000 0.000000 -0.003966 0.000000 0.089991
#
#
# Mechanical properties :
#
#
# Convention : Reuss Voigt Hill
#
# Bulk Modulus (GPa) = 24.45360 45.63703 35.04531
# Shear Modulus (GPa) = 17.15488 26.59423 21.87456
#
# Velocity S-wave (km/s) = 2.89166 3.60037 3.26530
# Velocity P-wave (km/s) = 4.80293 6.28713 5.59447
#
# Compressibility (1/GPa) = 0.04089378
#
# Stress axis : x y z
#
# Youngs Moduli (GPa) = 51.08677 46.89231 89.35902
#
# Poissons Ratio (x) = -0.14377 0.68138
# Poissons Ratio (y) = -0.15663 0.09286
# Poissons Ratio (z) = 0.38955 0.04873
#
# Static dielectric constant tensor:
#      x y z
#    x 1.701070 0.000000 -0.012190 
#    y 0.000000 1.762220 0.000000 
#    z -0.012190 0.000000 1.781060 
# 
# From -- ./inp_files/342486.got.cif
#   From: 2010.05.17/outbox.cif.g08.bks.cpg/sg12_172_cif.got.tgz:342486.got - 2010.06.03 13:09:07.
