data_PCOD9181062
_publ_section_title
;
Structure prediction by ZEFSAII (Michael W. Deem and Ramdas Pophale) SiO2 
 PCOD9181062
Probable space group: C 2/M
;
_chemical_formula_sum "Si O2"
_cell_formula_units_Z 64
_cell_length_a 14.834855
_cell_length_b 7.457524
_cell_length_c 25.841905
_cell_angle_alpha 90.000000
_cell_angle_beta 61.814674
_cell_angle_gamma 90.000000
_cell_volume 2519.924815
_symmetry_space_group_name_H-M "C 2/M"
_symmetry_group_IT_number 12
_symmetry_cell_setting 'monoclinic'
loop_
_space_group_symop_operation_xyz
x,y,z
-x,y,-z
-x,-y,-z
x,-y,z
1/2+x,1/2+y,z
1/2-x,1/2+y,-z
1/2-x,1/2-y,-z
1/2+x,1/2-y,z
loop_
_atom_site_type_symbol
_atom_site_label
_atom_site_fract_x
_atom_site_fract_y
_atom_site_fract_z
Si Si1 0.819755 0.716913 0.411826
Si Si2 0.992953 0.216165 0.784456
Si Si3 0.681853 0.294006 0.857983
Si Si4 0.707230 0.789029 0.695245
Si Si5 0.683616 0.283882 0.086768
Si Si6 0.968820 0.219523 0.951795
Si Si7 0.141295 0.203743 0.266932
Si Si8 0.595312 0.289321 0.506985
O O1 0.821784 0.500000 0.411699
O O2 0.825781 0.783211 0.351422
O O3 0.707052 0.782238 0.460634
O O4 0.904698 0.772151 0.430753
O O5 0.911645 0.267355 0.849803
O O6 0.949943 0.288123 0.741094
O O7 0.109323 0.271130 0.758612
O O8 0.990805 0.000000 0.783744
O O9 0.681959 0.500000 0.840369
O O10 0.720503 0.290348 0.907522
O O11 0.566087 0.227602 0.890295
O O12 0.766095 0.196931 0.800450
O O13 0.807180 0.712499 0.696440
O O14 0.727982 0.000000 0.682674
O O15 0.693514 0.500000 0.083702
O O16 0.639537 0.223235 0.043125
O O17 0.967878 0.000000 0.952266
O O18 0.000000 0.282179 0.000000
O O19 0.110983 0.000000 0.287789
O O20 0.500000 0.215078 0.500000
O O21 0.599109 0.500000 0.493556
#
# Coordination Sequence:
#
# PCOD9181062 Si02
#       8
#     8   8   8   8   8   8   8   8
#     4   9  19  34  50  74 105 130 159 202 249 289
#     4   9  18  32  50  72  97 129 167 200 235 288
#     4  10  19  32  52  75  97 125 165 207 242 285
#     4  10  20  33  50  73 103 134 160 197 246 289
#     4   9  18  34  53  71  96 130 163 198 245 295
#     4   9  18  32  50  72  98 129 163 199 245 299
#     4   9  19  35  52  71  99 134 165 195 242 296
#     4   9  18  34  56  76  95 128 171 206 237 283
#
# _framework density 25.397583999999998
#
# number of rings (size 3 to 8) (size 9 to 14) (size 15 to 20)
#    0.000    2.750    0.000    1.875    0.000    5.750 
#    0.000    3.750    0.000    2.625    0.000    0.000 
#    0.000    0.000    0.000    0.000    0.000    0.000 
#
# Total GULP energy -178719.563830 kJ/mol
# GULP energy per Si atom -5584.986370 kJ/mol
# Density = 2.533978 g / cm^3
# Si number density = 25.397584 Si / 1000 Ang^3
#
#
#
# Elastic Constant Matrix: (Units=GPa)
#
#
# Indices 1 2 3 4 5 6 
#
# 1 173.6813 -2.7523 17.0107 0.0000 37.7332 0.0000
# 2 -2.7523 78.9377 -7.9780 0.0000 -0.9436 0.0001
# 3 17.0107 -7.9780 57.0003 0.0000 24.7118 0.0000
# 4 0.0000 0.0000 0.0000 9.4316 0.0000 -4.2423
# 5 37.7332 -0.9436 24.7118 0.0000 35.4046 0.0000
# 6 0.0000 0.0001 0.0000 -4.2423 0.0000 -0.5335
#
#
#
# Elastic Compliance Matrix: (Units=1/GPa)
#
#
# Indices 1 2 3 4 5 6 
#
# 1 0.007626 0.000341 0.001852 0.000000 -0.009412 0.000000
# 2 0.000341 0.012908 0.002457 0.000000 -0.001734 0.000001
# 3 0.001852 0.002457 0.026043 0.000000 -0.020086 0.000000
# 4 0.000000 0.000000 0.000000 0.023166 0.000000 -0.184219
# 5 -0.009412 -0.001734 -0.020086 0.000000 0.052249 0.000000
# 6 0.000000 0.000001 0.000000 -0.184219 0.000000 -0.409566
#
#
# Mechanical properties :
#
#
# Convention : Reuss Voigt Hill
#
# Bulk Modulus (GPa) = 17.89708 35.79780 26.84744
# Shear Modulus (GPa) = -17.96962 29.08314 5.55676
#
# Velocity S-wave (km/s) = -2.66283 3.38763 1.48076
# Velocity P-wave (km/s) = 1.54667 5.42466 3.67660
#
# Compressibility (1/GPa) = 0.05587504
#
# Stress axis : x y z
#
# Youngs Moduli (GPa) = 131.12362 77.47348 38.39828
#
# Poissons Ratio (x) = -0.02639 -0.07111
# Poissons Ratio (y) = -0.04466 -0.09433
# Poissons Ratio (z) = -0.24284 -0.19032
#
# Static dielectric constant tensor:
#      x y z
#    x 1.990770 0.000000 0.062810 
#    y 0.000000 1.959610 0.000000 
#    z 0.062810 0.000000 2.083100 
# 
# From -- ./inp_files/359695.got.cif
#   From: 2010.05.17/outbox.cif.g08.bks.cpg/sg12_180_cif.got.tgz:359695.got - 2010.06.03 13:09:07.
