data_PCOD9181664
_publ_section_title
;
Structure prediction by ZEFSAII (Michael W. Deem and Ramdas Pophale) SiO2 
 PCOD9181664
Probable space group: C 2/M
;
_chemical_formula_sum "Si O2"
_cell_formula_units_Z 40
_cell_length_a 25.726203
_cell_length_b 8.814356
_cell_length_c 10.366358
_cell_angle_alpha 90.000000
_cell_angle_beta 103.988663
_cell_angle_gamma 90.000000
_cell_volume 2280.961828
_symmetry_space_group_name_H-M "C 2/M"
_symmetry_group_IT_number 12
_symmetry_cell_setting 'monoclinic'
loop_
_space_group_symop_operation_xyz
x,y,z
-x,y,-z
-x,-y,-z
x,-y,z
1/2+x,1/2+y,z
1/2-x,1/2+y,-z
1/2-x,1/2-y,-z
1/2+x,1/2-y,z
loop_
_atom_site_type_symbol
_atom_site_label
_atom_site_fract_x
_atom_site_fract_y
_atom_site_fract_z
Si Si1 0.727459 0.681164 0.854812
Si Si2 0.504069 0.675165 0.658904
Si Si3 0.784066 0.181169 0.638586
Si Si4 0.616425 0.820732 0.707494
Si Si5 0.891637 0.679254 0.607432
O O1 0.731570 0.500000 0.857319
O O2 0.760602 0.750076 0.755395
O O3 0.666079 0.731774 0.797019
O O4 0.750000 0.750000 0.000000
O O5 0.500000 0.676427 0.500000
O O6 0.505153 0.500000 0.700970
O O7 0.559443 0.759265 0.722884
O O8 0.450767 0.759295 0.674459
O O9 0.750000 0.250000 0.500000
O O10 0.845219 0.230813 0.652503
O O11 0.778609 0.000000 0.635514
O O12 0.617214 0.799180 0.552239
O O13 0.621592 0.000000 0.735078
O O14 0.887646 0.500000 0.630943
#
# Coordination Sequence:
#
# PCOD9181664 Si02
#       5
#     8   8   8   8   8
#     4  12  25  41  60  83 115 153 194 237 286 343
#     4   9  17  29  48  77 112 147 186 231 283 334
#     4  12  23  37  58  85 116 151 191 237 288 339
#     4  10  19  33  54  80 113 149 190 234 282 336
#     4  10  19  32  53  82 115 148 187 234 285 335
#
# _framework density 17.536463999999999
#
# number of rings (size 3 to 8) (size 9 to 14) (size 15 to 20)
#    0.000    1.400    2.000    5.400    0.000    4.000 
#    0.000    0.000    0.000    1.200    0.000    8.400 
#    0.000    0.000    0.000    0.000    0.000    0.000 
#
# Total GULP energy -111750.758961 kJ/mol
# GULP energy per Si atom -5587.537948 kJ/mol
# Density = 1.749655 g / cm^3
# Si number density = 17.536464 Si / 1000 Ang^3
#
#
#
# Elastic Constant Matrix: (Units=GPa)
#
#
# Indices 1 2 3 4 5 6 
#
# 1 169.0158 90.1046 60.1197 0.0000 6.8622 0.0000
# 2 90.1046 182.8037 68.0777 0.0000 7.0036 0.0000
# 3 60.1197 68.0777 83.6706 0.0000 -4.5043 0.0000
# 4 0.0000 0.0000 0.0000 23.0660 0.0000 2.2271
# 5 6.8622 7.0036 -4.5043 0.0000 12.0111 0.0000
# 6 0.0000 0.0000 0.0000 2.2271 0.0000 39.7825
#
#
#
# Elastic Compliance Matrix: (Units=1/GPa)
#
#
# Indices 1 2 3 4 5 6 
#
# 1 0.009222 -0.002509 -0.004888 0.000000 -0.005639 0.000000
# 2 -0.002509 0.009176 -0.005995 0.000000 -0.006165 0.000000
# 3 -0.004888 -0.005995 0.021106 0.000000 0.014203 0.000000
# 4 0.000000 0.000000 0.000000 0.043590 0.000000 -0.002440
# 5 -0.005639 -0.006165 0.014203 0.000000 0.095399 0.000000
# 6 0.000000 0.000000 0.000000 -0.002440 0.000000 0.025273
#
#
# Mechanical properties :
#
#
# Convention : Reuss Voigt Hill
#
# Bulk Modulus (GPa) = 78.61888 96.89935 87.75912
# Shear Modulus (GPa) = 21.29561 29.45112 25.37337
#
# Velocity S-wave (km/s) = 3.48855 4.10252 3.80793
# Velocity P-wave (km/s) = 7.82021 8.82138 8.33584
#
# Compressibility (1/GPa) = 0.01271959
#
# Stress axis : x y z
#
# Youngs Moduli (GPa) = 108.43679 108.98233 47.37914
#
# Poissons Ratio (x) = 0.27344 0.23161
# Poissons Ratio (y) = 0.27207 0.28403
# Poissons Ratio (z) = 0.53008 0.65333
#
# Static dielectric constant tensor:
#      x y z
#    x 1.592800 0.000000 0.002050 
#    y 0.000000 1.581680 0.000000 
#    z 0.002050 0.000000 1.575340 
# 
# From -- ./inp_files/92809.got.cif
#   From: 2010.05.17/outbox.cif.g08.bks.cpg/sg12_47_cif.got.tgz:92809.got - 2010.06.03 13:09:07.
