data_PCOD9181460
_publ_section_title
;
Structure prediction by ZEFSAII (Michael W. Deem and Ramdas Pophale) SiO2 
 PCOD9181460
Probable space group: C 2/M
;
_chemical_formula_sum "Si O2"
_cell_formula_units_Z 56
_cell_length_a 14.676089
_cell_length_b 8.308595
_cell_length_c 27.379442
_cell_angle_alpha 90.000000
_cell_angle_beta 61.398071
_cell_angle_gamma 90.000000
_cell_volume 2931.167537
_symmetry_space_group_name_H-M "C 2/M"
_symmetry_group_IT_number 12
_symmetry_cell_setting 'monoclinic'
loop_
_space_group_symop_operation_xyz
x,y,z
-x,y,-z
-x,-y,-z
x,-y,z
1/2+x,1/2+y,z
1/2-x,1/2+y,-z
1/2-x,1/2-y,-z
1/2+x,1/2-y,z
loop_
_atom_site_type_symbol
_atom_site_label
_atom_site_fract_x
_atom_site_fract_y
_atom_site_fract_z
Si Si1 0.893272 0.811122 0.638914
Si Si2 0.614975 0.189562 0.570962
Si Si3 0.671555 0.812153 0.447788
Si Si4 0.067021 0.694314 0.937137
Si Si5 0.005234 0.807470 0.846002
Si Si6 0.292708 0.303927 0.851433
Si Si7 0.774032 0.305523 0.239756
O O1 0.864017 0.784340 0.590099
O O2 0.799373 0.752633 0.697210
O O3 0.001682 0.723137 0.620644
O O4 0.908431 0.000000 0.644591
O O5 0.618201 0.236481 0.512663
O O6 0.706281 0.285106 0.574198
O O7 0.640064 0.000000 0.566814
O O8 0.648295 0.000000 0.445222
O O9 0.067841 0.500000 0.938698
O O10 0.187424 0.747926 0.906047
O O11 0.019181 0.743369 0.897416
O O12 0.000000 0.754359 0.000000
O O13 0.899398 0.747201 0.848107
O O14 0.108710 0.757896 0.790205
O O15 0.001084 0.000000 0.849094
O O16 0.294647 0.500000 0.851715
O O17 0.276997 0.256695 0.798963
O O18 0.779731 0.500000 0.238901
#
# Coordination Sequence:
#
# PCOD9181460 Si02
#       7
#     8   8   8   8   8   8   8
#     4  11  22  35  55  81 107 139 178 222 272 322
#     4  10  21  37  56  79 107 139 177 220 267 325
#     4  10  21  37  56  78 107 142 177 218 269 322
#     4   9  18  34  54  75 104 142 176 206 250 312
#     4  10  19  32  53  78 103 134 171 216 264 301
#     4   8  16  33  53  72 100 136 170 206 253 304
#     4   9  20  38  54  72 102 138 175 212 253 310
#
# _framework density 19.105015000000002
#
# number of rings (size 3 to 8) (size 9 to 14) (size 15 to 20)
#    0.000    2.429    0.000    3.000    0.000    6.571 
#    0.000    7.143    0.000    0.000    0.000    0.000 
#    0.000    0.000    0.000    0.000    0.000    0.000 
#
# Total GULP energy -156273.043063 kJ/mol
# GULP energy per Si atom -5581.180109 kJ/mol
# Density = 1.906153 g / cm^3
# Si number density = 19.105015 Si / 1000 Ang^3
#
#
#
# Elastic Constant Matrix: (Units=GPa)
#
#
# Indices 1 2 3 4 5 6 
#
# 1 123.9056 3.6615 42.7502 0.0000 -23.3825 0.0000
# 2 3.6615 11.8488 10.6930 0.0000 -4.0518 0.0000
# 3 42.7502 10.6930 54.3158 0.0000 -23.2632 0.0000
# 4 0.0000 0.0000 0.0000 23.1563 0.0000 -1.4642
# 5 -23.3825 -4.0518 -23.2632 0.0000 16.2400 0.0000
# 6 0.0000 0.0000 0.0000 -1.4642 0.0000 26.4783
#
#
#
# Elastic Compliance Matrix: (Units=1/GPa)
#
#
# Indices 1 2 3 4 5 6 
#
# 1 0.011873 0.005298 -0.006469 0.000000 0.009150 0.000000
# 2 0.005298 0.105464 -0.026898 0.000000 -0.004590 0.000000
# 3 -0.006469 -0.026898 0.056754 0.000000 0.065274 0.000000
# 4 0.000000 0.000000 0.000000 0.043336 0.000000 0.002396
# 5 0.009150 -0.004590 0.065274 0.000000 0.167108 0.000000
# 6 0.000000 0.000000 0.000000 0.002396 0.000000 0.037899
#
#
# Mechanical properties :
#
#
# Convention : Reuss Voigt Hill
#
# Bulk Modulus (GPa) = 8.47795 33.80884 21.14340
# Shear Modulus (GPa) = 9.65456 22.03926 15.84691
#
# Velocity S-wave (km/s) = 2.25042 3.40013 2.88316
# Velocity P-wave (km/s) = 3.34660 5.75754 4.70898
#
# Compressibility (1/GPa) = 0.11795304
#
# Stress axis : x y z
#
# Youngs Moduli (GPa) = 84.22725 9.48190 17.61992
#
# Poissons Ratio (x) = -0.05023 0.11398
# Poissons Ratio (y) = -0.44621 0.47394
# Poissons Ratio (z) = 0.54483 0.25504
#
# Static dielectric constant tensor:
#      x y z
#    x 1.650800 0.000000 -0.014910 
#    y 0.000000 1.660670 0.000000 
#    z -0.014910 0.000000 1.659970 
# 
# From -- ./inp_files/308993.got.cif
#   From: 2010.05.17/outbox.cif.g08.bks.cpg/sg12_155_cif.got.tgz:308993.got - 2010.06.03 13:09:07.
