data_PCOD9181957
_publ_section_title
;
Structure prediction by ZEFSAII (Michael W. Deem and Ramdas Pophale) SiO2 
 PCOD9181957
Probable space group: C 2/M
;
_chemical_formula_sum "Si O2"
_cell_formula_units_Z 40
_cell_length_a 12.660732
_cell_length_b 29.547703
_cell_length_c 12.854579
_cell_angle_alpha 90.000000
_cell_angle_beta 23.436528
_cell_angle_gamma 90.000000
_cell_volume 1912.634238
_symmetry_space_group_name_H-M "C 2/M"
_symmetry_group_IT_number 12
_symmetry_cell_setting 'monoclinic'
loop_
_space_group_symop_operation_xyz
x,y,z
-x,y,-z
-x,-y,-z
x,-y,z
1/2+x,1/2+y,z
1/2-x,1/2+y,-z
1/2-x,1/2-y,-z
1/2+x,1/2-y,z
loop_
_atom_site_type_symbol
_atom_site_label
_atom_site_fract_x
_atom_site_fract_y
_atom_site_fract_z
Si Si1 0.537997 0.200353 0.088839
Si Si2 0.202329 0.653860 0.224593
Si Si3 0.533912 0.251477 0.595271
Si Si4 0.059860 0.602049 0.152983
Si Si5 0.483312 0.445975 0.391940
O O1 0.342643 0.234870 0.325089
O O2 0.475442 0.149505 0.177078
O O3 0.500000 0.205436 0.000000
O O4 0.845907 0.212609 0.822786
O O5 0.185934 0.616629 0.149219
O O6 0.000000 0.641752 0.500000
O O7 0.085812 0.701113 0.284294
O O8 0.500000 0.660460 0.000000
O O9 0.500000 0.257914 0.500000
O O10 0.797633 0.571691 0.397229
O O11 0.277631 0.577975 0.884601
O O12 0.500000 0.435179 0.500000
O O13 0.504367 0.500000 0.361849
#
# Coordination Sequence:
#
# PCOD9181957 Si02
#       5
#     8   8   8   8   8
#     4  10  19  32  54  86 122 154 196 252 303 357
#     4  11  23  41  61  85 124 173 221 258 292 343
#     4   9  18  33  53  79 119 165 202 245 297 345
#     4  12  24  39  66  95 122 162 209 256 306 368
#     4  11  24  44  69  97 128 155 186 242 322 402
#
# _framework density 20.913564000000001
#
# number of rings (size 3 to 8) (size 9 to 14) (size 15 to 20)
#    0.000    1.400    0.000    7.800    0.000    4.800 
#    0.000    0.000    0.000   15.600    0.000    0.000 
#    0.000    0.000    0.000    0.000    0.000    0.000 
#
# Total GULP energy -111859.087411 kJ/mol
# GULP energy per Si atom -5592.954371 kJ/mol
# Density = 2.086596 g / cm^3
# Si number density = 20.913564 Si / 1000 Ang^3
#
#
#
# Elastic Constant Matrix: (Units=GPa)
#
#
# Indices 1 2 3 4 5 6 
#
# 1 74.8739 34.8437 40.5216 0.0000 -16.1982 0.0000
# 2 34.8437 86.3003 46.3743 0.0001 3.8330 -0.0002
# 3 40.5216 46.3743 132.5568 0.0005 -8.8298 -0.0006
# 4 0.0000 0.0001 0.0005 16.7842 -0.0001 27.1236
# 5 -16.1982 3.8330 -8.8298 -0.0001 42.6800 0.0001
# 6 0.0000 -0.0002 -0.0006 27.1236 0.0001 7.1517
#
#
#
# Elastic Compliance Matrix: (Units=1/GPa)
#
#
# Indices 1 2 3 4 5 6 
#
# 1 0.019779 -0.006567 -0.003255 0.000000 0.007423 0.000000
# 2 -0.006567 0.016686 -0.004153 0.000000 -0.004850 0.000000
# 3 -0.003255 -0.004153 0.010073 0.000000 0.001222 0.000000
# 4 0.000000 0.000000 0.000000 -0.011616 0.000000 0.044057
# 5 0.007423 -0.004850 0.001222 0.000000 0.026936 0.000000
# 6 0.000000 0.000000 0.000000 0.044057 0.000000 -0.027262
#
#
# Mechanical properties :
#
#
# Convention : Reuss Voigt Hill
#
# Bulk Modulus (GPa) = 53.79412 59.69003 56.74207
# Shear Modulus (GPa) = 72.73828 24.78927 48.76378
#
# Velocity S-wave (km/s) = 5.90389 3.44658 4.83399
# Velocity P-wave (km/s) = 8.50015 6.66647 7.63853
#
# Compressibility (1/GPa) = 0.01858939
#
# Stress axis : x y z
#
# Youngs Moduli (GPa) = 50.55909 59.93111 99.27373
#
# Poissons Ratio (x) = 0.39354 0.32309
# Poissons Ratio (y) = 0.33200 0.41230
# Poissons Ratio (z) = 0.16455 0.24890
#
# Static dielectric constant tensor:
#      x y z
#    x 1.908820 0.000000 0.008310 
#    y 0.000000 1.699760 0.000000 
#    z 0.008310 0.000000 1.728250 
# 
# From -- ./inp_files/219022.got.cif
#   From: 2010.05.17/outbox.cif.g08.bks.cpg/sg12_110_cif.got.tgz:219022.got - 2010.06.03 13:09:07.
