data_PCOD9181814
_publ_section_title
;
Structure prediction by ZEFSAII (Michael W. Deem and Ramdas Pophale) SiO2 
 PCOD9181814
Probable space group: C 2/M
;
_chemical_formula_sum "Si O2"
_cell_formula_units_Z 64
_cell_length_a 14.443855
_cell_length_b 9.688469
_cell_length_c 21.516884
_cell_angle_alpha 90.000000
_cell_angle_beta 82.048055
_cell_angle_gamma 90.000000
_cell_volume 2982.094929
_symmetry_space_group_name_H-M "C 2/M"
_symmetry_group_IT_number 12
_symmetry_cell_setting 'monoclinic'
loop_
_space_group_symop_operation_xyz
x,y,z
-x,y,-z
-x,-y,-z
x,-y,z
1/2+x,1/2+y,z
1/2-x,1/2+y,-z
1/2-x,1/2-y,-z
1/2+x,1/2-y,z
loop_
_atom_site_type_symbol
_atom_site_label
_atom_site_fract_x
_atom_site_fract_y
_atom_site_fract_z
Si Si1 0.346439 0.161549 0.415976
Si Si2 0.448259 0.339780 0.838366
Si Si3 0.683517 0.338904 0.261922
Si Si4 0.008942 0.839013 0.360068
Si Si5 0.861390 0.842778 0.536459
Si Si6 0.669292 0.344266 0.931243
Si Si7 0.647742 0.660460 0.785102
Si Si8 0.386056 0.841475 0.955211
O O1 0.415922 0.248783 0.366514
O O2 0.235030 0.173064 0.415293
O O3 0.359630 0.228909 0.483183
O O4 0.370703 0.000000 0.412822
O O5 0.458587 0.500000 0.856428
O O6 0.356415 0.329217 0.804640
O O7 0.538425 0.306918 0.787689
O O8 0.441900 0.243402 0.898358
O O9 0.699252 0.500000 0.275341
O O10 0.596675 0.289205 0.311323
O O11 0.778113 0.254201 0.256585
O O12 0.050752 0.834262 0.426195
O O13 0.990824 0.000000 0.345974
O O14 0.858016 0.000000 0.510238
O O15 0.635740 0.500000 0.948353
O O16 0.661863 0.322622 0.858366
O O17 0.778118 0.338821 0.941180
O O18 0.615642 0.234158 0.978408
O O19 0.663784 0.500000 0.768479
O O20 0.415416 0.000000 0.956337
#
# Coordination Sequence:
#
# PCOD9181814 Si02
#       8
#     8   8   8   8   8   8   8   8
#     4  10  20  34  55  85 114 141 180 225 265 310
#     4  10  21  37  57  79 107 141 176 219 273 322
#     4  10  22  39  57  79 107 141 183 228 266 310
#     4  10  21  37  56  78 109 148 184 217 266 324
#     4   9  19  36  56  79 113 151 179 213 267 323
#     4   9  18  33  53  77 106 139 173 213 267 325
#     4  10  21  38  58  79 105 141 180 219 269 326
#     4  10  19  32  54  81 107 137 175 217 264 321
#
# _framework density 21.461423
#
# number of rings (size 3 to 8) (size 9 to 14) (size 15 to 20)
#    0.000    2.250    1.250    1.125    0.000    6.000 
#    0.000    2.500    0.000    0.000    0.000    0.000 
#    0.000    0.000    0.000    0.000    0.000    0.000 
#
# Total GULP energy -178871.216221 kJ/mol
# GULP energy per Si atom -5589.725507 kJ/mol
# Density = 2.141258 g / cm^3
# Si number density = 21.461423 Si / 1000 Ang^3
#
#
#
# Elastic Constant Matrix: (Units=GPa)
#
#
# Indices 1 2 3 4 5 6 
#
# 1 97.6875 49.4927 17.5709 0.0000 -18.1833 0.0000
# 2 49.4927 102.8859 45.0534 0.0000 -36.1146 0.0000
# 3 17.5709 45.0534 64.6862 0.0000 -22.9287 0.0000
# 4 0.0000 0.0000 0.0000 32.6677 0.0000 -17.1939
# 5 -18.1833 -36.1146 -22.9287 0.0000 45.9884 0.0000
# 6 0.0000 0.0000 0.0000 -17.1939 0.0000 25.9856
#
#
#
# Elastic Compliance Matrix: (Units=1/GPa)
#
#
# Indices 1 2 3 4 5 6 
#
# 1 0.013617 -0.006920 0.001340 0.000000 0.000618 0.000000
# 2 -0.006920 0.019968 -0.009036 0.000000 0.008439 0.000000
# 3 0.001340 -0.009036 0.023153 0.000000 0.004977 0.000000
# 4 0.000000 0.000000 0.000000 0.046968 0.000000 0.031077
# 5 0.000618 0.008439 0.004977 0.000000 0.031098 0.000000
# 6 0.000000 0.000000 0.000000 0.031077 0.000000 0.059046
#
#
# Mechanical properties :
#
#
# Convention : Reuss Voigt Hill
#
# Bulk Modulus (GPa) = 36.35739 54.38815 45.37277
# Shear Modulus (GPa) = 21.52853 31.13786 26.33320
#
# Velocity S-wave (km/s) = 3.17065 3.81317 3.50666
# Velocity P-wave (km/s) = 5.51195 6.69211 6.13050
#
# Compressibility (1/GPa) = 0.02750473
#
# Stress axis : x y z
#
# Youngs Moduli (GPa) = 73.43885 50.08102 43.19068
#
# Poissons Ratio (x) = 0.34658 -0.05788
# Poissons Ratio (y) = 0.50822 0.39028
# Poissons Ratio (z) = -0.09841 0.45254
#
# Static dielectric constant tensor:
#      x y z
#    x 1.801240 0.000000 0.009870 
#    y 0.000000 1.719110 0.000000 
#    z 0.009870 0.000000 1.796820 
# 
# From -- ./inp_files/359725.got.cif
#   From: 2010.05.17/outbox.cif.g08.bks.cpg/sg12_180_cif.got.tgz:359725.got - 2010.06.03 13:09:07.
