data_PCOD9181114
_publ_section_title
;
Structure prediction by ZEFSAII (Michael W. Deem and Ramdas Pophale) SiO2 
 PCOD9181114
Probable space group: C 2/M
;
_chemical_formula_sum "Si O2"
_cell_formula_units_Z 56
_cell_length_a 16.262730
_cell_length_b 7.666776
_cell_length_c 27.239087
_cell_angle_alpha 90.000000
_cell_angle_beta 38.410688
_cell_angle_gamma 90.000000
_cell_volume 2110.065346
_symmetry_space_group_name_H-M "C 2/M"
_symmetry_group_IT_number 12
_symmetry_cell_setting 'monoclinic'
loop_
_space_group_symop_operation_xyz
x,y,z
-x,y,-z
-x,-y,-z
x,-y,z
1/2+x,1/2+y,z
1/2-x,1/2+y,-z
1/2-x,1/2-y,-z
1/2+x,1/2-y,z
loop_
_atom_site_type_symbol
_atom_site_label
_atom_site_fract_x
_atom_site_fract_y
_atom_site_fract_z
Si Si1 0.819893 0.700070 0.694145
Si Si2 0.529358 0.794363 0.736237
Si Si3 0.131472 0.203515 0.984029
Si Si4 0.240725 0.785228 0.833861
Si Si5 0.397436 0.302754 0.446653
Si Si6 0.810755 0.701212 0.590385
Si Si7 0.424306 0.289523 0.885854
O O1 0.773618 0.500000 0.710057
O O2 0.740947 0.773522 0.777448
O O3 0.816603 0.783881 0.641855
O O4 0.977566 0.696912 0.632057
O O5 0.386952 0.733185 0.784096
O O6 0.654193 0.707461 0.652510
O O7 0.528013 0.759226 0.795428
O O8 0.538318 0.000000 0.723656
O O9 0.140453 0.272907 0.923942
O O10 0.284226 0.215036 0.931739
O O11 0.095551 0.000000 0.997136
O O12 0.055415 0.273568 0.067617
O O13 0.235013 0.000000 0.836156
O O14 0.421507 0.500000 0.421025
O O15 0.250000 0.250000 0.500000
O O16 0.390522 0.285575 0.509058
O O17 0.852521 0.500000 0.573584
O O18 0.414372 0.500000 0.891888
#
# Coordination Sequence:
#
# PCOD9181114 Si02
#       7
#     8   8   8   8   8   8   8
#     4  10  21  38  59  82 111 144 178 221 271 323
#     4  10  19  32  52  76 105 142 183 225 270 324
#     4   8  14  25  43  69 101 136 174 218 269 324
#     4   8  15  30  52  76 101 134 176 219 266 317
#     4  12  25  41  62  85 111 142 178 220 265 316
#     4  11  23  38  57  82 111 142 179 222 270 324
#     4   9  15  24  42  70 103 135 172 222 274 320
#
# _framework density 26.539462
#
# number of rings (size 3 to 8) (size 9 to 14) (size 15 to 20)
#    0.000    2.286    0.000    4.714    0.000    4.571 
#    0.000    2.857    0.000    0.857    0.000    6.000 
#    0.000    0.000    0.000    0.000    0.000    0.000 
#
# Total GULP energy -156640.229159 kJ/mol
# GULP energy per Si atom -5594.293899 kJ/mol
# Density = 2.647906 g / cm^3
# Si number density = 26.539462 Si / 1000 Ang^3
#
#
#
# Elastic Constant Matrix: (Units=GPa)
#
#
# Indices 1 2 3 4 5 6 
#
# 1 106.1939 2.8178 47.3432 -0.0001 26.7963 -0.0002
# 2 2.8178 75.3085 -1.5459 -0.0004 -0.3859 -0.0008
# 3 47.3432 -1.5459 208.6079 0.0000 17.4943 -0.0002
# 4 -0.0001 -0.0004 0.0000 23.6244 0.0000 5.8689
# 5 26.7963 -0.3859 17.4943 0.0000 64.4182 -0.0001
# 6 -0.0002 -0.0008 -0.0002 5.8689 -0.0001 3.5358
#
#
#
# Elastic Compliance Matrix: (Units=1/GPa)
#
#
# Indices 1 2 3 4 5 6 
#
# 1 0.011490 -0.000498 -0.002262 0.000000 -0.004168 0.000000
# 2 -0.000498 0.013302 0.000192 -0.000001 0.000235 0.000005
# 3 -0.002262 0.000192 0.005351 0.000000 -0.000511 0.000000
# 4 0.000000 -0.000001 0.000000 0.072031 0.000000 -0.119561
# 5 -0.004168 0.000235 -0.000511 0.000000 0.017398 0.000000
# 6 0.000000 0.000005 0.000000 -0.119561 0.000000 0.481274
#
#
# Mechanical properties :
#
#
# Convention : Reuss Voigt Hill
#
# Bulk Modulus (GPa) = 39.98625 54.14895 47.06760
# Shear Modulus (GPa) = 8.13911 41.08203 24.61057
#
# Velocity S-wave (km/s) = 1.75313 3.93868 3.04850
# Velocity P-wave (km/s) = 4.38148 6.41340 5.49223
#
# Compressibility (1/GPa) = 0.02500860
#
# Stress axis : x y z
#
# Youngs Moduli (GPa) = 87.03150 75.17394 186.87093
#
# Poissons Ratio (x) = 0.03741 0.42266
# Poissons Ratio (y) = 0.04332 -0.03585
# Poissons Ratio (z) = 0.19685 -0.01442
#
# Static dielectric constant tensor:
#      x y z
#    x 2.214370 0.000000 0.011310 
#    y 0.000000 1.965310 0.000000 
#    z 0.011310 0.000000 2.051540 
# 
# From -- ./inp_files/362991.got.cif
#   From: 2010.05.17/outbox.cif.g08.bks.cpg/sg12_182_cif.got.tgz:362991.got - 2010.06.03 13:09:07.
