data_PCOD9181401
_publ_section_title
;
Structure prediction by ZEFSAII (Michael W. Deem and Ramdas Pophale) SiO2 
 PCOD9181401
Probable space group: C 2/M
;
_chemical_formula_sum "Si O2"
_cell_formula_units_Z 64
_cell_length_a 17.454369
_cell_length_b 7.370481
_cell_length_c 32.979820
_cell_angle_alpha 90.000000
_cell_angle_beta 141.446158
_cell_angle_gamma 90.000000
_cell_volume 2644.298075
_symmetry_space_group_name_H-M "C 2/M"
_symmetry_group_IT_number 12
_symmetry_cell_setting 'monoclinic'
loop_
_space_group_symop_operation_xyz
x,y,z
-x,y,-z
-x,-y,-z
x,-y,z
1/2+x,1/2+y,z
1/2-x,1/2+y,-z
1/2-x,1/2-y,-z
1/2+x,1/2-y,z
loop_
_atom_site_type_symbol
_atom_site_label
_atom_site_fract_x
_atom_site_fract_y
_atom_site_fract_z
Si Si1 0.142560 0.719588 0.652918
Si Si2 0.502187 0.278522 0.280530
Si Si3 0.243697 0.208334 0.779015
Si Si4 0.889185 0.214379 0.151911
Si Si5 0.224195 0.278500 0.596872
Si Si6 0.624362 0.216189 0.471840
Si Si7 0.485485 0.781872 0.101913
Si Si8 0.620494 0.221577 0.025168
O O1 0.149494 0.500000 0.657632
O O2 0.229001 0.787789 0.724488
O O3 0.181350 0.775500 0.623834
O O4 0.001403 0.782148 0.600578
O O5 0.506368 0.500000 0.284431
O O6 0.382555 0.214006 0.255440
O O7 0.478886 0.220206 0.224428
O O8 0.634839 0.219385 0.351059
O O9 0.375002 0.287791 0.845466
O O10 0.246161 0.000000 0.794430
O O11 0.749944 0.286148 0.096464
O O12 0.937744 0.238937 0.126739
O O13 0.880503 0.000000 0.155522
O O14 0.220670 0.500000 0.595118
O O15 0.142039 0.216879 0.525188
O O16 0.750000 0.250000 0.500000
O O17 0.609456 0.000000 0.468236
O O18 0.491020 0.000000 0.101622
O O19 0.398600 0.720885 0.029351
O O20 0.623367 0.000000 0.027284
O O21 0.500000 0.276991 0.000000
#
# Coordination Sequence:
#
# PCOD9181401 Si02
#       8
#     8   8   8   8   8   8   8   8
#     4  10  20  34  53  77 102 129 166 209 250 294
#     4   9  17  30  50  74  97 127 169 207 239 288
#     4  10  20  34  52  74 101 133 167 204 250 299
#     4  10  19  32  53  77 100 131 170 208 246 293
#     4   9  17  31  51  73  99 130 163 202 246 292
#     4  10  20  34  53  76 102 133 167 204 247 295
#     4  10  20  33  50  74 104 134 164 204 252 298
#     4   9  17  31  52  76 101 131 169 210 248 291
#
# _framework density 24.203021
#
# number of rings (size 3 to 8) (size 9 to 14) (size 15 to 20)
#    0.000    2.375    0.000    3.000    0.000    7.500 
#    0.000    1.250    0.000    9.000    0.000    0.000 
#    0.000    0.000    0.000    0.000    0.000    0.000 
#
# Total GULP energy -178939.952678 kJ/mol
# GULP energy per Si atom -5591.873521 kJ/mol
# Density = 2.414793 g / cm^3
# Si number density = 24.203021 Si / 1000 Ang^3
#
#
#
# Elastic Constant Matrix: (Units=GPa)
#
#
# Indices 1 2 3 4 5 6 
#
# 1 51.9962 -10.5292 -29.6163 -0.0002 1.6955 -0.0003
# 2 -10.5292 86.4001 0.1367 -0.0005 4.2052 -0.0007
# 3 -29.6163 0.1367 75.6080 -0.0001 5.1408 -0.0001
# 4 -0.0002 -0.0005 -0.0001 4.1688 0.0001 -4.6057
# 5 1.6955 4.2052 5.1408 0.0001 46.0022 0.0001
# 6 -0.0003 -0.0007 -0.0001 -4.6057 0.0001 12.6350
#
#
#
# Elastic Compliance Matrix: (Units=1/GPa)
#
#
# Indices 1 2 3 4 5 6 
#
# 1 0.025817 0.003247 0.010270 0.000005 -0.002396 0.000003
# 2 0.003247 0.012034 0.001343 0.000004 -0.001370 0.000002
# 3 0.010270 0.001343 0.017413 0.000003 -0.002447 0.000001
# 4 0.000005 0.000004 0.000003 0.401624 -0.000002 0.146400
# 5 -0.002396 -0.001370 -0.002447 -0.000002 0.022225 -0.000001
# 6 0.000003 0.000002 0.000001 0.146400 -0.000001 0.132511
#
#
# Mechanical properties :
#
#
# Convention : Reuss Voigt Hill
#
# Bulk Modulus (GPa) = 11.76696 14.88742 13.32719
# Shear Modulus (GPa) = 8.19358 29.49541 18.84449
#
# Velocity S-wave (km/s) = 1.84193 3.49473 2.79337
# Velocity P-wave (km/s) = 3.06528 4.73799 3.99027
#
# Compressibility (1/GPa) = 0.08498374
#
# Stress axis : x y z
#
# Youngs Moduli (GPa) = 38.73366 83.09614 57.42873
#
# Poissons Ratio (x) = -0.26978 -0.58979
# Poissons Ratio (y) = -0.12575 -0.07713
# Poissons Ratio (z) = -0.39779 -0.11161
#
# Static dielectric constant tensor:
#      x y z
#    x 1.907360 0.000000 0.012360 
#    y 0.000000 1.973570 0.000000 
#    z 0.012360 0.000000 1.898220 
# 
# From -- ./inp_files/361058.got.cif
#   From: 2010.05.17/outbox.cif.g08.bks.cpg/sg12_181_cif.got.tgz:361058.got - 2010.06.03 13:09:07.
