data_PCOD9181891
_publ_section_title
;
Structure prediction by ZEFSAII (Michael W. Deem and Ramdas Pophale) SiO2 
 PCOD9181891
Probable space group: C 2/M
;
_chemical_formula_sum "Si O2"
_cell_formula_units_Z 64
_cell_length_a 9.277280
_cell_length_b 15.371392
_cell_length_c 31.022155
_cell_angle_alpha 90.000000
_cell_angle_beta 47.182787
_cell_angle_gamma 90.000000
_cell_volume 3245.048313
_symmetry_space_group_name_H-M "C 2/M"
_symmetry_group_IT_number 12
_symmetry_cell_setting 'monoclinic'
loop_
_space_group_symop_operation_xyz
x,y,z
-x,y,-z
-x,-y,-z
x,-y,z
1/2+x,1/2+y,z
1/2-x,1/2+y,-z
1/2-x,1/2-y,-z
1/2+x,1/2-y,z
loop_
_atom_site_type_symbol
_atom_site_label
_atom_site_fract_x
_atom_site_fract_y
_atom_site_fract_z
Si Si1 0.380992 0.653002 0.747764
Si Si2 0.958562 0.844097 0.871742
Si Si3 0.659506 0.901318 0.627530
Si Si4 0.022934 0.904664 0.364081
Si Si5 0.177355 0.655364 0.998409
Si Si6 0.277438 0.760166 0.544694
Si Si7 0.395566 0.843646 0.124563
Si Si8 0.261689 0.658262 0.257105
O O1 0.428116 0.598532 0.696128
O O2 0.207529 0.614475 0.813026
O O3 0.572339 0.663952 0.739398
O O4 0.309922 0.746430 0.743806
O O5 0.855834 0.886658 0.934767
O O6 0.781435 0.831323 0.873634
O O7 0.032823 0.750638 0.873549
O O8 0.133272 0.882944 0.806861
O O9 0.737652 0.829629 0.578203
O O10 0.430606 0.888017 0.685284
O O11 0.784090 0.889439 0.646117
O O12 0.691468 0.000000 0.605533
O O13 0.869151 0.830006 0.405706
O O14 0.945101 0.000000 0.391653
O O15 0.250000 0.750000 0.000000
O O16 0.000000 0.666161 0.000000
O O17 0.074250 0.613674 0.061460
O O18 0.500000 0.790576 0.500000
O O19 0.250000 0.750000 0.500000
#
# Coordination Sequence:
#
# PCOD9181891 Si02
#       8
#     8   8   8   8   8   8   8   8
#     4  10  19  32  54  82 116 154 199 245 294 347
#     4   8  14  23  38  65  99 141 188 236 286 341
#     4  11  25  44  66  92 123 160 199 239 290 349
#     4  11  25  44  65  93 124 157 198 243 290 346
#     4   8  12  20  34  56  95 138 182 233 286 337
#     4  12  26  46  71  95 122 155 191 234 286 343
#     4   8  14  23  38  65  99 142 187 235 288 341
#     4  10  19  32  54  82 115 155 199 244 295 346
#
# _framework density 19.722356999999999
#
# number of rings (size 3 to 8) (size 9 to 14) (size 15 to 20)
#    0.000    2.250    2.500    0.750    1.750    2.500 
#    0.000    0.000    0.000    0.000    0.000    0.875 
#    0.000    7.000    0.000    0.000    0.000    0.500 
#
# Total GULP energy -178184.663508 kJ/mol
# GULP energy per Si atom -5568.270735 kJ/mol
# Density = 1.967747 g / cm^3
# Si number density = 19.722357 Si / 1000 Ang^3
#
#
#
# Elastic Constant Matrix: (Units=GPa)
#
#
# Indices 1 2 3 4 5 6 
#
# 1 68.5369 21.5889 39.3717 0.0007 6.7183 0.0006
# 2 21.5889 68.5622 36.7151 0.0001 3.3002 0.0000
# 3 39.3717 36.7151 146.6463 -0.0018 10.3991 0.0009
# 4 0.0007 0.0001 -0.0018 -21.3736 -0.0004 -2.2833
# 5 6.7183 3.3002 10.3991 -0.0004 31.7350 -0.0005
# 6 0.0006 0.0000 0.0009 -2.2833 -0.0005 6.2632
#
#
#
# Elastic Compliance Matrix: (Units=1/GPa)
#
#
# Indices 1 2 3 4 5 6 
#
# 1 0.018121 -0.003555 -0.003818 0.000001 -0.002215 -0.000001
# 2 -0.003555 0.017545 -0.003442 0.000000 0.000056 0.000001
# 3 -0.003818 -0.003442 0.008828 -0.000001 -0.001727 -0.000001
# 4 0.000001 0.000000 -0.000001 -0.045033 -0.000001 -0.016417
# 5 -0.002215 0.000056 -0.001727 -0.000001 0.032540 0.000003
# 6 -0.000001 0.000001 -0.000001 -0.016417 0.000003 0.153677
#
#
# Mechanical properties :
#
#
# Convention : Reuss Voigt Hill
#
# Bulk Modulus (GPa) = 43.73588 53.23298 48.48443
# Shear Modulus (GPa) = 23.26336 15.72956 19.49646
#
# Velocity S-wave (km/s) = 3.43817 2.82716 3.14753
# Velocity P-wave (km/s) = 6.16322 6.14059 6.15192
#
# Compressibility (1/GPa) = 0.02286452
#
# Stress axis : x y z
#
# Youngs Moduli (GPa) = 55.18493 56.99537 113.26982
#
# Poissons Ratio (x) = 0.20260 0.43247
# Poissons Ratio (y) = 0.19617 0.38991
# Poissons Ratio (z) = 0.21070 0.19620
#
# Static dielectric constant tensor:
#      x y z
#    x 1.645070 0.000000 0.008020 
#    y 0.000000 1.689400 0.000000 
#    z 0.008020 0.000000 1.727440 
# 
# From -- ./inp_files/372549.got.cif
#   From: 2010.05.17/outbox.cif.g08.bks.cpg/sg12_187_cif.got.tgz:372549.got - 2010.06.03 13:09:07.
