data_PCOD9181337
_publ_section_title
;
Structure prediction by ZEFSAII (Michael W. Deem and Ramdas Pophale) SiO2 
 PCOD9181337
Probable space group: C 2/M
;
_chemical_formula_sum "Si O2"
_cell_formula_units_Z 56
_cell_length_a 9.268162
_cell_length_b 19.953716
_cell_length_c 21.282359
_cell_angle_alpha 90.000000
_cell_angle_beta 125.539632
_cell_angle_gamma 90.000000
_cell_volume 3202.644745
_symmetry_space_group_name_H-M "C 2/M"
_symmetry_group_IT_number 12
_symmetry_cell_setting 'monoclinic'
loop_
_space_group_symop_operation_xyz
x,y,z
-x,y,-z
-x,-y,-z
x,-y,z
1/2+x,1/2+y,z
1/2-x,1/2+y,-z
1/2-x,1/2-y,-z
1/2+x,1/2-y,z
loop_
_atom_site_type_symbol
_atom_site_label
_atom_site_fract_x
_atom_site_fract_y
_atom_site_fract_z
Si Si1 0.852462 0.338125 0.203242
Si Si2 0.789871 0.078562 0.943347
Si Si3 0.805070 0.423002 0.483673
Si Si4 0.444234 0.172928 0.620402
Si Si5 0.692480 0.312726 0.363423
Si Si6 0.305835 0.182486 0.977900
Si Si7 0.493929 0.706754 0.811328
O O1 0.787101 0.397841 0.142918
O O2 0.975764 0.354830 0.293934
O O3 0.677493 0.302803 0.188177
O O4 0.954774 0.284070 0.186542
O O5 0.765992 0.000000 0.946391
O O6 0.700279 0.121632 0.975179
O O7 0.000000 0.094124 0.000000
O O8 0.745812 0.500000 0.475898
O O9 0.688222 0.375908 0.408772
O O10 0.000000 0.425504 0.500000
O O11 0.830138 0.382120 0.554702
O O12 0.346848 0.242729 0.611555
O O13 0.612568 0.189751 0.618543
O O14 0.557096 0.319443 0.270874
O O15 0.160790 0.172273 0.886532
O O16 0.500000 0.192141 0.000000
O O17 0.250000 0.250000 0.000000
#
# Coordination Sequence:
#
# PCOD9181337 Si02
#       7
#     8   8   8   8   8   8   8
#     4  10  19  33  53  80 106 134 175 221 267 310
#     4  11  23  38  53  75 110 144 178 220 268 319
#     4   9  17  31  51  76 105 137 172 209 255 309
#     4   9  18  31  53  79 105 133 171 216 259 306
#     4   9  18  32  51  78 105 133 170 217 260 303
#     4  12  22  35  59  82 106 139 181 225 265 312
#     4  10  19  32  52  82 103 131 177 219 264 308
#
# _framework density 17.485548000000001
#
# number of rings (size 3 to 8) (size 9 to 14) (size 15 to 20)
#    0.000    2.000    2.857    1.714    0.000    0.857 
#    0.000    2.857    0.000    1.714    0.000    0.000 
#    0.000    0.000    0.000    0.000    0.000    0.000 
#
# Total GULP energy -156203.961420 kJ/mol
# GULP energy per Si atom -5578.712908 kJ/mol
# Density = 1.744575 g / cm^3
# Si number density = 17.485548 Si / 1000 Ang^3
#
#
#
# Elastic Constant Matrix: (Units=GPa)
#
#
# Indices 1 2 3 4 5 6 
#
# 1 60.1058 39.1647 20.4041 0.0000 -8.4228 0.0000
# 2 39.1647 106.3600 69.0451 0.0000 -9.5394 0.0000
# 3 20.4041 69.0451 103.9601 0.0000 -7.9742 0.0000
# 4 0.0000 0.0000 0.0000 19.7250 0.0000 3.1584
# 5 -8.4228 -9.5394 -7.9742 0.0000 19.2915 0.0000
# 6 0.0000 0.0000 0.0000 3.1584 0.0000 17.7255
#
#
#
# Elastic Compliance Matrix: (Units=1/GPa)
#
#
# Indices 1 2 3 4 5 6 
#
# 1 0.022797 -0.009211 0.002124 0.000000 0.006277 0.000000
# 2 -0.009211 0.020517 -0.011720 0.000000 0.001279 0.000000
# 3 0.002124 -0.011720 0.017157 0.000000 0.002224 0.000000
# 4 0.000000 0.000000 0.000000 0.052186 0.000000 -0.009299
# 5 0.006277 0.001279 0.002224 0.000000 0.056129 0.000000
# 6 0.000000 0.000000 0.000000 -0.009299 0.000000 0.058073
#
#
# Mechanical properties :
#
#
# Convention : Reuss Voigt Hill
#
# Bulk Modulus (GPa) = 43.74912 58.62819 51.18865
# Shear Modulus (GPa) = 18.37618 20.80253 19.58935
#
# Velocity S-wave (km/s) = 3.24533 3.45294 3.35074
# Velocity P-wave (km/s) = 6.25439 7.03558 6.65645
#
# Compressibility (1/GPa) = 0.02285760
#
# Stress axis : x y z
#
# Youngs Moduli (GPa) = 43.86459 48.74040 58.28592
#
# Poissons Ratio (x) = 0.44893 -0.12382
# Poissons Ratio (y) = 0.40402 0.68313
# Poissons Ratio (z) = -0.09318 0.57126
#
# Static dielectric constant tensor:
#      x y z
#    x 1.587490 0.000000 -0.002650 
#    y 0.000000 1.561580 0.000000 
#    z -0.002650 0.000000 1.631180 
# 
# From -- ./inp_files/300877.got.cif
#   From: 2010.05.17/outbox.cif.g08.bks.cpg/sg12_151_cif.got.tgz:300877.got - 2010.06.03 13:09:07.
