data_PCOD9181068
_publ_section_title
;
Structure prediction by ZEFSAII (Michael W. Deem and Ramdas Pophale) SiO2 
 PCOD9181068
Probable space group: C 2/M
;
_chemical_formula_sum "Si O2"
_cell_formula_units_Z 56
_cell_length_a 19.026166
_cell_length_b 8.891297
_cell_length_c 26.238548
_cell_angle_alpha 90.000000
_cell_angle_beta 134.832270
_cell_angle_gamma 90.000000
_cell_volume 3147.812503
_symmetry_space_group_name_H-M "C 2/M"
_symmetry_group_IT_number 12
_symmetry_cell_setting 'monoclinic'
loop_
_space_group_symop_operation_xyz
x,y,z
-x,y,-z
-x,-y,-z
x,-y,z
1/2+x,1/2+y,z
1/2-x,1/2+y,-z
1/2-x,1/2-y,-z
1/2+x,1/2-y,z
loop_
_atom_site_type_symbol
_atom_site_label
_atom_site_fract_x
_atom_site_fract_y
_atom_site_fract_z
Si Si1 0.379284 0.182038 0.712507
Si Si2 0.158167 0.182460 0.575741
Si Si3 0.078852 0.673083 0.993487
Si Si4 0.770035 0.819211 0.857107
Si Si5 0.577903 0.679557 0.155818
Si Si6 0.005946 0.181776 0.586436
Si Si7 0.546658 0.181554 0.717139
O O1 0.271122 0.232804 0.637617
O O2 0.399877 0.247046 0.778723
O O3 0.464934 0.226572 0.716894
O O4 0.378423 0.000000 0.715217
O O5 0.095053 0.229687 0.494084
O O6 0.095242 0.225238 0.593710
O O7 0.158345 0.000000 0.574864
O O8 0.094653 0.500000 0.987347
O O9 0.177284 0.746096 0.067145
O O10 0.000000 0.677547 0.000000
O O11 0.024978 0.761648 0.920724
O O12 0.835714 0.779895 0.840791
O O13 0.657001 0.772132 0.790636
O O14 0.773997 0.000000 0.864545
O O15 0.575692 0.500000 0.158883
O O16 0.020674 0.251925 0.648943
O O17 0.005937 0.000000 0.590204
O O18 0.546398 0.000000 0.713448
#
# Coordination Sequence:
#
# PCOD9181068 Si02
#       7
#     8   8   8   8   8   8   8
#     4  10  20  34  50  69  99 135 167 200 241 291
#     4   8  16  32  53  75  97 126 165 206 246 286
#     4   9  17  30  51  78 101 123 159 203 244 289
#     4   9  18  33  51  72 100 130 160 199 247 292
#     4  10  19  32  52  75  99 127 161 203 247 289
#     4   9  17  32  54  75  96 126 166 207 244 288
#     4  10  21  34  48  71 103 134 162 198 246 293
#
# _framework density 17.790133000000001
#
# number of rings (size 3 to 8) (size 9 to 14) (size 15 to 20)
#    0.000    2.714    0.000    2.571    0.000    4.000 
#    0.000    2.857    0.000    0.000    0.000    0.000 
#    0.000    0.000    0.000    0.000    0.000    0.000 
#
# Total GULP energy -156156.641609 kJ/mol
# GULP energy per Si atom -5577.022915 kJ/mol
# Density = 1.774964 g / cm^3
# Si number density = 17.790133 Si / 1000 Ang^3
#
#
#
# Elastic Constant Matrix: (Units=GPa)
#
#
# Indices 1 2 3 4 5 6 
#
# 1 83.2847 28.4147 96.5050 0.0000 23.5861 0.0000
# 2 28.4147 17.2719 38.0881 0.0000 8.5768 0.0000
# 3 96.5050 38.0881 193.4847 0.0000 24.2309 0.0000
# 4 0.0000 0.0000 0.0000 30.2650 0.0000 -9.5195
# 5 23.5861 8.5768 24.2309 0.0000 0.1161 0.0000
# 6 0.0000 0.0000 0.0000 -9.5195 0.0000 14.3989
#
#
#
# Elastic Compliance Matrix: (Units=1/GPa)
#
#
# Indices 1 2 3 4 5 6 
#
# 1 0.024990 -0.041399 -0.009884 0.000000 0.044473 0.000000
# 2 -0.041399 0.136428 -0.008063 0.000000 0.014820 0.000000
# 3 -0.009884 -0.008063 0.012507 0.000000 -0.006557 0.000000
# 4 0.000000 0.000000 0.000000 0.041716 0.000000 0.027580
# 5 0.044473 0.014820 -0.006557 0.000000 -0.148066 0.000000
# 6 0.000000 0.000000 0.000000 0.027580 0.000000 0.087683
#
#
# Mechanical properties :
#
#
# Convention : Reuss Voigt Hill
#
# Bulk Modulus (GPa) = 18.10597 68.89521 43.50059
# Shear Modulus (GPa) = 17.10212 17.69157 17.39684
#
# Velocity S-wave (km/s) = 3.10389 3.15693 3.13052
# Velocity P-wave (km/s) = 4.80054 7.21796 6.12960
#
# Compressibility (1/GPa) = 0.05523040
#
# Stress axis : x y z
#
# Youngs Moduli (GPa) = 40.01615 7.32990 79.95683
#
# Poissons Ratio (x) = 0.30345 0.79031
# Poissons Ratio (y) = 1.65665 0.64471
# Poissons Ratio (z) = 0.39553 0.05910
#
# Static dielectric constant tensor:
#      x y z
#    x 1.587160 0.000000 0.021570 
#    y 0.000000 1.595680 0.000000 
#    z 0.021570 0.000000 1.595680 
# 
# From -- ./inp_files/342240.got.cif
#   From: 2010.05.17/outbox.cif.g08.bks.cpg/sg12_172_cif.got.tgz:342240.got - 2010.06.03 13:09:07.
