data_PCOD9181581
_publ_section_title
;
Structure prediction by ZEFSAII (Michael W. Deem and Ramdas Pophale) SiO2 
 PCOD9181581
Probable space group: C 2/M
;
_chemical_formula_sum "Si O2"
_cell_formula_units_Z 56
_cell_length_a 18.786926
_cell_length_b 8.878302
_cell_length_c 20.411567
_cell_angle_alpha 90.000000
_cell_angle_beta 103.480212
_cell_angle_gamma 90.000000
_cell_volume 3310.773598
_symmetry_space_group_name_H-M "C 2/M"
_symmetry_group_IT_number 12
_symmetry_cell_setting 'monoclinic'
loop_
_space_group_symop_operation_xyz
x,y,z
-x,y,-z
-x,-y,-z
x,-y,z
1/2+x,1/2+y,z
1/2-x,1/2+y,-z
1/2-x,1/2-y,-z
1/2+x,1/2-y,z
loop_
_atom_site_type_symbol
_atom_site_label
_atom_site_fract_x
_atom_site_fract_y
_atom_site_fract_z
Si Si1 0.193363 0.181088 0.436004
Si Si2 0.975249 0.819585 0.568700
Si Si3 0.992583 0.678391 0.924410
Si Si4 0.751970 0.819855 0.314861
Si Si5 0.114781 0.323433 0.204890
Si Si6 0.469321 0.322310 0.197248
Si Si7 0.905830 0.679107 0.309754
O O1 0.250000 0.250000 0.500000
O O2 0.109882 0.217164 0.438125
O O3 0.213475 0.251907 0.370509
O O4 0.200644 0.000000 0.435717
O O5 0.000000 0.783359 0.500000
O O6 0.027643 0.736603 0.630924
O O7 0.984023 0.000000 0.579676
O O8 0.009950 0.500000 0.927295
O O9 0.040254 0.762193 0.879218
O O10 0.910761 0.695156 0.876036
O O11 0.000000 0.733473 0.000000
O O12 0.696663 0.787529 0.242743
O O13 0.830609 0.747132 0.320949
O O14 0.759664 0.000000 0.323291
O O15 0.102080 0.500000 0.218629
O O16 0.054137 0.224661 0.229644
O O17 0.460259 0.500000 0.199195
O O18 0.419861 0.240133 0.239641
O O19 0.903034 0.500000 0.309419
#
# Coordination Sequence:
#
# PCOD9181581 Si02
#       7
#     8   8   8   8   8   8   8
#     4  11  23  38  58  83 111 143 183 225 274 329
#     4  10  22  40  60  82 110 143 181 225 276 328
#     4   8  15  31  55  83 114 145 181 224 272 325
#     4  11  22  37  56  77 109 145 184 230 276 328
#     4   8  17  33  53  80 108 141 179 217 270 322
#     4  10  19  32  53  80 111 142 180 223 268 321
#     4  12  24  37  55  79 109 143 186 230 277 331
#
# _framework density 16.914476000000001
#
# number of rings (size 3 to 8) (size 9 to 14) (size 15 to 20)
#    0.857    1.143    0.000    4.714    0.000    6.286 
#    0.000    0.000    0.000    0.857    0.000    0.000 
#    0.000    0.000    0.000    0.000    0.000    0.000 
#
# Total GULP energy -156048.626469 kJ/mol
# GULP energy per Si atom -5573.165231 kJ/mol
# Density = 1.687598 g / cm^3
# Si number density = 16.914476 Si / 1000 Ang^3
#
#
#
# Elastic Constant Matrix: (Units=GPa)
#
#
# Indices 1 2 3 4 5 6 
#
# 1 125.1585 61.7880 67.0116 0.0000 -7.6339 0.0000
# 2 61.7880 80.8585 58.6976 0.0000 -3.5266 0.0000
# 3 67.0116 58.6976 126.6068 0.0000 -6.4917 0.0000
# 4 0.0000 0.0000 0.0000 22.7378 0.0000 7.0061
# 5 -7.6339 -3.5266 -6.4917 0.0000 22.9461 0.0000
# 6 0.0000 0.0000 0.0000 7.0061 0.0000 -15.7653
#
#
#
# Elastic Compliance Matrix: (Units=1/GPa)
#
#
# Indices 1 2 3 4 5 6 
#
# 1 0.014001 -0.007994 -0.003580 0.000000 0.002416 0.000000
# 2 -0.007994 0.023210 -0.006578 0.000000 -0.000954 0.000000
# 3 -0.003580 -0.006578 0.012918 0.000000 0.001452 0.000000
# 4 0.000000 0.000000 0.000000 0.038683 0.000000 0.017191
# 5 0.002416 -0.000954 0.001452 0.000000 0.044649 0.000000
# 6 0.000000 0.000000 0.000000 0.017191 0.000000 -0.055791
#
#
# Mechanical properties :
#
#
# Convention : Reuss Voigt Hill
#
# Bulk Modulus (GPa) = 72.34370 78.62425 75.48397
# Shear Modulus (GPa) = 42.16503 15.65883 28.91193
#
# Velocity S-wave (km/s) = 4.99825 3.04594 4.13885
# Velocity P-wave (km/s) = 8.72772 7.67819 8.21973
#
# Compressibility (1/GPa) = 0.01382290
#
# Stress axis : x y z
#
# Youngs Moduli (GPa) = 71.42466 43.08525 77.41318
#
# Poissons Ratio (x) = 0.34444 0.27716
# Poissons Ratio (y) = 0.57099 0.50924
# Poissons Ratio (z) = 0.25572 0.28342
#
# Static dielectric constant tensor:
#      x y z
#    x 1.553340 0.000000 0.009140 
#    y 0.000000 1.563540 0.000000 
#    z 0.009140 0.000000 1.584580 
# 
# From -- ./inp_files/313329.got.cif
#   From: 2010.05.17/outbox.cif.g08.bks.cpg/sg12_157_cif.got.tgz:313329.got - 2010.06.03 13:09:07.
