data_PCOD9181364
_publ_section_title
;
Structure prediction by ZEFSAII (Michael W. Deem and Ramdas Pophale) SiO2 
 PCOD9181364
Probable space group: C 2/M
;
_chemical_formula_sum "Si O2"
_cell_formula_units_Z 56
_cell_length_a 10.776076
_cell_length_b 22.212674
_cell_length_c 20.189933
_cell_angle_alpha 90.000000
_cell_angle_beta 144.303734
_cell_angle_gamma 90.000000
_cell_volume 2819.866239
_symmetry_space_group_name_H-M "C 2/M"
_symmetry_group_IT_number 12
_symmetry_cell_setting 'monoclinic'
loop_
_space_group_symop_operation_xyz
x,y,z
-x,y,-z
-x,-y,-z
x,-y,z
1/2+x,1/2+y,z
1/2-x,1/2+y,-z
1/2-x,1/2-y,-z
1/2+x,1/2-y,z
loop_
_atom_site_type_symbol
_atom_site_label
_atom_site_fract_x
_atom_site_fract_y
_atom_site_fract_z
Si Si1 0.320039 0.817821 0.733834
Si Si2 0.327660 0.313210 0.671386
Si Si3 0.410820 0.127059 0.322459
Si Si4 0.709545 0.187224 0.120407
Si Si5 0.184571 0.000000 0.407833
Si Si6 0.768345 0.825160 0.882920
Si Si7 0.331426 0.000000 0.327265
Si Si8 0.119217 0.128234 0.442358
O O1 0.313691 0.755692 0.689201
O O2 0.311130 0.807291 0.809254
O O3 0.549310 0.848623 0.820245
O O4 0.105081 0.853770 0.623681
O O5 0.144227 0.350266 0.627815
O O6 0.558347 0.339021 0.794003
O O7 0.331993 0.323259 0.594869
O O8 0.283340 0.168587 0.216909
O O9 0.664081 0.127885 0.421317
O O10 0.320724 0.059925 0.279779
O O11 0.719726 0.254475 0.094125
O O12 0.500000 0.156815 0.000000
O O13 0.095128 0.062330 0.398307
O O14 0.181754 0.000000 0.326921
O O15 0.430156 0.000000 0.538451
O O16 0.000000 0.851386 0.000000
#
# Coordination Sequence:
#
# PCOD9181364 Si02
#       8
#     8   8   8   8   4   8   4   8
#     4  10  21  37  50  83 120 148 177 223 283 337
#     4  10  19  32  52  84 115 141 176 219 287 328
#     4  11  20  36  55  83 106 147 182 227 276 329
#     4   9  19  33  53  77 107 148 188 228 262 320
#     4   9  16  34  59  84 103 146 189 237 269 298
#     4  10  22  36  55  77 108 149 188 223 269 332
#     4   9  18  32  58  80 108 132 193 236 265 320
#     4  10  21  36  56  84 116 144 185 231 277 330
#
# _framework density 19.859097999999999
#
# number of rings (size 3 to 8) (size 9 to 14) (size 15 to 20)
#    0.000    2.143    2.857    0.429    2.000    2.857 
#    5.143    1.071    0.000    2.571    0.000    3.500 
#    0.000    0.000    0.000    0.000    0.000    0.000 
#
# Total GULP energy -156035.505544 kJ/mol
# GULP energy per Si atom -5572.696627 kJ/mol
# Density = 1.981390 g / cm^3
# Si number density = 19.859098 Si / 1000 Ang^3
#
#
#
# Elastic Constant Matrix: (Units=GPa)
#
#
# Indices 1 2 3 4 5 6 
#
# 1 78.1228 13.7069 30.0212 0.0000 25.4451 0.0000
# 2 13.7069 53.1530 15.7177 -0.0002 11.3012 -0.0003
# 3 30.0212 15.7177 112.0987 0.0018 27.8584 0.0008
# 4 0.0000 -0.0002 0.0018 -2.9270 -0.0005 -14.8075
# 5 25.4451 11.3012 27.8584 -0.0005 33.9097 -0.0006
# 6 0.0000 -0.0003 0.0008 -14.8075 -0.0006 -10.7209
#
#
#
# Elastic Compliance Matrix: (Units=1/GPa)
#
#
# Indices 1 2 3 4 5 6 
#
# 1 0.017340 -0.001619 -0.001655 0.000000 -0.011112 0.000000
# 2 -0.001619 0.020592 -0.001319 0.000000 -0.004563 0.000000
# 3 -0.001655 -0.001319 0.011474 0.000000 -0.007744 0.000002
# 4 0.000000 0.000000 0.000000 0.057062 -0.000001 -0.078813
# 5 -0.011112 -0.004563 -0.007744 -0.000001 0.045711 -0.000002
# 6 0.000000 0.000000 0.000002 -0.078813 -0.000002 0.015579
#
#
# Mechanical properties :
#
#
# Convention : Reuss Voigt Hill
#
# Bulk Modulus (GPa) = 24.86524 40.25180 32.55852
# Shear Modulus (GPa) = 26.26722 16.31427 21.29074
#
# Velocity S-wave (km/s) = 3.64081 2.86929 3.27783
# Velocity P-wave (km/s) = 5.49746 5.59373 5.54580
#
# Compressibility (1/GPa) = 0.04021678
#
# Stress axis : x y z
#
# Youngs Moduli (GPa) = 57.67089 48.56336 87.15667
#
# Poissons Ratio (x) = 0.07865 0.14426
# Poissons Ratio (y) = 0.09340 0.11499
# Poissons Ratio (z) = 0.09546 0.06407
#
# Static dielectric constant tensor:
#      x y z
#    x 1.748610 0.000000 0.006570 
#    y 0.000000 1.703250 0.000000 
#    z 0.006570 0.000000 1.742550 
# 
# From -- ./inp_files/337065.got.cif
#   From: 2010.05.17/outbox.cif.g08.bks.cpg/sg12_169_cif.got.tgz:337065.got - 2010.06.03 13:09:07.
