data_PCOD9181701
_publ_section_title
;
Structure prediction by ZEFSAII (Michael W. Deem and Ramdas Pophale) SiO2 
 PCOD9181701
Probable space group: C 2/M
;
_chemical_formula_sum "Si O2"
_cell_formula_units_Z 56
_cell_length_a 30.999917
_cell_length_b 8.511731
_cell_length_c 12.231120
_cell_angle_alpha 90.000000
_cell_angle_beta 61.277365
_cell_angle_gamma 90.000000
_cell_volume 2830.235932
_symmetry_space_group_name_H-M "C 2/M"
_symmetry_group_IT_number 12
_symmetry_cell_setting 'monoclinic'
loop_
_space_group_symop_operation_xyz
x,y,z
-x,y,-z
-x,-y,-z
x,-y,z
1/2+x,1/2+y,z
1/2-x,1/2+y,-z
1/2-x,1/2-y,-z
1/2+x,1/2-y,z
loop_
_atom_site_type_symbol
_atom_site_label
_atom_site_fract_x
_atom_site_fract_y
_atom_site_fract_z
Si Si1 0.611115 0.682774 0.030667
Si Si2 0.340443 0.682758 0.253374
Si Si3 0.092581 0.811104 0.628536
Si Si4 0.652326 0.815165 0.364538
Si Si5 0.258248 0.682827 0.610808
Si Si6 0.694252 0.187375 0.082942
Si Si7 0.495969 0.692460 0.877082
O O1 0.613444 0.500000 0.062029
O O2 0.656237 0.768307 0.033722
O O3 0.555794 0.743796 0.113043
O O4 0.619259 0.686132 0.890203
O O5 0.324160 0.500000 0.283397
O O6 0.364461 0.734969 0.337868
O O7 0.294975 0.788058 0.272145
O O8 0.107585 0.755657 0.489689
O O9 0.041795 0.757161 0.746080
O O10 0.091817 0.000000 0.629340
O O11 0.700728 0.779732 0.376869
O O12 0.667281 0.752475 0.226711
O O13 0.643719 0.000000 0.365868
O O14 0.271674 0.500000 0.593344
O O15 0.250000 0.750000 0.500000
O O16 0.698616 0.000000 0.086095
O O17 0.750000 0.250000 0.000000
O O18 0.495585 0.500000 0.879251
O O19 0.500000 0.741459 0.000000
#
# Coordination Sequence:
#
# PCOD9181701 Si02
#       7
#     8   8   8   8   8   8   8
#     4  10  20  36  62  91 121 156 197 245 296 350
#     4  10  19  32  53  85 119 151 189 236 291 346
#     4  10  19  33  58  88 118 153 192 236 290 349
#     4  11  24  41  58  80 115 156 198 247 299 350
#     4  12  23  34  52  80 114 150 188 234 290 355
#     4  11  25  44  64  86 116 156 203 251 298 353
#     4   9  16  32  59  92 124 156 194 240 293 348
#
# _framework density 19.786335000000001
#
# number of rings (size 3 to 8) (size 9 to 14) (size 15 to 20)
#    0.000    1.571    2.857    3.000    0.000    6.286 
#    0.000    1.429    0.000    5.143    0.000    0.000 
#    0.000    0.000    0.000    0.000    0.000    0.000 
#
# Total GULP energy -156238.572202 kJ/mol
# GULP energy per Si atom -5579.949007 kJ/mol
# Density = 1.974130 g / cm^3
# Si number density = 19.786335 Si / 1000 Ang^3
#
#
#
# Elastic Constant Matrix: (Units=GPa)
#
#
# Indices 1 2 3 4 5 6 
#
# 1 84.8000 9.1440 45.3087 0.0000 -17.6725 0.0000
# 2 9.1440 9.1598 20.4363 0.0000 -5.7841 0.0000
# 3 45.3087 20.4363 138.0408 0.0000 -15.3704 0.0000
# 4 0.0000 0.0000 0.0000 25.8220 0.0000 1.4837
# 5 -17.6725 -5.7841 -15.3704 0.0000 38.0789 0.0000
# 6 0.0000 0.0000 0.0000 1.4837 0.0000 17.2922
#
#
#
# Elastic Compliance Matrix: (Units=1/GPa)
#
#
# Indices 1 2 3 4 5 6 
#
# 1 0.015317 -0.003219 -0.003993 0.000000 0.005008 0.000000
# 2 -0.003219 0.173216 -0.022851 0.000000 0.015593 0.000000
# 3 -0.003993 -0.022851 0.011879 0.000000 -0.000529 0.000000
# 4 0.000000 0.000000 0.000000 0.038919 0.000000 -0.003339
# 5 0.005008 0.015593 -0.000529 0.000000 0.030740 0.000000
# 6 0.000000 0.000000 0.000000 -0.003339 0.000000 0.058116
#
#
# Mechanical properties :
#
#
# Convention : Reuss Voigt Hill
#
# Bulk Modulus (GPa) = 7.12834 42.41984 24.77409
# Shear Modulus (GPa) = 11.49230 26.71271 19.10250
#
# Velocity S-wave (km/s) = 2.41263 3.67830 3.11052
# Velocity P-wave (km/s) = 3.37217 6.28692 5.04465
#
# Compressibility (1/GPa) = 0.14028511
#
# Stress axis : x y z
#
# Youngs Moduli (GPa) = 65.28797 5.77316 84.18234
#
# Poissons Ratio (x) = 0.01858 0.33616
# Poissons Ratio (y) = 0.21015 1.92365
# Poissons Ratio (z) = 0.26071 0.13192
#
# Static dielectric constant tensor:
#      x y z
#    x 1.683610 0.000000 -0.027450 
#    y 0.000000 1.694940 0.000000 
#    z -0.027450 0.000000 1.791360 
# 
# From -- ./inp_files/187251.got.cif
#   From: 2010.05.17/outbox.cif.g08.bks.cpg/sg12_94_cif.got.tgz:187251.got - 2010.06.03 13:09:07.
