data_PCOD9181640
_publ_section_title
;
Structure prediction by ZEFSAII (Michael W. Deem and Ramdas Pophale) SiO2 
 PCOD9181640
Probable space group: C 2/M
;
_chemical_formula_sum "Si O2"
_cell_formula_units_Z 56
_cell_length_a 20.028906
_cell_length_b 8.912345
_cell_length_c 17.647511
_cell_angle_alpha 90.000000
_cell_angle_beta 113.519311
_cell_angle_gamma 90.000000
_cell_volume 2888.462880
_symmetry_space_group_name_H-M "C 2/M"
_symmetry_group_IT_number 12
_symmetry_cell_setting 'monoclinic'
loop_
_space_group_symop_operation_xyz
x,y,z
-x,y,-z
-x,-y,-z
x,-y,z
1/2+x,1/2+y,z
1/2-x,1/2+y,-z
1/2-x,1/2-y,-z
1/2+x,1/2-y,z
loop_
_atom_site_type_symbol
_atom_site_label
_atom_site_fract_x
_atom_site_fract_y
_atom_site_fract_z
Si Si1 0.793038 0.821661 0.088712
Si Si2 0.339833 0.323414 0.401895
Si Si3 0.245090 0.178708 0.225296
Si Si4 0.614336 0.321949 0.266365
Si Si5 0.638421 0.173590 0.435856
Si Si6 0.552114 0.321256 0.788988
Si Si7 0.035891 0.673017 0.622585
O O1 0.765517 0.757695 0.156471
O O2 0.880016 0.791132 0.125834
O O3 0.783168 0.000000 0.083254
O O4 0.750000 0.750000 0.000000
O O5 0.328456 0.500000 0.391488
O O6 0.293303 0.238649 0.316984
O O7 0.324646 0.265296 0.479676
O O8 0.422696 0.279571 0.417020
O O9 0.162690 0.210803 0.215069
O O10 0.254838 0.000000 0.222158
O O11 0.620367 0.500000 0.284560
O O12 0.644949 0.237693 0.354229
O O13 0.528840 0.287606 0.217870
O O14 0.551268 0.182722 0.413290
O O15 0.660348 0.000000 0.448721
O O16 0.554267 0.500000 0.770401
O O17 0.561885 0.224744 0.717433
O O18 0.055365 0.500000 0.614759
#
# Coordination Sequence:
#
# PCOD9181640 Si02
#       7
#     8   8   8   8   8   8   8
#     4  11  23  40  65  94 121 150 187 235 290 351
#     4  12  23  34  52  79 115 158 201 244 290 344
#     4  11  23  40  62  87 118 153 192 242 296 349
#     4   9  20  39  61  85 116 156 198 240 288 344
#     4  10  21  35  53  81 115 155 200 247 291 337
#     4   9  18  36  61  87 115 151 194 235 285 344
#     4  10  19  32  53  81 114 150 194 245 295 341
#
# _framework density 19.387475999999999
#
# number of rings (size 3 to 8) (size 9 to 14) (size 15 to 20)
#    0.000    1.714    1.429    3.429    0.000    5.714 
#    0.000    0.714    0.000    4.286    0.000    0.000 
#    0.000    0.000    0.000    0.000    0.000    0.000 
#
# Total GULP energy -156467.805397 kJ/mol
# GULP energy per Si atom -5588.135907 kJ/mol
# Density = 1.934335 g / cm^3
# Si number density = 19.387476 Si / 1000 Ang^3
#
#
#
# Elastic Constant Matrix: (Units=GPa)
#
#
# Indices 1 2 3 4 5 6 
#
# 1 84.0454 32.1419 37.1467 0.0000 -2.2126 0.0000
# 2 32.1419 67.6884 45.2283 0.0000 5.4585 0.0000
# 3 37.1467 45.2283 126.7226 0.0000 9.0910 0.0000
# 4 0.0000 0.0000 0.0000 32.6739 0.0000 -2.7169
# 5 -2.2126 5.4585 9.0910 0.0000 15.8378 0.0000
# 6 0.0000 0.0000 0.0000 -2.7169 0.0000 21.8466
#
#
#
# Elastic Compliance Matrix: (Units=1/GPa)
#
#
# Indices 1 2 3 4 5 6 
#
# 1 0.015602 -0.005968 -0.002865 0.000000 0.005881 0.000000
# 2 -0.005968 0.021806 -0.005667 0.000000 -0.005096 0.000000
# 3 -0.002865 -0.005667 0.011100 0.000000 -0.004818 0.000000
# 4 0.000000 0.000000 0.000000 0.030925 0.000000 0.003846
# 5 0.005881 -0.005096 -0.004818 0.000000 0.068484 0.000000
# 6 0.000000 0.000000 0.000000 0.003846 0.000000 0.046252
#
#
# Mechanical properties :
#
#
# Convention : Reuss Voigt Hill
#
# Bulk Modulus (GPa) = 51.26904 56.38779 53.82841
# Shear Modulus (GPa) = 21.77014 25.00095 23.38555
#
# Velocity S-wave (km/s) = 3.35460 3.59491 3.47683
# Velocity P-wave (km/s) = 6.44254 6.81021 6.62892
#
# Compressibility (1/GPa) = 0.01950495
#
# Stress axis : x y z
#
# Youngs Moduli (GPa) = 64.09393 45.85998 90.09358
#
# Poissons Ratio (x) = 0.27371 0.25814
# Poissons Ratio (y) = 0.38254 0.51060
# Poissons Ratio (z) = 0.18365 0.25991
#
# Static dielectric constant tensor:
#      x y z
#    x 1.741270 0.000000 0.032940 
#    y 0.000000 1.647120 0.000000 
#    z 0.032940 0.000000 1.646410 
# 
# From -- ./inp_files/281700.got.cif
#   From: 2010.05.17/outbox.cif.g08.bks.cpg/sg12_141_cif.got.tgz:281700.got - 2010.06.03 13:09:07.
