data_PCOD9181702
_publ_section_title
;
Structure prediction by ZEFSAII (Michael W. Deem and Ramdas Pophale) SiO2 
 PCOD9181702
Probable space group: C 2/M
;
_chemical_formula_sum "Si O2"
_cell_formula_units_Z 64
_cell_length_a 28.664113
_cell_length_b 8.966776
_cell_length_c 12.894895
_cell_angle_alpha 90.000000
_cell_angle_beta 85.532934
_cell_angle_gamma 90.000000
_cell_volume 3304.238293
_symmetry_space_group_name_H-M "C 2/M"
_symmetry_group_IT_number 12
_symmetry_cell_setting 'monoclinic'
loop_
_space_group_symop_operation_xyz
x,y,z
-x,y,-z
-x,-y,-z
x,-y,z
1/2+x,1/2+y,z
1/2-x,1/2+y,-z
1/2-x,1/2-y,-z
1/2+x,1/2-y,z
loop_
_atom_site_type_symbol
_atom_site_label
_atom_site_fract_x
_atom_site_fract_y
_atom_site_fract_z
Si Si1 0.050355 0.319047 0.540988
Si Si2 0.908316 0.176067 0.262575
Si Si3 0.368993 0.171384 0.631084
Si Si4 0.921558 0.670692 0.841106
Si Si5 0.681790 0.179125 0.807544
Si Si6 0.978734 0.326944 0.118013
Si Si7 0.659703 0.322363 0.032937
Si Si8 0.711696 0.678599 0.237197
O O1 0.050272 0.500000 0.548952
O O2 0.061846 0.247984 0.649626
O O3 0.094255 0.273275 0.460658
O O4 0.000000 0.277137 0.500000
O O5 0.857643 0.250596 0.258996
O O6 0.936692 0.220166 0.153935
O O7 0.904463 0.000000 0.274985
O O8 0.397657 0.173690 0.733777
O O9 0.321685 0.257415 0.667534
O O10 0.357431 0.000000 0.607862
O O11 0.919107 0.500000 0.882314
O O12 0.892252 0.775645 0.921769
O O13 0.975886 0.707058 0.820153
O O14 0.734218 0.221876 0.764383
O O15 0.677867 0.000000 0.808112
O O16 0.673730 0.239281 0.925620
O O17 0.964369 0.500000 0.135815
O O18 0.000000 0.312048 0.000000
O O19 0.663167 0.500000 0.017631
O O20 0.691963 0.276958 0.126346
O O21 0.708518 0.500000 0.240896
#
# Coordination Sequence:
#
# PCOD9181702 Si02
#       8
#     8   8   8   8   8   8   8   8
#     4  10  21  41  67  90 114 147 187 228 274 337
#     4  12  26  40  57  85 117 148 186 236 290 335
#     4   9  18  33  57  85 110 141 183 231 278 327
#     4   9  17  31  52  80 112 147 186 224 270 333
#     4  11  22  38  57  77 109 155 199 234 276 334
#     4  10  20  35  56  80 110 151 192 226 267 329
#     4  10  19  32  53  85 120 150 185 233 286 332
#     4   9  20  36  56  83 115 151 189 234 284 333
#
# _framework density 19.369064000000002
#
# number of rings (size 3 to 8) (size 9 to 14) (size 15 to 20)
#    0.000    2.000    0.000    3.750    0.000    6.000 
#    0.000    3.125    0.000    0.000    0.000    0.000 
#    0.000    0.000    0.000    0.000    0.000    0.000 
#
# Total GULP energy -178657.831310 kJ/mol
# GULP energy per Si atom -5583.057228 kJ/mol
# Density = 1.932498 g / cm^3
# Si number density = 19.369064 Si / 1000 Ang^3
#
#
#
# Elastic Constant Matrix: (Units=GPa)
#
#
# Indices 1 2 3 4 5 6 
#
# 1 130.6968 50.1491 46.3203 0.0000 -1.1906 0.0000
# 2 50.1491 50.3406 27.6988 0.0000 -0.9244 0.0000
# 3 46.3203 27.6988 67.5954 0.0000 -9.1607 0.0000
# 4 0.0000 0.0000 0.0000 24.3986 0.0000 -4.8668
# 5 -1.1906 -0.9244 -9.1607 0.0000 28.0509 0.0000
# 6 0.0000 0.0000 0.0000 -4.8668 0.0000 25.6214
#
#
#
# Elastic Compliance Matrix: (Units=1/GPa)
#
#
# Indices 1 2 3 4 5 6 
#
# 1 0.013561 -0.010736 -0.005089 0.000000 -0.001440 0.000000
# 2 -0.010736 0.034345 -0.006932 0.000000 -0.001588 0.000000
# 3 -0.005089 -0.006932 0.022037 0.000000 0.006752 0.000000
# 4 0.000000 0.000000 0.000000 0.042600 0.000000 0.008092
# 5 -0.001440 -0.001588 0.006752 0.000000 0.037741 0.000000
# 6 0.000000 0.000000 0.000000 0.008092 0.000000 0.040567
#
#
# Mechanical properties :
#
#
# Convention : Reuss Voigt Hill
#
# Bulk Modulus (GPa) = 40.93433 55.21881 48.07657
# Shear Modulus (GPa) = 20.44933 23.91180 22.18056
#
# Velocity S-wave (km/s) = 3.25279 3.51741 3.38768
# Velocity P-wave (km/s) = 5.94031 6.71319 6.33854
#
# Compressibility (1/GPa) = 0.02442937
#
# Stress axis : x y z
#
# Youngs Moduli (GPa) = 73.74003 29.11647 45.37925
#
# Poissons Ratio (x) = 0.31260 0.23092
# Poissons Ratio (y) = 0.79168 0.31456
# Poissons Ratio (z) = 0.37524 0.20183
#
# Static dielectric constant tensor:
#      x y z
#    x 1.697890 0.000000 0.015230 
#    y 0.000000 1.658150 0.000000 
#    z 0.015230 0.000000 1.703730 
# 
# From -- ./inp_files/187571.got.cif
#   From: 2010.05.17/outbox.cif.g08.bks.cpg/sg12_94_cif.got.tgz:187571.got - 2010.06.03 13:09:07.
