data_PCOD9181426
_publ_section_title
;
Structure prediction by ZEFSAII (Michael W. Deem and Ramdas Pophale) SiO2 
 PCOD9181426
Probable space group: C 2/M
;
_chemical_formula_sum "Si O2"
_cell_formula_units_Z 58
_cell_length_a 19.631146
_cell_length_b 7.716545
_cell_length_c 22.123758
_cell_angle_alpha 90.000000
_cell_angle_beta 125.124223
_cell_angle_gamma 90.000000
_cell_volume 2741.139456
_symmetry_space_group_name_H-M "C 2/M"
_symmetry_group_IT_number 12
_symmetry_cell_setting 'monoclinic'
loop_
_space_group_symop_operation_xyz
x,y,z
-x,y,-z
-x,-y,-z
x,-y,z
1/2+x,1/2+y,z
1/2-x,1/2+y,-z
1/2-x,1/2-y,-z
1/2+x,1/2-y,z
loop_
_atom_site_type_symbol
_atom_site_label
_atom_site_fract_x
_atom_site_fract_y
_atom_site_fract_z
Si Si1 0.728128 0.298551 0.848255
Si Si2 0.508722 0.196782 0.071797
Si Si3 0.500000 0.500000 0.500000
Si Si4 0.399735 0.702387 0.763411
Si Si5 0.036934 0.702516 0.604191
Si Si6 0.168282 0.806981 0.994730
Si Si7 0.274714 0.790283 0.292684
Si Si8 0.542472 0.288667 0.747725
O O1 0.737163 0.500000 0.869698
O O2 0.799228 0.198712 0.919878
O O3 0.733424 0.279684 0.779326
O O4 0.634865 0.237089 0.817186
O O5 0.568051 0.282768 0.151298
O O6 0.539335 0.000000 0.079492
O O7 0.500000 0.274964 0.000000
O O8 0.415582 0.198323 0.051605
O O9 0.483735 0.344836 0.542482
O O10 0.394334 0.500000 0.745271
O O11 0.305937 0.773010 0.712204
O O12 0.469926 0.775427 0.754818
O O13 0.022650 0.500000 0.582045
O O14 0.133236 0.754041 0.637377
O O15 0.030880 0.723338 0.673563
O O16 0.144913 0.000000 0.963641
O O17 0.250000 0.750000 0.000000
O O18 0.272315 0.000000 0.287816
O O19 0.543897 0.500000 0.746790
#
# Coordination Sequence:
#
# PCOD9181426 Si02
#       8
#     8   8   2   8   8   8   8   8
#     4  10  19  32  53  77 108 144 189 244 297 343
#     4  11  24  39  53  77 113 153 205 254 304 363
#     4  12  22  40  68  98 128 160 190 234 284 346
#     4  10  20  35  58  84 114 157 196 245 301 349
#     4  10  21  38  64  97 126 158 197 237 285 345
#     4  12  24  37  53  73 103 146 191 248 306 363
#     4   9  19  35  56  87 117 149 193 237 281 336
#     4   9  18  35  57  86 118 152 195 244 293 351
#
# _framework density 21.159085000000001
#
# number of rings (size 3 to 8) (size 9 to 14) (size 15 to 20)
#    0.000    1.793    0.690    3.931    0.966    6.069 
#    0.000    0.000    0.000    0.828    0.000    0.000 
#    0.000    0.000    0.000    0.000    0.000    0.000 
#
# Total GULP energy -161726.901804 kJ/mol
# GULP energy per Si atom -5576.789717 kJ/mol
# Density = 2.111093 g / cm^3
# Si number density = 21.159085 Si / 1000 Ang^3
#
#
#
# Elastic Constant Matrix: (Units=GPa)
#
#
# Indices 1 2 3 4 5 6 
#
# 1 116.2627 -0.3333 6.4317 0.0000 6.0133 0.0000
# 2 -0.3333 66.5777 4.9463 0.0000 0.3687 0.0000
# 3 6.4317 4.9463 45.7911 0.0000 -9.2592 0.0000
# 4 0.0000 0.0000 0.0000 8.9162 0.0000 -10.2069
# 5 6.0133 0.3687 -9.2592 0.0000 13.1006 0.0000
# 6 0.0000 0.0000 0.0000 -10.2069 0.0000 12.6765
#
#
#
# Elastic Compliance Matrix: (Units=1/GPa)
#
#
# Indices 1 2 3 4 5 6 
#
# 1 0.009047 0.000264 -0.002497 0.000000 -0.005925 0.000000
# 2 0.000264 0.015188 -0.002087 0.000000 -0.002023 0.000000
# 3 -0.002497 -0.002087 0.026436 0.000000 0.019889 0.000000
# 4 0.000000 0.000000 0.000000 1.433230 0.000000 1.154011
# 5 -0.005925 -0.002023 0.019889 0.000000 0.093166 0.000000
# 6 0.000000 0.000000 0.000000 1.154011 0.000000 1.008075
#
#
# Mechanical properties :
#
#
# Convention : Reuss Voigt Hill
#
# Bulk Modulus (GPa) = 23.79255 27.85786 25.82521
# Shear Modulus (GPa) = 1.91733 21.44446 11.68089
#
# Velocity S-wave (km/s) = 0.95295 3.18698 2.35213
# Velocity P-wave (km/s) = 3.53268 5.17078 4.42814
#
# Compressibility (1/GPa) = 0.04202996
#
# Stress axis : x y z
#
# Youngs Moduli (GPa) = 110.53938 65.84322 37.82688
#
# Poissons Ratio (x) = -0.01736 0.09446
# Poissons Ratio (y) = -0.02914 0.07893
# Poissons Ratio (z) = 0.27603 0.13739
#
# Static dielectric constant tensor:
#      x y z
#    x 1.822880 0.000000 -0.001230 
#    y 0.000000 1.797960 0.000000 
#    z -0.001230 0.000000 1.763740 
# 
# From -- ./inp_files/314307.got.cif
#   From: 2010.05.17/outbox.cif.g08.bks.cpg/sg12_158_cif.got.tgz:314307.got - 2010.06.03 13:09:07.
