data_PCOD9181172
_publ_section_title
;
Structure prediction by ZEFSAII (Michael W. Deem and Ramdas Pophale) SiO2 
 PCOD9181172
Probable space group: C 2/M
;
_chemical_formula_sum "Si O2"
_cell_formula_units_Z 48
_cell_length_a 23.178259
_cell_length_b 8.872090
_cell_length_c 29.506000
_cell_angle_alpha 90.000000
_cell_angle_beta 152.064460
_cell_angle_gamma 90.000000
_cell_volume 2842.537551
_symmetry_space_group_name_H-M "C 2/M"
_symmetry_group_IT_number 12
_symmetry_cell_setting 'monoclinic'
loop_
_space_group_symop_operation_xyz
x,y,z
-x,y,-z
-x,-y,-z
x,-y,z
1/2+x,1/2+y,z
1/2-x,1/2+y,-z
1/2-x,1/2-y,-z
1/2+x,1/2-y,z
loop_
_atom_site_type_symbol
_atom_site_label
_atom_site_fract_x
_atom_site_fract_y
_atom_site_fract_z
Si Si1 0.725264 0.820069 0.554587
Si Si2 0.056849 0.679918 0.350784
Si Si3 0.794114 0.818441 0.184447
Si Si4 0.290699 0.678984 0.778846
Si Si5 0.644835 0.679949 0.593830
Si Si6 0.463542 0.827106 0.028059
O O1 0.850527 0.749806 0.621677
O O2 0.620486 0.789997 0.443870
O O3 0.688225 0.746940 0.576201
O O4 0.737685 0.000000 0.567653
O O5 0.048510 0.500000 0.339371
O O6 0.923265 0.754723 0.257232
O O7 0.765026 0.750859 0.213874
O O8 0.796453 0.000000 0.189539
O O9 0.678733 0.778330 0.071757
O O10 0.277449 0.500000 0.771623
O O11 0.220173 0.745911 0.686993
O O12 0.434739 0.725306 0.877500
O O13 0.500000 0.711215 0.500000
O O14 0.662507 0.500000 0.606658
O O15 0.473638 0.000000 0.051282
O O16 0.500000 0.828226 0.000000
#
# Coordination Sequence:
#
# PCOD9181172 Si02
#       6
#     8   8   8   8   8   8
#     4  10  21  36  53  75 104 136 171 210 252 299
#     4  10  20  34  54  78 104 134 169 211 254 299
#     4  10  19  32  52  77 105 136 171 211 254 300
#     4  11  21  32  50  76 106 137 169 210 257 304
#     4  11  23  37  54  75 102 137 173 208 250 303
#     4   8  16  31  49  71 101 135 169 207 252 300
#
# _framework density 16.886320999999999
#
# number of rings (size 3 to 8) (size 9 to 14) (size 15 to 20)
#    0.000    2.000    0.000    5.500    0.000    9.667 
#    0.000    0.000    0.000    1.000    0.000    0.000 
#    0.000    0.000    0.000    0.000    0.000    0.000 
#
# Total GULP energy -133978.010062 kJ/mol
# GULP energy per Si atom -5582.417086 kJ/mol
# Density = 1.684789 g / cm^3
# Si number density = 16.886321 Si / 1000 Ang^3
#
#
#
# Elastic Constant Matrix: (Units=GPa)
#
#
# Indices 1 2 3 4 5 6 
#
# 1 87.6325 54.8672 67.5285 0.0001 8.3544 0.0001
# 2 54.8672 97.9053 82.0656 0.0001 5.7299 0.0002
# 3 67.5285 82.0656 143.3113 0.0003 22.0478 0.0001
# 4 0.0001 0.0001 0.0003 27.2376 0.0001 0.8085
# 5 8.3544 5.7299 22.0478 0.0001 29.4112 0.0000
# 6 0.0001 0.0002 0.0001 0.8085 0.0000 29.4427
#
#
#
# Elastic Compliance Matrix: (Units=1/GPa)
#
#
# Indices 1 2 3 4 5 6 
#
# 1 0.019740 -0.006297 -0.005676 0.000000 -0.000125 0.000000
# 2 -0.006297 0.022382 -0.010686 0.000000 0.005439 0.000000
# 3 -0.005676 -0.010686 0.017185 0.000000 -0.009189 0.000000
# 4 0.000000 0.000000 0.000000 0.036744 0.000000 -0.001009
# 5 -0.000125 0.005439 -0.009189 0.000000 0.039865 0.000000
# 6 0.000000 0.000000 0.000000 -0.001009 0.000000 0.033992
#
#
# Mechanical properties :
#
#
# Convention : Reuss Voigt Hill
#
# Bulk Modulus (GPa) = 71.49013 81.97464 76.73238
# Shear Modulus (GPa) = 22.73856 25.51082 24.12469
#
# Velocity S-wave (km/s) = 3.67354 3.89104 3.78385
# Velocity P-wave (km/s) = 7.77311 8.29682 8.03923
#
# Compressibility (1/GPa) = 0.01398794
#
# Stress axis : x y z
#
# Youngs Moduli (GPa) = 50.65850 44.67829 58.18869
#
# Poissons Ratio (x) = 0.28136 0.33029
# Poissons Ratio (y) = 0.31902 0.62183
# Poissons Ratio (z) = 0.28754 0.47745
#
# Static dielectric constant tensor:
#      x y z
#    x 1.538940 0.000000 0.015570 
#    y 0.000000 1.559450 0.000000 
#    z 0.015570 0.000000 1.576420 
# 
# From -- ./inp_files/365543.got.cif
#   From: 2010.05.17/outbox.cif.g08.bks.cpg/sg12_183_cif.got.tgz:365543.got - 2010.06.03 13:09:07.
