data_PCOD9181153
_publ_section_title
;
Structure prediction by ZEFSAII (Michael W. Deem and Ramdas Pophale) SiO2 
 PCOD9181153
Probable space group: C 2/M
;
_chemical_formula_sum "Si O2"
_cell_formula_units_Z 48
_cell_length_a 9.718511
_cell_length_b 24.844614
_cell_length_c 10.338568
_cell_angle_alpha 90.000000
_cell_angle_beta 78.986957
_cell_angle_gamma 90.000000
_cell_volume 2450.302597
_symmetry_space_group_name_H-M "C 2/M"
_symmetry_group_IT_number 12
_symmetry_cell_setting 'monoclinic'
loop_
_space_group_symop_operation_xyz
x,y,z
-x,y,-z
-x,-y,-z
x,-y,z
1/2+x,1/2+y,z
1/2-x,1/2+y,-z
1/2-x,1/2-y,-z
1/2+x,1/2-y,z
loop_
_atom_site_type_symbol
_atom_site_label
_atom_site_fract_x
_atom_site_fract_y
_atom_site_fract_z
Si Si1 0.248746 0.560008 0.399928
Si Si2 0.237710 0.437949 0.705898
Si Si3 0.147656 0.667008 0.044763
Si Si4 0.499724 0.640515 0.653370
Si Si5 0.585220 0.279758 0.121141
Si Si6 0.923158 0.438755 0.818431
O O1 0.312358 0.500000 0.373855
O O2 0.209514 0.565307 0.556781
O O3 0.363636 0.604490 0.347006
O O4 0.120474 0.562642 0.324281
O O5 0.277703 0.500000 0.727384
O O6 0.364098 0.396994 0.706960
O O7 0.089060 0.427129 0.801147
O O8 0.126712 0.718081 0.144519
O O9 0.167208 0.608163 0.100320
O O10 0.273273 0.686861 0.932061
O O11 0.000000 0.664051 0.000000
O O12 0.500000 0.654049 0.500000
O O13 0.495191 0.691350 0.748698
O O14 0.500000 0.280748 0.000000
O O15 0.897072 0.500000 0.869745
#
# Coordination Sequence:
#
# PCOD9181153 Si02
#       6
#     8   8   8   8   8   8
#     4   9  17  30  49  75 107 142 174 207 260 322
#     4   9  17  30  50  76 108 143 173 207 261 321
#     4  10  21  37  56  74 100 140 180 210 256 321
#     4  10  19  33  55  81 106 134 176 225 260 296
#     4  10  21  38  58  76 103 144 179 209 257 320
#     4  10  19  32  52  77 104 133 172 222 263 301
#
# _framework density 19.589417999999998
#
# number of rings (size 3 to 8) (size 9 to 14) (size 15 to 20)
#    0.000    2.333    0.000    3.000    0.000    4.333 
#    0.000    3.333    0.000   17.500    0.000    0.000 
#    0.000    0.000    0.000    0.000    0.000    0.000 
#
# Total GULP energy -133839.465154 kJ/mol
# GULP energy per Si atom -5576.644381 kJ/mol
# Density = 1.954483 g / cm^3
# Si number density = 19.589418 Si / 1000 Ang^3
#
#
#
# Elastic Constant Matrix: (Units=GPa)
#
#
# Indices 1 2 3 4 5 6 
#
# 1 57.7955 15.8259 8.4951 0.0000 -1.9721 0.0000
# 2 15.8259 128.8897 56.6506 0.0000 -16.7525 0.0000
# 3 8.4951 56.6506 41.5687 0.0000 -4.2573 0.0000
# 4 0.0000 0.0000 0.0000 39.5656 0.0000 -9.9274
# 5 -1.9721 -16.7525 -4.2573 0.0000 21.2212 0.0000
# 6 0.0000 0.0000 0.0000 -9.9274 0.0000 21.7663
#
#
#
# Elastic Compliance Matrix: (Units=1/GPa)
#
#
# Indices 1 2 3 4 5 6 
#
# 1 0.017951 -0.001434 -0.001694 0.000000 0.000196 0.000000
# 2 -0.001434 0.021894 -0.028370 0.000000 0.011458 0.000000
# 3 -0.001694 -0.028370 0.062031 0.000000 -0.010109 0.000000
# 4 0.000000 0.000000 0.000000 0.028541 0.000000 0.013017
# 5 0.000196 0.011458 -0.010109 0.000000 0.054158 0.000000
# 6 0.000000 0.000000 0.000000 0.013017 0.000000 0.051880
#
#
# Mechanical properties :
#
#
# Convention : Reuss Voigt Hill
#
# Bulk Modulus (GPa) = 25.72114 43.35520 34.53817
# Shear Modulus (GPa) = 16.00461 26.32945 21.16703
#
# Velocity S-wave (km/s) = 2.86143 3.67013 3.29071
# Velocity P-wave (km/s) = 4.90669 6.33560 5.66637
#
# Compressibility (1/GPa) = 0.03887853
#
# Stress axis : x y z
#
# Youngs Moduli (GPa) = 55.70793 45.67565 16.12099
#
# Poissons Ratio (x) = 0.06550 0.02731
# Poissons Ratio (y) = 0.07989 0.45736
# Poissons Ratio (z) = 0.09437 1.29583
#
# Static dielectric constant tensor:
#      x y z
#    x 1.681630 0.000000 0.007690 
#    y 0.000000 1.707330 0.000000 
#    z 0.007690 0.000000 1.699780 
# 
# From -- ./inp_files/122439.got.cif
#   From: 2010.05.17/outbox.cif.g08.bks.cpg/sg12_62_cif.got.tgz:122439.got - 2010.06.03 13:09:07.
