data_PCOD9181314
_publ_section_title
;
Structure prediction by ZEFSAII (Michael W. Deem and Ramdas Pophale) SiO2 
 PCOD9181314
Probable space group: C 2/M
;
_chemical_formula_sum "Si O2"
_cell_formula_units_Z 48
_cell_length_a 10.440968
_cell_length_b 28.552968
_cell_length_c 13.266917
_cell_angle_alpha 90.000000
_cell_angle_beta 141.905505
_cell_angle_gamma 90.000000
_cell_volume 2440.165197
_symmetry_space_group_name_H-M "C 2/M"
_symmetry_group_IT_number 12
_symmetry_cell_setting 'monoclinic'
loop_
_space_group_symop_operation_xyz
x,y,z
-x,y,-z
-x,-y,-z
x,-y,z
1/2+x,1/2+y,z
1/2-x,1/2+y,-z
1/2-x,1/2-y,-z
1/2+x,1/2-y,z
loop_
_atom_site_type_symbol
_atom_site_label
_atom_site_fract_x
_atom_site_fract_y
_atom_site_fract_z
Si Si1 0.314077 0.056227 0.814077
Si Si2 0.176642 0.649460 0.824057
Si Si3 0.341460 0.204855 0.500000
Si Si4 0.529682 0.945789 0.308734
Si Si5 0.971472 0.149460 0.824057
Si Si6 0.087786 0.054211 0.308735
O O1 0.348324 0.066954 0.718672
O O2 0.089019 0.066954 0.718671
O O3 0.327714 0.000000 0.827713
O O4 0.500000 0.075148 0.000000
O O5 0.334815 0.663977 0.834814
O O6 0.966913 0.675183 0.661827
O O7 0.142338 0.593800 0.792539
O O8 0.289760 0.659774 1.000000
O O9 0.500000 0.212345 0.500000
O O10 0.250000 0.250000 0.500000
O O11 0.143258 0.175184 0.338172
O O12 0.687684 0.942643 0.500000
O O13 0.458673 0.000000 0.257599
O O14 0.942740 0.093800 0.792538
O O15 0.056526 0.000000 0.257600
#
# Coordination Sequence:
#
# PCOD9181314 Si02
#       6
#     8   8   8   8   8   8
#     4   9  17  29  45  69 107 153 195 236 279 323
#     4  10  21  38  60  85 116 153 190 233 288 346
#     4  10  22  44  67  89 116 148 189 245 305 360
#     4  10  19  32  52  80 116 157 197 234 277 335
#     4  10  21  38  60  85 116 153 190 233 288 346
#     4  10  19  32  52  80 116 157 197 234 277 335
#
# _framework density 19.670798999999999
#
# number of rings (size 3 to 8) (size 9 to 14) (size 15 to 20)
#    0.000    2.167    1.667    1.500    0.000    5.333 
#    3.000    3.333    0.000    0.000    0.000    0.000 
#    0.000    0.000    0.000    0.000    0.000    0.000 
#
# Total GULP energy -133650.597864 kJ/mol
# GULP energy per Si atom -5568.774911 kJ/mol
# Density = 1.962603 g / cm^3
# Si number density = 19.670799 Si / 1000 Ang^3
#
#
#
# Elastic Constant Matrix: (Units=GPa)
#
#
# Indices 1 2 3 4 5 6 
#
# 1 28.7505 12.1545 13.0572 0.0000 -0.2734 0.0000
# 2 12.1545 90.4846 64.6387 0.0000 -3.0853 0.0000
# 3 13.0572 64.6387 162.5598 0.0000 -7.5927 0.0000
# 4 0.0000 0.0000 0.0000 7.7686 0.0000 1.1570
# 5 -0.2734 -3.0853 -7.5927 0.0000 10.5992 0.0000
# 6 0.0000 0.0000 0.0000 1.1570 0.0000 27.4561
#
#
#
# Elastic Compliance Matrix: (Units=1/GPa)
#
#
# Indices 1 2 3 4 5 6 
#
# 1 0.037117 -0.003990 -0.001453 0.000000 -0.001245 0.000000
# 2 -0.003990 0.015865 -0.005977 0.000000 0.000234 0.000000
# 3 -0.001453 -0.005977 0.008858 0.000000 0.004568 0.000000
# 4 0.000000 0.000000 0.000000 0.129537 0.000000 -0.005459
# 5 -0.001245 0.000234 0.004568 0.000000 0.097655 0.000000
# 6 0.000000 0.000000 0.000000 -0.005459 0.000000 0.036652
#
#
# Mechanical properties :
#
#
# Convention : Reuss Voigt Hill
#
# Bulk Modulus (GPa) = 25.64103 51.27731 38.45917
# Shear Modulus (GPa) = 13.83027 21.96106 17.89567
#
# Velocity S-wave (km/s) = 2.65445 3.34493 3.01949
# Velocity P-wave (km/s) = 4.73901 6.40643 5.63474
#
# Compressibility (1/GPa) = 0.03900000
#
# Stress axis : x y z
#
# Youngs Moduli (GPa) = 26.94187 63.03009 112.88798
#
# Poissons Ratio (x) = 0.25152 0.16400
# Poissons Ratio (y) = 0.10751 0.67475
# Poissons Ratio (z) = 0.03914 0.37674
#
# Static dielectric constant tensor:
#      x y z
#    x 1.748850 0.000000 0.000080 
#    y 0.000000 1.669940 0.000000 
#    z 0.000080 0.000000 1.747410 
# 
# From -- ./inp_files/50578.got.cif
#   From: 2010.05.17/outbox.cif.g08.bks.cpg/sg12_26_cif.got.tgz:50578.got - 2010.06.03 13:09:07.
