data_PCOD9181589
_publ_section_title
;
Structure prediction by ZEFSAII (Michael W. Deem and Ramdas Pophale) SiO2 
 PCOD9181589
Probable space group: C 2/M
;
_chemical_formula_sum "Si O2"
_cell_formula_units_Z 60
_cell_length_a 5.186543
_cell_length_b 32.602408
_cell_length_c 20.539176
_cell_angle_alpha 90.000000
_cell_angle_beta 73.280207
_cell_angle_gamma 90.000000
_cell_volume 3326.217704
_symmetry_space_group_name_H-M "C 2/M"
_symmetry_group_IT_number 12
_symmetry_cell_setting 'monoclinic'
loop_
_space_group_symop_operation_xyz
x,y,z
-x,y,-z
-x,-y,-z
x,-y,z
1/2+x,1/2+y,z
1/2-x,1/2+y,-z
1/2-x,1/2-y,-z
1/2+x,1/2-y,z
loop_
_atom_site_type_symbol
_atom_site_label
_atom_site_fract_x
_atom_site_fract_y
_atom_site_fract_z
Si Si1 0.706696 0.852490 0.544291
Si Si2 0.571196 0.129399 0.174263
Si Si3 0.392733 0.579177 0.855892
Si Si4 0.972151 0.277976 0.212043
Si Si5 0.696210 0.500000 0.047111
Si Si6 0.613113 0.092419 0.673882
Si Si7 0.764942 0.774458 0.628008
Si Si8 0.919010 0.047005 0.298274
O O1 0.500000 0.851687 0.500000
O O2 0.603196 0.880156 0.610911
O O3 0.744084 0.808136 0.574214
O O4 0.000000 0.867032 0.500000
O O5 0.371597 0.106058 0.139515
O O6 0.543478 0.178630 0.173772
O O7 0.480052 0.116455 0.254251
O O8 0.867049 0.110353 0.143176
O O9 0.353220 0.541504 0.907896
O O10 0.473494 0.558280 0.781367
O O11 0.228930 0.247934 0.198224
O O12 0.869478 0.287522 0.293424
O O13 0.500000 0.500000 0.000000
O O14 0.000000 0.500000 0.000000
O O15 0.396470 0.056508 0.679889
O O16 0.911201 0.075694 0.665849
O O17 0.574028 0.737006 0.619329
O O18 0.973833 0.000000 0.308844
#
# Coordination Sequence:
#
# PCOD9181589 Si02
#       8
#     8   8   8   8   4   8   8   8
#     4  12  24  37  53  70  99 136 183 227 275 352
#     4  10  19  35  57  79 115 147 191 245 273 333
#     4  10  21  35  56  88 117 154 195 221 260 315
#     4  10  19  32  53  80 113 146 179 233 305 350
#     4  12  24  40  60  90 140 172 186 210 262 322
#     4  10  21  35  53  78 101 135 175 227 298 321
#     4  10  21  35  50  71 101 135 179 221 272 343
#     4  10  19  35  60  81 105 128 178 233 261 329
#
# _framework density 18.038506000000002
#
# number of rings (size 3 to 8) (size 9 to 14) (size 15 to 20)
#    0.000    1.600    2.000    3.600    0.000    1.600 
#    0.000    0.000    0.000    8.000    0.000    0.000 
#    0.000   37.333    0.000    0.000    0.000    0.000 
#
# Total GULP energy -167468.467360 kJ/mol
# GULP energy per Si atom -5582.282245 kJ/mol
# Density = 1.799745 g / cm^3
# Si number density = 18.038506 Si / 1000 Ang^3
#
#
#
# Elastic Constant Matrix: (Units=GPa)
#
#
# Indices 1 2 3 4 5 6 
#
# 1 84.8750 10.7477 16.2664 0.0000 5.6187 0.0000
# 2 10.7477 84.1316 24.7123 0.0000 4.7636 0.0000
# 3 16.2664 24.7123 50.6593 0.0000 9.9562 0.0000
# 4 0.0000 0.0000 0.0000 23.9116 0.0000 0.6713
# 5 5.6187 4.7636 9.9562 0.0000 22.1010 0.0000
# 6 0.0000 0.0000 0.0000 0.6713 0.0000 17.0392
#
#
#
# Elastic Compliance Matrix: (Units=1/GPa)
#
#
# Indices 1 2 3 4 5 6 
#
# 1 0.012618 -0.000494 -0.003512 0.000000 -0.001519 0.000000
# 2 -0.000494 0.013894 -0.006643 0.000000 0.000124 0.000000
# 3 -0.003512 -0.006643 0.025948 0.000000 -0.009365 0.000000
# 4 0.000000 0.000000 0.000000 0.041867 0.000000 -0.001649
# 5 -0.001519 0.000124 -0.009365 0.000000 0.049825 0.000000
# 6 0.000000 0.000000 0.000000 -0.001649 0.000000 0.058753
#
#
# Mechanical properties :
#
#
# Convention : Reuss Voigt Hill
#
# Bulk Modulus (GPa) = 32.09075 35.90206 33.99641
# Shear Modulus (GPa) = 21.31367 23.80633 22.56000
#
# Velocity S-wave (km/s) = 3.44112 3.63678 3.54030
# Velocity P-wave (km/s) = 5.79803 6.13034 5.96650
#
# Compressibility (1/GPa) = 0.03116162
#
# Stress axis : x y z
#
# Youngs Moduli (GPa) = 79.25016 71.97574 38.53803
#
# Poissons Ratio (x) = 0.03558 0.13534
# Poissons Ratio (y) = 0.03918 0.25601
# Poissons Ratio (z) = 0.27832 0.47814
#
# Static dielectric constant tensor:
#      x y z
#    x 1.615280 0.000000 -0.007360 
#    y 0.000000 1.611740 0.000000 
#    z -0.007360 0.000000 1.595090 
# 
# From -- ./inp_files/253996.got.cif
#   From: 2010.05.17/outbox.cif.g08.bks.cpg/sg12_127_cif.got.tgz:253996.got - 2010.06.03 13:09:07.
