data_PCOD9181237
_publ_section_title
;
Structure prediction by ZEFSAII (Michael W. Deem and Ramdas Pophale) SiO2 
 PCOD9181237
Probable space group: C 2/M
;
_chemical_formula_sum "Si O2"
_cell_formula_units_Z 56
_cell_length_a 30.885127
_cell_length_b 10.805394
_cell_length_c 24.190215
_cell_angle_alpha 90.000000
_cell_angle_beta 160.760894
_cell_angle_gamma 90.000000
_cell_volume 2660.111377
_symmetry_space_group_name_H-M "C 2/M"
_symmetry_group_IT_number 12
_symmetry_cell_setting 'monoclinic'
loop_
_space_group_symop_operation_xyz
x,y,z
-x,y,-z
-x,-y,-z
x,-y,z
1/2+x,1/2+y,z
1/2-x,1/2+y,-z
1/2-x,1/2-y,-z
1/2+x,1/2-y,z
loop_
_atom_site_type_symbol
_atom_site_label
_atom_site_fract_x
_atom_site_fract_y
_atom_site_fract_z
Si Si1 0.199572 0.265188 0.029767
Si Si2 0.610387 0.356202 0.093652
Si Si3 0.848250 0.350399 0.311880
Si Si4 0.423558 0.639600 0.223455
Si Si5 0.569251 0.867364 0.272874
Si Si6 0.621805 0.362511 0.266472
Si Si7 0.388548 0.863065 0.544059
O O1 0.285509 0.197459 0.179367
O O2 0.294167 0.345857 0.104927
O O3 0.123003 0.172925 0.895192
O O4 0.086857 0.348146 0.921104
O O5 0.626366 0.500000 0.130761
O O6 0.753107 0.307767 0.247764
O O7 0.500000 0.294674 0.000000
O O8 0.524715 0.360738 0.933870
O O9 0.843996 0.500000 0.307202
O O10 0.000000 0.311940 0.500000
O O11 0.475199 0.500000 0.287931
O O12 0.523747 0.745875 0.365571
O O13 0.634883 0.750796 0.323221
O O14 0.593987 0.868532 0.368263
O O15 0.610439 0.000000 0.299128
O O16 0.642643 0.500000 0.315659
O O17 0.731417 0.347989 0.350279
O O18 0.427331 0.000000 0.568388
#
# Coordination Sequence:
#
# PCOD9181237 Si02
#       7
#     8   8   8   8   8   8   8
#     4  10  20  35  55  81 113 151 193 234 287 344
#     4   9  18  33  53  79 110 144 183 233 292 345
#     4  10  20  34  56  87 116 146 194 251 299 346
#     4  10  21  35  56  83 117 156 192 232 283 347
#     4  10  19  32  52  78 110 144 181 225 274 333
#     4  10  19  33  54  78 106 142 183 226 278 335
#     4   9  20  34  49  78 114 146 182 227 277 331
#
# _framework density 21.051749999999998
#
# number of rings (size 3 to 8) (size 9 to 14) (size 15 to 20)
#    0.000    2.286    1.429    1.286    0.000    8.000 
#    0.000    2.857    0.000    2.143    0.000    0.000 
#    0.000    0.000    0.000    0.000    0.000    0.000 
#
# Total GULP energy -156131.698258 kJ/mol
# GULP energy per Si atom -5576.132081 kJ/mol
# Density = 2.100384 g / cm^3
# Si number density = 21.051750 Si / 1000 Ang^3
#
#
#
# Elastic Constant Matrix: (Units=GPa)
#
#
# Indices 1 2 3 4 5 6 
#
# 1 62.3620 24.9163 20.1969 0.0000 13.7917 0.0000
# 2 24.9163 122.3850 24.0873 0.0000 18.3076 0.0000
# 3 20.1969 24.0873 124.6146 0.0000 20.8124 0.0000
# 4 0.0000 0.0000 0.0000 12.4486 0.0000 3.3848
# 5 13.7917 18.3076 20.8124 0.0000 26.0440 0.0000
# 6 0.0000 0.0000 0.0000 3.3848 0.0000 18.2512
#
#
#
# Elastic Compliance Matrix: (Units=1/GPa)
#
#
# Indices 1 2 3 4 5 6 
#
# 1 0.019096 -0.002533 -0.001401 0.000000 -0.007212 0.000000
# 2 -0.002533 0.009537 -0.000620 0.000000 -0.004867 0.000000
# 3 -0.001401 -0.000620 0.009434 0.000000 -0.006361 0.000000
# 4 0.000000 0.000000 0.000000 0.084596 0.000000 -0.015689
# 5 -0.007212 -0.004867 -0.006361 0.000000 0.050721 0.000000
# 6 0.000000 0.000000 0.000000 -0.015689 0.000000 0.057701
#
#
# Mechanical properties :
#
#
# Convention : Reuss Voigt Hill
#
# Bulk Modulus (GPa) = 34.53148 49.75138 42.14143
# Shear Modulus (GPa) = 20.01238 27.35951 23.68595
#
# Velocity S-wave (km/s) = 3.08657 3.60895 3.35793
# Velocity P-wave (km/s) = 5.39827 6.40705 5.92417
#
# Compressibility (1/GPa) = 0.02895909
#
# Stress axis : x y z
#
# Youngs Moduli (GPa) = 52.36630 104.85773 105.99893
#
# Poissons Ratio (x) = 0.26562 0.14848
# Poissons Ratio (y) = 0.13265 0.06572
# Poissons Ratio (z) = 0.07336 0.06501
#
# Static dielectric constant tensor:
#      x y z
#    x 1.813210 0.000000 -0.008260 
#    y 0.000000 1.735550 0.000000 
#    z -0.008260 0.000000 1.838920 
# 
# From -- ./inp_files/353991.got.cif
#   From: 2010.05.17/outbox.cif.g08.bks.cpg/sg12_177_cif.got.tgz:353991.got - 2010.06.03 13:09:07.
