data_PCOD9181512
_publ_section_title
;
Structure prediction by ZEFSAII (Michael W. Deem and Ramdas Pophale) SiO2 
 PCOD9181512
Probable space group: C 2/M
;
_chemical_formula_sum "Si O2"
_cell_formula_units_Z 40
_cell_length_a 19.253938
_cell_length_b 8.953298
_cell_length_c 20.497358
_cell_angle_alpha 90.000000
_cell_angle_beta 135.055166
_cell_angle_gamma 90.000000
_cell_volume 2496.128526
_symmetry_space_group_name_H-M "C 2/M"
_symmetry_group_IT_number 12
_symmetry_cell_setting 'monoclinic'
loop_
_space_group_symop_operation_xyz
x,y,z
-x,y,-z
-x,-y,-z
x,-y,z
1/2+x,1/2+y,z
1/2-x,1/2+y,-z
1/2-x,1/2-y,-z
1/2+x,1/2-y,z
loop_
_atom_site_type_symbol
_atom_site_label
_atom_site_fract_x
_atom_site_fract_y
_atom_site_fract_z
Si Si1 0.115105 0.321454 0.587707
Si Si2 0.372707 0.677188 0.265456
Si Si3 0.742260 0.821435 0.423370
Si Si4 0.979687 0.674116 0.722766
Si Si5 0.313385 0.824593 0.098276
O O1 0.126456 0.500000 0.596244
O O2 0.144987 0.252036 0.676999
O O3 0.180786 0.251693 0.574430
O O4 0.000000 0.287318 0.500000
O O5 0.364798 0.500000 0.263477
O O6 0.481297 0.726169 0.311355
O O7 0.303640 0.744654 0.162261
O O8 0.750000 0.750000 0.500000
O O9 0.629234 0.791982 0.326573
O O10 0.756698 0.000000 0.435912
O O11 0.981338 0.500000 0.702301
O O12 0.068126 0.690675 0.833689
O O13 0.291231 0.000000 0.088540
O O14 0.250000 0.750000 0.000000
#
# Coordination Sequence:
#
# PCOD9181512 Si02
#       5
#     8   8   8   8   8
#     4  11  23  37  52  73 106 144 179 221 270 313
#     4  10  19  32  53  79 105 136 177 218 260 313
#     4  11  22  36  53  76 105 141 179 218 265 314
#     4   8  18  34  51  73 107 138 168 214 265 311
#     4   9  17  32  54  81 109 138 174 219 266 313
#
# _framework density 16.024816000000001
#
# number of rings (size 3 to 8) (size 9 to 14) (size 15 to 20)
#    1.200    1.000    0.000    4.200    0.000    8.000 
#    0.000    0.000    0.000    1.200    0.000    8.400 
#    0.000    0.000    0.000    0.000    0.000    0.000 
#
# Total GULP energy -111340.744671 kJ/mol
# GULP energy per Si atom -5567.037234 kJ/mol
# Density = 1.598834 g / cm^3
# Si number density = 16.024816 Si / 1000 Ang^3
#
#
#
# Elastic Constant Matrix: (Units=GPa)
#
#
# Indices 1 2 3 4 5 6 
#
# 1 122.2253 69.5812 67.8225 0.0000 -11.1670 0.0000
# 2 69.5812 102.3552 71.8867 0.0000 -4.6531 0.0000
# 3 67.8225 71.8867 128.9207 0.0000 -11.6305 0.0000
# 4 0.0000 0.0000 0.0000 29.1828 0.0000 -4.6591
# 5 -11.1670 -4.6531 -11.6305 0.0000 23.1587 0.0000
# 6 0.0000 0.0000 0.0000 -4.6591 0.0000 25.5369
#
#
#
# Elastic Compliance Matrix: (Units=1/GPa)
#
#
# Indices 1 2 3 4 5 6 
#
# 1 0.014552 -0.007539 -0.003096 0.000000 0.003947 0.000000
# 2 -0.007539 0.020004 -0.007493 0.000000 -0.003379 0.000000
# 3 -0.003096 -0.007493 0.013924 0.000000 0.003994 0.000000
# 4 0.000000 0.000000 0.000000 0.035295 0.000000 0.006439
# 5 0.003947 -0.003379 0.003994 0.000000 0.046411 0.000000
# 6 0.000000 0.000000 0.000000 0.006439 0.000000 0.040334
#
#
# Mechanical properties :
#
#
# Convention : Reuss Voigt Hill
#
# Bulk Modulus (GPa) = 81.80335 85.78690 83.79513
# Shear Modulus (GPa) = 23.71378 25.18973 24.45176
#
# Velocity S-wave (km/s) = 3.85101 3.96905 3.91047
# Velocity P-wave (km/s) = 8.42214 8.64028 8.53191
#
# Compressibility (1/GPa) = 0.01222444
#
# Stress axis : x y z
#
# Youngs Moduli (GPa) = 68.72061 49.99107 71.81986
#
# Poissons Ratio (x) = 0.37686 0.22233
# Poissons Ratio (y) = 0.51806 0.53814
# Poissons Ratio (z) = 0.21273 0.37458
#
# Static dielectric constant tensor:
#      x y z
#    x 1.523940 0.000000 0.023730 
#    y 0.000000 1.533790 0.000000 
#    z 0.023730 0.000000 1.541110 
# 
# From -- ./inp_files/220273.got.cif
#   From: 2010.05.17/outbox.cif.g08.bks.cpg/sg12_111_cif.got.tgz:220273.got - 2010.06.03 13:09:07.
