data_PCOD9181298
_publ_section_title
;
Structure prediction by ZEFSAII (Michael W. Deem and Ramdas Pophale) SiO2 
 PCOD9181298
Probable space group: C 2/M
;
_chemical_formula_sum "Si O2"
_cell_formula_units_Z 64
_cell_length_a 14.599751
_cell_length_b 17.972865
_cell_length_c 12.359618
_cell_angle_alpha 90.000000
_cell_angle_beta 86.957376
_cell_angle_gamma 90.000000
_cell_volume 3238.583978
_symmetry_space_group_name_H-M "C 2/M"
_symmetry_group_IT_number 12
_symmetry_cell_setting 'monoclinic'
loop_
_space_group_symop_operation_xyz
x,y,z
-x,y,-z
-x,-y,-z
x,-y,z
1/2+x,1/2+y,z
1/2-x,1/2+y,-z
1/2-x,1/2-y,-z
1/2+x,1/2-y,z
loop_
_atom_site_type_symbol
_atom_site_label
_atom_site_fract_x
_atom_site_fract_y
_atom_site_fract_z
Si Si1 0.710064 0.085409 0.417937
Si Si2 0.929065 0.318784 0.227663
Si Si3 0.157570 0.283198 0.557923
Si Si4 0.147968 0.660314 0.995451
Si Si5 0.359913 0.339767 0.981375
Si Si6 0.096298 0.587772 0.223695
Si Si7 0.522113 0.648588 0.819891
Si Si8 0.923437 0.874937 0.421375
O O1 0.648211 0.141207 0.491941
O O2 0.684333 0.102707 0.294635
O O3 0.818617 0.095818 0.435109
O O4 0.686140 0.000000 0.440076
O O5 0.844975 0.305358 0.315345
O O6 0.969921 0.237418 0.200050
O O7 0.008124 0.368751 0.274909
O O8 0.899621 0.354438 0.116038
O O9 0.250000 0.250000 0.500000
O O10 0.087657 0.214256 0.556944
O O11 0.136655 0.749264 0.015398
O O12 0.110738 0.618507 0.102308
O O13 0.254546 0.640676 0.977846
O O14 0.423861 0.366685 0.879579
O O15 0.403504 0.367945 0.091259
O O16 0.080676 0.500000 0.222621
O O17 0.542881 0.612516 0.703483
O O18 0.000000 0.903539 0.500000
#
# Coordination Sequence:
#
# PCOD9181298 Si02
#       8
#     8   8   8   8   8   8   8   8
#     4  10  23  41  58  79 114 158 199 236 292 364
#     4  10  20  34  53  80 113 146 187 238 289 346
#     4   9  21  38  58  85 117 149 190 245 301 349
#     4  10  19  32  52  80 111 146 188 233 284 348
#     4   9  17  29  53  78 108 146 174 228 291 340
#     4  11  23  37  56  79 114 162 197 234 284 351
#     4   9  17  32  50  81 113 135 179 231 292 349
#     4  10  21  35  60  88 111 145 189 251 303 341
#
# _framework density 19.761723
#
# number of rings (size 3 to 8) (size 9 to 14) (size 15 to 20)
#    0.000    2.250    1.250    1.125    3.500    6.750 
#    0.000    1.250    0.000    0.750    0.000    3.500 
#    0.000    0.000    0.000    0.000    0.000    0.000 
#
# Total GULP energy -178386.289086 kJ/mol
# GULP energy per Si atom -5574.571534 kJ/mol
# Density = 1.971674 g / cm^3
# Si number density = 19.761723 Si / 1000 Ang^3
#
#
#
# Elastic Constant Matrix: (Units=GPa)
#
#
# Indices 1 2 3 4 5 6 
#
# 1 82.3539 -0.8877 28.4216 0.0000 1.8055 0.0000
# 2 -0.8877 39.4990 19.4108 0.0000 5.2969 0.0000
# 3 28.4216 19.4108 99.1692 0.0000 -9.2743 0.0000
# 4 0.0000 0.0000 0.0000 11.6036 0.0000 2.4872
# 5 1.8055 5.2969 -9.2743 0.0000 29.7371 0.0000
# 6 0.0000 0.0000 0.0000 2.4872 0.0000 11.2685
#
#
#
# Elastic Compliance Matrix: (Units=1/GPa)
#
#
# Indices 1 2 3 4 5 6 
#
# 1 0.013920 0.003096 -0.004868 0.000000 -0.002915 0.000000
# 2 0.003096 0.030146 -0.007527 0.000000 -0.007905 0.000000
# 3 -0.004868 -0.007527 0.013499 0.000000 0.005846 0.000000
# 4 0.000000 0.000000 0.000000 0.090460 0.000000 -0.019966
# 5 -0.002915 -0.007905 0.005846 0.000000 0.037036 0.000000
# 6 0.000000 0.000000 0.000000 -0.019966 0.000000 0.093150
#
#
# Mechanical properties :
#
#
# Convention : Reuss Voigt Hill
#
# Bulk Modulus (GPa) = 25.66309 34.99015 30.32662
# Shear Modulus (GPa) = 16.13956 22.12702 19.13329
#
# Velocity S-wave (km/s) = 2.86091 3.34981 3.11497
# Velocity P-wave (km/s) = 4.89158 5.71892 5.32135
#
# Compressibility (1/GPa) = 0.03896647
#
# Stress axis : x y z
#
# Youngs Moduli (GPa) = 71.83895 33.17216 74.07958
#
# Poissons Ratio (x) = -0.10270 0.36062
# Poissons Ratio (y) = -0.22241 0.55761
# Poissons Ratio (z) = 0.34971 0.24969
#
# Static dielectric constant tensor:
#      x y z
#    x 1.701580 0.000000 0.001170 
#    y 0.000000 1.699120 0.000000 
#    z 0.001170 0.000000 1.704370 
# 
# From -- ./inp_files/146124.got.cif
#   From: 2010.05.17/outbox.cif.g08.bks.cpg/sg12_74_cif.got.tgz:146124.got - 2010.06.03 13:09:07.
