data_PCOD9181885
_publ_section_title
;
Structure prediction by ZEFSAII (Michael W. Deem and Ramdas Pophale) SiO2 
 PCOD9181885
Probable space group: C 2/M
;
_chemical_formula_sum "Si O2"
_cell_formula_units_Z 40
_cell_length_a 14.431186
_cell_length_b 9.869325
_cell_length_c 23.261860
_cell_angle_alpha 90.000000
_cell_angle_beta 145.786527
_cell_angle_gamma 90.000000
_cell_volume 1862.880030
_symmetry_space_group_name_H-M "C 2/M"
_symmetry_group_IT_number 12
_symmetry_cell_setting 'monoclinic'
loop_
_space_group_symop_operation_xyz
x,y,z
-x,y,-z
-x,-y,-z
x,-y,z
1/2+x,1/2+y,z
1/2-x,1/2+y,-z
1/2-x,1/2-y,-z
1/2+x,1/2-y,z
loop_
_atom_site_type_symbol
_atom_site_label
_atom_site_fract_x
_atom_site_fract_y
_atom_site_fract_z
Si Si1 0.297558 0.348103 0.608046
Si Si2 0.315872 0.341795 0.919598
Si Si3 0.062378 0.843967 0.846496
Si Si4 0.745666 0.343557 0.242354
Si Si5 0.528680 0.344138 0.428346
O O1 0.225445 0.500000 0.576701
O O2 0.432583 0.331255 0.726965
O O3 0.388569 0.343401 0.592963
O O4 0.157645 0.234154 0.534896
O O5 0.325867 0.500000 0.941580
O O6 0.226895 0.333854 0.811693
O O7 0.211678 0.255880 0.910943
O O8 0.500000 0.292912 0.000000
O O9 0.945742 0.816820 0.841198
O O10 0.118831 0.000000 0.877303
O O11 0.777434 0.500000 0.275783
O O12 0.862833 0.241644 0.335862
O O13 0.501531 0.500000 0.430587
#
# Coordination Sequence:
#
# PCOD9181885 Si02
#       5
#     8   8   8   8   8
#     4   9  18  33  53  78 111 148 186 225 269 322
#     4  10  22  40  60  83 112 144 180 229 286 334
#     4  10  21  38  59  84 111 146 189 227 269 329
#     4  10  21  37  58  82 113 149 184 225 277 330
#     4  10  19  32  54  82 112 147 189 227 266 322
#
# _framework density 21.47213
#
# number of rings (size 3 to 8) (size 9 to 14) (size 15 to 20)
#    0.000    2.200    2.000    0.600    0.000    4.400 
#    0.000    4.000    0.000    0.000    0.000    0.000 
#    0.000    0.000    0.000    0.000    0.000    0.000 
#
# Total GULP energy -111814.402424 kJ/mol
# GULP energy per Si atom -5590.720121 kJ/mol
# Density = 2.142326 g / cm^3
# Si number density = 21.472130 Si / 1000 Ang^3
#
#
#
# Elastic Constant Matrix: (Units=GPa)
#
#
# Indices 1 2 3 4 5 6 
#
# 1 88.4092 39.4823 11.6754 0.0000 7.9865 0.0000
# 2 39.4823 140.1862 69.0051 0.0001 38.2146 0.0000
# 3 11.6754 69.0051 72.6340 0.0001 17.7950 0.0000
# 4 0.0000 0.0001 0.0001 37.2983 0.0000 15.1898
# 5 7.9865 38.2146 17.7950 0.0000 39.9767 0.0000
# 6 0.0000 0.0000 0.0000 15.1898 0.0000 22.5325
#
#
#
# Elastic Compliance Matrix: (Units=1/GPa)
#
#
# Indices 1 2 3 4 5 6 
#
# 1 0.013257 -0.005425 0.002695 0.000000 0.001338 0.000000
# 2 -0.005425 0.018380 -0.014087 0.000000 -0.010216 0.000000
# 3 0.002695 -0.014087 0.026433 0.000000 0.001161 0.000000
# 4 0.000000 0.000000 0.000000 0.036957 0.000000 -0.024914
# 5 0.001338 -0.010216 0.001161 0.000000 0.033996 0.000000
# 6 0.000000 0.000000 0.000000 -0.024914 0.000000 0.061176
#
#
# Mechanical properties :
#
#
# Convention : Reuss Voigt Hill
#
# Bulk Modulus (GPa) = 40.92213 60.17279 50.54746
# Shear Modulus (GPa) = 21.55371 32.03260 26.79315
#
# Velocity S-wave (km/s) = 3.17172 3.86660 3.53627
# Velocity P-wave (km/s) = 5.70199 6.92955 6.34552
#
# Compressibility (1/GPa) = 0.02443665
#
# Stress axis : x y z
#
# Youngs Moduli (GPa) = 75.43156 54.40572 37.83113
#
# Poissons Ratio (x) = 0.29516 -0.10197
# Poissons Ratio (y) = 0.40923 0.53294
# Poissons Ratio (z) = -0.20332 0.76643
#
# Static dielectric constant tensor:
#      x y z
#    x 1.816380 0.000000 -0.027220 
#    y 0.000000 1.727140 0.000000 
#    z -0.027220 0.000000 1.763560 
# 
# From -- ./inp_files/211169.got.cif
#   From: 2010.05.17/outbox.cif.g08.bks.cpg/sg12_106_cif.got.tgz:211169.got - 2010.06.03 13:09:07.
