data_PCOD9181117
_publ_section_title
;
Structure prediction by ZEFSAII (Michael W. Deem and Ramdas Pophale) SiO2 
 PCOD9181117
Probable space group: C 2/M
;
_chemical_formula_sum "Si O2"
_cell_formula_units_Z 56
_cell_length_a 25.667518
_cell_length_b 8.802835
_cell_length_c 17.266581
_cell_angle_alpha 90.000000
_cell_angle_beta 59.570617
_cell_angle_gamma 90.000000
_cell_volume 3363.938352
_symmetry_space_group_name_H-M "C 2/M"
_symmetry_group_IT_number 12
_symmetry_cell_setting 'monoclinic'
loop_
_space_group_symop_operation_xyz
x,y,z
-x,y,-z
-x,-y,-z
x,-y,z
1/2+x,1/2+y,z
1/2-x,1/2+y,-z
1/2-x,1/2-y,-z
1/2+x,1/2-y,z
loop_
_atom_site_type_symbol
_atom_site_label
_atom_site_fract_x
_atom_site_fract_y
_atom_site_fract_z
Si Si1 0.122144 0.818117 0.385538
Si Si2 0.194154 0.183150 0.590077
Si Si3 0.073206 0.816952 0.592099
Si Si4 0.256280 0.682786 0.283629
Si Si5 0.056763 0.319395 0.284382
Si Si6 0.844813 0.181228 0.894779
Si Si7 0.227377 0.817605 0.902043
O O1 0.088335 0.780305 0.491217
O O2 0.190661 0.759105 0.339142
O O3 0.089194 0.745077 0.337025
O O4 0.122194 0.000000 0.376748
O O5 0.250000 0.250000 0.500000
O O6 0.130766 0.230702 0.600228
O O7 0.203637 0.226036 0.672589
O O8 0.196776 0.000000 0.582351
O O9 0.011402 0.740619 0.664584
O O10 0.066997 0.000000 0.602049
O O11 0.247919 0.500000 0.292268
O O12 0.283690 0.720795 0.179034
O O13 0.058387 0.500000 0.285220
O O14 0.095618 0.259262 0.182764
O O15 0.788314 0.236279 0.885016
O O16 0.850752 0.000000 0.883938
O O17 0.825190 0.220716 0.997314
O O18 0.237195 0.000000 0.900183
#
# Coordination Sequence:
#
# PCOD9181117 Si02
#       7
#     8   8   8   8   8   8   8
#     4  11  21  34  53  78 108 141 174 210 261 319
#     4  10  20  35  55  78 106 140 177 217 258 303
#     4  10  22  38  53  74 106 143 181 216 256 312
#     4  10  19  32  54  81 110 138 170 215 260 306
#     4  12  24  36  52  76 106 140 180 220 264 315
#     4  10  19  32  52  76 106 139 172 212 264 319
#     4   9  18  32  51  79 108 136 171 213 262 315
#
# _framework density 16.647154
#
# number of rings (size 3 to 8) (size 9 to 14) (size 15 to 20)
#    0.000    1.714    2.857    2.571    0.000    4.000 
#    0.000    0.000    0.000    0.857    0.000    6.000 
#    0.000    0.000    0.000    0.000    0.000    0.000 
#
# Total GULP energy -156329.666745 kJ/mol
# GULP energy per Si atom -5583.202384 kJ/mol
# Density = 1.660926 g / cm^3
# Si number density = 16.647154 Si / 1000 Ang^3
#
#
#
# Elastic Constant Matrix: (Units=GPa)
#
#
# Indices 1 2 3 4 5 6 
#
# 1 86.1783 33.5105 67.6374 0.0000 -11.8983 0.0002
# 2 33.5105 37.6097 52.4868 0.0000 -4.3705 0.0003
# 3 67.6374 52.4868 158.4028 0.0000 -4.1868 0.0000
# 4 0.0000 0.0000 0.0000 23.0869 0.0000 -6.5798
# 5 -11.8983 -4.3705 -4.1868 0.0000 25.5670 0.0000
# 6 0.0002 0.0003 0.0000 -6.5798 0.0000 23.1677
#
#
#
# Elastic Compliance Matrix: (Units=1/GPa)
#
#
# Indices 1 2 3 4 5 6 
#
# 1 0.020689 -0.010323 -0.005228 0.000000 0.007007 0.000000
# 2 -0.010323 0.055482 -0.013912 0.000000 0.002402 -0.000001
# 3 -0.005228 -0.013912 0.013085 0.000000 -0.002669 0.000000
# 4 0.000000 0.000000 0.000000 0.047129 0.000000 0.013385
# 5 0.007007 0.002402 -0.002669 0.000000 0.042347 0.000000
# 6 0.000000 -0.000001 0.000000 0.013385 0.000000 0.046965
#
#
# Mechanical properties :
#
#
# Convention : Reuss Voigt Hill
#
# Bulk Modulus (GPa) = 32.97326 65.49558 49.23442
# Shear Modulus (GPa) = 16.96441 22.93475 19.94958
#
# Velocity S-wave (km/s) = 3.19573 3.71576 3.46551
# Velocity P-wave (km/s) = 5.78507 7.60513 6.75667
#
# Compressibility (1/GPa) = 0.03032760
#
# Stress axis : x y z
#
# Youngs Moduli (GPa) = 48.33482 18.02390 76.42458
#
# Poissons Ratio (x) = 0.18607 0.39957
# Poissons Ratio (y) = 0.49898 1.06325
# Poissons Ratio (z) = 0.25271 0.25076
#
# Static dielectric constant tensor:
#      x y z
#    x 1.532460 0.000000 0.018260 
#    y 0.000000 1.558050 0.000000 
#    z 0.018260 0.000000 1.569310 
# 
# From -- ./inp_files/287348.got.cif
#   From: 2010.05.17/outbox.cif.g08.bks.cpg/sg12_144_cif.got.tgz:287348.got - 2010.06.03 13:09:07.
