data_PCOD9181060
_publ_section_title
;
Structure prediction by ZEFSAII (Michael W. Deem and Ramdas Pophale) SiO2 
 PCOD9181060
Probable space group: C 2/M
;
_chemical_formula_sum "Si O2"
_cell_formula_units_Z 56
_cell_length_a 19.340512
_cell_length_b 7.867953
_cell_length_c 30.835571
_cell_angle_alpha 90.000000
_cell_angle_beta 37.811740
_cell_angle_gamma 90.000000
_cell_volume 2876.676571
_symmetry_space_group_name_H-M "C 2/M"
_symmetry_group_IT_number 12
_symmetry_cell_setting 'monoclinic'
loop_
_space_group_symop_operation_xyz
x,y,z
-x,y,-z
-x,-y,-z
x,-y,z
1/2+x,1/2+y,z
1/2-x,1/2+y,-z
1/2-x,1/2-y,-z
1/2+x,1/2-y,z
loop_
_atom_site_type_symbol
_atom_site_label
_atom_site_fract_x
_atom_site_fract_y
_atom_site_fract_z
Si Si1 0.171225 0.701907 0.216350
Si Si2 0.986323 0.706947 0.371361
Si Si3 0.790447 0.795102 0.932270
Si Si4 0.569143 0.800670 0.505942
Si Si5 0.628133 0.794791 0.935014
Si Si6 0.178033 0.698367 0.624605
Si Si7 0.009161 0.194936 0.220044
O O1 0.153299 0.500000 0.218939
O O2 0.300760 0.741886 0.142605
O O3 0.099888 0.796359 0.214438
O O4 0.110492 0.749024 0.291328
O O5 0.978564 0.500000 0.375756
O O6 0.959868 0.772346 0.432275
O O7 0.895641 0.763499 0.379933
O O8 0.700143 0.734340 0.941049
O O9 0.915983 0.732909 0.856600
O O10 0.795282 0.000000 0.926375
O O11 0.750000 0.750000 0.000000
O O12 0.500000 0.724990 0.500000
O O13 0.702143 0.787131 0.431857
O O14 0.538128 0.000000 0.523789
O O15 0.626096 0.000000 0.937195
O O16 0.500000 0.733147 0.000000
O O17 0.199785 0.500000 0.606542
O O18 0.100609 0.717348 0.705703
O O19 0.978899 0.000000 0.226016
#
# Coordination Sequence:
#
# PCOD9181060 Si02
#       7
#     8   8   8   8   8   8   8
#     4   9  16  28  48  73  98 122 156 204 248 282
#     4   8  16  31  50  73  96 121 159 202 241 283
#     4   9  18  31  49  72  97 127 160 197 239 284
#     4  10  20  34  51  70  98 134 162 189 236 295
#     4   9  18  33  50  69  97 131 166 200 236 285
#     4  10  19  32  52  75  97 122 159 207 245 276
#     4   9  17  31  50  72  97 126 162 198 237 286
#
# _framework density 19.466909000000001
#
# number of rings (size 3 to 8) (size 9 to 14) (size 15 to 20)
#    0.000    2.857    0.000    3.429    0.000    3.429 
#    0.000    5.000    0.000    5.143    0.000    0.000 
#    0.000    0.000    0.000    0.000    0.000    0.000 
#
# Total GULP energy -155984.912039 kJ/mol
# GULP energy per Si atom -5570.889716 kJ/mol
# Density = 1.942260 g / cm^3
# Si number density = 19.466909 Si / 1000 Ang^3
#
#
#
# Elastic Constant Matrix: (Units=GPa)
#
#
# Indices 1 2 3 4 5 6 
#
# 1 71.5984 3.1845 71.1717 0.0040 3.1209 0.0191
# 2 3.1845 22.2818 -7.6427 0.0021 2.5995 -0.0066
# 3 71.1717 -7.6427 175.3328 0.0020 6.5081 0.0025
# 4 0.0040 0.0021 0.0020 21.0760 -0.0003 -2.3993
# 5 3.1209 2.5995 6.5081 -0.0003 26.0643 -0.0021
# 6 0.0191 -0.0066 0.0025 -2.3993 -0.0021 8.5902
#
#
#
# Elastic Compliance Matrix: (Units=1/GPa)
#
#
# Indices 1 2 3 4 5 6 
#
# 1 0.024448 -0.007047 -0.010244 -0.000010 0.000333 -0.000059
# 2 -0.007047 0.048270 0.005160 0.000002 -0.005259 0.000050
# 3 -0.010244 0.005160 0.010154 0.000003 -0.001824 0.000024
# 4 -0.000010 0.000002 0.000003 0.049005 0.000002 0.013687
# 5 0.000333 -0.005259 -0.001824 0.000002 0.039307 0.000006
# 6 -0.000059 0.000050 0.000024 0.013687 0.000006 0.120235
#
#
# Mechanical properties :
#
#
# Convention : Reuss Voigt Hill
#
# Bulk Modulus (GPa) = 17.06153 44.73779 30.89966
# Shear Modulus (GPa) = 14.91564 24.64606 19.78085
#
# Velocity S-wave (km/s) = 2.77104 3.56202 3.19113
# Velocity P-wave (km/s) = 4.36138 6.32049 5.43002
#
# Compressibility (1/GPa) = 0.05861137
#
# Stress axis : x y z
#
# Youngs Moduli (GPa) = 40.90258 20.71673 98.48153
#
# Poissons Ratio (x) = 0.14598 1.00881
# Poissons Ratio (y) = 0.28823 -0.50813
# Poissons Ratio (z) = 0.41899 -0.10689
#
# Static dielectric constant tensor:
#      x y z
#    x 1.665650 0.000000 0.013710 
#    y 0.000000 1.708950 0.000000 
#    z 0.013710 0.000000 1.720400 
# 
# From -- ./inp_files/377644.got.cif
#   From: 2010.05.17/outbox.cif.g08.bks.cpg/sg12_189_cif.got.tgz:377644.got - 2010.06.03 13:09:07.
