data_PCOD9181279
_publ_section_title
;
Structure prediction by ZEFSAII (Michael W. Deem and Ramdas Pophale) SiO2 
 PCOD9181279
Probable space group: C 2/M
;
_chemical_formula_sum "Si O2"
_cell_formula_units_Z 56
_cell_length_a 14.457817
_cell_length_b 16.370480
_cell_length_c 24.268953
_cell_angle_alpha 90.000000
_cell_angle_beta 29.463555
_cell_angle_gamma 90.000000
_cell_volume 2825.305217
_symmetry_space_group_name_H-M "C 2/M"
_symmetry_group_IT_number 12
_symmetry_cell_setting 'monoclinic'
loop_
_space_group_symop_operation_xyz
x,y,z
-x,y,-z
-x,-y,-z
x,-y,z
1/2+x,1/2+y,z
1/2-x,1/2+y,-z
1/2-x,1/2-y,-z
1/2+x,1/2-y,z
loop_
_atom_site_type_symbol
_atom_site_label
_atom_site_fract_x
_atom_site_fract_y
_atom_site_fract_z
Si Si1 0.877057 0.228638 0.117923
Si Si2 0.440938 0.193206 0.319873
Si Si3 0.690068 0.596106 0.373437
Si Si4 0.917214 0.588850 0.433329
Si Si5 0.396561 0.378326 0.321462
Si Si6 0.742938 0.906792 0.789594
Si Si7 0.636157 0.407839 0.787679
O O1 0.663589 0.202774 0.213339
O O2 0.876829 0.325318 0.133855
O O3 0.933970 0.166271 0.137436
O O4 0.000000 0.216972 0.000000
O O5 0.372343 0.135275 0.306669
O O6 0.359726 0.157048 0.418991
O O7 0.370603 0.281872 0.340708
O O8 0.500000 0.630486 0.500000
O O9 0.694294 0.500000 0.382576
O O10 0.689790 0.606510 0.308063
O O11 0.894677 0.500000 0.417348
O O12 0.790719 0.588097 0.552992
O O13 0.136574 0.599454 0.332694
O O14 0.575616 0.403918 0.264944
O O15 0.428920 0.400810 0.241526
O O16 0.661503 0.000000 0.835561
O O17 0.592584 0.500000 0.831160
#
# Coordination Sequence:
#
# PCOD9181279 Si02
#       7
#     8   8   8   8   8   8   8
#     4  10  23  43  62  81 108 145 194 251 301 336
#     4  10  21  35  55  83 113 149 194 237 276 332
#     4  10  20  35  57  86 122 160 190 224 276 340
#     4  10  19  32  52  79 113 150 184 223 276 337
#     4  11  20  33  54  83 118 151 181 222 283 348
#     4  10  21  37  58  85 116 150 191 235 281 343
#     4  10  21  36  56  83 113 146 186 232 284 345
#
# _framework density 19.820865999999999
#
# number of rings (size 3 to 8) (size 9 to 14) (size 15 to 20)
#    0.000    1.857    0.000    4.286    0.000    6.857 
#    0.000    6.429    0.000    3.429    0.000    0.000 
#    0.000    0.000    0.000    0.000    0.000    0.000 
#
# Total GULP energy -156227.422522 kJ/mol
# GULP energy per Si atom -5579.550804 kJ/mol
# Density = 1.977575 g / cm^3
# Si number density = 19.820866 Si / 1000 Ang^3
#
#
#
# Elastic Constant Matrix: (Units=GPa)
#
#
# Indices 1 2 3 4 5 6 
#
# 1 92.4247 55.8986 16.4732 0.0013 27.5209 0.0025
# 2 55.8986 112.7821 37.6473 0.0015 22.2473 0.0025
# 3 16.4732 37.6473 58.5223 0.0121 27.5701 0.0066
# 4 0.0013 0.0015 0.0121 22.5410 -0.0003 21.2055
# 5 27.5209 22.2473 27.5701 -0.0003 19.7793 -0.0023
# 6 0.0025 0.0025 0.0066 21.2055 -0.0023 58.4759
#
#
#
# Elastic Compliance Matrix: (Units=1/GPa)
#
#
# Indices 1 2 3 4 5 6 
#
# 1 0.054971 -0.020670 0.066709 -0.000039 -0.146223 -0.000001
# 2 -0.020670 0.019459 -0.028944 0.000017 0.047217 -0.000001
# 3 0.066709 -0.028944 0.131999 -0.000078 -0.244255 0.000002
# 4 -0.000039 0.000017 -0.000078 0.067335 0.000143 -0.024418
# 5 -0.146223 0.047217 -0.244255 0.000143 0.541366 0.000001
# 6 -0.000001 -0.000001 0.000002 -0.024418 0.000001 0.025956
#
#
# Mechanical properties :
#
#
# Convention : Reuss Voigt Hill
#
# Bulk Modulus (GPa) = 4.15592 53.75194 28.95393
# Shear Modulus (GPa) = 5.63634 30.40656 18.02145
#
# Velocity S-wave (km/s) = 1.68814 3.92097 3.01859
# Velocity P-wave (km/s) = 2.42921 6.90481 5.17578
#
# Compressibility (1/GPa) = 0.24062052
#
# Stress axis : x y z
#
# Youngs Moduli (GPa) = 18.19145 51.39065 7.57582
#
# Poissons Ratio (x) = 1.06222 -0.50538
# Poissons Ratio (y) = 0.37601 0.21927
# Poissons Ratio (z) = -1.21354 1.48744
#
# Static dielectric constant tensor:
#      x y z
#    x 1.692370 0.000000 0.000810 
#    y 0.000000 1.754560 0.000000 
#    z 0.000810 0.000000 1.668200 
# 
# From -- ./inp_files/240877.got.cif
#   From: 2010.05.17/outbox.cif.g08.bks.cpg/sg12_121_cif.got.tgz:240877.got - 2010.06.03 13:09:07.
