data_PCOD9181597
_publ_section_title
;
Structure prediction by ZEFSAII (Michael W. Deem and Ramdas Pophale) SiO2 
 PCOD9181597
Probable space group: C 2/M
;
_chemical_formula_sum "Si O2"
_cell_formula_units_Z 64
_cell_length_a 19.453218
_cell_length_b 7.550328
_cell_length_c 30.010316
_cell_angle_alpha 90.000000
_cell_angle_beta 43.002239
_cell_angle_gamma 90.000000
_cell_volume 3006.279600
_symmetry_space_group_name_H-M "C 2/M"
_symmetry_group_IT_number 12
_symmetry_cell_setting 'monoclinic'
loop_
_space_group_symop_operation_xyz
x,y,z
-x,y,-z
-x,-y,-z
x,-y,z
1/2+x,1/2+y,z
1/2-x,1/2+y,-z
1/2-x,1/2-y,-z
1/2+x,1/2-y,z
loop_
_atom_site_type_symbol
_atom_site_label
_atom_site_fract_x
_atom_site_fract_y
_atom_site_fract_z
Si Si1 0.102356 0.782750 0.927682
Si Si2 0.923029 0.785139 0.415259
Si Si3 0.636126 0.707744 0.273947
Si Si4 0.317660 0.799646 0.848035
Si Si5 0.145510 0.214077 0.806836
Si Si6 0.823110 0.217258 0.372059
Si Si7 0.896763 0.703755 0.529579
Si Si8 0.533118 0.706618 0.773956
O O1 0.205337 0.721238 0.902876
O O2 0.109311 0.725683 0.872845
O O3 0.105051 0.000000 0.926741
O O4 0.000000 0.727284 0.000000
O O5 0.035622 0.733482 0.346366
O O6 0.849244 0.728569 0.410169
O O7 0.901339 0.708844 0.473869
O O8 0.919310 0.000000 0.420617
O O9 0.622559 0.500000 0.270035
O O10 0.654943 0.798421 0.217563
O O11 0.737710 0.733999 0.253727
O O12 0.413284 0.717775 0.826876
O O13 0.311229 0.000000 0.867295
O O14 0.078494 0.281751 0.797926
O O15 0.141406 0.000000 0.809897
O O16 0.713633 0.279322 0.407372
O O17 0.910696 0.277018 0.296770
O O18 0.821819 0.000000 0.373871
O O19 0.895066 0.500000 0.546420
O O20 0.000000 0.784876 0.500000
O O21 0.559835 0.500000 0.761719
#
# Coordination Sequence:
#
# PCOD9181597 Si02
#       8
#     8   8   8   8   8   8   8   8
#     4   8  15  31  53  77 107 141 176 213 255 304
#     4  10  20  35  54  72  98 135 171 205 260 322
#     4  10  19  33  53  76 104 139 172 213 267 314
#     4  10  19  32  53  81 106 134 178 218 251 305
#     4   9  19  32  53  81 105 139 180 215 257 308
#     4   9  18  35  53  71  99 135 169 206 262 316
#     4  10  22  36  53  76 100 130 170 217 264 307
#     4  10  19  34  54  75 108 142 170 215 268 316
#
# _framework density 21.288772000000002
#
# number of rings (size 3 to 8) (size 9 to 14) (size 15 to 20)
#    0.000    2.500    1.250    1.875    1.750    1.750 
#    0.000    1.250    0.000    9.375    0.000    0.000 
#    0.000    0.000    0.000    0.000    0.000    0.000 
#
# Total GULP energy -178595.417790 kJ/mol
# GULP energy per Si atom -5581.106806 kJ/mol
# Density = 2.124032 g / cm^3
# Si number density = 21.288772 Si / 1000 Ang^3
#
#
#
# Elastic Constant Matrix: (Units=GPa)
#
#
# Indices 1 2 3 4 5 6 
#
# 1 144.5698 -3.8996 36.6141 -0.0040 -26.6558 -0.0219
# 2 -3.8996 48.0000 -3.4542 -0.0050 2.1673 -0.0663
# 3 36.6141 -3.4542 87.3985 -0.0029 -33.1802 -0.0073
# 4 -0.0040 -0.0050 -0.0029 11.5957 0.0018 -10.8900
# 5 -26.6558 2.1673 -33.1802 0.0018 29.0975 0.0056
# 6 -0.0219 -0.0663 -0.0073 -10.8900 0.0056 -56.2450
#
#
#
# Elastic Compliance Matrix: (Units=1/GPa)
#
#
# Indices 1 2 3 4 5 6 
#
# 1 0.008382 0.000314 -0.001045 -0.000001 0.006463 -0.000003
# 2 0.000314 0.020924 0.000376 -0.000012 -0.000843 -0.000023
# 3 -0.001045 0.000376 0.020315 0.000001 0.022180 -0.000001
# 4 -0.000001 -0.000012 0.000001 0.072970 -0.000001 -0.014128
# 5 0.006463 -0.000843 0.022180 -0.000001 0.065643 0.000002
# 6 -0.000003 -0.000023 -0.000001 -0.014128 0.000002 -0.015044
#
#
# Mechanical properties :
#
#
# Convention : Reuss Voigt Hill
#
# Bulk Modulus (GPa) = 20.44610 37.60986 29.02798
# Shear Modulus (GPa) = 26.28742 13.60350 19.94546
#
# Velocity S-wave (km/s) = 3.51779 2.53058 3.06420
# Velocity P-wave (km/s) = 5.11124 5.12283 5.11704
#
# Compressibility (1/GPa) = 0.04890907
#
# Stress axis : x y z
#
# Youngs Moduli (GPa) = 119.30361 47.79225 49.22462
#
# Poissons Ratio (x) = -0.01500 0.05146
# Poissons Ratio (y) = -0.03745 -0.01849
# Poissons Ratio (z) = 0.12472 -0.01795
#
# Static dielectric constant tensor:
#      x y z
#    x 1.765990 0.000000 -0.024660 
#    y 0.000000 1.802960 0.000000 
#    z -0.024660 0.000000 1.746240 
# 
# From -- ./inp_files/314190.got.cif
#   From: 2010.05.17/outbox.cif.g08.bks.cpg/sg12_158_cif.got.tgz:314190.got - 2010.06.03 13:09:07.
