data_PCOD9181340
_publ_section_title
;
Structure prediction by ZEFSAII (Michael W. Deem and Ramdas Pophale) SiO2 
 PCOD9181340
Probable space group: C 2/M
;
_chemical_formula_sum "Si O2"
_cell_formula_units_Z 56
_cell_length_a 21.203093
_cell_length_b 7.981055
_cell_length_c 23.675481
_cell_angle_alpha 90.000000
_cell_angle_beta 46.520987
_cell_angle_gamma 90.000000
_cell_volume 2907.176803
_symmetry_space_group_name_H-M "C 2/M"
_symmetry_group_IT_number 12
_symmetry_cell_setting 'monoclinic'
loop_
_space_group_symop_operation_xyz
x,y,z
-x,y,-z
-x,-y,-z
x,-y,z
1/2+x,1/2+y,z
1/2-x,1/2+y,-z
1/2-x,1/2-y,-z
1/2+x,1/2-y,z
loop_
_atom_site_type_symbol
_atom_site_label
_atom_site_fract_x
_atom_site_fract_y
_atom_site_fract_z
Si Si1 0.439602 0.294557 0.253716
Si Si2 0.992960 0.195949 0.344998
Si Si3 0.188181 0.695943 0.243649
Si Si4 0.923085 0.301072 0.507394
Si Si5 0.886012 0.202457 0.913323
Si Si6 0.751605 0.794936 0.327241
Si Si7 0.761971 0.301524 0.084312
O O1 0.440574 0.500000 0.253744
O O2 0.461351 0.237683 0.303924
O O3 0.518329 0.242943 0.164136
O O4 0.345437 0.238294 0.290876
O O5 0.947864 0.274562 0.427359
O O6 0.096686 0.217271 0.286379
O O7 0.972286 0.000000 0.359230
O O8 0.167653 0.500000 0.263676
O O9 0.229482 0.756225 0.276818
O O10 0.251562 0.719340 0.151564
O O11 0.920352 0.500000 0.519647
O O12 0.828697 0.237293 0.584336
O O13 0.000000 0.231044 0.500000
O O14 0.616225 0.500000 0.084363
O O15 0.817183 0.258124 0.907495
O O16 0.848982 0.264619 0.995645
O O17 0.754376 0.000000 0.326418
O O18 0.752293 0.500000 0.097656
#
# Coordination Sequence:
#
# PCOD9181340 Si02
#       7
#     8   8   8   8   8   8   8
#     4   9  18  35  55  78 108 141 178 220 267 315
#     4  11  21  34  55  82 109 139 176 223 273 315
#     4  11  20  34  56  82 106 140 184 220 261 315
#     4  10  19  35  55  80 108 140 181 222 263 311
#     4   9  17  32  53  78 106 139 177 218 263 315
#     4   9  19  35  56  77 105 143 181 221 263 313
#     4  10  19  32  52  82 110 137 174 222 270 309
#
# _framework density 19.262672999999999
#
# number of rings (size 3 to 8) (size 9 to 14) (size 15 to 20)
#    0.000    2.143    2.857    1.286    0.000    1.429 
#    0.000    0.714    0.000   11.143    0.000    0.000 
#    0.000    0.000    0.000    0.000    0.000    0.000 
#
# Total GULP energy -156283.631560 kJ/mol
# GULP energy per Si atom -5581.558270 kJ/mol
# Density = 1.921883 g / cm^3
# Si number density = 19.262673 Si / 1000 Ang^3
#
#
#
# Elastic Constant Matrix: (Units=GPa)
#
#
# Indices 1 2 3 4 5 6 
#
# 1 137.2683 -0.7705 83.1258 0.0001 -10.4742 -0.0001
# 2 -0.7705 9.5135 -7.5194 0.0003 -4.0530 -0.0003
# 3 83.1258 -7.5194 166.2258 0.0001 -8.3062 0.0000
# 4 0.0001 0.0003 0.0001 22.6688 -0.0001 -0.2616
# 5 -10.4742 -4.0530 -8.3062 -0.0001 30.3110 0.0000
# 6 -0.0001 -0.0003 0.0000 -0.2616 0.0000 8.5025
#
#
#
# Elastic Compliance Matrix: (Units=1/GPa)
#
#
# Indices 1 2 3 4 5 6 
#
# 1 0.010653 -0.002568 -0.005350 0.000000 0.001872 0.000000
# 2 -0.002568 0.118028 0.007470 -0.000001 0.016941 0.000004
# 3 -0.005350 0.007470 0.009112 0.000000 0.001647 0.000000
# 4 0.000000 -0.000001 0.000000 0.044129 0.000000 0.001358
# 5 0.001872 0.016941 0.001647 0.000000 0.036355 0.000001
# 6 0.000000 0.000004 0.000000 0.001358 0.000001 0.117654
#
#
# Mechanical properties :
#
#
# Convention : Reuss Voigt Hill
#
# Bulk Modulus (GPa) = 7.30484 51.40881 29.35682
# Shear Modulus (GPa) = 13.07328 28.17458 20.62393
#
# Velocity S-wave (km/s) = 2.60798 3.82861 3.27566
# Velocity P-wave (km/s) = 3.58737 6.80372 5.43874
#
# Compressibility (1/GPa) = 0.13689562
#
# Stress axis : x y z
#
# Youngs Moduli (GPa) = 93.86761 8.47259 109.75013
#
# Poissons Ratio (x) = 0.02176 0.58718
# Poissons Ratio (y) = 0.24109 -0.81984
# Poissons Ratio (z) = 0.50220 -0.06329
#
# Static dielectric constant tensor:
#      x y z
#    x 1.652520 0.000000 -0.001120 
#    y 0.000000 1.694630 0.000000 
#    z -0.001120 0.000000 1.658530 
# 
# From -- ./inp_files/319690.got.cif
#   From: 2010.05.17/outbox.cif.g08.bks.cpg/sg12_160_cif.got.tgz:319690.got - 2010.06.03 13:09:07.
