data_PCOD9181216
_publ_section_title
;
Structure prediction by ZEFSAII (Michael W. Deem and Ramdas Pophale) SiO2 
 PCOD9181216
Probable space group: C 2/M
;
_chemical_formula_sum "Si O2"
_cell_formula_units_Z 64
_cell_length_a 20.413476
_cell_length_b 7.459788
_cell_length_c 23.584861
_cell_angle_alpha 90.000000
_cell_angle_beta 49.245007
_cell_angle_gamma 90.000000
_cell_volume 2720.595958
_symmetry_space_group_name_H-M "C 2/M"
_symmetry_group_IT_number 12
_symmetry_cell_setting 'monoclinic'
loop_
_space_group_symop_operation_xyz
x,y,z
-x,y,-z
-x,-y,-z
x,-y,z
1/2+x,1/2+y,z
1/2-x,1/2+y,-z
1/2-x,1/2-y,-z
1/2+x,1/2-y,z
loop_
_atom_site_type_symbol
_atom_site_label
_atom_site_fract_x
_atom_site_fract_y
_atom_site_fract_z
Si Si1 0.013627 0.785906 0.208235
Si Si2 0.210354 0.785091 0.083546
Si Si3 0.402123 0.785172 0.552858
Si Si4 0.076871 0.703847 0.622849
Si Si5 0.400573 0.218213 0.677155
Si Si6 0.348630 0.785991 0.236854
Si Si7 0.267962 0.787508 0.400583
Si Si8 0.268471 0.204980 0.166269
O O1 0.969870 0.701040 0.288704
O O2 0.949590 0.746300 0.192196
O O3 0.111120 0.721037 0.143643
O O4 0.014277 0.000000 0.217045
O O5 0.268210 0.714669 0.103430
O O6 0.206872 0.000000 0.092902
O O7 0.250000 0.750000 0.000000
O O8 0.500000 0.718517 0.500000
O O9 0.366841 0.728678 0.634329
O O10 0.334914 0.735263 0.542182
O O11 0.406621 0.000000 0.549401
O O12 0.089571 0.500000 0.594918
O O13 0.170011 0.787547 0.585206
O O14 0.999155 0.781772 0.629373
O O15 0.333486 0.292048 0.760083
O O16 0.401040 0.000000 0.680878
O O17 0.301683 0.714436 0.320598
O O18 0.315173 0.713795 0.195321
O O19 0.332822 0.000000 0.245095
O O20 0.284434 0.000000 0.391814
O O21 0.299846 0.000000 0.144712
#
# Coordination Sequence:
#
# PCOD9181216 Si02
#       8
#     8   8   8   8   8   8   8   8
#     4  10  19  32  52  78 106 134 169 213 259 306
#     4  10  22  37  54  77 106 141 174 211 259 309
#     4  10  21  35  50  73 107 141 172 211 261 313
#     4   9  18  32  51  76 103 132 170 215 261 306
#     4  10  19  32  53  78 102 135 177 216 257 306
#     4   9  18  32  53  78 105 135 168 213 262 306
#     4   9  17  31  51  74 100 133 171 212 257 307
#     4  10  19  35  55  78 106 134 173 220 258 299
#
# _framework density 23.524256999999999
#
# number of rings (size 3 to 8) (size 9 to 14) (size 15 to 20)
#    0.000    2.375    2.500    1.125    0.000    4.250 
#    0.000    1.250    0.000    3.750    0.000    0.000 
#    0.000    0.000    0.000    0.000    0.000    0.000 
#
# Total GULP energy -178667.933415 kJ/mol
# GULP energy per Si atom -5583.372919 kJ/mol
# Density = 2.347071 g / cm^3
# Si number density = 23.524257 Si / 1000 Ang^3
#
#
#
# Elastic Constant Matrix: (Units=GPa)
#
#
# Indices 1 2 3 4 5 6 
#
# 1 199.4500 -1.1856 31.1593 -0.0002 16.4791 -0.0008
# 2 -1.1856 82.7778 -4.7282 -0.0031 4.2989 -0.0077
# 3 31.1593 -4.7282 67.6124 -0.0002 17.0632 -0.0003
# 4 -0.0002 -0.0031 -0.0002 12.3681 0.0002 -8.7719
# 5 16.4791 4.2989 17.0632 0.0002 38.9902 0.0002
# 6 -0.0008 -0.0077 -0.0003 -8.7719 0.0002 17.0329
#
#
#
# Elastic Compliance Matrix: (Units=1/GPa)
#
#
# Indices 1 2 3 4 5 6 
#
# 1 0.005466 0.000025 -0.002174 0.000000 -0.001362 0.000000
# 2 0.000025 0.012258 0.001337 0.000011 -0.001947 0.000011
# 3 -0.002174 0.001337 0.017639 0.000002 -0.006948 0.000002
# 4 0.000000 0.000011 0.000002 0.127379 -0.000003 0.065600
# 5 -0.001362 -0.001947 -0.006948 -0.000003 0.029478 -0.000003
# 6 0.000000 0.000011 0.000002 0.065600 -0.000003 0.092494
#
#
# Mechanical properties :
#
#
# Convention : Reuss Voigt Hill
#
# Bulk Modulus (GPa) = 29.63824 44.48123 37.05974
# Shear Modulus (GPa) = 16.80192 35.31787 26.05990
#
# Velocity S-wave (km/s) = 2.67542 3.87891 3.33196
# Velocity P-wave (km/s) = 4.70853 6.24588 5.53088
#
# Compressibility (1/GPa) = 0.03374019
#
# Stress axis : x y z
#
# Youngs Moduli (GPa) = 182.94851 81.57669 56.69289
#
# Poissons Ratio (x) = -0.00203 0.12323
# Poissons Ratio (y) = -0.00455 -0.07581
# Poissons Ratio (z) = 0.39766 -0.10909
#
# Static dielectric constant tensor:
#      x y z
#    x 1.950640 0.000000 0.014230 
#    y 0.000000 2.022650 0.000000 
#    z 0.014230 0.000000 1.883110 
# 
# From -- ./inp_files/319127.got.cif
#   From: 2010.05.17/outbox.cif.g08.bks.cpg/sg12_160_cif.got.tgz:319127.got - 2010.06.03 13:09:07.
