data_PCOD9181643
_publ_section_title
;
Structure prediction by ZEFSAII (Michael W. Deem and Ramdas Pophale) SiO2 
 PCOD9181643
Probable space group: C 2/M
;
_chemical_formula_sum "Si O2"
_cell_formula_units_Z 56
_cell_length_a 9.196920
_cell_length_b 14.888726
_cell_length_c 29.458053
_cell_angle_alpha 90.000000
_cell_angle_beta 142.826427
_cell_angle_gamma 90.000000
_cell_volume 2437.291440
_symmetry_space_group_name_H-M "C 2/M"
_symmetry_group_IT_number 12
_symmetry_cell_setting 'monoclinic'
loop_
_space_group_symop_operation_xyz
x,y,z
-x,y,-z
-x,-y,-z
x,-y,z
1/2+x,1/2+y,z
1/2-x,1/2+y,-z
1/2-x,1/2-y,-z
1/2+x,1/2-y,z
loop_
_atom_site_type_symbol
_atom_site_label
_atom_site_fract_x
_atom_site_fract_y
_atom_site_fract_z
Si Si1 0.895849 0.109728 0.925885
Si Si2 0.722010 0.390459 0.922212
Si Si3 0.747166 0.903035 0.344240
Si Si4 0.527990 0.389860 0.236811
Si Si5 0.148072 0.390538 0.219542
Si Si6 0.217200 0.630056 0.522156
Si Si7 0.939838 0.680825 0.612356
O O1 0.619932 0.138625 0.858351
O O2 0.050469 0.140205 0.920989
O O3 0.897850 0.000000 0.924575
O O4 0.000000 0.137073 0.000000
O O5 0.726481 0.500000 0.924455
O O6 0.602923 0.368119 0.843783
O O7 0.000000 0.361935 0.000000
O O8 0.686486 0.861620 0.280733
O O9 0.688588 0.844729 0.372978
O O10 0.029443 0.916703 0.412948
O O11 0.619408 0.000000 0.316882
O O12 0.563518 0.500000 0.246824
O O13 0.348793 0.363471 0.233367
O O14 0.779725 0.338639 0.307030
O O15 0.155621 0.500000 0.221683
O O16 0.121134 0.622673 0.447152
O O17 0.311061 0.727256 0.564058
O O18 0.000000 0.601733 0.500000
#
# Coordination Sequence:
#
# PCOD9181643 Si02
#       7
#     8   8   8   8   8   8   8
#     4   9  15  24  40  64 101 148 191 233 287 349
#     4   9  16  26  43  72 111 154 199 248 303 359
#     4  11  23  39  62  90 118 151 196 251 307 363
#     4  10  19  32  53  81 115 155 201 252 302 358
#     4   9  18  31  47  74 110 145 186 239 295 348
#     4  11  24  42  61  83 114 151 192 240 298 366
#     4  11  22  38  59  83 114 152 194 241 296 357
#
# _framework density 22.976324999999999
#
# number of rings (size 3 to 8) (size 9 to 14) (size 15 to 20)
#    0.000    2.000    0.000    5.143    0.000    7.714 
#    0.000    0.000    0.000    0.000    0.000    1.000 
#    0.000    8.000    0.000    0.143    0.000    0.000 
#
# Total GULP energy -156341.689156 kJ/mol
# GULP energy per Si atom -5583.631756 kJ/mol
# Density = 2.292403 g / cm^3
# Si number density = 22.976325 Si / 1000 Ang^3
#
#
#
# Elastic Constant Matrix: (Units=GPa)
#
#
# Indices 1 2 3 4 5 6 
#
# 1 86.3083 18.2216 72.1520 0.0000 -12.0563 0.0000
# 2 18.2216 53.1484 26.0139 0.0000 -5.0244 0.0000
# 3 72.1520 26.0139 211.5662 0.0001 -8.6787 0.0000
# 4 0.0000 0.0000 0.0001 7.3401 0.0000 2.6831
# 5 -12.0563 -5.0244 -8.6787 0.0000 52.9783 0.0000
# 6 0.0000 0.0000 0.0000 2.6831 0.0000 14.2951
#
#
#
# Elastic Compliance Matrix: (Units=1/GPa)
#
#
# Indices 1 2 3 4 5 6 
#
# 1 0.017060 -0.002977 -0.005340 0.000000 0.002725 0.000000
# 2 -0.002977 0.020660 -0.001482 0.000000 0.001039 0.000000
# 3 -0.005340 -0.001482 0.006720 0.000000 -0.000255 0.000000
# 4 0.000000 0.000000 0.000000 0.146273 0.000000 -0.027454
# 5 0.002725 0.001039 -0.000255 0.000000 0.019553 0.000000
# 6 0.000000 0.000000 0.000000 -0.027454 0.000000 0.075107
#
#
# Mechanical properties :
#
#
# Convention : Reuss Voigt Hill
#
# Bulk Modulus (GPa) = 40.25839 64.86642 52.56240
# Shear Modulus (GPa) = 15.96159 30.56507 23.26333
#
# Velocity S-wave (km/s) = 2.63857 3.65126 3.18542
# Velocity P-wave (km/s) = 5.18097 6.78740 6.03785
#
# Compressibility (1/GPa) = 0.02483954
#
# Stress axis : x y z
#
# Youngs Moduli (GPa) = 58.61685 48.40329 148.81734
#
# Poissons Ratio (x) = 0.14412 0.79471
# Poissons Ratio (y) = 0.17453 0.22058
# Poissons Ratio (z) = 0.31302 0.07175
#
# Static dielectric constant tensor:
#      x y z
#    x 1.790910 0.000000 -0.009010 
#    y 0.000000 1.967140 0.000000 
#    z -0.009010 0.000000 1.998100 
# 
# From -- ./inp_files/356744.got.cif
#   From: 2010.05.17/outbox.cif.g08.bks.cpg/sg12_179_cif.got.tgz:356744.got - 2010.06.03 13:09:07.
