data_PCOD9181276
_publ_section_title
;
Structure prediction by ZEFSAII (Michael W. Deem and Ramdas Pophale) SiO2 
 PCOD9181276
Probable space group: C 2/M
;
_chemical_formula_sum "Si O2"
_cell_formula_units_Z 64
_cell_length_a 20.908239
_cell_length_b 8.834226
_cell_length_c 24.743953
_cell_angle_alpha 90.000000
_cell_angle_beta 53.432129
_cell_angle_gamma 90.000000
_cell_volume 3670.731500
_symmetry_space_group_name_H-M "C 2/M"
_symmetry_group_IT_number 12
_symmetry_cell_setting 'monoclinic'
loop_
_space_group_symop_operation_xyz
x,y,z
-x,y,-z
-x,-y,-z
x,-y,z
1/2+x,1/2+y,z
1/2-x,1/2+y,-z
1/2-x,1/2-y,-z
1/2+x,1/2-y,z
loop_
_atom_site_type_symbol
_atom_site_label
_atom_site_fract_x
_atom_site_fract_y
_atom_site_fract_z
Si Si1 0.083821 0.182074 0.231029
Si Si2 0.686057 0.818190 0.490183
Si Si3 0.565455 0.181389 0.637751
Si Si4 0.232992 0.317255 0.849588
Si Si5 0.681271 0.818715 0.996728
Si Si6 0.208680 0.318608 0.648272
Si Si7 0.351855 0.318795 0.211224
Si Si8 0.037086 0.182394 0.132597
O O1 0.173985 0.227730 0.198675
O O2 0.061541 0.229459 0.181074
O O3 0.017640 0.245342 0.304665
O O4 0.080528 0.000000 0.233722
O O5 0.750000 0.750000 0.500000
O O6 0.601958 0.779048 0.560631
O O7 0.712968 0.749698 0.419742
O O8 0.692927 0.000000 0.485563
O O9 0.632279 0.224899 0.649114
O O10 0.558203 0.000000 0.643750
O O11 0.228842 0.500000 0.846162
O O12 0.184938 0.240417 0.825770
O O13 0.198656 0.277426 0.925857
O O14 0.597347 0.757759 0.060396
O O15 0.684339 0.000000 0.999267
O O16 0.750000 0.750000 0.000000
O O17 0.213603 0.500000 0.645860
O O18 0.193025 0.255232 0.715411
O O19 0.345623 0.500000 0.217981
O O20 0.445340 0.278307 0.168371
O O21 0.045539 0.000000 0.125072
#
# Coordination Sequence:
#
# PCOD9181276 Si02
#       8
#     8   8   8   8   8   8   8   8
#     4  10  19  35  57  79 110 147 183 229 276 325
#     4   9  17  29  46  75 113 148 184 229 279 327
#     4   9  18  30  49  81 113 141 182 231 273 321
#     4  10  23  41  57  79 112 147 184 226 277 336
#     4  11  22  38  61  85 112 147 185 231 281 330
#     4  10  19  32  52  79 112 149 186 227 277 334
#     4  11  23  38  58  83 113 149 185 230 280 330
#     4  10  21  38  58  84 113 143 186 231 277 331
#
# _framework density 17.435217000000002
#
# number of rings (size 3 to 8) (size 9 to 14) (size 15 to 20)
#    0.000    2.000    2.500    2.250    0.000    6.000 
#    0.000    2.500    0.000    0.750    0.000    5.250 
#    0.000    0.000    0.000    0.000    0.000    0.000 
#
# Total GULP energy -178573.688202 kJ/mol
# GULP energy per Si atom -5580.427756 kJ/mol
# Density = 1.739553 g / cm^3
# Si number density = 17.435217 Si / 1000 Ang^3
#
#
#
# Elastic Constant Matrix: (Units=GPa)
#
#
# Indices 1 2 3 4 5 6 
#
# 1 90.7626 33.4687 58.5742 -0.0001 3.8902 -0.0002
# 2 33.4687 38.0201 53.3678 -0.0002 1.2720 -0.0007
# 3 58.5742 53.3678 176.9469 0.0000 -4.6202 0.0001
# 4 -0.0001 -0.0002 0.0000 37.4478 0.0000 -1.0817
# 5 3.8902 1.2720 -4.6202 0.0000 23.2312 0.0000
# 6 -0.0002 -0.0007 0.0001 -1.0817 0.0000 26.1818
#
#
#
# Elastic Compliance Matrix: (Units=1/GPa)
#
#
# Indices 1 2 3 4 5 6 
#
# 1 0.016822 -0.011811 -0.002074 0.000000 -0.002583 0.000000
# 2 -0.011811 0.054553 -0.012636 0.000000 -0.003522 0.000002
# 3 -0.002074 -0.012636 0.010229 0.000000 0.003073 0.000000
# 4 0.000000 0.000000 0.000000 0.026736 0.000000 0.001105
# 5 -0.002583 -0.003522 0.003073 0.000000 0.044282 0.000000
# 6 0.000000 0.000002 0.000000 0.001105 0.000000 0.038240
#
#
# Mechanical properties :
#
#
# Convention : Reuss Voigt Hill
#
# Bulk Modulus (GPa) = 35.00972 66.28345 50.64658
# Shear Modulus (GPa) = 19.72976 28.06009 23.89493
#
# Velocity S-wave (km/s) = 3.36758 4.01607 3.70604
# Velocity P-wave (km/s) = 5.93669 7.72041 6.88654
#
# Compressibility (1/GPa) = 0.02856350
#
# Stress axis : x y z
#
# Youngs Moduli (GPa) = 59.44561 18.33074 97.76067
#
# Poissons Ratio (x) = 0.21651 0.20273
# Poissons Ratio (y) = 0.70212 1.23526
# Poissons Ratio (z) = 0.12327 0.23162
#
# Static dielectric constant tensor:
#      x y z
#    x 1.575880 0.000000 0.000050 
#    y 0.000000 1.584010 0.000000 
#    z 0.000050 0.000000 1.603320 
# 
# From -- ./inp_files/345962.got.cif
#   From: 2010.05.17/outbox.cif.g08.bks.cpg/sg12_173_cif.got.tgz:345962.got - 2010.06.03 13:09:07.
