data_PCOD9181928
_publ_section_title
;
Structure prediction by ZEFSAII (Michael W. Deem and Ramdas Pophale) SiO2 
 PCOD9181928
Probable space group: C 2/M
;
_chemical_formula_sum "Si O2"
_cell_formula_units_Z 56
_cell_length_a 14.386162
_cell_length_b 30.161235
_cell_length_c 9.875301
_cell_angle_alpha 90.000000
_cell_angle_beta 136.653925
_cell_angle_gamma 90.000000
_cell_volume 2941.195009
_symmetry_space_group_name_H-M "C 2/M"
_symmetry_group_IT_number 12
_symmetry_cell_setting 'monoclinic'
loop_
_space_group_symop_operation_xyz
x,y,z
-x,y,-z
-x,-y,-z
x,-y,z
1/2+x,1/2+y,z
1/2-x,1/2+y,-z
1/2-x,1/2-y,-z
1/2+x,1/2-y,z
loop_
_atom_site_type_symbol
_atom_site_label
_atom_site_fract_x
_atom_site_fract_y
_atom_site_fract_z
Si Si1 0.929939 0.272816 0.058193
Si Si2 0.387648 0.291546 0.265632
Si Si3 0.142607 0.050496 0.075578
Si Si4 0.502453 0.129113 0.164022
Si Si5 0.203785 0.114417 0.898033
Si Si6 0.309778 0.051301 0.519223
Si Si7 0.655602 0.452255 0.621649
O O1 0.922736 0.241041 0.179539
O O2 0.019583 0.317241 0.183549
O O3 0.770723 0.284176 0.859343
O O4 0.000000 0.252129 0.000000
O O5 0.500000 0.285605 0.500000
O O6 0.387062 0.342360 0.215281
O O7 0.256362 0.057844 0.310943
O O8 0.155189 0.000000 0.038947
O O9 0.151948 0.083147 0.960774
O O10 0.000000 0.054714 0.000000
O O11 0.596608 0.091971 0.333200
O O12 0.500000 0.118673 0.000000
O O13 0.359029 0.126081 0.088337
O O14 0.212315 0.088223 0.765769
O O15 0.184615 0.052139 0.493569
O O16 0.365137 0.000000 0.587273
O O17 0.500000 0.453283 0.500000
O O18 0.717091 0.500000 0.727557
#
# Coordination Sequence:
#
# PCOD9181928 Si02
#       7
#     8   8   8   8   8   8   8
#     4   9  21  43  64  87 125 160 196 250 315 372
#     4  10  22  41  64  94 121 153 205 258 303 365
#     4  10  22  40  56  81 125 165 198 247 300 352
#     4  10  20  39  60  85 119 156 194 246 303 357
#     4  11  21  36  59  84 116 155 197 250 297 350
#     4  10  21  36  57  88 123 159 206 248 291 362
#     4  10  19  32  54  84 115 155 201 241 290 348
#
# _framework density 19.039881000000001
#
# number of rings (size 3 to 8) (size 9 to 14) (size 15 to 20)
#    0.000    2.000    1.429    1.714    0.000    5.429 
#    7.714    1.429    0.000    0.000    0.000    0.000 
#    0.000    0.000    0.000    0.000    0.000    0.000 
#
# Total GULP energy -156002.268941 kJ/mol
# GULP energy per Si atom -5571.509605 kJ/mol
# Density = 1.899654 g / cm^3
# Si number density = 19.039881 Si / 1000 Ang^3
#
#
#
# Elastic Constant Matrix: (Units=GPa)
#
#
# Indices 1 2 3 4 5 6 
#
# 1 66.6500 39.7132 36.6890 0.0000 -9.2947 0.0000
# 2 39.7132 96.2064 59.0612 0.0000 -6.4563 0.0000
# 3 36.6890 59.0612 85.9562 0.0000 -7.1809 0.0000
# 4 0.0000 0.0000 0.0000 142.0878 0.0000 80.5533
# 5 -9.2947 -6.4563 -7.1809 0.0000 19.3014 0.0000
# 6 0.0000 0.0000 0.0000 80.5533 0.0000 116.0596
#
#
#
# Elastic Compliance Matrix: (Units=1/GPa)
#
#
# Indices 1 2 3 4 5 6 
#
# 1 0.022034 -0.005557 -0.005011 0.000000 0.006887 0.000000
# 2 -0.005557 0.019419 -0.010994 0.000000 -0.000270 0.000000
# 3 -0.005011 -0.010994 0.021486 0.000000 0.001903 0.000000
# 4 0.000000 0.000000 0.000000 0.011604 0.000000 -0.008054
# 5 0.006887 -0.000270 0.001903 0.000000 0.055744 0.000000
# 6 0.000000 0.000000 0.000000 -0.008054 0.000000 0.014206
#
#
# Mechanical properties :
#
#
# Convention : Reuss Voigt Hill
#
# Bulk Modulus (GPa) = 50.46701 57.74882 54.10791
# Shear Modulus (GPa) = 25.74388 63.04638 44.39513
#
# Velocity S-wave (km/s) = 3.68108 5.76062 4.83400
# Velocity P-wave (km/s) = 6.68062 8.63959 7.72247
#
# Compressibility (1/GPa) = 0.01981493
#
# Stress axis : x y z
#
# Youngs Moduli (GPa) = 45.38488 51.49586 46.54258
#
# Poissons Ratio (x) = 0.28615 0.23324
# Poissons Ratio (y) = 0.25219 0.51168
# Poissons Ratio (z) = 0.22744 0.56613
#
# Static dielectric constant tensor:
#      x y z
#    x 1.677440 0.000000 0.045470 
#    y 0.000000 1.715010 0.000000 
#    z 0.045470 0.000000 1.674360 
# 
# From -- ./inp_files/68326.got.cif
#   From: 2010.05.17/outbox.cif.g08.bks.cpg/sg12_35_cif.got.tgz:68326.got - 2010.06.03 13:09:07.
