data_PCOD9181894
_publ_section_title
;
Structure prediction by ZEFSAII (Michael W. Deem and Ramdas Pophale) SiO2 
 PCOD9181894
Probable space group: C 2/M
;
_chemical_formula_sum "Si O2"
_cell_formula_units_Z 64
_cell_length_a 22.088700
_cell_length_b 9.010937
_cell_length_c 29.508178
_cell_angle_alpha 90.000000
_cell_angle_beta 144.021352
_cell_angle_gamma 90.000000
_cell_volume 3450.470682
_symmetry_space_group_name_H-M "C 2/M"
_symmetry_group_IT_number 12
_symmetry_cell_setting 'monoclinic'
loop_
_space_group_symop_operation_xyz
x,y,z
-x,y,-z
-x,-y,-z
x,-y,z
1/2+x,1/2+y,z
1/2-x,1/2+y,-z
1/2-x,1/2-y,-z
1/2+x,1/2-y,z
loop_
_atom_site_type_symbol
_atom_site_label
_atom_site_fract_x
_atom_site_fract_y
_atom_site_fract_z
Si Si1 0.592951 0.823136 0.417323
Si Si2 0.740794 0.176064 0.421332
Si Si3 0.870793 0.177889 0.728538
Si Si4 0.838234 0.822626 0.813629
Si Si5 0.952044 0.673255 0.043541
Si Si6 0.362468 0.179063 0.251677
Si Si7 0.914525 0.673797 0.128666
Si Si8 0.770701 0.821776 0.108792
O O1 0.653567 0.794987 0.406933
O O2 0.653765 0.736278 0.493080
O O3 0.473862 0.781833 0.339201
O O4 0.599750 0.000000 0.430249
O O5 0.707747 0.259726 0.355938
O O6 0.745476 0.000000 0.416571
O O7 0.838894 0.217471 0.760733
O O8 0.982130 0.252695 0.788599
O O9 0.879281 0.000000 0.730407
O O10 0.732250 0.777862 0.773194
O O11 0.940508 0.755396 0.898259
O O12 0.846028 0.000000 0.820914
O O13 0.966938 0.500000 0.041950
O O14 0.925016 0.686026 0.080797
O O15 0.848090 0.727314 0.956289
O O16 0.340891 0.257890 0.191145
O O17 0.361133 0.000000 0.244681
O O18 0.909415 0.500000 0.137226
O O19 0.817565 0.758113 0.090844
O O20 0.771915 0.000000 0.108318
#
# Coordination Sequence:
#
# PCOD9181894 Si02
#       8
#     8   8   8   8   8   8   8   8
#     4   9  19  35  54  76 105 137 167 207 258 309
#     4  10  19  32  54  83 109 134 168 208 256 315
#     4  10  19  33  54  79 106 137 174 215 260 309
#     4   9  20  37  56  76 100 136 181 223 259 302
#     4   9  20  36  53  75 105 139 174 215 264 314
#     4  10  21  38  56  75 102 138 180 220 260 308
#     4  10  19  33  53  77 106 139 173 213 262 312
#     4  11  22  34  51  78 107 137 174 216 265 317
#
# _framework density 18.548193000000001
#
# number of rings (size 3 to 8) (size 9 to 14) (size 15 to 20)
#    0.000    2.250    0.000    2.625    0.000    5.000 
#    0.000    3.125    0.000    3.750    0.000    0.000 
#    0.000    0.000    0.000    0.000    0.000    0.000 
#
# Total GULP energy -178674.765613 kJ/mol
# GULP energy per Si atom -5583.586425 kJ/mol
# Density = 1.850598 g / cm^3
# Si number density = 18.548193 Si / 1000 Ang^3
#
#
#
# Elastic Constant Matrix: (Units=GPa)
#
#
# Indices 1 2 3 4 5 6 
#
# 1 58.5195 20.2070 24.2536 0.0000 24.7962 0.0001
# 2 20.2070 35.1546 30.4164 0.0000 7.8268 0.0005
# 3 24.2536 30.4164 99.3293 0.0000 26.0378 0.0000
# 4 0.0000 0.0000 0.0000 32.1731 0.0000 4.0857
# 5 24.7962 7.8268 26.0378 0.0000 28.6948 0.0000
# 6 0.0001 0.0005 0.0000 4.0857 0.0000 17.8505
#
#
#
# Elastic Compliance Matrix: (Units=1/GPa)
#
#
# Indices 1 2 3 4 5 6 
#
# 1 0.032671 -0.016315 0.004268 0.000000 -0.027655 0.000000
# 2 -0.016315 0.046848 -0.014050 0.000000 0.014069 -0.000001
# 3 0.004268 -0.014050 0.017438 0.000000 -0.015679 0.000000
# 4 0.000000 0.000000 0.000000 0.032012 0.000000 -0.007327
# 5 -0.027655 0.014069 -0.015679 0.000000 0.069137 0.000000
# 6 0.000000 -0.000001 0.000000 -0.007327 0.000000 0.057698
#
#
# Mechanical properties :
#
#
# Convention : Reuss Voigt Hill
#
# Bulk Modulus (GPa) = 22.34021 38.08415 30.21218
# Shear Modulus (GPa) = 15.48375 23.61876 19.55126
#
# Velocity S-wave (km/s) = 2.89240 3.57231 3.25018
# Velocity P-wave (km/s) = 4.81925 6.13125 5.51441
#
# Compressibility (1/GPa) = 0.04476233
#
# Stress axis : x y z
#
# Youngs Moduli (GPa) = 30.60789 21.34576 57.34679
#
# Poissons Ratio (x) = 0.34826 -0.24475
# Poissons Ratio (y) = 0.49937 0.80572
# Poissons Ratio (z) = -0.13063 0.29991
#
# Static dielectric constant tensor:
#      x y z
#    x 1.652270 0.000000 -0.001720 
#    y 0.000000 1.617420 0.000000 
#    z -0.001720 0.000000 1.626870 
# 
# From -- ./inp_files/382423.got.cif
#   From: 2010.05.17/outbox.cif.g08.bks.cpg/sg12_192_cif.got.tgz:382423.got - 2010.06.03 13:09:07.
