data_PCOD9181755
_publ_section_title
;
Structure prediction by ZEFSAII (Michael W. Deem and Ramdas Pophale) SiO2 
 PCOD9181755
Probable space group: C 2/M
;
_chemical_formula_sum "Si O2"
_cell_formula_units_Z 48
_cell_length_a 32.394989
_cell_length_b 8.786350
_cell_length_c 9.919730
_cell_angle_alpha 90.000000
_cell_angle_beta 103.656028
_cell_angle_gamma 90.000000
_cell_volume 2743.671203
_symmetry_space_group_name_H-M "C 2/M"
_symmetry_group_IT_number 12
_symmetry_cell_setting 'monoclinic'
loop_
_space_group_symop_operation_xyz
x,y,z
-x,y,-z
-x,-y,-z
x,-y,z
1/2+x,1/2+y,z
1/2-x,1/2+y,-z
1/2-x,1/2-y,-z
1/2+x,1/2-y,z
loop_
_atom_site_type_symbol
_atom_site_label
_atom_site_fract_x
_atom_site_fract_y
_atom_site_fract_z
Si Si1 0.548565 0.816944 0.038382
Si Si2 0.381983 0.683373 0.103120
Si Si3 0.263406 0.682088 0.366010
Si Si4 0.638499 0.316389 0.610690
Si Si5 0.184368 0.817790 0.173973
Si Si6 0.885464 0.681833 0.682380
O O1 0.573225 0.779886 0.196235
O O2 0.548592 0.000000 0.025353
O O3 0.500000 0.763509 0.000000
O O4 0.577149 0.749571 0.940938
O O5 0.384411 0.500000 0.101657
O O6 0.377058 0.731609 0.253655
O O7 0.340700 0.725899 0.981525
O O8 0.260550 0.500000 0.370625
O O9 0.250000 0.750000 0.500000
O O10 0.311800 0.723698 0.369170
O O11 0.230102 0.744049 0.231019
O O12 0.635225 0.500000 0.598630
O O13 0.613343 0.241484 0.468333
O O14 0.154155 0.760292 0.272080
O O15 0.187823 0.000000 0.183096
O O16 0.879522 0.500000 0.680396
#
# Coordination Sequence:
#
# PCOD9181755 Si02
#       6
#     8   8   8   8   8   8
#     4   9  19  37  59  82 106 132 167 214 264 315
#     4   9  20  37  55  77 106 139 175 213 262 314
#     4  11  21  32  50  75 105 141 184 222 256 302
#     4  10  21  36  52  74 108 143 173 217 265 302
#     4  10  19  33  52  74 103 139 178 222 260 300
#     4  10  19  32  54  79 102 135 177 213 255 316
#
# _framework density 17.494809
#
# number of rings (size 3 to 8) (size 9 to 14) (size 15 to 20)
#    0.000    2.167    1.667    1.500    0.000    3.667 
#    0.000    0.833    0.000    5.000    0.000    0.000 
#    0.000    0.000    0.000    0.000    0.000    0.000 
#
# Total GULP energy -133950.378611 kJ/mol
# GULP energy per Si atom -5581.265775 kJ/mol
# Density = 1.745499 g / cm^3
# Si number density = 17.494809 Si / 1000 Ang^3
#
#
#
# Elastic Constant Matrix: (Units=GPa)
#
#
# Indices 1 2 3 4 5 6 
#
# 1 120.4762 35.4776 72.4997 0.0000 8.4853 0.0000
# 2 35.4776 28.0728 37.2672 0.0000 1.4180 0.0000
# 3 72.4997 37.2672 158.3087 0.0000 -7.6383 0.0000
# 4 0.0000 0.0000 0.0000 24.7111 0.0000 3.8787
# 5 8.4853 1.4180 -7.6383 0.0000 17.9630 0.0000
# 6 0.0000 0.0000 0.0000 3.8787 0.0000 22.4540
#
#
#
# Elastic Compliance Matrix: (Units=1/GPa)
#
#
# Indices 1 2 3 4 5 6 
#
# 1 0.015372 -0.013325 -0.004291 0.000000 -0.008034 0.000000
# 2 -0.013325 0.064993 -0.009333 0.000000 -0.002804 0.000000
# 3 -0.004291 -0.009333 0.010834 0.000000 0.007371 0.000000
# 4 0.000000 0.000000 0.000000 0.041595 0.000000 -0.007185
# 5 -0.008034 -0.002804 0.007371 0.000000 0.062821 0.000000
# 6 0.000000 0.000000 0.000000 -0.007185 0.000000 0.045777
#
#
# Mechanical properties :
#
#
# Convention : Reuss Voigt Hill
#
# Bulk Modulus (GPa) = 26.80810 66.37186 46.58998
# Shear Modulus (GPa) = 16.24835 23.79983 20.02409
#
# Velocity S-wave (km/s) = 3.05085 3.69235 3.38682
# Velocity P-wave (km/s) = 5.26944 7.49656 6.47940
#
# Compressibility (1/GPa) = 0.03730216
#
# Stress axis : x y z
#
# Youngs Moduli (GPa) = 65.05215 15.38633 92.29874
#
# Poissons Ratio (x) = 0.20503 0.39603
# Poissons Ratio (y) = 0.86683 0.86140
# Poissons Ratio (z) = 0.27912 0.14360
#
# Static dielectric constant tensor:
#      x y z
#    x 1.575090 0.000000 0.021220 
#    y 0.000000 1.588170 0.000000 
#    z 0.021220 0.000000 1.599060 
# 
# From -- ./inp_files/108578.got.cif
#   From: 2010.05.17/outbox.cif.g08.bks.cpg/sg12_55_cif.got.tgz:108578.got - 2010.06.03 13:09:07.
