data_PCOD9181384
_publ_section_title
;
Structure prediction by ZEFSAII (Michael W. Deem and Ramdas Pophale) SiO2 
 PCOD9181384
Probable space group: C 2/M
;
_chemical_formula_sum "Si O2"
_cell_formula_units_Z 40
_cell_length_a 12.627627
_cell_length_b 13.872665
_cell_length_c 11.581958
_cell_angle_alpha 90.000000
_cell_angle_beta 83.268279
_cell_angle_gamma 90.000000
_cell_volume 2014.926430
_symmetry_space_group_name_H-M "C 2/M"
_symmetry_group_IT_number 12
_symmetry_cell_setting 'monoclinic'
loop_
_space_group_symop_operation_xyz
x,y,z
-x,y,-z
-x,-y,-z
x,-y,z
1/2+x,1/2+y,z
1/2-x,1/2+y,-z
1/2-x,1/2-y,-z
1/2+x,1/2-y,z
loop_
_atom_site_type_symbol
_atom_site_label
_atom_site_fract_x
_atom_site_fract_y
_atom_site_fract_z
Si Si1 0.865791 0.101559 0.666156
Si Si2 0.180210 0.654573 0.530055
Si Si3 0.821692 0.892515 0.941501
Si Si4 0.048401 0.687135 0.335304
Si Si5 0.099132 0.680284 0.061019
O O1 0.768020 0.096961 0.589874
O O2 0.819809 0.108919 0.802162
O O3 0.932823 0.198903 0.640283
O O4 0.927468 0.000000 0.650629
O O5 0.250000 0.750000 0.500000
O O6 0.127597 0.630371 0.412492
O O7 0.074514 0.665912 0.621574
O O8 0.885243 0.795304 0.966131
O O9 0.860898 0.000000 0.970635
O O10 0.705370 0.874271 0.008853
O O11 0.077690 0.669125 0.199523
O O12 0.000000 0.644722 0.000000
#
# Coordination Sequence:
#
# PCOD9181384 Si02
#       5
#     8   8   8   8   8
#     4   9  17  32  54  76  99 127 162 204 248 293
#     4   9  17  32  51  69  95 130 162 198 246 294
#     4   9  19  34  51  76 106 132 165 208 249 296
#     4   9  18  32  50  73 100 131 166 202 245 296
#     4  10  19  32  53  76 101 136 171 203 247 299
#
# _framework density 19.851841
#
# number of rings (size 3 to 8) (size 9 to 14) (size 15 to 20)
#    0.000    2.800    0.000    1.200    0.000    2.400 
#    0.000   12.000    0.000    0.000    0.000    0.000 
#    0.000    0.000    0.000    0.000    0.000    0.000 
#
# Total GULP energy -111337.784548 kJ/mol
# GULP energy per Si atom -5566.889227 kJ/mol
# Density = 1.980666 g / cm^3
# Si number density = 19.851841 Si / 1000 Ang^3
#
#
#
# Elastic Constant Matrix: (Units=GPa)
#
#
# Indices 1 2 3 4 5 6 
#
# 1 38.6772 -23.8151 6.8395 0.0000 3.9276 0.0000
# 2 -23.8151 52.4864 0.2513 0.0000 1.3124 0.0000
# 3 6.8395 0.2513 34.2521 0.0000 -8.5361 0.0000
# 4 0.0000 0.0000 0.0000 7.6787 0.0000 2.0262
# 5 3.9276 1.3124 -8.5361 0.0000 23.3869 0.0000
# 6 0.0000 0.0000 0.0000 2.0262 0.0000 0.0460
#
#
#
# Elastic Compliance Matrix: (Units=1/GPa)
#
#
# Indices 1 2 3 4 5 6 
#
# 1 0.040626 0.018787 -0.011235 0.000000 -0.011978 0.000000
# 2 0.018787 0.027773 -0.005643 0.000000 -0.006773 0.000000
# 3 -0.011235 -0.005643 0.035234 0.000000 0.015064 0.000000
# 4 0.000000 0.000000 0.000000 -0.012262 0.000000 0.540015
# 5 -0.011978 -0.006773 0.015064 0.000000 0.050649 0.000000
# 6 0.000000 0.000000 0.000000 0.540015 0.000000 -2.046540
#
#
# Mechanical properties :
#
#
# Convention : Reuss Voigt Hill
#
# Bulk Modulus (GPa) = 9.30660 10.21856 9.76258
# Shear Modulus (GPa) = -2.67020 15.69832 6.51406
#
# Velocity S-wave (km/s) = -1.16103 2.81512 1.81341
# Velocity P-wave (km/s) = 1.70320 3.96549 3.05172
#
# Compressibility (1/GPa) = 0.10745059
#
# Stress axis : x y z
#
# Youngs Moduli (GPa) = 24.61491 36.00596 28.38154
#
# Poissons Ratio (x) = -0.67643 0.31887
# Poissons Ratio (y) = -0.46243 0.16016
# Poissons Ratio (z) = 0.27655 0.20318
#
# Static dielectric constant tensor:
#      x y z
#    x 1.648920 0.000000 0.013490 
#    y 0.000000 1.822260 0.000000 
#    z 0.013490 0.000000 1.681860 
# 
# From -- ./inp_files/129104.got.cif
#   From: 2010.05.17/outbox.cif.g08.bks.cpg/sg12_65_cif.got.tgz:129104.got - 2010.06.03 13:09:07.
