data_PCOD9181505
_publ_section_title
;
Structure prediction by ZEFSAII (Michael W. Deem and Ramdas Pophale) SiO2 
 PCOD9181505
Probable space group: C 2/M
;
_chemical_formula_sum "Si O2"
_cell_formula_units_Z 64
_cell_length_a 26.045536
_cell_length_b 9.501988
_cell_length_c 12.924021
_cell_angle_alpha 90.000000
_cell_angle_beta 82.138437
_cell_angle_gamma 90.000000
_cell_volume 3168.431989
_symmetry_space_group_name_H-M "C 2/M"
_symmetry_group_IT_number 12
_symmetry_cell_setting 'monoclinic'
loop_
_space_group_symop_operation_xyz
x,y,z
-x,y,-z
-x,-y,-z
x,-y,z
1/2+x,1/2+y,z
1/2-x,1/2+y,-z
1/2-x,1/2-y,-z
1/2+x,1/2-y,z
loop_
_atom_site_type_symbol
_atom_site_label
_atom_site_fract_x
_atom_site_fract_y
_atom_site_fract_z
Si Si1 0.673413 0.656387 0.316814
Si Si2 0.244544 0.334403 0.159676
Si Si3 0.797873 0.844600 0.455180
Si Si4 0.496004 0.170061 0.278003
Si Si5 0.112271 0.664399 0.632674
Si Si6 0.168687 0.666701 0.982068
Si Si7 0.918110 0.336598 0.601450
Si Si8 0.950229 0.671021 0.944806
O O1 0.673539 0.500000 0.269673
O O2 0.720865 0.748429 0.261855
O O3 0.676055 0.639822 0.439493
O O4 0.621152 0.744449 0.320189
O O5 0.251796 0.500000 0.177533
O O6 0.296814 0.260118 0.104909
O O7 0.200094 0.321775 0.082211
O O8 0.750000 0.750000 0.500000
O O9 0.837483 0.760658 0.372271
O O10 0.783936 0.000000 0.420593
O O11 0.436785 0.218455 0.288940
O O12 0.524518 0.203324 0.377518
O O13 0.532860 0.215025 0.174871
O O14 0.491377 0.000000 0.274828
O O15 0.123947 0.500000 0.652049
O O16 0.093158 0.670463 0.517679
O O17 0.169695 0.500000 0.952831
O O18 0.108449 0.712955 0.008716
O O19 0.909902 0.500000 0.632487
O O20 0.948792 0.500000 0.947790
O O21 0.000000 0.713922 0.000000
#
# Coordination Sequence:
#
# PCOD9181505 Si02
#       8
#     8   8   8   8   8   8   8   8
#     4  10  20  33  50  76 105 133 167 210 258 310
#     4  10  19  32  53  79 104 133 170 216 270 320
#     4  10  21  37  54  72 100 136 171 209 253 303
#     4   9  16  28  48  74 101 133 173 209 247 301
#     4   9  17  30  50  76 104 131 165 210 255 300
#     4   9  18  33  52  75 105 136 171 219 266 311
#     4   9  16  28  49  75 104 135 166 206 254 302
#     4   9  17  30  48  71 101 137 174 213 254 298
#
# _framework density 20.199266000000001
#
# number of rings (size 3 to 8) (size 9 to 14) (size 15 to 20)
#    0.000    2.625    0.000    2.250    0.000    5.500 
#    2.250    0.625    0.000    4.125    0.000    0.000 
#    0.000    0.000    0.000    0.000    0.000    0.000 
#
# Total GULP energy -178312.697352 kJ/mol
# GULP energy per Si atom -5572.271792 kJ/mol
# Density = 2.015329 g / cm^3
# Si number density = 20.199266 Si / 1000 Ang^3
#
#
#
# Elastic Constant Matrix: (Units=GPa)
#
#
# Indices 1 2 3 4 5 6 
#
# 1 122.0926 44.0975 22.4964 0.0000 -40.8492 0.0000
# 2 44.0975 86.3654 20.5860 0.0000 -25.8261 0.0000
# 3 22.4964 20.5860 47.6349 0.0000 -22.4027 0.0000
# 4 0.0000 0.0000 0.0000 17.2010 0.0000 -9.6180
# 5 -40.8492 -25.8261 -22.4027 0.0000 42.5660 0.0000
# 6 0.0000 0.0000 0.0000 -9.6180 0.0000 22.6107
#
#
#
# Elastic Compliance Matrix: (Units=1/GPa)
#
#
# Indices 1 2 3 4 5 6 
#
# 1 0.012888 -0.003554 0.000335 0.000000 0.010388 0.000000
# 2 -0.003554 0.015403 -0.002906 0.000000 0.004405 0.000000
# 3 0.000335 -0.002906 0.028456 0.000000 0.013534 0.000000
# 4 0.000000 0.000000 0.000000 0.076279 0.000000 0.032447
# 5 0.010388 0.004405 0.013534 0.000000 0.043258 0.000000
# 6 0.000000 0.000000 0.000000 0.032447 0.000000 0.058029
#
#
# Mechanical properties :
#
#
# Convention : Reuss Voigt Hill
#
# Bulk Modulus (GPa) = 22.47367 47.82807 35.15087
# Shear Modulus (GPa) = 19.12793 27.73640 23.43216
#
# Velocity S-wave (km/s) = 3.08061 3.70961 3.40965
# Velocity P-wave (km/s) = 4.87890 6.48674 5.73940
#
# Compressibility (1/GPa) = 0.04449651
#
# Stress axis : x y z
#
# Youngs Moduli (GPa) = 77.59127 64.92037 35.14170
#
# Poissons Ratio (x) = 0.23072 -0.01177
# Poissons Ratio (y) = 0.27575 0.10214
# Poissons Ratio (z) = -0.02598 0.18869
#
# Static dielectric constant tensor:
#      x y z
#    x 1.765370 0.000000 0.046080 
#    y 0.000000 1.717370 0.000000 
#    z 0.046080 0.000000 1.757620 
# 
# From -- ./inp_files/243748.got.cif
#   From: 2010.05.17/outbox.cif.g08.bks.cpg/sg12_122_cif.got.tgz:243748.got - 2010.06.03 13:09:07.
