data_PCOD9181261
_publ_section_title
;
Structure prediction by ZEFSAII (Michael W. Deem and Ramdas Pophale) SiO2 
 PCOD9181261
Probable space group: C 2/M
;
_chemical_formula_sum "Si O2"
_cell_formula_units_Z 50
_cell_length_a 28.009051
_cell_length_b 9.432704
_cell_length_c 10.409946
_cell_angle_alpha 90.000000
_cell_angle_beta 68.200648
_cell_angle_gamma 90.000000
_cell_volume 2553.643811
_symmetry_space_group_name_H-M "C 2/M"
_symmetry_group_IT_number 12
_symmetry_cell_setting 'monoclinic'
loop_
_space_group_symop_operation_xyz
x,y,z
-x,y,-z
-x,-y,-z
x,-y,z
1/2+x,1/2+y,z
1/2-x,1/2+y,-z
1/2-x,1/2-y,-z
1/2+x,1/2-y,z
loop_
_atom_site_type_symbol
_atom_site_label
_atom_site_fract_x
_atom_site_fract_y
_atom_site_fract_z
Si Si1 0.117451 0.661168 0.898151
Si Si2 0.529519 0.338753 0.108580
Si Si3 0.101809 0.656737 0.381732
Si Si4 0.000000 0.500000 0.500000
Si Si5 0.215020 0.836191 0.853399
Si Si6 0.312831 0.662815 0.816229
Si Si7 0.058744 0.662621 0.685489
O O1 0.127531 0.500000 0.931961
O O2 0.169506 0.749263 0.831824
O O3 0.087933 0.653503 0.791532
O O4 0.079065 0.741731 0.033425
O O5 0.543034 0.500000 0.130624
O O6 0.488779 0.265586 0.243549
O O7 0.500000 0.344115 0.000000
O O8 0.127593 0.500000 0.348489
O O9 0.132546 0.766583 0.267070
O O10 0.097814 0.704573 0.534528
O O11 0.042566 0.622933 0.412304
O O12 0.269100 0.755720 0.790043
O O13 0.217603 0.000000 0.810111
O O14 0.199740 0.833701 0.019854
O O15 0.311077 0.500000 0.776069
O O16 0.040771 0.500000 0.663012
#
# Coordination Sequence:
#
# PCOD9181261 Si02
#       7
#     8   8   8   2   8   8   8
#     4  10  19  32  52  79 109 144 184 232 277 329
#     4   9  17  29  46  71 106 146 182 221 275 330
#     4   9  19  37  57  81 110 147 183 226 274 332
#     4   8  20  36  58  80 106 148 194 216 262 336
#     4  10  21  37  57  83 111 143 185 235 284 339
#     4  10  21  38  59  82 110 143 185 234 288 332
#     4   9  18  33  52  76 111 147 185 226 278 335
#
# _framework density 19.579864000000001
#
# number of rings (size 3 to 8) (size 9 to 14) (size 15 to 20)
#    0.480    2.080    0.000    1.920    0.000    6.400 
#    2.880    1.200    0.000    0.000    0.000    0.000 
#    0.000    0.000    0.000    0.000    0.000    0.000 
#
# Total GULP energy -139208.908090 kJ/mol
# GULP energy per Si atom -5568.356324 kJ/mol
# Density = 1.953530 g / cm^3
# Si number density = 19.579864 Si / 1000 Ang^3
#
#
#
# Elastic Constant Matrix: (Units=GPa)
#
#
# Indices 1 2 3 4 5 6 
#
# 1 72.4139 49.2685 12.4169 0.0000 -21.9543 0.0000
# 2 49.2685 143.6359 45.3981 0.0000 -17.1188 0.0000
# 3 12.4169 45.3981 43.3646 0.0000 -11.6481 0.0000
# 4 0.0000 0.0000 0.0000 28.2949 0.0000 -8.3080
# 5 -21.9543 -17.1188 -11.6481 0.0000 25.9271 0.0000
# 6 0.0000 0.0000 0.0000 -8.3080 0.0000 34.3465
#
#
#
# Elastic Compliance Matrix: (Units=1/GPa)
#
#
# Indices 1 2 3 4 5 6 
#
# 1 0.023413 -0.007944 0.006287 0.000000 0.017405 0.000000
# 2 -0.007944 0.013217 -0.012537 0.000000 -0.003633 0.000000
# 3 0.006287 -0.012537 0.038202 0.000000 0.014209 0.000000
# 4 0.000000 0.000000 0.000000 0.038044 0.000000 0.009202
# 5 0.017405 -0.003633 0.014209 0.000000 0.057293 0.000000
# 6 0.000000 0.000000 0.000000 0.009202 0.000000 0.031341
#
#
# Mechanical properties :
#
#
# Convention : Reuss Voigt Hill
#
# Bulk Modulus (GPa) = 21.53133 52.62015 37.07574
# Shear Modulus (GPa) = 20.37669 27.86909 24.12289
#
# Velocity S-wave (km/s) = 3.22948 3.77683 3.51383
# Velocity P-wave (km/s) = 4.99266 6.77881 5.95310
#
# Compressibility (1/GPa) = 0.04644394
#
# Stress axis : x y z
#
# Youngs Moduli (GPa) = 42.71133 75.66294 26.17663
#
# Poissons Ratio (x) = 0.60105 -0.16458
# Poissons Ratio (y) = 0.33929 0.32819
# Poissons Ratio (z) = -0.26855 0.94862
#
# Static dielectric constant tensor:
#      x y z
#    x 1.658650 0.000000 0.026950 
#    y 0.000000 1.685040 0.000000 
#    z 0.026950 0.000000 1.660160 
# 
# From -- ./inp_files/186348.got.cif
#   From: 2010.05.17/outbox.cif.g08.bks.cpg/sg12_94_cif.got.tgz:186348.got - 2010.06.03 13:09:07.
