data_PCOD9181811
_publ_section_title
;
Structure prediction by ZEFSAII (Michael W. Deem and Ramdas Pophale) SiO2 
 PCOD9181811
Probable space group: C 2/M
;
_chemical_formula_sum "Si O2"
_cell_formula_units_Z 56
_cell_length_a 23.852857
_cell_length_b 15.186648
_cell_length_c 8.253897
_cell_angle_alpha 90.000000
_cell_angle_beta 105.825317
_cell_angle_gamma 90.000000
_cell_volume 2876.606799
_symmetry_space_group_name_H-M "C 2/M"
_symmetry_group_IT_number 12
_symmetry_cell_setting 'monoclinic'
loop_
_space_group_symop_operation_xyz
x,y,z
-x,y,-z
-x,-y,-z
x,-y,z
1/2+x,1/2+y,z
1/2-x,1/2+y,-z
1/2-x,1/2-y,-z
1/2+x,1/2-y,z
loop_
_atom_site_type_symbol
_atom_site_label
_atom_site_fract_x
_atom_site_fract_y
_atom_site_fract_z
Si Si1 0.182487 0.753300 0.898734
Si Si2 0.013383 0.781517 0.319516
Si Si3 0.774191 0.182877 0.389753
Si Si4 0.593268 0.600954 0.828969
Si Si5 0.162690 0.602530 0.117561
Si Si6 0.386555 0.595646 0.545210
Si Si7 0.539499 0.097238 0.191699
O O1 0.186154 0.762715 0.708037
O O2 0.148312 0.840733 0.930407
O O3 0.250000 0.750000 0.000000
O O4 0.154574 0.667272 0.957441
O O5 0.075004 0.829493 0.342899
O O6 0.017656 0.680517 0.273961
O O7 0.000000 0.786374 0.500000
O O8 0.963786 0.838870 0.190588
O O9 0.750000 0.250000 0.500000
O O10 0.721185 0.134680 0.255815
O O11 0.818327 0.114355 0.505387
O O12 0.590453 0.500000 0.886479
O O13 0.600112 0.594391 0.637929
O O14 0.168536 0.500000 0.075659
O O15 0.106346 0.610301 0.187999
O O16 0.403139 0.500000 0.622937
O O17 0.534679 0.000000 0.265748
O O18 0.500000 0.095322 0.000000
#
# Coordination Sequence:
#
# PCOD9181811 Si02
#       7
#     8   8   8   8   8   8   8
#     4   9  19  33  53  78 102 138 179 215 256 307
#     4  10  19  32  54  81 107 134 170 219 268 315
#     4  10  19  33  54  79 109 139 174 222 274 322
#     4   9  17  31  53  79 106 136 171 210 257 315
#     4  10  20  36  55  74 102 144 185 219 265 323
#     4   9  17  30  50  77 106 137 171 206 255 320
#     4  10  21  36  54  74 100 139 180 218 265 318
#
# _framework density 19.467379999999999
#
# number of rings (size 3 to 8) (size 9 to 14) (size 15 to 20)
#    0.000    2.429    0.000    2.571    0.000    5.429 
#    0.000    1.429    0.000   24.857    0.000    0.000 
#    0.000    0.000    0.000    0.000    0.000    0.000 
#
# Total GULP energy -156061.109547 kJ/mol
# GULP energy per Si atom -5573.611055 kJ/mol
# Density = 1.942307 g / cm^3
# Si number density = 19.467380 Si / 1000 Ang^3
#
#
#
# Elastic Constant Matrix: (Units=GPa)
#
#
# Indices 1 2 3 4 5 6 
#
# 1 71.6985 51.3591 15.5832 0.0000 23.4834 0.0000
# 2 51.3591 186.4820 35.3132 0.0000 6.8662 0.0000
# 3 15.5832 35.3132 22.7869 0.0000 14.6565 0.0000
# 4 0.0000 0.0000 0.0000 29.5503 0.0000 6.3892
# 5 23.4834 6.8662 14.6565 0.0000 27.1638 0.0000
# 6 0.0000 0.0000 0.0000 6.3892 0.0000 24.0378
#
#
#
# Elastic Compliance Matrix: (Units=1/GPa)
#
#
# Indices 1 2 3 4 5 6 
#
# 1 0.026500 -0.008842 0.013596 0.000000 -0.028010 0.000000
# 2 -0.008842 0.011454 -0.022601 0.000000 0.016943 0.000000
# 3 0.013596 -0.022601 0.112562 0.000000 -0.066775 0.000000
# 4 0.000000 0.000000 0.000000 0.035904 0.000000 -0.009543
# 5 -0.028010 0.016943 -0.066775 0.000000 0.092775 0.000000
# 6 0.000000 0.000000 0.000000 -0.009543 0.000000 0.044138
#
#
# Mechanical properties :
#
#
# Convention : Reuss Voigt Hill
#
# Bulk Modulus (GPa) = 8.70914 53.94206 31.32560
# Shear Modulus (GPa) = 12.58492 28.06451 20.32471
#
# Velocity S-wave (km/s) = 2.54532 3.80098 3.23467
# Velocity P-wave (km/s) = 3.62238 6.85802 5.48425
#
# Compressibility (1/GPa) = 0.11482188
#
# Stress axis : x y z
#
# Youngs Moduli (GPa) = 37.73587 87.30920 8.88396
#
# Poissons Ratio (x) = 0.77195 -0.12078
# Poissons Ratio (y) = 0.33365 0.20079
# Poissons Ratio (z) = -0.51305 1.97329
#
# Static dielectric constant tensor:
#      x y z
#    x 1.702590 0.000000 0.003180 
#    y 0.000000 1.696100 0.000000 
#    z 0.003180 0.000000 1.702010 
# 
# From -- ./inp_files/96984.got.cif
#   From: 2010.05.17/outbox.cif.g08.bks.cpg/sg12_49_cif.got.tgz:96984.got - 2010.06.03 13:09:07.
