data_PCOD9181677
_publ_section_title
;
Structure prediction by ZEFSAII (Michael W. Deem and Ramdas Pophale) SiO2 
 PCOD9181677
Probable space group: C 2/M
;
_chemical_formula_sum "Si O2"
_cell_formula_units_Z 40
_cell_length_a 14.843594
_cell_length_b 29.729932
_cell_length_c 8.829142
_cell_angle_alpha 90.000000
_cell_angle_beta 151.978482
_cell_angle_gamma 90.000000
_cell_volume 1830.490123
_symmetry_space_group_name_H-M "C 2/M"
_symmetry_group_IT_number 12
_symmetry_cell_setting 'monoclinic'
loop_
_space_group_symop_operation_xyz
x,y,z
-x,y,-z
-x,-y,-z
x,-y,z
1/2+x,1/2+y,z
1/2-x,1/2+y,-z
1/2-x,1/2-y,-z
1/2+x,1/2-y,z
loop_
_atom_site_type_symbol
_atom_site_label
_atom_site_fract_x
_atom_site_fract_y
_atom_site_fract_z
Si Si1 0.552193 0.283994 0.898297
Si Si2 0.210824 0.373147 0.739546
Si Si3 0.171298 0.050865 0.874131
Si Si4 0.467209 0.900687 0.125697
Si Si5 0.820560 0.308457 0.848263
O O1 0.368549 0.296179 0.525336
O O2 0.500000 0.281948 0.000000
O O3 0.700554 0.324444 0.106354
O O4 0.630169 0.234336 0.974663
O O5 0.000000 0.374126 0.500000
O O6 0.165252 0.384756 0.497262
O O7 0.333810 0.411827 0.002475
O O8 0.000000 0.056293 0.500000
O O9 0.167443 0.000000 0.927639
O O10 0.367446 0.059973 0.072032
O O11 0.500000 0.912156 0.000000
O O12 0.321755 0.857650 0.923437
O O13 0.000000 0.312615 0.000000
#
# Coordination Sequence:
#
# PCOD9181677 Si02
#       5
#     8   8   8   8   8
#     4  11  19  33  56  81 114 155 196 232 275 334
#     4  10  22  38  58  85 117 152 190 233 288 340
#     4  10  22  41  61  82 112 149 186 231 292 348
#     4  10  20  37  59  85 114 146 192 237 277 331
#     4  10  19  32  53  83 116 150 189 235 283 328
#
# _framework density 21.852070999999999
#
# number of rings (size 3 to 8) (size 9 to 14) (size 15 to 20)
#    0.000    1.800    0.000    7.200    0.000    4.000 
#    0.000   10.000    0.000    3.000    0.000    0.000 
#    0.000    0.000    0.000    0.000    0.000    0.000 
#
# Total GULP energy -111797.196298 kJ/mol
# GULP energy per Si atom -5589.859815 kJ/mol
# Density = 2.180233 g / cm^3
# Si number density = 21.852071 Si / 1000 Ang^3
#
#
#
# Elastic Constant Matrix: (Units=GPa)
#
#
# Indices 1 2 3 4 5 6 
#
# 1 35.2550 -2.0220 -9.9816 0.0000 -14.3331 0.0000
# 2 -2.0220 91.8700 1.2965 0.0000 1.7259 0.0000
# 3 -9.9816 1.2965 88.5922 0.0000 -7.4439 0.0000
# 4 0.0000 0.0000 0.0000 30.7944 0.0000 3.0334
# 5 -14.3331 1.7259 -7.4439 0.0000 24.5130 0.0000
# 6 0.0000 0.0000 0.0000 3.0334 0.0000 29.3357
#
#
#
# Elastic Compliance Matrix: (Units=1/GPa)
#
#
# Indices 1 2 3 4 5 6 
#
# 1 0.040835 0.000316 0.006773 0.000000 0.025912 0.000000
# 2 0.000316 0.010906 -0.000177 0.000000 -0.000637 0.000000
# 3 0.006773 -0.000177 0.012712 0.000000 0.007833 0.000000
# 4 0.000000 0.000000 0.000000 0.032808 0.000000 -0.003392
# 5 0.025912 -0.000637 0.007833 0.000000 0.058369 0.000000
# 6 0.000000 0.000000 0.000000 -0.003392 0.000000 0.034439
#
#
# Mechanical properties :
#
#
# Convention : Reuss Voigt Hill
#
# Bulk Modulus (GPa) = 12.77500 21.58921 17.18211
# Shear Modulus (GPa) = 24.71129 32.02355 28.36742
#
# Velocity S-wave (km/s) = 3.36645 3.83230 3.60690
# Velocity P-wave (km/s) = 4.57924 5.42984 5.02258
#
# Compressibility (1/GPa) = 0.07827786
#
# Stress axis : x y z
#
# Youngs Moduli (GPa) = 24.48871 91.68944 78.66823
#
# Poissons Ratio (x) = -0.02901 -0.53285
# Poissons Ratio (y) = -0.00775 0.01396
# Poissons Ratio (z) = -0.16587 0.01627
#
# Static dielectric constant tensor:
#      x y z
#    x 1.850980 0.000000 -0.036750 
#    y 0.000000 1.802530 0.000000 
#    z -0.036750 0.000000 1.803910 
# 
# From -- ./inp_files/41467.got.cif
#   From: 2010.05.17/outbox.cif.g08.bks.cpg/sg12_21_cif.got.tgz:41467.got - 2010.06.03 13:09:07.
