data_PCOD9181311
_publ_section_title
;
Structure prediction by ZEFSAII (Michael W. Deem and Ramdas Pophale) SiO2 
 PCOD9181311
Probable space group: C 2/M
;
_chemical_formula_sum "Si O2"
_cell_formula_units_Z 56
_cell_length_a 22.044022
_cell_length_b 17.063344
_cell_length_c 9.938011
_cell_angle_alpha 90.000000
_cell_angle_beta 35.847759
_cell_angle_gamma 90.000000
_cell_volume 2189.174563
_symmetry_space_group_name_H-M "C 2/M"
_symmetry_group_IT_number 12
_symmetry_cell_setting 'monoclinic'
loop_
_space_group_symop_operation_xyz
x,y,z
-x,y,-z
-x,-y,-z
x,-y,z
1/2+x,1/2+y,z
1/2-x,1/2+y,-z
1/2-x,1/2-y,-z
1/2+x,1/2-y,z
loop_
_atom_site_type_symbol
_atom_site_label
_atom_site_fract_x
_atom_site_fract_y
_atom_site_fract_z
Si Si1 0.147860 0.411807 0.352643
Si Si2 0.580677 0.586074 0.503590
Si Si3 0.021908 0.587966 0.118468
Si Si4 0.659348 0.254051 0.270908
Si Si5 0.779037 0.083459 0.485902
Si Si6 0.620552 0.619403 0.958705
Si Si7 0.319825 0.212155 0.200020
O O1 0.131793 0.500000 0.323827
O O2 0.081860 0.407504 0.608362
O O3 0.111096 0.332375 0.345051
O O4 0.270457 0.401234 0.163280
O O5 0.588248 0.500000 0.423541
O O6 0.600663 0.662598 0.375209
O O7 0.666952 0.584689 0.466193
O O8 0.473601 0.594433 0.778478
O O9 0.060774 0.500000 0.066430
O O10 0.000000 0.602637 0.000000
O O11 0.111664 0.647346 0.000434
O O12 0.715809 0.259571 0.313841
O O13 0.750000 0.250000 0.000000
O O14 0.863955 0.083563 0.216679
O O15 0.714145 0.164399 0.605264
O O16 0.721669 0.000000 0.573299
O O17 0.610537 0.710867 0.936433
#
# Coordination Sequence:
#
# PCOD9181311 Si02
#       7
#     8   8   8   8   8   8   8
#     4  10  21  37  57  83 115 151 193 238 289 353
#     4  10  21  36  57  86 116 148 190 238 290 356
#     4  10  20  35  57  86 122 160 193 234 291 356
#     4  10  23  43  62  81 108 147 197 255 308 347
#     4  10  19  32  52  80 115 152 188 230 285 346
#     4  11  20  33  54  83 120 156 186 226 289 361
#     4  10  21  35  55  83 113 152 202 244 285 348
#
# _framework density 25.580416
#
# number of rings (size 3 to 8) (size 9 to 14) (size 15 to 20)
#    0.000    1.857    0.000    4.286    0.000    6.857 
#    0.000    6.429    0.000    6.000    0.000    0.000 
#    0.000    0.000    0.000    0.000    0.000    0.000 
#
# Total GULP energy -156326.476932 kJ/mol
# GULP energy per Si atom -5583.088462 kJ/mol
# Density = 2.552219 g / cm^3
# Si number density = 25.580416 Si / 1000 Ang^3
#
#
#
# Elastic Constant Matrix: (Units=GPa)
#
#
# Indices 1 2 3 4 5 6 
#
# 1 48.4672 21.3357 -11.3693 0.0000 -3.3747 0.0000
# 2 21.3357 271.0001 76.6559 0.0000 0.0769 0.0000
# 3 -11.3693 76.6559 138.9558 0.0000 -6.2760 0.0000
# 4 0.0000 0.0000 0.0000 36.6725 0.0000 -18.4814
# 5 -3.3747 0.0769 -6.2760 0.0000 32.5480 0.0000
# 6 0.0000 0.0000 0.0000 -18.4814 0.0000 117.4152
#
#
#
# Elastic Compliance Matrix: (Units=1/GPa)
#
#
# Indices 1 2 3 4 5 6 
#
# 1 0.022922 -0.002814 0.003567 0.000000 0.003071 0.000000
# 2 -0.002814 0.004725 -0.002876 0.000000 -0.000857 0.000000
# 3 0.003567 -0.002876 0.009172 0.000000 0.002145 0.000000
# 4 0.000000 0.000000 0.000000 0.029618 0.000000 0.004662
# 5 0.003071 -0.000857 0.002145 0.000000 0.031458 0.000000
# 6 0.000000 0.000000 0.000000 0.004662 0.000000 0.009251
#
#
# Mechanical properties :
#
#
# Convention : Reuss Voigt Hill
#
# Bulk Modulus (GPa) = 30.70109 70.18530 50.44319
# Shear Modulus (GPa) = 40.89998 62.11385 51.50692
#
# Velocity S-wave (km/s) = 4.00294 4.93300 4.49210
# Velocity P-wave (km/s) = 5.77863 7.74227 6.83137
#
# Compressibility (1/GPa) = 0.03257214
#
# Stress axis : x y z
#
# Youngs Moduli (GPa) = 43.62632 211.62682 109.03129
#
# Poissons Ratio (x) = 0.59560 -0.38889
# Poissons Ratio (y) = 0.12278 0.31355
# Poissons Ratio (z) = -0.15560 0.60859
#
# Static dielectric constant tensor:
#      x y z
#    x 2.053470 0.000000 0.009070 
#    y 0.000000 2.133010 0.000000 
#    z 0.009070 0.000000 2.017350 
# 
# From -- ./inp_files/143768.got.cif
#   From: 2010.05.17/outbox.cif.g08.bks.cpg/sg12_72_cif.got.tgz:143768.got - 2010.06.03 13:09:07.
