data_PCOD9181192
_publ_section_title
;
Structure prediction by ZEFSAII (Michael W. Deem and Ramdas Pophale) SiO2 
 PCOD9181192
Probable space group: C 2/M
;
_chemical_formula_sum "Si O2"
_cell_formula_units_Z 56
_cell_length_a 26.257771
_cell_length_b 8.559595
_cell_length_c 19.739983
_cell_angle_alpha 90.000000
_cell_angle_beta 48.212108
_cell_angle_gamma 90.000000
_cell_volume 3308.061340
_symmetry_space_group_name_H-M "C 2/M"
_symmetry_group_IT_number 12
_symmetry_cell_setting 'monoclinic'
loop_
_space_group_symop_operation_xyz
x,y,z
-x,y,-z
-x,-y,-z
x,-y,z
1/2+x,1/2+y,z
1/2-x,1/2+y,-z
1/2-x,1/2-y,-z
1/2+x,1/2-y,z
loop_
_atom_site_type_symbol
_atom_site_label
_atom_site_fract_x
_atom_site_fract_y
_atom_site_fract_z
Si Si1 0.306735 0.813452 0.897969
Si Si2 0.499382 0.189249 0.111685
Si Si3 0.504291 0.815309 0.600536
Si Si4 0.105138 0.185959 0.408411
Si Si5 0.040751 0.185657 0.218441
Si Si6 0.890674 0.689632 0.098130
Si Si7 0.263638 0.310526 0.789184
O O1 0.381278 0.746711 0.849564
O O2 0.286874 0.760200 0.839992
O O3 0.309221 0.000000 0.899658
O O4 0.250000 0.750000 0.000000
O O5 0.506555 0.263303 0.178554
O O6 0.432585 0.236885 0.127848
O O7 0.499606 0.000000 0.117448
O O8 0.564171 0.234326 0.007207
O O9 0.574764 0.769893 0.501171
O O10 0.445496 0.731003 0.608402
O O11 0.497331 0.759735 0.683380
O O12 0.493362 0.000000 0.605575
O O13 0.180756 0.230164 0.317227
O O14 0.101944 0.000000 0.421485
O O15 0.041137 0.000000 0.225033
O O16 0.890218 0.500000 0.099159
O O17 0.812825 0.741723 0.161256
O O18 0.264060 0.500000 0.795601
#
# Coordination Sequence:
#
# PCOD9181192 Si02
#       7
#     8   8   8   8   8   8   8
#     4  12  24  36  51  75 109 144 177 213 261 316
#     4   9  17  33  56  79 105 140 182 220 256 308
#     4  11  21  34  53  75 103 138 179 221 265 319
#     4  10  19  32  52  77 108 140 174 217 265 318
#     4  12  23  36  53  77 108 140 177 221 270 318
#     4   8  16  32  55  80 105 139 180 217 256 310
#     4  10  19  33  54  79 109 142 175 213 263 319
#
# _framework density 16.928343999999999
#
# number of rings (size 3 to 8) (size 9 to 14) (size 15 to 20)
#    0.000    1.714    1.429    6.857    0.000    1.714 
#    0.000    2.143    0.000    0.857    0.000    0.000 
#    0.000    0.000    0.000    0.000    0.000    0.000 
#
# Total GULP energy -156363.007261 kJ/mol
# GULP energy per Si atom -5584.393116 kJ/mol
# Density = 1.688981 g / cm^3
# Si number density = 16.928344 Si / 1000 Ang^3
#
#
#
# Elastic Constant Matrix: (Units=GPa)
#
#
# Indices 1 2 3 4 5 6 
#
# 1 49.7025 -4.8689 22.6008 0.0108 14.2389 -0.0070
# 2 -4.8689 26.4412 2.9808 -0.0133 0.7232 0.0224
# 3 22.6008 2.9808 88.9443 0.0189 16.8850 -0.0094
# 4 0.0108 -0.0133 0.0189 19.5280 -0.0049 6.1426
# 5 14.2389 0.7232 16.8850 -0.0049 22.4413 0.0014
# 6 -0.0070 0.0224 -0.0094 6.1426 0.0014 19.8538
#
#
#
# Elastic Compliance Matrix: (Units=1/GPa)
#
#
# Indices 1 2 3 4 5 6 
#
# 1 0.026612 0.005767 -0.004334 -0.000012 -0.013810 0.000006
# 2 0.005767 0.039215 -0.002152 0.000042 -0.003303 -0.000056
# 3 -0.004334 -0.002152 0.013861 -0.000019 -0.007610 0.000014
# 4 -0.000012 0.000042 -0.000019 0.056730 0.000034 -0.017552
# 5 -0.013810 -0.003303 -0.007610 0.000034 0.059156 -0.000019
# 6 0.000006 -0.000056 0.000014 -0.017552 -0.000019 0.055798
#
#
# Mechanical properties :
#
#
# Convention : Reuss Voigt Hill
#
# Bulk Modulus (GPa) = 12.77985 22.94593 17.86289
# Shear Modulus (GPa) = 17.92805 21.98964 19.95884
#
# Velocity S-wave (km/s) = 3.25784 3.60805 3.43741
# Velocity P-wave (km/s) = 4.66017 5.56251 5.13121
#
# Compressibility (1/GPa) = 0.07824821
#
# Stress axis : x y z
#
# Youngs Moduli (GPa) = 37.57768 25.50062 72.14494
#
# Poissons Ratio (x) = -0.14705 0.31265
# Poissons Ratio (y) = -0.21669 0.15529
# Poissons Ratio (z) = 0.16285 0.05489
#
# Static dielectric constant tensor:
#      x y z
#    x 1.551780 0.000000 -0.013660 
#    y 0.000000 1.571170 0.000000 
#    z -0.013660 0.000000 1.571210 
# 
# From -- ./inp_files/291858.got.cif
#   From: 2010.05.17/outbox.cif.g08.bks.cpg/sg12_146_cif.got.tgz:291858.got - 2010.06.03 13:09:07.
