data_PCOD9181493
_publ_section_title
;
Structure prediction by ZEFSAII (Michael W. Deem and Ramdas Pophale) SiO2 
 PCOD9181493
Probable space group: C 2/M
;
_chemical_formula_sum "Si O2"
_cell_formula_units_Z 48
_cell_length_a 18.708059
_cell_length_b 20.277291
_cell_length_c 10.863335
_cell_angle_alpha 90.000000
_cell_angle_beta 145.133262
_cell_angle_gamma 90.000000
_cell_volume 2355.846423
_symmetry_space_group_name_H-M "C 2/M"
_symmetry_group_IT_number 12
_symmetry_cell_setting 'monoclinic'
loop_
_space_group_symop_operation_xyz
x,y,z
-x,y,-z
-x,-y,-z
x,-y,z
1/2+x,1/2+y,z
1/2-x,1/2+y,-z
1/2-x,1/2-y,-z
1/2+x,1/2-y,z
loop_
_atom_site_type_symbol
_atom_site_label
_atom_site_fract_x
_atom_site_fract_y
_atom_site_fract_z
Si Si1 0.590526 0.162753 0.007237
Si Si2 0.196628 0.000000 0.866767
Si Si3 0.102617 0.421218 0.402994
Si Si4 0.964006 0.808840 0.092287
Si Si5 0.698609 0.370751 0.514288
Si Si6 0.231909 0.074861 0.137167
Si Si7 0.907287 0.000000 0.538050
O O1 0.524495 0.113749 0.818705
O O2 0.594559 0.237488 0.965660
O O3 0.500000 0.163309 0.000000
O O4 0.721644 0.141749 0.250597
O O5 0.193310 0.000000 0.716298
O O6 0.048393 0.000000 0.689678
O O7 0.253021 0.938248 0.021760
O O8 0.096979 0.500000 0.368740
O O9 0.209101 0.386300 0.468738
O O10 0.148073 0.412307 0.607713
O O11 0.097827 0.814174 0.348586
O O12 0.000000 0.814648 0.000000
O O13 0.868714 0.867846 0.987839
O O14 0.617634 0.435983 0.418191
O O15 0.188204 0.000000 0.116432
#
# Coordination Sequence:
#
# PCOD9181493 Si02
#       7
#     8   4   8   8   8   8   4
#     4   9  23  32  46  77 114 148 163 196 258 313
#     4   9  20  35  50  84 101 127 177 214 282 285
#     4  10  19  32  53  78 109 137 170 208 250 309
#     4  11  20  31  50  76 113 138 170 206 248 319
#     4  11  20  32  53  79 105 137 172 209 261 300
#     4   9  18  32  52  76  99 136 168 213 255 302
#     4  11  20  33  55  80 104 129 168 234 256 305
#
# _framework density 20.374842000000001
#
# number of rings (size 3 to 8) (size 9 to 14) (size 15 to 20)
#    0.500    1.500    4.167    0.000    3.500    3.333 
#    0.000    0.000    0.000    3.000    4.333    0.000 
#    0.000    0.000    0.000    0.000    0.000    0.000 
#
# Total GULP energy -133770.833398 kJ/mol
# GULP energy per Si atom -5573.784725 kJ/mol
# Density = 2.032847 g / cm^3
# Si number density = 20.374842 Si / 1000 Ang^3
#
#
#
# Elastic Constant Matrix: (Units=GPa)
#
#
# Indices 1 2 3 4 5 6 
#
# 1 26.4508 0.4028 5.1797 0.0000 -3.4695 0.0000
# 2 0.4028 85.5842 39.1554 0.0000 13.6542 0.0000
# 3 5.1797 39.1554 146.5671 0.0000 -14.6613 0.0000
# 4 0.0000 0.0000 0.0000 22.4902 0.0000 -3.6789
# 5 -3.4695 13.6542 -14.6613 0.0000 27.4065 0.0000
# 6 0.0000 0.0000 0.0000 -3.6789 0.0000 11.5035
#
#
#
# Elastic Compliance Matrix: (Units=1/GPa)
#
#
# Indices 1 2 3 4 5 6 
#
# 1 0.038587 -0.000621 -0.000716 0.000000 0.004811 0.000000
# 2 -0.000621 0.015827 -0.005286 0.000000 -0.010792 0.000000
# 3 -0.000716 -0.005286 0.008996 0.000000 0.007355 0.000000
# 4 0.000000 0.000000 0.000000 0.046918 0.000000 0.015005
# 5 0.004811 -0.010792 0.007355 0.000000 0.046408 0.000000
# 6 0.000000 0.000000 0.000000 0.015005 0.000000 0.091729
#
#
# Mechanical properties :
#
#
# Convention : Reuss Voigt Hill
#
# Bulk Modulus (GPa) = 19.93504 38.67534 29.30519
# Shear Modulus (GPa) = 17.95761 26.53767 22.24764
#
# Velocity S-wave (km/s) = 2.97199 3.61289 3.30800
# Velocity P-wave (km/s) = 4.64568 6.03549 5.38561
#
# Compressibility (1/GPa) = 0.05016292
#
# Stress axis : x y z
#
# Youngs Moduli (GPa) = 25.91555 63.18179 111.16059
#
# Poissons Ratio (x) = 0.03926 0.07963
# Poissons Ratio (y) = 0.01610 0.58758
# Poissons Ratio (z) = 0.01857 0.33397
#
# Static dielectric constant tensor:
#      x y z
#    x 1.711510 0.000000 -0.021660 
#    y 0.000000 1.722380 0.000000 
#    z -0.021660 0.000000 1.757890 
# 
# From -- ./inp_files/133451.got.cif
#   From: 2010.05.17/outbox.cif.g08.bks.cpg/sg12_67_cif.got.tgz:133451.got - 2010.06.03 13:09:07.
