data_PCOD9181485
_publ_section_title
;
Structure prediction by ZEFSAII (Michael W. Deem and Ramdas Pophale) SiO2 
 PCOD9181485
Probable space group: C 2/M
;
_chemical_formula_sum "Si O2"
_cell_formula_units_Z 64
_cell_length_a 25.148644
_cell_length_b 13.138047
_cell_length_c 16.777685
_cell_angle_alpha 90.000000
_cell_angle_beta 147.175936
_cell_angle_gamma 90.000000
_cell_volume 3004.870364
_symmetry_space_group_name_H-M "C 2/M"
_symmetry_group_IT_number 12
_symmetry_cell_setting 'monoclinic'
loop_
_space_group_symop_operation_xyz
x,y,z
-x,y,-z
-x,-y,-z
x,-y,z
1/2+x,1/2+y,z
1/2-x,1/2+y,-z
1/2-x,1/2-y,-z
1/2+x,1/2-y,z
loop_
_atom_site_type_symbol
_atom_site_label
_atom_site_fract_x
_atom_site_fract_y
_atom_site_fract_z
Si Si1 0.378007 0.111229 0.154876
Si Si2 0.000202 0.812368 0.702046
Si Si3 0.816987 0.889258 0.984591
Si Si4 0.389086 0.219754 0.841285
Si Si5 0.098349 0.780785 0.574672
Si Si6 0.714106 0.882957 0.622227
Si Si7 0.198987 0.673479 0.110979
Si Si8 0.855977 0.699822 0.625790
O O1 0.448743 0.205530 0.258802
O O2 0.421116 0.000000 0.225787
O O3 0.281111 0.123764 0.086612
O O4 0.344354 0.117546 0.020185
O O5 0.089149 0.883039 0.839384
O O6 0.932109 0.843376 0.542830
O O7 0.933371 0.784358 0.693438
O O8 0.814066 0.000000 0.942158
O O9 0.824081 0.792705 0.936388
O O10 0.313565 0.315349 0.740687
O O11 0.349314 0.152090 0.864588
O O12 0.386087 0.164616 0.751511
O O13 0.500000 0.251059 0.000000
O O14 0.147738 0.677241 0.603122
O O15 0.183796 0.834919 0.732752
O O16 0.000000 0.763711 0.500000
O O17 0.657240 0.875257 0.465568
O O18 0.731298 0.000000 0.662784
O O19 0.750000 0.750000 0.500000
#
# Coordination Sequence:
#
# PCOD9181485 Si02
#       8
#     8   8   8   8   8   8   8   8
#     4  10  20  35  55  78 107 142 176 210 255 315
#     4  10  19  35  57  77 103 139 180 216 254 313
#     4  10  20  35  55  79 108 141 174 210 257 317
#     4  10  19  34  55  75  99 133 170 216 267 305
#     4  10  19  32  53  78 106 138 168 207 261 310
#     4   9  20  35  52  76 104 135 172 212 255 314
#     4  10  20  35  54  78 108 136 171 217 263 310
#     4   9  19  37  54  70  99 140 178 209 255 309
#
# _framework density 21.298756000000001
#
# number of rings (size 3 to 8) (size 9 to 14) (size 15 to 20)
#    0.000    2.250    0.000    5.250    0.000    4.500 
#    0.000    6.250    0.000    3.750    0.000    0.000 
#    0.000    0.000    0.000    0.000    0.000    0.000 
#
# Total GULP energy -178603.390541 kJ/mol
# GULP energy per Si atom -5581.355954 kJ/mol
# Density = 2.125028 g / cm^3
# Si number density = 21.298756 Si / 1000 Ang^3
#
#
#
# Elastic Constant Matrix: (Units=GPa)
#
#
# Indices 1 2 3 4 5 6 
#
# 1 81.3515 -0.1414 3.5827 0.0000 2.9428 0.0000
# 2 -0.1414 31.2276 -6.4615 0.0000 5.7484 0.0000
# 3 3.5827 -6.4615 92.0222 0.0000 4.3906 0.0000
# 4 0.0000 0.0000 0.0000 1.0221 0.0000 2.9433
# 5 2.9428 5.7484 4.3906 0.0000 52.1622 0.0000
# 6 0.0000 0.0000 0.0000 2.9433 0.0000 6.0432
#
#
#
# Elastic Compliance Matrix: (Units=1/GPa)
#
#
# Indices 1 2 3 4 5 6 
#
# 1 0.012336 0.000087 -0.000442 0.000000 -0.000668 0.000000
# 2 0.000087 0.033259 0.002517 0.000000 -0.003882 0.000000
# 3 -0.000442 0.002517 0.011118 0.000000 -0.001188 0.000000
# 4 0.000000 0.000000 0.000000 -2.430924 0.000000 1.183957
# 5 -0.000668 -0.003882 -0.001188 0.000000 0.019737 0.000000
# 6 0.000000 0.000000 0.000000 1.183957 0.000000 -0.411159
#
#
# Mechanical properties :
#
#
# Convention : Reuss Voigt Hill
#
# Bulk Modulus (GPa) = 16.38349 22.06232 19.22291
# Shear Modulus (GPa) = -1.81844 25.68693 11.93425
#
# Velocity S-wave (km/s) = -0.92500 3.47656 2.36969
# Velocity P-wave (km/s) = 2.56283 5.14746 4.06598
#
# Compressibility (1/GPa) = 0.06103704
#
# Stress axis : x y z
#
# Youngs Moduli (GPa) = 81.06258 30.06725 89.94752
#
# Poissons Ratio (x) = -0.00263 0.03978
# Poissons Ratio (y) = -0.00708 -0.22641
# Poissons Ratio (z) = 0.03585 -0.07568
#
# Static dielectric constant tensor:
#      x y z
#    x 1.779300 0.000000 -0.031440 
#    y 0.000000 1.727140 0.000000 
#    z -0.031440 0.000000 1.800500 
# 
# From -- ./inp_files/290127.got.cif
#   From: 2010.05.17/outbox.cif.g08.bks.cpg/sg12_146_cif.got.tgz:290127.got - 2010.06.03 13:09:07.
