data_PCOD9181684
_publ_section_title
;
Structure prediction by ZEFSAII (Michael W. Deem and Ramdas Pophale) SiO2 
 PCOD9181684
Probable space group: C 2/M
;
_chemical_formula_sum "Si O2"
_cell_formula_units_Z 56
_cell_length_a 17.263102
_cell_length_b 18.636131
_cell_length_c 14.562962
_cell_angle_alpha 90.000000
_cell_angle_beta 28.722753
_cell_angle_gamma 90.000000
_cell_volume 2251.555096
_symmetry_space_group_name_H-M "C 2/M"
_symmetry_group_IT_number 12
_symmetry_cell_setting 'monoclinic'
loop_
_space_group_symop_operation_xyz
x,y,z
-x,y,-z
-x,-y,-z
x,-y,z
1/2+x,1/2+y,z
1/2-x,1/2+y,-z
1/2-x,1/2-y,-z
1/2+x,1/2-y,z
loop_
_atom_site_type_symbol
_atom_site_label
_atom_site_fract_x
_atom_site_fract_y
_atom_site_fract_z
Si Si1 0.806968 0.080515 0.852154
Si Si2 0.592363 0.196160 0.160268
Si Si3 0.193766 0.359449 0.797458
Si Si4 0.399275 0.275414 0.012196
Si Si5 0.339411 0.585260 0.466278
Si Si6 0.615328 0.915510 0.525041
Si Si7 0.828745 0.076816 0.125241
O O1 0.793957 0.085680 0.755712
O O2 0.975420 0.107723 0.716439
O O3 0.788912 0.000000 0.900809
O O4 0.657975 0.125714 0.041907
O O5 0.491124 0.156817 0.345373
O O6 0.750000 0.250000 0.000000
O O7 0.500907 0.241513 0.175564
O O8 0.224422 0.284074 0.819270
O O9 0.247541 0.368975 0.638026
O O10 0.000000 0.371257 0.000000
O O11 0.329524 0.353158 0.061801
O O12 0.500000 0.286634 0.000000
O O13 0.330307 0.500000 0.499188
O O14 0.259475 0.591926 0.449872
O O15 0.692044 0.913948 0.344209
O O16 0.554717 0.000000 0.599603
O O17 0.807980 0.000000 0.099356
O O18 0.000000 0.072379 0.000000
#
# Coordination Sequence:
#
# PCOD9181684 Si02
#       7
#     8   8   8   8   8   8   8
#     4  10  21  36  54  80 119 161 202 255 315 381
#     4  11  24  41  61  91 126 160 205 263 325 382
#     4  10  19  32  53  83 121 164 206 250 309 384
#     4   9  19  37  59  85 119 160 206 251 307 376
#     4  10  20  34  56  88 120 156 204 254 311 376
#     4  10  21  40  67  95 125 165 213 263 318 385
#     4   9  19  38  64  92 121 158 211 268 315 371
#
# _framework density 24.871700000000001
#
# number of rings (size 3 to 8) (size 9 to 14) (size 15 to 20)
#    0.000    2.143    0.000    3.857    0.000    6.857 
#    0.000    9.286    0.000    2.143    0.000    0.000 
#    0.000    0.000    0.000    0.000    0.000    0.429 
#
# Total GULP energy -156182.061183 kJ/mol
# GULP energy per Si atom -5577.930757 kJ/mol
# Density = 2.481509 g / cm^3
# Si number density = 24.871700 Si / 1000 Ang^3
#
#
#
# Elastic Constant Matrix: (Units=GPa)
#
#
# Indices 1 2 3 4 5 6 
#
# 1 75.5539 23.8263 18.9389 -0.0164 -13.3235 -0.0030
# 2 23.8263 146.2973 67.4161 -0.0165 15.6578 -0.0088
# 3 18.9389 67.4161 65.6831 -0.0399 6.2746 -0.0003
# 4 -0.0164 -0.0165 -0.0399 34.0066 0.0147 -1.8954
# 5 -13.3235 15.6578 6.2746 0.0147 34.7883 0.0023
# 6 -0.0030 -0.0088 -0.0003 -1.8954 0.0023 27.8477
#
#
#
# Elastic Compliance Matrix: (Units=1/GPa)
#
#
# Indices 1 2 3 4 5 6 
#
# 1 0.016017 -0.001818 -0.003477 0.000000 0.007579 0.000000
# 2 -0.001818 0.013608 -0.013016 -0.000007 -0.004473 0.000004
# 3 -0.003477 -0.013016 0.029665 0.000027 -0.000824 -0.000002
# 4 0.000000 -0.000007 0.000027 0.029518 -0.000014 0.002009
# 5 0.007579 -0.004473 -0.000824 -0.000014 0.033810 -0.000004
# 6 0.000000 0.000004 -0.000002 0.002009 -0.000004 0.036046
#
#
# Mechanical properties :
#
#
# Convention : Reuss Voigt Hill
#
# Bulk Modulus (GPa) = 44.11164 56.43298 50.27231
# Shear Modulus (GPa) = 24.64988 31.15204 27.90096
#
# Velocity S-wave (km/s) = 3.15156 3.54292 3.35295
# Velocity P-wave (km/s) = 5.56932 6.28294 5.93686
#
# Compressibility (1/GPa) = 0.02266975
#
# Stress axis : x y z
#
# Youngs Moduli (GPa) = 62.43417 73.48638 33.71001
#
# Poissons Ratio (x) = 0.13357 0.11720
# Poissons Ratio (y) = 0.11348 0.43876
# Poissons Ratio (z) = 0.21707 0.95647
#
# Static dielectric constant tensor:
#      x y z
#    x 2.168770 0.000010 -0.075760 
#    y 0.000010 2.065590 0.000010 
#    z -0.075760 0.000010 1.985500 
# 
# From -- ./inp_files/227603.got.cif
#   From: 2010.05.17/outbox.cif.g08.bks.cpg/sg12_114_cif.got.tgz:227603.got - 2010.06.03 13:09:07.
