data_PCOD9181919
_publ_section_title
;
Structure prediction by ZEFSAII (Michael W. Deem and Ramdas Pophale) SiO2 
 PCOD9181919
Probable space group: C 2/M
;
_chemical_formula_sum "Si O2"
_cell_formula_units_Z 44
_cell_length_a 20.346822
_cell_length_b 9.409795
_cell_length_c 12.303507
_cell_angle_alpha 90.000000
_cell_angle_beta 100.931419
_cell_angle_gamma 90.000000
_cell_volume 2312.879293
_symmetry_space_group_name_H-M "C 2/M"
_symmetry_group_IT_number 12
_symmetry_cell_setting 'monoclinic'
loop_
_space_group_symop_operation_xyz
x,y,z
-x,y,-z
-x,-y,-z
x,-y,z
1/2+x,1/2+y,z
1/2-x,1/2+y,-z
1/2-x,1/2-y,-z
1/2+x,1/2-y,z
loop_
_atom_site_type_symbol
_atom_site_label
_atom_site_fract_x
_atom_site_fract_y
_atom_site_fract_z
Si Si1 0.563465 0.161639 0.241080
Si Si2 0.343167 0.168432 0.256096
Si Si3 0.689804 0.332695 0.210520
Si Si4 0.000000 0.250541 0.000000
Si Si5 0.032589 0.165413 0.628877
Si Si6 0.139686 0.159745 0.956907
O O1 0.635709 0.235431 0.252894
O O2 0.516090 0.255298 0.302427
O O3 0.567794 0.000000 0.281226
O O4 0.530815 0.164023 0.110467
O O5 0.266404 0.191438 0.266743
O O6 0.396703 0.254147 0.343525
O O7 0.357014 0.000000 0.261810
O O8 0.350822 0.229054 0.136286
O O9 0.673339 0.500000 0.221431
O O10 0.681973 0.306338 0.078368
O O11 0.062447 0.163693 0.971550
O O12 0.000000 0.172180 0.500000
O O13 0.040778 0.000000 0.662321
O O14 0.156868 0.000000 0.925523
#
# Coordination Sequence:
#
# PCOD9181919 Si02
#       6
#     8   8   8   4   8   8
#     4  11  22  37  61  91 123 156 197 247 297 353
#     4  11  22  37  59  87 120 156 198 248 297 349
#     4   9  21  38  56  85 125 162 195 237 293 356
#     4  10  20  32  54  90 126 158 192 242 296 352
#     4  11  25  44  65  87 115 155 204 253 299 353
#     4  10  19  32  54  83 121 164 200 235 287 354
#
# _framework density 19.023906
#
# number of rings (size 3 to 8) (size 9 to 14) (size 15 to 20)
#    0.000    1.636    1.818    2.727    0.000    7.273 
#    0.000    0.909    0.000    0.000    0.000    0.000 
#    0.000    0.000    0.000    0.000    0.000    0.000 
#
# Total GULP energy -122891.660082 kJ/mol
# GULP energy per Si atom -5585.984549 kJ/mol
# Density = 1.898061 g / cm^3
# Si number density = 19.023906 Si / 1000 Ang^3
#
#
#
# Elastic Constant Matrix: (Units=GPa)
#
#
# Indices 1 2 3 4 5 6 
#
# 1 116.4360 68.2231 34.8262 0.0000 22.2241 0.0000
# 2 68.2231 133.8330 41.2530 0.0000 16.1667 0.0000
# 3 34.8262 41.2530 44.3506 0.0000 9.4833 0.0000
# 4 0.0000 0.0000 0.0000 -10.3487 0.0000 12.3897
# 5 22.2241 16.1667 9.4833 0.0000 22.2706 0.0000
# 6 0.0000 0.0000 0.0000 12.3897 0.0000 20.2278
#
#
#
# Elastic Compliance Matrix: (Units=1/GPa)
#
#
# Indices 1 2 3 4 5 6 
#
# 1 0.014642 -0.004807 -0.005113 0.000000 -0.008944 0.000000
# 2 -0.004807 0.012355 -0.007509 0.000000 -0.000974 0.000000
# 3 -0.005113 -0.007509 0.034425 0.000000 -0.004105 0.000000
# 4 0.000000 0.000000 0.000000 -0.055749 0.000000 0.034147
# 5 -0.008944 -0.000974 -0.004105 0.000000 0.056283 0.000000
# 6 0.000000 0.000000 0.000000 0.034147 0.000000 0.028522
#
#
# Mechanical properties :
#
#
# Convention : Reuss Voigt Hill
#
# Bulk Modulus (GPa) = 37.64674 64.80269 51.22471
# Shear Modulus (GPa) = 37.26073 16.45110 26.85591
#
# Velocity S-wave (km/s) = 4.43044 2.94387 3.76133
# Velocity P-wave (km/s) = 6.78261 6.75965 6.77114
#
# Compressibility (1/GPa) = 0.02656273
#
# Stress axis : x y z
#
# Youngs Moduli (GPa) = 68.29833 80.94105 29.04866
#
# Poissons Ratio (x) = 0.38910 0.14854
# Poissons Ratio (y) = 0.32832 0.21812
# Poissons Ratio (z) = 0.34924 0.60776
#
# Static dielectric constant tensor:
#      x y z
#    x 1.656920 0.000000 0.019570 
#    y 0.000000 1.650360 0.000000 
#    z 0.019570 0.000000 1.646900 
# 
# From -- ./inp_files/163229.got.cif
#   From: 2010.05.17/outbox.cif.g08.bks.cpg/sg12_82_cif.got.tgz:163229.got - 2010.06.03 13:09:07.
