data_PCOD9181554
_publ_section_title
;
Structure prediction by ZEFSAII (Michael W. Deem and Ramdas Pophale) SiO2 
 PCOD9181554
Probable space group: C 2/M
;
_chemical_formula_sum "Si O2"
_cell_formula_units_Z 64
_cell_length_a 19.772912
_cell_length_b 8.582089
_cell_length_c 21.241169
_cell_angle_alpha 90.000000
_cell_angle_beta 94.307469
_cell_angle_gamma 90.000000
_cell_volume 3594.293989
_symmetry_space_group_name_H-M "C 2/M"
_symmetry_group_IT_number 12
_symmetry_cell_setting 'monoclinic'
loop_
_space_group_symop_operation_xyz
x,y,z
-x,y,-z
-x,-y,-z
x,-y,z
1/2+x,1/2+y,z
1/2-x,1/2+y,-z
1/2-x,1/2-y,-z
1/2+x,1/2-y,z
loop_
_atom_site_type_symbol
_atom_site_label
_atom_site_fract_x
_atom_site_fract_y
_atom_site_fract_z
Si Si1 0.279046 0.186245 0.705874
Si Si2 0.966486 0.687804 0.228513
Si Si3 0.518658 0.311652 0.571660
Si Si4 0.678200 0.188085 0.021075
Si Si5 0.765476 0.311350 0.848317
Si Si6 0.579899 0.314154 0.322396
Si Si7 0.378008 0.811393 0.109324
Si Si8 0.366226 0.186000 0.335990
O O1 0.281823 0.240816 0.779060
O O2 0.344923 0.248172 0.675248
O O3 0.208393 0.244126 0.672555
O O4 0.279965 0.000000 0.705786
O O5 0.972736 0.500000 0.229111
O O6 0.939656 0.739460 0.158336
O O7 0.908456 0.730787 0.275774
O O8 0.035935 0.757457 0.259518
O O9 0.500000 0.261652 0.500000
O O10 0.522214 0.500000 0.572809
O O11 0.461685 0.262596 0.618475
O O12 0.589239 0.245937 0.602691
O O13 0.679607 0.235705 0.094367
O O14 0.678771 0.000000 0.020308
O O15 0.750000 0.250000 0.000000
O O16 0.624001 0.238116 0.964269
O O17 0.761471 0.500000 0.848030
O O18 0.692232 0.246928 0.864460
O O19 0.582126 0.500000 0.322580
O O20 0.377188 0.000000 0.111048
O O21 0.362209 0.000000 0.336901
#
# Coordination Sequence:
#
# PCOD9181554 Si02
#       8
#     8   8   8   8   8   8   8   8
#     4  11  21  33  50  73 105 139 170 208 251 294
#     4   9  17  30  48  72 100 130 164 206 253 298
#     4   9  19  38  61  82 105 132 162 199 246 297
#     4   8  14  24  38  61  92 124 161 204 249 295
#     4   9  17  27  42  66  96 130 166 205 249 295
#     4  10  21  35  53  76 101 130 165 204 247 297
#     4   9  15  25  44  68  95 126 162 207 254 298
#     4  10  19  32  53  80 107 133 168 207 243 291
#
# _framework density 17.806000000000001
#
# number of rings (size 3 to 8) (size 9 to 14) (size 15 to 20)
#    0.000    2.625    1.250    1.125    0.000    2.250 
#    0.000    0.625    0.000    0.750    0.000    5.250 
#    0.000    0.000    0.000    0.000    0.000    0.000 
#
# Total GULP energy -178307.346992 kJ/mol
# GULP energy per Si atom -5572.104594 kJ/mol
# Density = 1.776547 g / cm^3
# Si number density = 17.806000 Si / 1000 Ang^3
#
#
#
# Elastic Constant Matrix: (Units=GPa)
#
#
# Indices 1 2 3 4 5 6 
#
# 1 109.8085 24.7862 55.3516 0.0000 17.8776 0.0000
# 2 24.7862 10.8451 21.8381 0.0000 7.5341 0.0000
# 3 55.3516 21.8381 125.9577 0.0000 33.3290 0.0000
# 4 0.0000 0.0000 0.0000 16.3209 0.0000 4.2708
# 5 17.8776 7.5341 33.3290 0.0000 22.9560 0.0000
# 6 0.0000 0.0000 0.0000 4.2708 0.0000 27.8132
#
#
#
# Elastic Compliance Matrix: (Units=1/GPa)
#
#
# Indices 1 2 3 4 5 6 
#
# 1 0.018948 -0.040960 -0.001425 0.000000 0.000756 0.000000
# 2 -0.040960 0.234726 -0.017461 0.000000 -0.019787 0.000000
# 3 -0.001425 -0.017461 0.015885 0.000000 -0.016223 0.000000
# 4 0.000000 0.000000 0.000000 0.063836 0.000000 -0.009802
# 5 0.000756 -0.019787 -0.016223 0.000000 0.073021 0.000000
# 6 0.000000 0.000000 0.000000 -0.009802 0.000000 0.037459
#
#
# Mechanical properties :
#
#
# Convention : Reuss Voigt Hill
#
# Bulk Modulus (GPa) = 6.67255 50.06258 28.36757
# Shear Modulus (GPa) = 8.14967 23.06037 15.60502
#
# Velocity S-wave (km/s) = 2.14170 3.60264 2.96360
# Velocity P-wave (km/s) = 3.14186 6.74403 5.26086
#
# Compressibility (1/GPa) = 0.14986763
#
# Stress axis : x y z
#
# Youngs Moduli (GPa) = 52.77732 4.26029 62.95127
#
# Poissons Ratio (x) = 0.17450 0.08970
# Poissons Ratio (y) = 2.16176 1.09916
# Poissons Ratio (z) = 0.07520 0.07439
#
# Static dielectric constant tensor:
#      x y z
#    x 1.563080 0.000000 0.018890 
#    y 0.000000 1.618490 0.000000 
#    z 0.018890 0.000000 1.647400 
# 
# From -- ./inp_files/314132.got.cif
#   From: 2010.05.17/outbox.cif.g08.bks.cpg/sg12_158_cif.got.tgz:314132.got - 2010.06.03 13:09:07.
