data_PCOD9181769
_publ_section_title
;
Structure prediction by ZEFSAII (Michael W. Deem and Ramdas Pophale) SiO2 
 PCOD9181769
Probable space group: C 2/M
;
_chemical_formula_sum "Si O2"
_cell_formula_units_Z 56
_cell_length_a 14.976108
_cell_length_b 8.495039
_cell_length_c 24.884825
_cell_angle_alpha 90.000000
_cell_angle_beta 119.200403
_cell_angle_gamma 90.000000
_cell_volume 2763.584203
_symmetry_space_group_name_H-M "C 2/M"
_symmetry_group_IT_number 12
_symmetry_cell_setting 'monoclinic'
loop_
_space_group_symop_operation_xyz
x,y,z
-x,y,-z
-x,-y,-z
x,-y,z
1/2+x,1/2+y,z
1/2-x,1/2+y,-z
1/2-x,1/2-y,-z
1/2+x,1/2-y,z
loop_
_atom_site_type_symbol
_atom_site_label
_atom_site_fract_x
_atom_site_fract_y
_atom_site_fract_z
Si Si1 0.274205 0.311056 0.713103
Si Si2 0.434296 0.685155 0.322780
Si Si3 0.760352 0.690386 0.422143
Si Si4 0.916769 0.314366 0.551555
Si Si5 0.000207 0.192449 0.227364
Si Si6 0.891768 0.810031 0.993343
Si Si7 0.326580 0.309787 0.094551
O O1 0.264653 0.500000 0.716239
O O2 0.183906 0.227452 0.717825
O O3 0.255727 0.273657 0.644721
O O4 0.388673 0.262422 0.761989
O O5 0.449576 0.500000 0.328506
O O6 0.481126 0.749441 0.391673
O O7 0.490361 0.747525 0.285960
O O8 0.750649 0.500000 0.425191
O O9 0.868827 0.738895 0.480578
O O10 0.671985 0.769488 0.431763
O O11 0.930020 0.500000 0.551627
O O12 0.905074 0.243655 0.163491
O O13 0.999112 0.000000 0.227979
O O14 0.788706 0.752809 0.933552
O O15 0.893070 0.000000 0.992381
O O16 0.872901 0.761648 0.049986
O O17 0.000000 0.755482 0.000000
O O18 0.322669 0.500000 0.094018
#
# Coordination Sequence:
#
# PCOD9181769 Si02
#       7
#     8   8   8   8   8   8   8
#     4  10  20  37  57  77 103 140 180 219 272 327
#     4  11  22  37  54  76 106 140 180 226 273 316
#     4   9  18  34  55  77 104 137 172 220 276 329
#     4  10  19  32  54  80 103 134 178 221 271 328
#     4   9  19  37  57  74 105 147 180 214 261 319
#     4   9  18  33  54  83 115 140 169 217 265 303
#     4   9  18  34  56  80 106 144 183 210 255 315
#
# _framework density 20.263539999999999
#
# number of rings (size 3 to 8) (size 9 to 14) (size 15 to 20)
#    0.000    2.429    1.429    0.857    0.000    3.143 
#    0.000    6.429    0.000    0.000    0.000    0.000 
#    0.000    0.000    0.000    0.000    0.000    0.000 
#
# Total GULP energy -156209.170774 kJ/mol
# GULP energy per Si atom -5578.898956 kJ/mol
# Density = 2.021742 g / cm^3
# Si number density = 20.263540 Si / 1000 Ang^3
#
#
#
# Elastic Constant Matrix: (Units=GPa)
#
#
# Indices 1 2 3 4 5 6 
#
# 1 93.8618 4.9803 33.3687 0.0000 30.6195 0.0000
# 2 4.9803 -3.1950 11.3938 0.0000 2.0796 0.0000
# 3 33.3687 11.3938 96.9558 0.0000 34.3696 0.0000
# 4 0.0000 0.0000 0.0000 20.0158 0.0000 8.8561
# 5 30.6195 2.0796 34.3696 0.0000 28.4765 0.0000
# 6 0.0000 0.0000 0.0000 8.8561 0.0000 26.0553
#
#
#
# Elastic Compliance Matrix: (Units=1/GPa)
#
#
# Indices 1 2 3 4 5 6 
#
# 1 0.015869 0.011042 -0.000742 0.000000 -0.016974 0.000000
# 2 0.011042 -0.201981 0.033060 0.000000 -0.037025 0.000000
# 3 -0.000742 0.033060 0.012684 0.000000 -0.016925 0.000000
# 4 0.000000 0.000000 0.000000 0.058804 0.000000 -0.019987
# 5 -0.016974 -0.037025 -0.016925 0.000000 0.076500 0.000000
# 6 0.000000 0.000000 0.000000 -0.019987 0.000000 0.045173
#
#
# Mechanical properties :
#
#
# Convention : Reuss Voigt Hill
#
# Bulk Modulus (GPa) = -11.53316 31.90094 10.18389
# Shear Modulus (GPa) = -46.05214 24.10151 -10.97532
#
# Velocity S-wave (km/s) = -4.77241 3.45251 -2.32982
# Velocity P-wave (km/s) = 6.00599 5.62764 1.48350
#
# Compressibility (1/GPa) = -0.08670652
#
# Stress axis : x y z
#
# Youngs Moduli (GPa) = 63.01528 -4.95097 78.83876
#
# Poissons Ratio (x) = 0.05467 0.05851
# Poissons Ratio (y) = -0.69581 -2.60645
# Poissons Ratio (z) = 0.04676 0.16368
#
# Static dielectric constant tensor:
#      x y z
#    x 1.740590 0.000000 0.007570 
#    y 0.000000 1.697460 0.000000 
#    z 0.007570 0.000000 1.741040 
# 
# From -- ./inp_files/360031.got.cif
#   From: 2010.05.17/outbox.cif.g08.bks.cpg/sg12_181_cif.got.tgz:360031.got - 2010.06.03 13:09:07.
