data_PCOD9181207
_publ_section_title
;
Structure prediction by ZEFSAII (Michael W. Deem and Ramdas Pophale) SiO2 
 PCOD9181207
Probable space group: C 2/M
;
_chemical_formula_sum "Si O2"
_cell_formula_units_Z 58
_cell_length_a 27.307117
_cell_length_b 10.134208
_cell_length_c 24.694732
_cell_angle_alpha 90.000000
_cell_angle_beta 29.164508
_cell_angle_gamma 90.000000
_cell_volume 3330.298616
_symmetry_space_group_name_H-M "C 2/M"
_symmetry_group_IT_number 12
_symmetry_cell_setting 'monoclinic'
loop_
_space_group_symop_operation_xyz
x,y,z
-x,y,-z
-x,-y,-z
x,-y,z
1/2+x,1/2+y,z
1/2-x,1/2+y,-z
1/2-x,1/2-y,-z
1/2+x,1/2-y,z
loop_
_atom_site_type_symbol
_atom_site_label
_atom_site_fract_x
_atom_site_fract_y
_atom_site_fract_z
Si Si1 0.439294 0.653858 0.427027
Si Si2 0.384884 0.233607 0.673404
Si Si3 0.452012 0.839558 0.102993
Si Si4 0.016815 0.652190 0.263396
Si Si5 0.081352 0.656978 0.083346
Si Si6 0.222811 0.158497 0.328973
Si Si7 0.000000 0.500000 0.500000
Si Si8 0.765919 0.348491 0.892606
O O1 0.427243 0.500000 0.424450
O O2 0.538165 0.670858 0.369306
O O3 0.456134 0.746267 0.358950
O O4 0.345531 0.700139 0.554258
O O5 0.329481 0.298515 0.676134
O O6 0.450614 0.114432 0.586792
O O7 0.304431 0.182684 0.794823
O O8 0.520647 0.805623 0.087961
O O9 0.337411 0.793139 0.220178
O O10 0.448996 0.000000 0.104186
O O11 0.500000 0.794513 0.000000
O O12 0.987411 0.500000 0.303092
O O13 0.014342 0.676274 0.201722
O O14 0.133990 0.664348 0.167577
O O15 0.106136 0.500000 0.057031
O O16 0.180691 0.745146 0.990750
O O17 0.224162 0.000000 0.328889
O O18 0.730703 0.500000 0.930592
#
# Coordination Sequence:
#
# PCOD9181207 Si02
#       8
#     8   8   8   8   8   8   2   8
#     4  10  20  32  51  80 107 136 171 216 262 309
#     4  11  20  32  52  76 110 143 174 207 256 316
#     4   9  18  33  54  77 101 132 171 215 261 305
#     4   9  20  35  53  76 105 138 172 211 261 320
#     4  10  20  36  56  77 101 135 179 220 258 307
#     4  10  19  32  52  78 104 134 173 221 261 300
#     4  12  20  32  50  76 110 156 174 200 258 320
#     4  10  20  32  50  76 106 136 170 209 264 312
#
# _framework density 17.415855000000001
#
# number of rings (size 3 to 8) (size 9 to 14) (size 15 to 20)
#    0.000    2.069    2.069    1.655    0.966    5.517 
#    0.000    0.690    1.517    1.241    0.000    0.000 
#    0.000    0.000    0.000    0.000    0.000    0.000 
#
# Total GULP energy -161490.607546 kJ/mol
# GULP energy per Si atom -5568.641640 kJ/mol
# Density = 1.737622 g / cm^3
# Si number density = 17.415855 Si / 1000 Ang^3
#
#
#
# Elastic Constant Matrix: (Units=GPa)
#
#
# Indices 1 2 3 4 5 6 
#
# 1 69.7611 25.4671 37.8584 0.0008 25.4494 -0.0016
# 2 25.4671 50.7724 42.0162 0.0027 11.3637 -0.0049
# 3 37.8584 42.0162 76.9760 0.0016 15.5123 -0.0024
# 4 0.0008 0.0027 0.0016 32.3108 -0.0002 -17.3907
# 5 25.4494 11.3637 15.5123 -0.0002 24.5845 0.0008
# 6 -0.0016 -0.0049 -0.0024 -17.3907 0.0008 74.7010
#
#
#
# Elastic Compliance Matrix: (Units=1/GPa)
#
#
# Indices 1 2 3 4 5 6 
#
# 1 0.027675 -0.002417 -0.007726 0.000000 -0.022656 0.000000
# 2 -0.002417 0.036644 -0.018221 -0.000001 -0.002939 0.000002
# 3 -0.007726 -0.018221 0.026840 0.000000 -0.000516 0.000000
# 4 0.000000 -0.000001 0.000000 0.035383 0.000001 0.008237
# 5 -0.022656 -0.002939 -0.000516 0.000001 0.065813 -0.000001
# 6 0.000000 0.000002 0.000000 0.008237 -0.000001 0.015304
#
#
# Mechanical properties :
#
#
# Convention : Reuss Voigt Hill
#
# Bulk Modulus (GPa) = 29.04280 45.35477 37.19878
# Shear Modulus (GPa) = 18.12476 32.46379 25.29427
#
# Velocity S-wave (km/s) = 3.22950 4.32213 3.81513
# Velocity P-wave (km/s) = 5.53339 7.14189 6.38847
#
# Compressibility (1/GPa) = 0.03443194
#
# Stress axis : x y z
#
# Youngs Moduli (GPa) = 36.13359 27.28933 37.25738
#
# Poissons Ratio (x) = 0.06596 0.28785
# Poissons Ratio (y) = 0.08734 0.67886
# Poissons Ratio (z) = 0.27917 0.49723
#
# Static dielectric constant tensor:
#      x y z
#    x 1.590810 0.000000 0.007410 
#    y 0.000000 1.574590 0.000000 
#    z 0.007410 0.000000 1.593030 
# 
# From -- ./inp_files/351378.got.cif
#   From: 2010.05.17/outbox.cif.g08.bks.cpg/sg12_176_cif.got.tgz:351378.got - 2010.06.03 13:09:07.
