data_PCOD9181125
_publ_section_title
;
Structure prediction by ZEFSAII (Michael W. Deem and Ramdas Pophale) SiO2 
 PCOD9181125
Probable space group: C 2/M
;
_chemical_formula_sum "Si O2"
_cell_formula_units_Z 48
_cell_length_a 24.580580
_cell_length_b 23.749956
_cell_length_c 18.106203
_cell_angle_alpha 90.000000
_cell_angle_beta 165.944749
_cell_angle_gamma 90.000000
_cell_volume 2567.046600
_symmetry_space_group_name_H-M "C 2/M"
_symmetry_group_IT_number 12
_symmetry_cell_setting 'monoclinic'
loop_
_space_group_symop_operation_xyz
x,y,z
-x,y,-z
-x,-y,-z
x,-y,z
1/2+x,1/2+y,z
1/2-x,1/2+y,-z
1/2-x,1/2-y,-z
1/2+x,1/2-y,z
loop_
_atom_site_type_symbol
_atom_site_label
_atom_site_fract_x
_atom_site_fract_y
_atom_site_fract_z
Si Si1 0.766162 0.936192 0.650769
Si Si2 0.928756 0.325794 0.660717
Si Si3 0.184703 0.172069 0.956835
Si Si4 0.261534 0.768976 0.678312
Si Si5 0.879331 0.436349 0.265715
Si Si6 0.753965 0.238945 0.179945
O O1 0.691184 0.886036 0.497775
O O2 0.571396 0.937037 0.456178
O O3 0.783414 0.000000 0.642583
O O4 0.000000 0.923436 0.000000
O O5 0.753523 0.277963 0.405172
O O6 0.121324 0.322893 0.849969
O O7 0.059370 0.305710 0.905308
O O8 0.949219 0.190945 0.612536
O O9 0.195505 0.108722 0.000383
O O10 0.233314 0.213525 0.089792
O O11 0.247965 0.737864 0.739668
O O12 0.500000 0.798796 0.000000
O O13 0.794879 0.500000 0.164541
O O14 0.000000 0.418308 0.500000
O O15 0.000000 0.211393 0.500000
#
# Coordination Sequence:
#
# PCOD9181125 Si02
#       6
#     8   8   8   8   8   8
#     4   9  18  33  51  73 103 129 156 205 251 282
#     4  10  19  32  52  76  97 132 169 196 239 303
#     4  10  19  32  53  74  98 132 166 199 245 293
#     4  11  22  34  48  76 104 125 165 208 245 291
#     4   9  18  32  52  75  97 128 167 201 239 292
#     4  11  18  33  54  70  97 138 161 198 247 291
#
# _framework density 18.698530000000002
#
# number of rings (size 3 to 8) (size 9 to 14) (size 15 to 20)
#    0.000    2.000    3.333    2.000    2.333    2.667 
#    3.000    0.000    0.000    2.000    0.000    0.000 
#    0.000    0.000    0.000    0.000    0.000    0.000 
#
# Total GULP energy -133825.786496 kJ/mol
# GULP energy per Si atom -5576.074437 kJ/mol
# Density = 1.865597 g / cm^3
# Si number density = 18.698530 Si / 1000 Ang^3
#
#
#
# Elastic Constant Matrix: (Units=GPa)
#
#
# Indices 1 2 3 4 5 6 
#
# 1 28.4721 2.5024 15.3121 0.0001 -18.7566 -0.0001
# 2 2.5024 94.3293 68.3784 0.0003 -5.6635 0.0001
# 3 15.3121 68.3784 151.5749 0.0020 -11.7661 0.0003
# 4 0.0001 0.0003 0.0020 25.3508 0.0005 -4.4198
# 5 -18.7566 -5.6635 -11.7661 0.0005 23.9965 0.0000
# 6 -0.0001 0.0001 0.0003 -4.4198 0.0000 14.5830
#
#
#
# Elastic Compliance Matrix: (Units=1/GPa)
#
#
# Indices 1 2 3 4 5 6 
#
# 1 0.075699 0.005576 -0.005684 -0.000001 0.057698 0.000000
# 2 0.005576 0.016165 -0.007507 0.000000 0.004493 0.000000
# 3 -0.005684 -0.007507 0.010474 -0.000001 -0.001078 0.000000
# 4 -0.000001 0.000000 -0.000001 0.041647 -0.000002 0.012622
# 5 0.057698 0.004493 -0.001078 -0.000002 0.087304 0.000000
# 6 0.000000 0.000000 0.000000 0.012622 0.000000 0.072399
#
#
# Mechanical properties :
#
#
# Convention : Reuss Voigt Hill
#
# Bulk Modulus (GPa) = 11.47988 49.64021 30.56005
# Shear Modulus (GPa) = 14.36981 25.33161 19.85071
#
# Velocity S-wave (km/s) = 2.77519 3.68467 3.26178
# Velocity P-wave (km/s) = 4.05237 6.68638 5.52853
#
# Compressibility (1/GPa) = 0.08710895
#
# Stress axis : x y z
#
# Youngs Moduli (GPa) = 13.21026 61.86396 95.47219
#
# Poissons Ratio (x) = -0.34496 0.54263
# Poissons Ratio (y) = -0.07366 0.71668
# Poissons Ratio (z) = 0.07508 0.46439
#
# Static dielectric constant tensor:
#      x y z
#    x 1.717850 0.000000 0.051320 
#    y 0.000000 1.658950 0.000000 
#    z 0.051320 0.000000 1.644900 
# 
# From -- ./inp_files/52746.got.cif
#   From: 2010.05.17/outbox.cif.g08.bks.cpg/sg12_27_cif.got.tgz:52746.got - 2010.06.03 13:09:07.
