data_PCOD9181343
_publ_section_title
;
Structure prediction by ZEFSAII (Michael W. Deem and Ramdas Pophale) SiO2 
 PCOD9181343
Probable space group: C 2/M
;
_chemical_formula_sum "Si O2"
_cell_formula_units_Z 56
_cell_length_a 16.757387
_cell_length_b 14.231496
_cell_length_c 13.463822
_cell_angle_alpha 90.000000
_cell_angle_beta 114.212049
_cell_angle_gamma 90.000000
_cell_volume 2928.439074
_symmetry_space_group_name_H-M "C 2/M"
_symmetry_group_IT_number 12
_symmetry_cell_setting 'monoclinic'
loop_
_space_group_symop_operation_xyz
x,y,z
-x,y,-z
-x,-y,-z
x,-y,z
1/2+x,1/2+y,z
1/2-x,1/2+y,-z
1/2-x,1/2-y,-z
1/2+x,1/2-y,z
loop_
_atom_site_type_symbol
_atom_site_label
_atom_site_fract_x
_atom_site_fract_y
_atom_site_fract_z
Si Si1 0.987363 0.677961 0.103666
Si Si2 0.337562 0.895830 0.735657
Si Si3 0.413323 0.102488 0.388845
Si Si4 0.205957 0.389480 0.943980
Si Si5 0.788663 0.798541 0.178257
Si Si6 0.344982 0.207601 0.534776
Si Si7 0.479540 0.264823 0.297704
O O1 0.066927 0.608275 0.166497
O O2 0.893302 0.630376 0.069750
O O3 0.997532 0.759887 0.190350
O O4 0.000000 0.714783 0.000000
O O5 0.276828 0.824776 0.766549
O O6 0.351036 0.867165 0.627871
O O7 0.300093 0.000000 0.723992
O O8 0.500000 0.092975 0.500000
O O9 0.351668 0.162165 0.429435
O O10 0.447491 0.160180 0.313207
O O11 0.378836 0.000000 0.346382
O O12 0.216874 0.500000 0.924636
O O13 0.221618 0.310025 0.866070
O O14 0.265544 0.360147 0.068993
O O15 0.888475 0.819286 0.264658
O O16 0.250000 0.250000 0.500000
O O17 0.429757 0.275954 0.595771
#
# Coordination Sequence:
#
# PCOD9181343 Si02
#       7
#     8   8   8   8   8   8   8
#     4  10  19  32  52  82 114 138 170 227 286 327
#     4  11  21  33  55  86 113 139 180 228 277 326
#     4   9  17  32  52  73  99 129 165 212 269 323
#     4  10  20  34  52  76 108 148 185 217 260 318
#     4  10  20  33  50  77 110 144 177 218 266 320
#     4  10  20  35  55  77 103 138 177 227 277 318
#     4   9  20  33  51  78 105 140 177 216 263 332
#
# _framework density 19.122814999999999
#
# number of rings (size 3 to 8) (size 9 to 14) (size 15 to 20)
#    0.000    2.143    1.429    2.143    0.000    6.286 
#    0.000    0.000    0.000    4.286    0.000   39.000 
#    0.000    0.000    0.000    0.000    0.000    0.000 
#
# Total GULP energy -155947.022588 kJ/mol
# GULP energy per Si atom -5569.536521 kJ/mol
# Density = 1.907929 g / cm^3
# Si number density = 19.122815 Si / 1000 Ang^3
#
#
#
# Elastic Constant Matrix: (Units=GPa)
#
#
# Indices 1 2 3 4 5 6 
#
# 1 117.6013 37.5828 23.5169 0.0000 7.9526 0.0000
# 2 37.5828 59.2073 8.4776 0.0000 -1.0014 0.0000
# 3 23.5169 8.4776 60.1157 0.0000 -0.4417 0.0000
# 4 0.0000 0.0000 0.0000 5.0246 0.0000 -2.1600
# 5 7.9526 -1.0014 -0.4417 0.0000 49.0314 0.0000
# 6 0.0000 0.0000 0.0000 -2.1600 0.0000 10.8430
#
#
#
# Elastic Compliance Matrix: (Units=1/GPa)
#
#
# Indices 1 2 3 4 5 6 
#
# 1 0.011544 -0.006852 -0.003565 0.000000 -0.002044 0.000000
# 2 -0.006852 0.021310 -0.000313 0.000000 0.001544 0.000000
# 3 -0.003565 -0.000313 0.018079 0.000000 0.000735 0.000000
# 4 0.000000 0.000000 0.000000 0.217660 0.000000 0.043359
# 5 -0.002044 0.001544 0.000735 0.000000 0.020765 0.000000
# 6 0.000000 0.000000 0.000000 0.043359 0.000000 0.100863
#
#
# Mechanical properties :
#
#
# Convention : Reuss Voigt Hill
#
# Bulk Modulus (GPa) = 33.92962 41.78654 37.85808
# Shear Modulus (GPa) = 11.86223 24.13627 17.99925
#
# Velocity S-wave (km/s) = 2.49332 3.55656 3.07130
# Velocity P-wave (km/s) = 5.10592 6.22612 5.69364
#
# Compressibility (1/GPa) = 0.02947277
#
# Stress axis : x y z
#
# Youngs Moduli (GPa) = 86.62391 46.92581 55.31375
#
# Poissons Ratio (x) = 0.32154 0.19718
# Poissons Ratio (y) = 0.59355 0.01734
# Poissons Ratio (z) = 0.30879 0.01471
#
# Static dielectric constant tensor:
#      x y z
#    x 1.688500 0.000000 0.013180 
#    y 0.000000 1.685130 0.000000 
#    z 0.013180 0.000000 1.778560 
# 
# From -- ./inp_files/223382.got.cif
#   From: 2010.05.17/outbox.cif.g08.bks.cpg/sg12_112_cif.got.tgz:223382.got - 2010.06.03 13:09:07.
