data_PCOD9181879
_publ_section_title
;
Structure prediction by ZEFSAII (Michael W. Deem and Ramdas Pophale) SiO2 
 PCOD9181879
Probable space group: C 2/M
;
_chemical_formula_sum "Si O2"
_cell_formula_units_Z 48
_cell_length_a 20.811795
_cell_length_b 13.040569
_cell_length_c 8.260064
_cell_angle_alpha 90.000000
_cell_angle_beta 99.679842
_cell_angle_gamma 90.000000
_cell_volume 2209.845280
_symmetry_space_group_name_H-M "C 2/M"
_symmetry_group_IT_number 12
_symmetry_cell_setting 'monoclinic'
loop_
_space_group_symop_operation_xyz
x,y,z
-x,y,-z
-x,-y,-z
x,-y,z
1/2+x,1/2+y,z
1/2-x,1/2+y,-z
1/2-x,1/2-y,-z
1/2+x,1/2-y,z
loop_
_atom_site_type_symbol
_atom_site_label
_atom_site_fract_x
_atom_site_fract_y
_atom_site_fract_z
Si Si1 0.422361 0.377584 0.009697
Si Si2 0.149305 0.378994 0.432283
Si Si3 0.802106 0.766474 0.786529
Si Si4 0.021845 0.386504 0.193398
Si Si5 0.587665 0.778738 0.720121
Si Si6 0.298554 0.116129 0.077105
O O1 0.411601 0.500000 0.002729
O O2 0.405207 0.328632 0.179838
O O3 0.500000 0.360892 0.000000
O O4 0.371314 0.321284 0.864851
O O5 0.163504 0.500000 0.480636
O O6 0.200509 0.300946 0.375810
O O7 0.097965 0.385665 0.260548
O O8 0.115028 0.312553 0.559104
O O9 0.746085 0.851312 0.789109
O O10 0.783771 0.684475 0.916735
O O11 0.999145 0.500000 0.233004
O O12 0.987535 0.305371 0.293551
O O13 0.000000 0.369621 0.000000
O O14 0.627135 0.859011 0.849260
O O15 0.287402 0.000000 0.033408
#
# Coordination Sequence:
#
# PCOD9181879 Si02
#       6
#     8   8   8   8   8   8
#     4  10  21  39  61  82 108 146 193 238 275 319
#     4  11  22  35  55  86 120 147 176 222 281 340
#     4  10  21  36  57  82 109 146 190 233 277 325
#     4  10  19  32  54  82 111 144 181 223 272 326
#     4  11  21  35  55  81 113 146 180 223 280 333
#     4  10  20  36  57  79 107 145 191 235 274 325
#
# _framework density 21.720977000000001
#
# number of rings (size 3 to 8) (size 9 to 14) (size 15 to 20)
#    0.000    1.667    0.000    6.500    0.000    3.333 
#    0.000    2.500    0.000    4.500    0.000    0.000 
#    0.000    0.000    0.000    0.000    0.000    0.000 
#
# Total GULP energy -133690.141521 kJ/mol
# GULP energy per Si atom -5570.422563 kJ/mol
# Density = 2.167154 g / cm^3
# Si number density = 21.720977 Si / 1000 Ang^3
#
#
#
# Elastic Constant Matrix: (Units=GPa)
#
#
# Indices 1 2 3 4 5 6 
#
# 1 77.3390 34.8994 7.5652 0.0000 -6.2400 0.0000
# 2 34.8994 169.0751 32.7395 0.0000 -14.7354 0.0000
# 3 7.5652 32.7395 80.3528 0.0000 -18.0325 0.0000
# 4 0.0000 0.0000 0.0000 25.7960 0.0000 -5.9930
# 5 -6.2400 -14.7354 -18.0325 0.0000 32.5092 0.0000
# 6 0.0000 0.0000 0.0000 -5.9930 0.0000 32.7131
#
#
#
# Elastic Compliance Matrix: (Units=1/GPa)
#
#
# Indices 1 2 3 4 5 6 
#
# 1 0.014327 -0.002854 0.000161 0.000000 0.001546 0.000000
# 2 -0.002854 0.007070 -0.002302 0.000000 0.001380 0.000000
# 3 0.000161 -0.002302 0.015009 0.000000 0.007313 0.000000
# 4 0.000000 0.000000 0.000000 0.040489 0.000000 0.007418
# 5 0.001546 0.001380 0.007313 0.000000 0.035739 0.000000
# 6 0.000000 0.000000 0.000000 0.007418 0.000000 0.031928
#
#
# Mechanical properties :
#
#
# Convention : Reuss Voigt Hill
#
# Bulk Modulus (GPa) = 37.85692 53.01945 45.43819
# Shear Modulus (GPa) = 30.60792 34.97451 32.79122
#
# Velocity S-wave (km/s) = 3.75793 4.01705 3.88965
# Velocity P-wave (km/s) = 6.02461 6.78070 6.41381
#
# Compressibility (1/GPa) = 0.02641525
#
# Stress axis : x y z
#
# Youngs Moduli (GPa) = 69.79926 141.45065 66.62623
#
# Poissons Ratio (x) = 0.40365 -0.01071
# Poissons Ratio (y) = 0.19918 0.15339
# Poissons Ratio (z) = -0.01122 0.32565
#
# Static dielectric constant tensor:
#      x y z
#    x 1.897450 0.000000 0.021820 
#    y 0.000000 1.798180 0.000000 
#    z 0.021820 0.000000 1.871120 
# 
# From -- ./inp_files/94426.got.cif
#   From: 2010.05.17/outbox.cif.g08.bks.cpg/sg12_48_cif.got.tgz:94426.got - 2010.06.03 13:09:07.
