data_PCOD9181798
_publ_section_title
;
Structure prediction by ZEFSAII (Michael W. Deem and Ramdas Pophale) SiO2 
 PCOD9181798
Probable space group: C 2/M
;
_chemical_formula_sum "Si O2"
_cell_formula_units_Z 64
_cell_length_a 20.202571
_cell_length_b 9.091998
_cell_length_c 16.189559
_cell_angle_alpha 90.000000
_cell_angle_beta 71.267250
_cell_angle_gamma 90.000000
_cell_volume 2816.198675
_symmetry_space_group_name_H-M "C 2/M"
_symmetry_group_IT_number 12
_symmetry_cell_setting 'monoclinic'
loop_
_space_group_symop_operation_xyz
x,y,z
-x,y,-z
-x,-y,-z
x,-y,z
1/2+x,1/2+y,z
1/2-x,1/2+y,-z
1/2-x,1/2-y,-z
1/2+x,1/2-y,z
loop_
_atom_site_type_symbol
_atom_site_label
_atom_site_fract_x
_atom_site_fract_y
_atom_site_fract_z
Si Si1 0.820590 0.674389 0.443191
Si Si2 0.490715 0.171985 0.192175
Si Si3 0.235104 0.674564 0.709080
Si Si4 0.866509 0.168975 0.852365
Si Si5 0.028436 0.672668 0.602962
Si Si6 0.927275 0.176562 0.071395
Si Si7 0.110976 0.167074 0.356955
Si Si8 0.775493 0.825015 0.111520
O O1 0.817008 0.500000 0.462933
O O2 0.750000 0.750000 0.500000
O O3 0.818557 0.688307 0.344196
O O4 0.894461 0.734340 0.447109
O O5 0.566586 0.242072 0.143456
O O6 0.478684 0.188692 0.294690
O O7 0.433691 0.252068 0.158951
O O8 0.490438 0.000000 0.172843
O O9 0.236752 0.500000 0.733466
O O10 0.312536 0.712441 0.642974
O O11 0.224379 0.777730 0.791808
O O12 0.876907 0.169109 0.748004
O O13 0.790759 0.239501 0.899172
O O14 0.868947 0.000000 0.879845
O O15 0.028998 0.500000 0.584080
O O16 0.957534 0.740315 0.596127
O O17 0.854869 0.216038 0.054771
O O18 0.927076 0.000000 0.078845
O O19 0.000000 0.221446 0.000000
O O20 0.097664 0.000000 0.387413
O O21 0.765359 0.000000 0.106433
#
# Coordination Sequence:
#
# PCOD9181798 Si02
#       8
#     8   8   8   8   8   8   8   8
#     4  10  21  36  51  70  99 134 170 206 248 297
#     4  10  19  33  56  82 104 130 171 217 257 304
#     4   9  18  34  54  75 101 132 166 207 256 304
#     4   9  17  31  52  78 108 136 164 206 260 309
#     4   9  18  32  51  75 102 129 158 202 255 298
#     4  10  22  38  52  71 105 143 174 210 258 307
#     4   8  15  28  49  75  98 124 160 200 243 296
#     4  10  19  32  54  81 104 131 173 216 252 301
#
# _framework density 22.725670999999998
#
# number of rings (size 3 to 8) (size 9 to 14) (size 15 to 20)
#    0.000    2.625    0.000    2.625    0.000    6.750 
#    0.000    1.250    0.000    3.750    0.000    0.000 
#    0.000    0.000    0.000    0.000    0.000    0.000 
#
# Total GULP energy -178791.916633 kJ/mol
# GULP energy per Si atom -5587.247395 kJ/mol
# Density = 2.267395 g / cm^3
# Si number density = 22.725671 Si / 1000 Ang^3
#
#
#
# Elastic Constant Matrix: (Units=GPa)
#
#
# Indices 1 2 3 4 5 6 
#
# 1 173.5463 37.2579 26.9893 0.0000 -31.8151 0.0000
# 2 37.2579 22.2415 21.8847 0.0000 -23.3199 0.0000
# 3 26.9893 21.8847 70.4397 0.0000 -22.3542 0.0000
# 4 0.0000 0.0000 0.0000 14.4309 0.0000 -5.2854
# 5 -31.8151 -23.3199 -22.3542 0.0000 48.5843 0.0000
# 6 0.0000 0.0000 0.0000 -5.2854 0.0000 32.3181
#
#
#
# Elastic Compliance Matrix: (Units=1/GPa)
#
#
# Indices 1 2 3 4 5 6 
#
# 1 0.009348 -0.020505 0.001883 0.000000 -0.002854 0.000000
# 2 -0.020505 0.156339 -0.024781 0.000000 0.050211 0.000000
# 3 0.001883 -0.024781 0.020833 0.000000 -0.001076 0.000000
# 4 0.000000 0.000000 0.000000 0.073711 0.000000 0.012055
# 5 -0.002854 0.050211 -0.001076 0.000000 0.042319 0.000000
# 6 0.000000 0.000000 0.000000 0.012055 0.000000 0.032914
#
#
# Mechanical properties :
#
#
# Convention : Reuss Voigt Hill
#
# Bulk Modulus (GPa) = 10.02871 48.72125 29.37498
# Shear Modulus (GPa) = 10.97674 31.07305 21.02489
#
# Velocity S-wave (km/s) = 2.20013 3.70173 3.04495
# Velocity P-wave (km/s) = 3.29798 6.30522 5.03152
#
# Compressibility (1/GPa) = 0.09971372
#
# Stress axis : x y z
#
# Youngs Moduli (GPa) = 106.97245 6.39635 48.00150
#
# Poissons Ratio (x) = 0.13116 -0.09039
# Poissons Ratio (y) = 2.19347 1.18954
# Poissons Ratio (z) = -0.20144 0.15851
#
# Static dielectric constant tensor:
#      x y z
#    x 1.852230 0.000000 0.005720 
#    y 0.000000 1.757860 0.000000 
#    z 0.005720 0.000000 1.932190 
# 
# From -- ./inp_files/319920.got.cif
#   From: 2010.05.17/outbox.cif.g08.bks.cpg/sg12_160_cif.got.tgz:319920.got - 2010.06.03 13:09:07.
