data_PCOD9181286
_publ_section_title
;
Structure prediction by ZEFSAII (Michael W. Deem and Ramdas Pophale) SiO2 
 PCOD9181286
Probable space group: C 2/M
;
_chemical_formula_sum "Si O2"
_cell_formula_units_Z 64
_cell_length_a 25.236928
_cell_length_b 8.593089
_cell_length_c 20.792922
_cell_angle_alpha 90.000000
_cell_angle_beta 126.284576
_cell_angle_gamma 90.000000
_cell_volume 3634.825580
_symmetry_space_group_name_H-M "C 2/M"
_symmetry_group_IT_number 12
_symmetry_cell_setting 'monoclinic'
loop_
_space_group_symop_operation_xyz
x,y,z
-x,y,-z
-x,-y,-z
x,-y,z
1/2+x,1/2+y,z
1/2-x,1/2+y,-z
1/2-x,1/2-y,-z
1/2+x,1/2-y,z
loop_
_atom_site_type_symbol
_atom_site_label
_atom_site_fract_x
_atom_site_fract_y
_atom_site_fract_z
Si Si1 0.160425 0.687549 0.732659
Si Si2 0.821005 0.812837 0.029395
Si Si3 0.309401 0.686915 0.876456
Si Si4 0.927059 0.310059 0.708222
Si Si5 0.179979 0.313644 0.473707
Si Si6 0.923775 0.311467 0.206665
Si Si7 0.841905 0.312707 0.766209
Si Si8 0.693194 0.314061 0.622133
O O1 0.159316 0.500000 0.726189
O O2 0.232672 0.732370 0.811729
O O3 0.106413 0.735531 0.746063
O O4 0.154781 0.759719 0.658004
O O5 0.876228 0.750699 0.116967
O O6 0.819357 0.000000 0.030057
O O7 0.750000 0.750000 0.000000
O O8 0.832357 0.762981 0.963488
O O9 0.311901 0.500000 0.875791
O O10 0.348054 0.752138 0.843032
O O11 0.927292 0.500000 0.708536
O O12 0.877299 0.261333 0.616037
O O13 0.896371 0.259789 0.754367
O O14 0.001469 0.259031 0.749856
O O15 0.182550 0.500000 0.473519
O O16 0.250000 0.250000 0.500000
O O17 0.168715 0.258251 0.538257
O O18 0.922078 0.500000 0.203429
O O19 0.842300 0.500000 0.768022
O O20 0.769523 0.264788 0.688374
O O21 0.692107 0.500000 0.616449
#
# Coordination Sequence:
#
# PCOD9181286 Si02
#       8
#     8   8   8   8   8   8   8   8
#     4   9  17  32  52  77 105 137 175 215 265 319
#     4  11  21  35  55  81 111 140 179 225 266 316
#     4   9  18  32  50  77 106 134 172 219 263 309
#     4   9  19  36  56  78 108 141 178 220 266 321
#     4  11  20  34  55  81 109 141 180 226 270 318
#     4  10  20  37  58  79 107 143 179 221 268 319
#     4   9  17  32  52  77 105 137 177 218 263 314
#     4  10  19  32  52  80 108 137 176 225 269 312
#
# _framework density 17.607447000000001
#
# number of rings (size 3 to 8) (size 9 to 14) (size 15 to 20)
#    0.000    2.250    2.500    1.125    0.000    2.000 
#    0.000    3.125    0.000    7.500    0.000    0.000 
#    0.000    0.000    0.000    0.000    0.000    0.000 
#
# Total GULP energy -178528.030220 kJ/mol
# GULP energy per Si atom -5579.000944 kJ/mol
# Density = 1.756737 g / cm^3
# Si number density = 17.607447 Si / 1000 Ang^3
#
#
#
# Elastic Constant Matrix: (Units=GPa)
#
#
# Indices 1 2 3 4 5 6 
#
# 1 173.6658 30.7226 101.0560 0.0000 -19.8977 0.0000
# 2 30.7226 18.3577 27.0979 0.0000 -4.9975 0.0000
# 3 101.0560 27.0979 130.7359 0.0000 -16.4829 0.0000
# 4 0.0000 0.0000 0.0000 27.3534 0.0000 -7.1956
# 5 -19.8977 -4.9975 -16.4829 0.0000 34.1368 0.0000
# 6 0.0000 0.0000 0.0000 -7.1956 0.0000 23.8142
#
#
#
# Elastic Compliance Matrix: (Units=1/GPa)
#
#
# Indices 1 2 3 4 5 6 
#
# 1 0.011502 -0.008559 -0.006846 0.000000 0.002146 0.000000
# 2 -0.008559 0.085340 -0.010783 0.000000 0.002298 0.000000
# 3 -0.006846 -0.010783 0.015412 0.000000 0.001873 0.000000
# 4 0.000000 0.000000 0.000000 0.039715 0.000000 0.012000
# 5 0.002146 0.002298 0.001873 0.000000 0.031785 0.000000
# 6 0.000000 0.000000 0.000000 0.012000 0.000000 0.045618
#
#
# Mechanical properties :
#
#
# Convention : Reuss Voigt Hill
#
# Bulk Modulus (GPa) = 16.70083 71.16803 43.93443
# Shear Modulus (GPa) = 16.57235 27.98639 22.27937
#
# Velocity S-wave (km/s) = 3.07125 3.99113 3.56102
# Velocity P-wave (km/s) = 4.69919 7.85785 6.47411
#
# Compressibility (1/GPa) = 0.05987728
#
# Stress axis : x y z
#
# Youngs Moduli (GPa) = 86.94138 11.71787 64.88471
#
# Poissons Ratio (x) = 0.10030 0.44421
# Poissons Ratio (y) = 0.74417 0.69962
# Poissons Ratio (z) = 0.59521 0.12635
#
# Static dielectric constant tensor:
#      x y z
#    x 1.598870 0.000000 -0.011970 
#    y 0.000000 1.604810 0.000000 
#    z -0.011970 0.000000 1.582440 
# 
# From -- ./inp_files/324224.got.cif
#   From: 2010.05.17/outbox.cif.g08.bks.cpg/sg12_163_cif.got.tgz:324224.got - 2010.06.03 13:09:07.
