data_PCOD9181848
_publ_section_title
;
Structure prediction by ZEFSAII (Michael W. Deem and Ramdas Pophale) SiO2 
 PCOD9181848
Probable space group: C 2/M
;
_chemical_formula_sum "Si O2"
_cell_formula_units_Z 56
_cell_length_a 12.610190
_cell_length_b 14.087775
_cell_length_c 25.400481
_cell_angle_alpha 90.000000
_cell_angle_beta 138.834112
_cell_angle_gamma 90.000000
_cell_volume 2970.237376
_symmetry_space_group_name_H-M "C 2/M"
_symmetry_group_IT_number 12
_symmetry_cell_setting 'monoclinic'
loop_
_space_group_symop_operation_xyz
x,y,z
-x,y,-z
-x,-y,-z
x,-y,z
1/2+x,1/2+y,z
1/2-x,1/2+y,-z
1/2-x,1/2-y,-z
1/2+x,1/2-y,z
loop_
_atom_site_type_symbol
_atom_site_label
_atom_site_fract_x
_atom_site_fract_y
_atom_site_fract_z
Si Si1 0.286769 0.888801 0.710915
Si Si2 0.129715 0.391342 0.454823
Si Si3 0.209309 0.844293 0.017317
Si Si4 0.946446 0.602120 0.885003
Si Si5 0.143257 0.806900 0.114015
Si Si6 0.948085 0.610994 0.275323
Si Si7 0.031418 0.809659 0.452355
O O1 0.355615 0.883836 0.795373
O O2 0.422942 0.856974 0.720350
O O3 0.125054 0.830811 0.640838
O O4 0.252926 0.000000 0.686666
O O5 0.112413 0.500000 0.467740
O O6 0.069413 0.302749 0.466627
O O7 0.315808 0.366808 0.512624
O O8 0.032108 0.383495 0.363338
O O9 0.364178 0.903457 0.058188
O O10 0.206673 0.831782 0.079447
O O11 0.250000 0.750000 0.000000
O O12 0.021231 0.865046 0.935177
O O13 0.896811 0.500000 0.889696
O O14 0.904981 0.695692 0.902772
O O15 0.284485 0.830737 0.207318
O O16 0.910908 0.500000 0.250641
O O17 0.000000 0.842191 0.500000
#
# Coordination Sequence:
#
# PCOD9181848 Si02
#       7
#     8   8   8   8   8   8   8
#     4  10  19  32  54  82 106 134 176 221 261 306
#     4  10  22  37  54  80 109 136 176 219 260 313
#     4   9  19  34  51  76 105 139 173 212 261 309
#     4  10  20  35  55  79 106 139 177 217 262 312
#     4  10  19  34  55  77 106 138 174 218 262 309
#     4  10  19  33  55  80 103 135 176 219 263 306
#     4  11  21  35  57  80 105 143 176 213 266 310
#
# _framework density 18.853711000000001
#
# number of rings (size 3 to 8) (size 9 to 14) (size 15 to 20)
#    0.000    2.000    2.857    1.286    0.000    1.429 
#    0.000    7.143    0.000    1.714    0.000    0.000 
#    0.000    0.000    0.000    0.000    0.000    0.000 
#
# Total GULP energy -156077.674584 kJ/mol
# GULP energy per Si atom -5574.202664 kJ/mol
# Density = 1.881080 g / cm^3
# Si number density = 18.853711 Si / 1000 Ang^3
#
#
#
# Elastic Constant Matrix: (Units=GPa)
#
#
# Indices 1 2 3 4 5 6 
#
# 1 26.6238 -0.1112 6.1595 0.0000 18.3012 0.0000
# 2 -0.1112 72.6327 21.1924 0.0000 18.9439 0.0000
# 3 6.1595 21.1924 89.2400 0.0000 29.5380 0.0000
# 4 0.0000 0.0000 0.0000 42.7701 0.0000 -9.4997
# 5 18.3012 18.9439 29.5380 0.0000 27.1266 0.0000
# 6 0.0000 0.0000 0.0000 -9.4997 0.0000 15.2082
#
#
#
# Elastic Compliance Matrix: (Units=1/GPa)
#
#
# Indices 1 2 3 4 5 6 
#
# 1 0.121714 0.026138 0.029103 0.000000 -0.132059 0.000000
# 2 0.026138 0.022449 0.006083 0.000000 -0.039936 0.000000
# 3 0.029103 0.006083 0.024481 0.000000 -0.050540 0.000000
# 4 0.000000 0.000000 0.000000 0.027147 0.000000 0.016957
# 5 -0.132059 -0.039936 -0.050540 0.000000 0.208881 0.000000
# 6 0.000000 0.000000 0.000000 0.016957 0.000000 0.076347
#
#
# Mechanical properties :
#
#
# Convention : Reuss Voigt Hill
#
# Bulk Modulus (GPa) = 3.43298 26.99756 15.21527
# Shear Modulus (GPa) = 10.97775 27.77136 19.37455
#
# Velocity S-wave (km/s) = 2.41562 3.84212 3.20914
# Velocity P-wave (km/s) = 3.09921 5.83379 4.67109
#
# Compressibility (1/GPa) = 0.29129181
#
# Stress axis : x y z
#
# Youngs Moduli (GPa) = 8.21600 44.54571 40.84832
#
# Poissons Ratio (x) = -1.16434 -1.18880
# Poissons Ratio (y) = -0.21475 -0.24849
# Poissons Ratio (z) = -0.23911 -0.27099
#
# Static dielectric constant tensor:
#      x y z
#    x 1.632880 0.000000 0.001490 
#    y 0.000000 1.777760 0.000000 
#    z 0.001490 0.000000 1.670070 
# 
# From -- ./inp_files/262976.got.cif
#   From: 2010.05.17/outbox.cif.g08.bks.cpg/sg12_132_cif.got.tgz:262976.got - 2010.06.03 13:09:07.
