data_PCOD9181803
_publ_section_title
;
Structure prediction by ZEFSAII (Michael W. Deem and Ramdas Pophale) SiO2 
 PCOD9181803
Probable space group: C 2/M
;
_chemical_formula_sum "Si O2"
_cell_formula_units_Z 64
_cell_length_a 20.835075
_cell_length_b 8.693640
_cell_length_c 24.147116
_cell_angle_alpha 90.000000
_cell_angle_beta 122.749426
_cell_angle_gamma 90.000000
_cell_volume 3678.586130
_symmetry_space_group_name_H-M "C 2/M"
_symmetry_group_IT_number 12
_symmetry_cell_setting 'monoclinic'
loop_
_space_group_symop_operation_xyz
x,y,z
-x,y,-z
-x,-y,-z
x,-y,z
1/2+x,1/2+y,z
1/2-x,1/2+y,-z
1/2-x,1/2-y,-z
1/2+x,1/2-y,z
loop_
_atom_site_type_symbol
_atom_site_label
_atom_site_fract_x
_atom_site_fract_y
_atom_site_fract_z
Si Si1 0.523837 0.814382 0.922793
Si Si2 0.974141 0.185955 0.671138
Si Si3 0.379652 0.187257 0.926182
Si Si4 0.089893 0.684885 0.539442
Si Si5 0.666005 0.316711 0.465516
Si Si6 0.291080 0.686058 0.180672
Si Si7 0.119990 0.315687 0.676706
Si Si8 0.438922 0.314912 0.179815
O O1 0.440960 0.765993 0.907946
O O2 0.543598 0.752320 0.871833
O O3 0.524273 0.000000 0.921297
O O4 0.585312 0.765845 0.998227
O O5 0.891606 0.234063 0.610440
O O6 0.038834 0.255335 0.661475
O O7 0.998059 0.229968 0.744584
O O8 0.979514 0.000000 0.670292
O O9 0.293484 0.239050 0.875215
O O10 0.378783 0.000000 0.925740
O O11 0.096148 0.500000 0.535827
O O12 0.128505 0.764731 0.505546
O O13 0.126824 0.728384 0.615615
O O14 0.000000 0.722352 0.500000
O O15 0.670261 0.500000 0.465423
O O16 0.750000 0.250000 0.500000
O O17 0.291682 0.500000 0.182861
O O18 0.317318 0.747636 0.252577
O O19 0.357011 0.732595 0.167629
O O20 0.120650 0.500000 0.680320
O O21 0.438595 0.500000 0.175825
#
# Coordination Sequence:
#
# PCOD9181803 Si02
#       8
#     8   8   8   8   8   8   8   8
#     4   9  17  32  54  76  98 131 173 210 249 300
#     4   9  19  36  55  74 103 143 175 207 259 318
#     4   8  16  33  54  73  99 135 170 208 252 299
#     4  10  20  36  57  80 107 139 174 219 270 315
#     4  11  23  38  57  79 107 142 180 221 265 315
#     4   9  18  34  53  72 103 139 171 208 254 307
#     4  10  19  32  54  81 106 133 171 220 265 304
#     4   9  18  32  50  74 102 133 165 203 255 306
#
# _framework density 17.397988999999999
#
# number of rings (size 3 to 8) (size 9 to 14) (size 15 to 20)
#    0.000    2.625    1.250    2.250    0.000    4.250 
#    2.250    2.500    0.000    0.000    0.000    0.000 
#    0.000    0.000    0.000    0.000    0.000    0.000 
#
# Total GULP energy -178416.476537 kJ/mol
# GULP energy per Si atom -5575.514892 kJ/mol
# Density = 1.735839 g / cm^3
# Si number density = 17.397989 Si / 1000 Ang^3
#
#
#
# Elastic Constant Matrix: (Units=GPa)
#
#
# Indices 1 2 3 4 5 6 
#
# 1 118.0060 28.3980 111.1173 0.0000 14.5799 0.0000
# 2 28.3980 10.4006 32.3220 0.0000 2.0563 0.0000
# 3 111.1173 32.3220 169.5173 0.0000 8.9183 0.0000
# 4 0.0000 0.0000 0.0000 26.4159 0.0000 -5.6848
# 5 14.5799 2.0563 8.9183 0.0000 30.9900 0.0000
# 6 0.0000 0.0000 0.0000 -5.6848 0.0000 25.3030
#
#
#
# Elastic Compliance Matrix: (Units=1/GPa)
#
#
# Indices 1 2 3 4 5 6 
#
# 1 0.032540 -0.054644 -0.010454 0.000000 -0.008675 0.000000
# 2 -0.054644 0.327971 -0.027338 0.000000 0.011813 0.000000
# 3 -0.010454 -0.027338 0.017881 0.000000 0.001587 0.000000
# 4 0.000000 0.000000 0.000000 0.039779 0.000000 0.008937
# 5 -0.008675 0.011813 0.001587 0.000000 0.035109 0.000000
# 6 0.000000 0.000000 0.000000 0.008937 0.000000 0.041529
#
#
# Mechanical properties :
#
#
# Convention : Reuss Voigt Hill
#
# Bulk Modulus (GPa) = 5.16740 71.28871 38.22805
# Shear Modulus (GPa) = 6.71874 24.94757 15.83316
#
# Velocity S-wave (km/s) = 1.96728 3.79084 3.01999
# Velocity P-wave (km/s) = 2.85251 7.76047 5.84644
#
# Compressibility (1/GPa) = 0.19352100
#
# Stress axis : x y z
#
# Youngs Moduli (GPa) = 30.73163 3.04905 55.92585
#
# Poissons Ratio (x) = 0.16661 0.58466
# Poissons Ratio (y) = 1.67928 1.52888
# Poissons Ratio (z) = 0.32128 0.08335
#
# Static dielectric constant tensor:
#      x y z
#    x 1.566240 0.000000 0.015840 
#    y 0.000000 1.592120 0.000000 
#    z 0.015840 0.000000 1.599150 
# 
# From -- ./inp_files/345621.got.cif
#   From: 2010.05.17/outbox.cif.g08.bks.cpg/sg12_173_cif.got.tgz:345621.got - 2010.06.03 13:09:07.
