data_PCOD9181346
_publ_section_title
;
Structure prediction by ZEFSAII (Michael W. Deem and Ramdas Pophale) SiO2 
 PCOD9181346
Probable space group: C 2/M
;
_chemical_formula_sum "Si O2"
_cell_formula_units_Z 40
_cell_length_a 20.666267
_cell_length_b 15.836281
_cell_length_c 14.191977
_cell_angle_alpha 90.000000
_cell_angle_beta 154.643016
_cell_angle_gamma 90.000000
_cell_volume 1989.126561
_symmetry_space_group_name_H-M "C 2/M"
_symmetry_group_IT_number 12
_symmetry_cell_setting 'monoclinic'
loop_
_space_group_symop_operation_xyz
x,y,z
-x,y,-z
-x,-y,-z
x,-y,z
1/2+x,1/2+y,z
1/2-x,1/2+y,-z
1/2-x,1/2-y,-z
1/2+x,1/2-y,z
loop_
_atom_site_type_symbol
_atom_site_label
_atom_site_fract_x
_atom_site_fract_y
_atom_site_fract_z
Si Si1 0.342637 0.137033 0.271275
Si Si2 0.529766 0.640513 0.932288
Si Si3 0.281054 0.201157 0.813757
Si Si4 0.876786 0.098995 0.543438
Si Si5 0.715216 0.600313 0.911814
O O1 0.500000 0.094062 0.500000
O O2 0.342361 0.226151 0.325827
O O3 0.312649 0.146163 0.120951
O O4 0.186167 0.097743 0.102866
O O5 0.569175 0.741049 0.983015
O O6 0.405509 0.619541 0.690872
O O7 0.500000 0.615810 0.000000
O O8 0.753918 0.156690 0.330415
O O9 0.263337 0.134108 0.873808
O O10 0.038051 0.114972 0.702536
O O11 0.841859 0.000000 0.486865
O O12 0.740518 0.500000 0.952679
#
# Coordination Sequence:
#
# PCOD9181346 Si02
#       5
#     8   8   8   8   8
#     4   9  19  32  56  81 107 140 183 228 267 324
#     4   9  22  37  55  81 112 148 183 224 272 327
#     4  10  20  31  58  80 110 138 182 225 275 317
#     4  10  20  35  57  84 111 142 186 230 272 323
#     4  10  19  32  52  82 116 142 177 229 283 324
#
# _framework density 20.10933
#
# number of rings (size 3 to 8) (size 9 to 14) (size 15 to 20)
#    1.200    1.200    0.000    3.000    2.800    3.200 
#    0.000    0.000    0.000    4.800    0.000    0.000 
#    0.000    0.000    0.000    0.000    0.000    0.000 
#
# Total GULP energy -111395.939015 kJ/mol
# GULP energy per Si atom -5569.796951 kJ/mol
# Density = 2.006356 g / cm^3
# Si number density = 20.109330 Si / 1000 Ang^3
#
#
#
# Elastic Constant Matrix: (Units=GPa)
#
#
# Indices 1 2 3 4 5 6 
#
# 1 98.0017 8.7725 13.2907 0.0000 -26.7189 0.0000
# 2 8.7725 92.7096 20.0757 0.0000 -20.6018 0.0000
# 3 13.2907 20.0757 33.7972 0.0000 -18.0272 0.0000
# 4 0.0000 0.0000 0.0000 46.6565 0.0000 -38.4494
# 5 -26.7189 -20.6018 -18.0272 0.0000 22.1415 0.0000
# 6 0.0000 0.0000 0.0000 -38.4494 0.0000 40.5453
#
#
#
# Elastic Compliance Matrix: (Units=1/GPa)
#
#
# Indices 1 2 3 4 5 6 
#
# 1 0.016926 0.003393 0.006906 0.000000 0.029205 0.000000
# 2 0.003393 0.014384 -0.000982 0.000000 0.016678 0.000000
# 3 0.006906 -0.000982 0.055529 0.000000 0.052631 0.000000
# 4 0.000000 0.000000 0.000000 0.098090 0.000000 0.093019
# 5 0.029205 0.016678 0.052631 0.000000 0.138777 0.000000
# 6 0.000000 0.000000 0.000000 0.093019 0.000000 0.112875
#
#
# Mechanical properties :
#
#
# Convention : Reuss Voigt Hill
#
# Bulk Modulus (GPa) = 9.48114 34.30960 21.89537
# Shear Modulus (GPa) = 11.03498 34.02662 22.53080
#
# Velocity S-wave (km/s) = 2.34508 4.11795 3.35089
# Velocity P-wave (km/s) = 3.47240 6.30148 5.08754
#
# Compressibility (1/GPa) = 0.10547254
#
# Stress axis : x y z
#
# Youngs Moduli (GPa) = 59.08073 69.52020 18.00868
#
# Poissons Ratio (x) = -0.23587 -0.12437
# Poissons Ratio (y) = -0.20045 0.01769
# Poissons Ratio (z) = -0.40803 0.06830
#
# Static dielectric constant tensor:
#      x y z
#    x 1.705330 0.000000 0.010440 
#    y 0.000000 1.734750 0.000000 
#    z 0.010440 0.000000 1.736380 
# 
# From -- ./inp_files/234772.got.cif
#   From: 2010.05.17/outbox.cif.g08.bks.cpg/sg12_118_cif.got.tgz:234772.got - 2010.06.03 13:09:07.
