data_PCOD9181270
_publ_section_title
;
Structure prediction by ZEFSAII (Michael W. Deem and Ramdas Pophale) SiO2 
 PCOD9181270
Probable space group: C 2/M
;
_chemical_formula_sum "Si O2"
_cell_formula_units_Z 56
_cell_length_a 20.920519
_cell_length_b 7.602597
_cell_length_c 18.305722
_cell_angle_alpha 90.000000
_cell_angle_beta 117.821574
_cell_angle_gamma 90.000000
_cell_volume 2574.972669
_symmetry_space_group_name_H-M "C 2/M"
_symmetry_group_IT_number 12
_symmetry_cell_setting 'monoclinic'
loop_
_space_group_symop_operation_xyz
x,y,z
-x,y,-z
-x,-y,-z
x,-y,z
1/2+x,1/2+y,z
1/2-x,1/2+y,-z
1/2-x,1/2-y,-z
1/2+x,1/2-y,z
loop_
_atom_site_type_symbol
_atom_site_label
_atom_site_fract_x
_atom_site_fract_y
_atom_site_fract_z
Si Si1 0.165663 0.710828 0.462644
Si Si2 0.417606 0.215297 0.439387
Si Si3 0.395946 0.784820 0.723886
Si Si4 0.797165 0.298185 0.802052
Si Si5 0.420472 0.295110 0.977283
Si Si6 0.940674 0.286504 0.152101
Si Si7 0.862849 0.703083 0.255226
O O1 0.156920 0.500000 0.458516
O O2 0.250000 0.750000 0.500000
O O3 0.133011 0.777101 0.521343
O O4 0.123455 0.774325 0.368044
O O5 0.500000 0.262271 0.500000
O O6 0.392915 0.279974 0.346864
O O7 0.413477 0.000000 0.436112
O O8 0.335578 0.725360 0.749698
O O9 0.475865 0.731976 0.791921
O O10 0.395314 0.000000 0.724635
O O11 0.777511 0.500000 0.776704
O O12 0.723548 0.207603 0.786848
O O13 0.857329 0.291981 0.897217
O O14 0.419769 0.500000 0.955769
O O15 0.411659 0.278440 0.059180
O O16 0.500000 0.222373 0.000000
O O17 0.938867 0.500000 0.147871
O O18 0.894599 0.222924 0.197022
O O19 0.887409 0.500000 0.268007
#
# Coordination Sequence:
#
# PCOD9181270 Si02
#       7
#     8   8   8   8   8   8   8
#     4  10  19  32  52  79 111 144 182 229 274 321
#     4   9  17  32  56  83 111 148 191 231 273 323
#     4   9  18  33  55  81 106 142 190 230 269 323
#     4  11  22  37  59  82 113 153 187 226 276 338
#     4  11  23  39  60  87 114 139 177 233 286 332
#     4  10  20  37  60  82 109 146 188 229 271 330
#     4  10  21  36  56  85 117 148 187 235 279 322
#
# _framework density 21.747805
#
# number of rings (size 3 to 8) (size 9 to 14) (size 15 to 20)
#    0.000    2.000    1.429    2.571    0.000    5.143 
#    0.000    1.429    0.000    3.429    0.000    0.000 
#    0.000    0.000    0.000    0.000    0.000    0.000 
#
# Total GULP energy -156506.822710 kJ/mol
# GULP energy per Si atom -5589.529383 kJ/mol
# Density = 2.169831 g / cm^3
# Si number density = 21.747805 Si / 1000 Ang^3
#
#
#
# Elastic Constant Matrix: (Units=GPa)
#
#
# Indices 1 2 3 4 5 6 
#
# 1 130.4374 -8.2514 39.8295 0.0000 -28.2640 0.0000
# 2 -8.2514 46.9994 -8.5249 0.0000 -3.3004 0.0000
# 3 39.8295 -8.5249 120.8791 0.0000 -23.9986 0.0000
# 4 0.0000 0.0000 0.0000 -35.7933 0.0000 -9.1584
# 5 -28.2640 -3.3004 -23.9986 0.0000 42.8157 0.0000
# 6 0.0000 0.0000 0.0000 -9.1584 0.0000 -9.1743
#
#
#
# Elastic Compliance Matrix: (Units=1/GPa)
#
#
# Indices 1 2 3 4 5 6 
#
# 1 0.009525 0.001690 -0.001964 0.000000 0.005317 0.000000
# 2 0.001690 0.022161 0.001763 0.000000 0.003812 0.000000
# 3 -0.001964 0.001763 0.009917 0.000000 0.004398 0.000000
# 4 0.000000 0.000000 0.000000 -0.037522 0.000000 0.037457
# 5 0.005317 0.003812 0.004398 0.000000 0.029625 0.000000
# 6 0.000000 0.000000 0.000000 0.037457 0.000000 -0.146392
#
#
# Mechanical properties :
#
#
# Convention : Reuss Voigt Hill
#
# Bulk Modulus (GPa) = 22.43109 38.26912 30.35011
# Shear Modulus (GPa) = -49.60204 17.92047 -15.84078
#
# Velocity S-wave (km/s) = -4.78094 2.87368 -2.70179
# Velocity P-wave (km/s) = 4.48775 5.35216 2.06225
#
# Compressibility (1/GPa) = 0.04458098
#
# Stress axis : x y z
#
# Youngs Moduli (GPa) = 104.98429 45.12451 100.83374
#
# Poissons Ratio (x) = -0.07624 0.19801
# Poissons Ratio (y) = -0.17737 -0.17776
# Poissons Ratio (z) = 0.20616 -0.07955
#
# Static dielectric constant tensor:
#      x y z
#    x 1.706890 0.000000 -0.040470 
#    y 0.000000 1.835240 0.000000 
#    z -0.040470 0.000000 1.748810 
# 
# From -- ./inp_files/275638.got.cif
#   From: 2010.05.17/outbox.cif.g08.bks.cpg/sg12_138_cif.got.tgz:275638.got - 2010.06.03 13:09:07.
