data_PCOD9181940
_publ_section_title
;
Structure prediction by ZEFSAII (Michael W. Deem and Ramdas Pophale) SiO2 
 PCOD9181940
Probable space group: C 2/M
;
_chemical_formula_sum "Si O2"
_cell_formula_units_Z 64
_cell_length_a 30.226653
_cell_length_b 15.072728
_cell_length_c 21.776779
_cell_angle_alpha 90.000000
_cell_angle_beta 19.335607
_cell_angle_gamma 90.000000
_cell_volume 3285.003818
_symmetry_space_group_name_H-M "C 2/M"
_symmetry_group_IT_number 12
_symmetry_cell_setting 'monoclinic'
loop_
_space_group_symop_operation_xyz
x,y,z
-x,y,-z
-x,-y,-z
x,-y,z
1/2+x,1/2+y,z
1/2-x,1/2+y,-z
1/2-x,1/2-y,-z
1/2+x,1/2-y,z
loop_
_atom_site_type_symbol
_atom_site_label
_atom_site_fract_x
_atom_site_fract_y
_atom_site_fract_z
Si Si1 0.550371 0.605295 0.197359
Si Si2 0.030614 0.392817 0.890402
Si Si3 0.409168 0.903402 0.541240
Si Si4 0.418575 0.101772 0.912413
Si Si5 0.719508 0.716792 0.471594
Si Si6 0.319179 0.165532 0.775848
Si Si7 0.830155 0.599883 0.506051
Si Si8 0.689389 0.681713 0.128702
O O1 0.521994 0.500000 0.224627
O O2 0.427193 0.672500 0.344941
O O3 0.596624 0.620216 0.207984
O O4 0.676296 0.636017 0.989882
O O5 0.026412 0.500000 0.894251
O O6 0.177073 0.358677 0.682452
O O7 0.937048 0.358529 0.956542
O O8 0.000000 0.364549 0.000000
O O9 0.564820 0.900973 0.354537
O O10 0.330155 0.835161 0.688026
O O11 0.399179 0.893409 0.481827
O O12 0.350982 0.000000 0.632442
O O13 0.560043 0.105497 0.691831
O O14 0.382224 0.000000 0.969529
O O15 0.310938 0.137802 0.005841
O O16 0.750000 0.750000 0.500000
O O17 0.747235 0.807579 0.397621
O O18 0.371046 0.256349 0.739144
O O19 0.768497 0.500000 0.582524
O O20 0.750000 0.750000 0.000000
#
# Coordination Sequence:
#
# PCOD9181940 Si02
#       8
#     8   8   8   8   8   8   8   8
#     4  11  22  37  59  90 126 165 206 266 329 379
#     4  10  23  43  68  93 119 164 225 275 317 376
#     4  10  19  33  54  83 121 166 205 240 292 381
#     4  10  19  36  61  86 116 158 207 259 308 368
#     4  12  24  40  64  88 123 157 214 263 329 379
#     4  10  19  32  54  84 124 162 205 241 302 368
#     4  10  20  35  57  85 118 157 203 253 309 375
#     4  10  20  32  54  85 122 154 201 251 313 378
#
# _framework density 19.482474
#
# number of rings (size 3 to 8) (size 9 to 14) (size 15 to 20)
#    0.000    1.625    1.250    6.000    0.000    2.500 
#    0.000    0.000    0.000    0.375    0.000    7.875 
#    0.000    0.000    0.000    0.000    0.000    0.000 
#
# Total GULP energy -178140.294394 kJ/mol
# GULP energy per Si atom -5566.884200 kJ/mol
# Density = 1.943813 g / cm^3
# Si number density = 19.482474 Si / 1000 Ang^3
#
#
#
# Elastic Constant Matrix: (Units=GPa)
#
#
# Indices 1 2 3 4 5 6 
#
# 1 129.0330 21.7927 38.8000 0.0000 7.0953 0.0000
# 2 21.7927 54.5537 10.6271 0.0000 -3.0939 0.0000
# 3 38.8000 10.6271 64.3013 0.0001 3.7444 0.0000
# 4 0.0000 0.0000 0.0001 20.6844 -0.0001 5.3857
# 5 7.0953 -3.0939 3.7444 -0.0001 28.8702 0.0000
# 6 0.0000 0.0000 0.0000 5.3857 0.0000 24.2319
#
#
#
# Elastic Compliance Matrix: (Units=1/GPa)
#
#
# Indices 1 2 3 4 5 6 
#
# 1 0.010009 -0.003062 -0.005412 0.000000 -0.002086 0.000000
# 2 -0.003062 0.020052 -0.001647 0.000000 0.003115 0.000000
# 3 -0.005412 -0.001647 0.019167 0.000000 -0.001332 0.000000
# 4 0.000000 0.000000 0.000000 0.051315 0.000000 -0.011405
# 5 -0.002086 0.003115 -0.001332 0.000000 0.035657 0.000000
# 6 0.000000 0.000000 0.000000 -0.011405 0.000000 0.043803
#
#
# Mechanical properties :
#
#
# Convention : Reuss Voigt Hill
#
# Bulk Modulus (GPa) = 34.50149 43.36973 38.93561
# Shear Modulus (GPa) = 23.81991 26.53521 25.17756
#
# Velocity S-wave (km/s) = 3.50041 3.69454 3.59878
# Velocity P-wave (km/s) = 5.83820 6.36464 6.10710
#
# Compressibility (1/GPa) = 0.02898426
#
# Stress axis : x y z
#
# Youngs Moduli (GPa) = 99.90704 49.87155 52.17211
#
# Poissons Ratio (x) = 0.15273 0.28236
# Poissons Ratio (y) = 0.30596 0.08595
# Poissons Ratio (z) = 0.54071 0.08216
#
# Static dielectric constant tensor:
#      x y z
#    x 1.738090 0.000000 -0.000800 
#    y 0.000000 1.769460 0.000000 
#    z -0.000800 0.000000 1.675490 
# 
# From -- ./inp_files/330335.got.cif
#   From: 2010.05.17/outbox.cif.g08.bks.cpg/sg12_166_cif.got.tgz:330335.got - 2010.06.03 13:09:07.
