data_PCOD9181479
_publ_section_title
;
Structure prediction by ZEFSAII (Michael W. Deem and Ramdas Pophale) SiO2 
 PCOD9181479
Probable space group: C 2/M
;
_chemical_formula_sum "Si O2"
_cell_formula_units_Z 64
_cell_length_a 30.674658
_cell_length_b 7.506683
_cell_length_c 17.767012
_cell_angle_alpha 90.000000
_cell_angle_beta 43.230750
_cell_angle_gamma 90.000000
_cell_volume 2802.164409
_symmetry_space_group_name_H-M "C 2/M"
_symmetry_group_IT_number 12
_symmetry_cell_setting 'monoclinic'
loop_
_space_group_symop_operation_xyz
x,y,z
-x,y,-z
-x,-y,-z
x,-y,z
1/2+x,1/2+y,z
1/2-x,1/2+y,-z
1/2-x,1/2-y,-z
1/2+x,1/2-y,z
loop_
_atom_site_type_symbol
_atom_site_label
_atom_site_fract_x
_atom_site_fract_y
_atom_site_fract_z
Si Si1 0.887109 0.208684 0.336402
Si Si2 0.710587 0.783387 0.952124
Si Si3 0.148113 0.297293 0.177890
Si Si4 0.630256 0.214504 0.915465
Si Si5 0.701879 0.215208 0.681059
Si Si6 0.070751 0.794689 0.418556
Si Si7 0.992296 0.206542 0.092883
Si Si8 0.156828 0.781404 0.448588
O O1 0.821756 0.223804 0.370936
O O2 0.942296 0.287529 0.213946
O O3 0.879992 0.277961 0.429625
O O4 0.901511 0.000000 0.327604
O O5 0.779716 0.707924 0.881752
O O6 0.686792 0.735702 0.900021
O O7 0.715379 0.000000 0.951537
O O8 0.659553 0.724483 0.079475
O O9 0.125636 0.500000 0.199653
O O10 0.104013 0.207820 0.295221
O O11 0.648325 0.273470 0.808876
O O12 0.626290 0.000000 0.920072
O O13 0.564429 0.285791 0.030314
O O14 0.770125 0.274182 0.627373
O O15 0.702752 0.000000 0.678081
O O16 0.119909 0.721093 0.419752
O O17 0.000000 0.714007 0.500000
O O18 0.061061 0.000000 0.454343
O O19 0.973661 0.000000 0.105464
O O20 0.000000 0.289920 0.000000
O O21 0.159504 0.000000 0.442719
#
# Coordination Sequence:
#
# PCOD9181479 Si02
#       8
#     8   8   8   8   8   8   8   8
#     4  10  20  35  54  74 105 144 178 217 263 314
#     4   9  19  36  56  81 112 144 180 222 272 328
#     4  10  20  35  57  83 111 142 177 224 280 329
#     4  10  20  33  53  78 105 142 180 217 259 312
#     4  10  19  32  53  78 105 136 174 220 264 308
#     4  10  21  38  60  81 106 144 187 227 273 332
#     4  10  20  34  50  73 107 142 172 214 266 310
#     4   9  19  36  56  79 104 135 178 223 266 315
#
# _framework density 22.839486000000001
#
# number of rings (size 3 to 8) (size 9 to 14) (size 15 to 20)
#    0.000    2.250    1.250    1.500    0.000    5.000 
#    0.000    3.750    0.000    0.000    0.000    0.000 
#    0.000    0.000    0.000    0.000    0.000    0.000 
#
# Total GULP energy -178610.261340 kJ/mol
# GULP energy per Si atom -5581.570667 kJ/mol
# Density = 2.278750 g / cm^3
# Si number density = 22.839486 Si / 1000 Ang^3
#
#
#
# Elastic Constant Matrix: (Units=GPa)
#
#
# Indices 1 2 3 4 5 6 
#
# 1 23.9626 -3.8681 -4.2032 -0.0920 8.6105 0.0506
# 2 -3.8681 58.3946 0.0806 -0.0758 1.9397 0.0444
# 3 -4.2032 0.0806 114.8228 -0.1442 0.0799 0.1035
# 4 -0.0920 -0.0758 -0.1442 -7.3549 0.0139 16.3994
# 5 8.6105 1.9397 0.0799 0.0139 30.0446 -0.0013
# 6 0.0506 0.0444 0.1035 16.3994 -0.0013 -2.2849
#
#
#
# Elastic Compliance Matrix: (Units=1/GPa)
#
#
# Indices 1 2 3 4 5 6 
#
# 1 0.047609 0.003612 0.001749 -0.000134 -0.013882 0.000251
# 2 0.003612 0.017436 0.000121 -0.000048 -0.002161 0.000082
# 3 0.001749 0.000121 0.008773 -0.000052 -0.000533 0.000065
# 4 -0.000134 -0.000048 -0.000052 0.009063 0.000040 0.065041
# 5 -0.013882 -0.002161 -0.000533 0.000040 0.037403 -0.000106
# 6 0.000251 0.000082 0.000065 0.065041 -0.000106 0.029173
#
#
# Mechanical properties :
#
#
# Convention : Reuss Voigt Hill
#
# Bulk Modulus (GPa) = 11.79476 20.13318 15.96397
# Shear Modulus (GPa) = 29.98461 17.75900 23.87180
#
# Velocity S-wave (km/s) = 3.62725 2.79150 3.23646
# Velocity P-wave (km/s) = 4.76634 4.38453 4.57942
#
# Compressibility (1/GPa) = 0.08478340
#
# Stress axis : x y z
#
# Youngs Moduli (GPa) = 21.00452 57.35385 113.98255
#
# Poissons Ratio (x) = -0.20716 -0.19941
# Poissons Ratio (y) = -0.07587 -0.01383
# Poissons Ratio (z) = -0.03675 -0.00696
#
# Static dielectric constant tensor:
#      x y z
#    x 1.854980 0.000010 -0.005640 
#    y 0.000010 1.852520 0.000010 
#    z -0.005640 0.000010 1.863200 
# 
# From -- ./inp_files/295593.got.cif
#   From: 2010.05.17/outbox.cif.g08.bks.cpg/sg12_148_cif.got.tgz:295593.got - 2010.06.03 13:09:07.
