data_PCOD9181484
_publ_section_title
;
Structure prediction by ZEFSAII (Michael W. Deem and Ramdas Pophale) SiO2 
 PCOD9181484
Probable space group: C 2/M
;
_chemical_formula_sum "Si O2"
_cell_formula_units_Z 56
_cell_length_a 14.905841
_cell_length_b 7.598219
_cell_length_c 26.268255
_cell_angle_alpha 90.000000
_cell_angle_beta 68.174083
_cell_angle_gamma 90.000000
_cell_volume 2761.825077
_symmetry_space_group_name_H-M "C 2/M"
_symmetry_group_IT_number 12
_symmetry_cell_setting 'monoclinic'
loop_
_space_group_symop_operation_xyz
x,y,z
-x,y,-z
-x,-y,-z
x,-y,z
1/2+x,1/2+y,z
1/2-x,1/2+y,-z
1/2-x,1/2-y,-z
1/2+x,1/2-y,z
loop_
_atom_site_type_symbol
_atom_site_label
_atom_site_fract_x
_atom_site_fract_y
_atom_site_fract_z
Si Si1 0.064400 0.204814 0.441404
Si Si2 0.673240 0.286783 0.267218
Si Si3 0.285405 0.202598 0.145596
Si Si4 0.985279 0.284384 0.061478
Si Si5 0.029482 0.706689 0.645250
Si Si6 0.264167 0.784595 0.355258
Si Si7 0.686679 0.790545 0.063196
O O1 0.005547 0.212587 0.400837
O O2 0.000000 0.284757 0.500000
O O3 0.172117 0.276721 0.408227
O O4 0.080025 0.000000 0.451249
O O5 0.670005 0.500000 0.267521
O O6 0.724205 0.221525 0.205074
O O7 0.562438 0.228874 0.298098
O O8 0.735769 0.233004 0.303580
O O9 0.388296 0.282300 0.108360
O O10 0.226730 0.205312 0.105538
O O11 0.304918 0.000000 0.156212
O O12 0.980774 0.500000 0.060531
O O13 0.078617 0.233748 0.073502
O O14 0.000000 0.226879 0.000000
O O15 0.042442 0.500000 0.632809
O O16 0.131037 0.773855 0.646695
O O17 0.264804 0.000000 0.355417
O O18 0.688309 0.000000 0.070446
O O19 0.750000 0.750000 0.000000
#
# Coordination Sequence:
#
# PCOD9181484 Si02
#       7
#     8   8   8   8   8   8   8
#     4   9  18  34  54  76 106 143 179 210 248 306
#     4   9  19  36  55  73  99 136 175 212 254 310
#     4  10  20  36  56  76 100 133 172 212 254 304
#     4   9  17  32  53  74  98 131 167 197 241 313
#     4  10  19  32  53  78 106 136 171 219 261 296
#     4   8  16  32  52  74 101 137 175 209 253 305
#     4  11  21  34  54  77 102 131 164 204 250 304
#
# _framework density 20.276446
#
# number of rings (size 3 to 8) (size 9 to 14) (size 15 to 20)
#    0.000    2.571    1.429    1.714    0.000    2.571 
#    0.000   10.714    0.000    0.000    0.000    0.000 
#    0.000    0.000    0.000    0.000    0.000    0.000 
#
# Total GULP energy -156188.988953 kJ/mol
# GULP energy per Si atom -5578.178177 kJ/mol
# Density = 2.023030 g / cm^3
# Si number density = 20.276446 Si / 1000 Ang^3
#
#
#
# Elastic Constant Matrix: (Units=GPa)
#
#
# Indices 1 2 3 4 5 6 
#
# 1 172.5680 -9.0735 80.9191 0.0000 -33.5160 0.0000
# 2 -9.0735 43.2594 -8.4911 0.0000 -3.4118 -0.0001
# 3 80.9191 -8.4911 179.9079 0.0000 -28.7020 0.0000
# 4 0.0000 0.0000 0.0000 0.5263 0.0000 4.0621
# 5 -33.5160 -3.4118 -28.7020 0.0000 19.0691 0.0000
# 6 0.0000 -0.0001 0.0000 4.0621 0.0000 19.9315
#
#
#
# Elastic Compliance Matrix: (Units=1/GPa)
#
#
# Indices 1 2 3 4 5 6 
#
# 1 0.009675 0.002819 -0.001876 0.000000 0.014686 0.000000
# 2 0.002819 0.025040 0.001867 -0.000001 0.012246 0.000000
# 3 -0.001876 0.001867 0.007919 0.000000 0.008957 0.000000
# 4 0.000000 -0.000001 0.000000 -3.315674 -0.000002 0.675744
# 5 0.014686 0.012246 0.008957 -0.000002 0.093927 0.000000
# 6 0.000000 0.000000 0.000000 0.675744 0.000000 -0.087547
#
#
# Mechanical properties :
#
#
# Convention : Reuss Voigt Hill
#
# Bulk Modulus (GPa) = 20.72246 58.04936 39.38591
# Shear Modulus (GPa) = -1.53553 30.06407 14.26427
#
# Velocity S-wave (km/s) = -0.87117 3.85477 2.65522
# Velocity P-wave (km/s) = 3.03813 6.96444 5.37279
#
# Compressibility (1/GPa) = 0.04825681
#
# Stress axis : x y z
#
# Youngs Moduli (GPa) = 103.36110 39.93587 126.27656
#
# Poissons Ratio (x) = -0.11260 0.23683
# Poissons Ratio (y) = -0.29142 -0.23582
# Poissons Ratio (z) = 0.19385 -0.07458
#
# Static dielectric constant tensor:
#      x y z
#    x 1.691260 0.000000 -0.022180 
#    y 0.000000 1.790110 0.000000 
#    z -0.022180 0.000000 1.716590 
# 
# From -- ./inp_files/359644.got.cif
#   From: 2010.05.17/outbox.cif.g08.bks.cpg/sg12_180_cif.got.tgz:359644.got - 2010.06.03 13:09:07.
