data_PCOD9181464
_publ_section_title
;
Structure prediction by ZEFSAII (Michael W. Deem and Ramdas Pophale) SiO2 
 PCOD9181464
Probable space group: C 2/M
;
_chemical_formula_sum "Si O2"
_cell_formula_units_Z 56
_cell_length_a 19.224599
_cell_length_b 7.400079
_cell_length_c 21.646713
_cell_angle_alpha 90.000000
_cell_angle_beta 53.001891
_cell_angle_gamma 90.000000
_cell_volume 2459.489780
_symmetry_space_group_name_H-M "C 2/M"
_symmetry_group_IT_number 12
_symmetry_cell_setting 'monoclinic'
loop_
_space_group_symop_operation_xyz
x,y,z
-x,y,-z
-x,-y,-z
x,-y,z
1/2+x,1/2+y,z
1/2-x,1/2+y,-z
1/2-x,1/2-y,-z
1/2+x,1/2-y,z
loop_
_atom_site_type_symbol
_atom_site_label
_atom_site_fract_x
_atom_site_fract_y
_atom_site_fract_z
Si Si1 0.408743 0.279280 0.875026
Si Si2 0.093585 0.779932 0.475478
Si Si3 0.718013 0.288428 0.301065
Si Si4 0.911229 0.783440 0.014567
Si Si5 0.848349 0.215180 0.426865
Si Si6 0.220085 0.215631 0.164080
Si Si7 0.103472 0.218373 0.734488
O O1 0.405212 0.500000 0.877210
O O2 0.337597 0.216696 0.862779
O O3 0.506151 0.225478 0.803256
O O4 0.396743 0.217931 0.952030
O O5 0.167306 0.714441 0.388170
O O6 0.099405 0.713931 0.542389
O O7 0.000000 0.734217 0.500000
O O8 0.101312 0.000000 0.474397
O O9 0.694747 0.500000 0.311390
O O10 0.695852 0.212953 0.245251
O O11 0.820821 0.273914 0.259004
O O12 0.822489 0.746054 0.098480
O O13 0.920817 0.000000 0.005582
O O14 0.000000 0.716164 0.000000
O O15 0.750000 0.250000 0.500000
O O16 0.870469 0.286475 0.347563
O O17 0.862213 0.000000 0.415248
O O18 0.206222 0.000000 0.173155
O O19 0.103863 0.000000 0.734338
#
# Coordination Sequence:
#
# PCOD9181464 Si02
#       7
#     8   8   8   8   8   8   8
#     4   9  19  35  54  79 107 135 171 214 257 303
#     4   9  18  31  50  75 103 135 173 213 254 303
#     4  10  20  34  52  76 106 137 170 215 263 303
#     4  10  20  36  58  79 104 139 172 207 255 310
#     4  10  19  32  53  78 103 135 173 215 258 301
#     4  10  21  35  54  79 107 136 170 215 259 301
#     4  10  20  34  55  78 103 137 176 213 253 308
#
# _framework density 22.768948999999999
#
# number of rings (size 3 to 8) (size 9 to 14) (size 15 to 20)
#    0.000    2.286    1.429    1.286    2.000    2.000 
#    0.000    1.429    0.000    1.714    0.000    0.000 
#    0.000    0.000    0.000    0.000    0.000    0.000 
#
# Total GULP energy -156407.937932 kJ/mol
# GULP energy per Si atom -5585.997783 kJ/mol
# Density = 2.271713 g / cm^3
# Si number density = 22.768949 Si / 1000 Ang^3
#
#
#
# Elastic Constant Matrix: (Units=GPa)
#
#
# Indices 1 2 3 4 5 6 
#
# 1 121.2309 -3.8935 18.7244 0.0004 27.8946 0.0006
# 2 -3.8935 77.9240 0.9609 0.0010 9.8731 -0.0011
# 3 18.7244 0.9609 95.2776 0.0000 23.8843 0.0001
# 4 0.0004 0.0010 0.0000 14.1059 0.0001 -1.2547
# 5 27.8946 9.8731 23.8843 0.0001 45.8380 0.0004
# 6 0.0006 -0.0011 0.0001 -1.2547 0.0004 21.4698
#
#
#
# Elastic Compliance Matrix: (Units=1/GPa)
#
#
# Indices 1 2 3 4 5 6 
#
# 1 0.009727 0.001247 -0.000429 0.000000 -0.005965 0.000000
# 2 0.001247 0.013390 0.000613 -0.000001 -0.003962 0.000001
# 3 -0.000429 0.000613 0.012125 0.000000 -0.006189 0.000000
# 4 0.000000 -0.000001 0.000000 0.071263 0.000000 0.004164
# 5 -0.005965 -0.003962 -0.006189 0.000000 0.029524 -0.000001
# 6 0.000000 0.000001 0.000000 0.004164 -0.000001 0.046821
#
#
# Mechanical properties :
#
#
# Convention : Reuss Voigt Hill
#
# Bulk Modulus (GPa) = 26.24331 36.22400 31.23366
# Shear Modulus (GPa) = 25.94853 34.85879 30.40366
#
# Velocity S-wave (km/s) = 3.37953 3.91702 3.65816
# Velocity P-wave (km/s) = 5.17486 6.03335 5.62052
#
# Compressibility (1/GPa) = 0.03810495
#
# Stress axis : x y z
#
# Youngs Moduli (GPa) = 102.80161 74.68365 82.47268
#
# Poissons Ratio (x) = -0.09314 0.03538
# Poissons Ratio (y) = -0.12820 -0.05057
# Poissons Ratio (z) = 0.04411 -0.04579
#
# Static dielectric constant tensor:
#      x y z
#    x 1.880460 0.000000 0.070300 
#    y 0.000000 1.894940 0.000000 
#    z 0.070300 0.000000 1.841420 
# 
# From -- ./inp_files/313677.got.cif
#   From: 2010.05.17/outbox.cif.g08.bks.cpg/sg12_157_cif.got.tgz:313677.got - 2010.06.03 13:09:07.
