data_PCOD9181321
_publ_section_title
;
Structure prediction by ZEFSAII (Michael W. Deem and Ramdas Pophale) SiO2 
 PCOD9181321
Probable space group: C 2/M
;
_chemical_formula_sum "Si O2"
_cell_formula_units_Z 64
_cell_length_a 20.905226
_cell_length_b 7.608618
_cell_length_c 19.219439
_cell_angle_alpha 90.000000
_cell_angle_beta 94.477448
_cell_angle_gamma 90.000000
_cell_volume 3047.711971
_symmetry_space_group_name_H-M "C 2/M"
_symmetry_group_IT_number 12
_symmetry_cell_setting 'monoclinic'
loop_
_space_group_symop_operation_xyz
x,y,z
-x,y,-z
-x,-y,-z
x,-y,z
1/2+x,1/2+y,z
1/2-x,1/2+y,-z
1/2-x,1/2-y,-z
1/2+x,1/2-y,z
loop_
_atom_site_type_symbol
_atom_site_label
_atom_site_fract_x
_atom_site_fract_y
_atom_site_fract_z
Si Si1 0.275947 0.785695 0.709919
Si Si2 0.140126 0.796787 0.753566
Si Si3 0.948763 0.290493 0.550707
Si Si4 0.000719 0.786426 0.290893
Si Si5 0.101781 0.205445 0.186945
Si Si6 0.307538 0.210670 0.556702
Si Si7 0.186252 0.707182 0.904739
Si Si8 0.167731 0.787321 0.058611
O O1 0.205684 0.721980 0.727120
O O2 0.331317 0.720352 0.765768
O O3 0.292022 0.727324 0.633235
O O4 0.276961 0.000000 0.713171
O O5 0.148781 0.789686 0.837409
O O6 0.071979 0.720755 0.724940
O O7 0.138819 0.000000 0.731043
O O8 0.945376 0.500000 0.538310
O O9 0.971513 0.262688 0.631679
O O10 0.876461 0.219963 0.537468
O O11 0.000000 0.217635 0.500000
O O12 0.046800 0.720410 0.232607
O O13 0.000630 0.000000 0.287513
O O14 0.117385 0.278489 0.111697
O O15 0.086182 0.000000 0.176060
O O16 0.250000 0.250000 0.500000
O O17 0.312943 0.000000 0.562160
O O18 0.259929 0.774635 0.915870
O O19 0.310847 0.000000 0.108616
O O20 0.156022 0.736855 0.977960
O O21 0.169146 0.000000 0.061778
#
# Coordination Sequence:
#
# PCOD9181321 Si02
#       8
#     8   8   8   8   8   8   8   8
#     4  10  20  35  56  79 108 142 180 225 271 318
#     4  10  21  36  54  80 112 144 179 222 273 323
#     4  10  22  40  58  79 110 147 183 221 270 325
#     4  10  22  38  58  82 109 144 183 223 268 323
#     4  10  19  35  57  82 107 138 183 226 267 318
#     4  10  22  38  56  82 112 142 180 224 271 321
#     4  10  19  32  52  81 110 140 181 224 268 319
#     4   9  18  32  52  78 109 141 176 223 272 319
#
# _framework density 20.999358999999998
#
# number of rings (size 3 to 8) (size 9 to 14) (size 15 to 20)
#    0.000    2.125    2.500    0.375    1.750    2.750 
#    0.000    0.625    0.000    3.750    0.000    0.000 
#    0.000    0.000    0.000    0.000    0.000    0.000 
#
# Total GULP energy -178687.431834 kJ/mol
# GULP energy per Si atom -5583.982245 kJ/mol
# Density = 2.095156 g / cm^3
# Si number density = 20.999359 Si / 1000 Ang^3
#
#
#
# Elastic Constant Matrix: (Units=GPa)
#
#
# Indices 1 2 3 4 5 6 
#
# 1 148.3965 -0.5852 50.1427 0.0000 -16.4519 0.0000
# 2 -0.5852 41.2622 -8.1428 0.0000 -6.1546 0.0000
# 3 50.1427 -8.1428 92.3949 0.0000 -26.5440 0.0000
# 4 0.0000 0.0000 0.0000 18.1222 0.0000 8.3973
# 5 -16.4519 -6.1546 -26.5440 0.0000 37.8646 0.0000
# 6 0.0000 0.0000 0.0000 8.3973 0.0000 10.4875
#
#
#
# Elastic Compliance Matrix: (Units=1/GPa)
#
#
# Indices 1 2 3 4 5 6 
#
# 1 0.008280 -0.000707 -0.004452 0.000000 0.000362 0.000000
# 2 -0.000707 0.026267 0.004805 0.000000 0.007330 0.000000
# 3 -0.004452 0.004805 0.016693 0.000000 0.010549 0.000000
# 4 0.000000 0.000000 0.000000 0.087730 0.000000 -0.070245
# 5 0.000362 0.007330 0.010549 0.000000 0.035154 0.000000
# 6 0.000000 0.000000 0.000000 -0.070245 0.000000 0.151596
#
#
# Mechanical properties :
#
#
# Convention : Reuss Voigt Hill
#
# Bulk Modulus (GPa) = 19.78984 40.54254 30.16619
# Shear Modulus (GPa) = 14.56566 29.33746 21.95156
#
# Velocity S-wave (km/s) = 2.63653 3.74179 3.23669
# Velocity P-wave (km/s) = 4.32584 6.16575 5.32585
#
# Compressibility (1/GPa) = 0.05053098
#
# Stress axis : x y z
#
# Youngs Moduli (GPa) = 120.76718 38.07094 59.90417
#
# Poissons Ratio (x) = 0.02692 0.26670
# Poissons Ratio (y) = 0.08541 -0.28782
# Poissons Ratio (z) = 0.53768 -0.18292
#
# Static dielectric constant tensor:
#      x y z
#    x 1.758600 0.000000 -0.037010 
#    y 0.000000 1.785740 0.000000 
#    z -0.037010 0.000000 1.729740 
# 
# From -- ./inp_files/281376.got.cif
#   From: 2010.05.17/outbox.cif.g08.bks.cpg/sg12_141_cif.got.tgz:281376.got - 2010.06.03 13:09:07.
