data_PCOD9181541
_publ_section_title
;
Structure prediction by ZEFSAII (Michael W. Deem and Ramdas Pophale) SiO2 
 PCOD9181541
Probable space group: C 2/M
;
_chemical_formula_sum "Si O2"
_cell_formula_units_Z 56
_cell_length_a 19.856337
_cell_length_b 9.017137
_cell_length_c 29.999567
_cell_angle_alpha 90.000000
_cell_angle_beta 152.321219
_cell_angle_gamma 90.000000
_cell_volume 2495.064089
_symmetry_space_group_name_H-M "C 2/M"
_symmetry_group_IT_number 12
_symmetry_cell_setting 'monoclinic'
loop_
_space_group_symop_operation_xyz
x,y,z
-x,y,-z
-x,-y,-z
x,-y,z
1/2+x,1/2+y,z
1/2-x,1/2+y,-z
1/2-x,1/2-y,-z
1/2+x,1/2-y,z
loop_
_atom_site_type_symbol
_atom_site_label
_atom_site_fract_x
_atom_site_fract_y
_atom_site_fract_z
Si Si1 0.064459 0.829750 0.344606
Si Si2 0.778809 0.327056 0.879551
Si Si3 0.087018 0.672946 0.216548
Si Si4 0.271503 0.171697 0.059834
Si Si5 0.534579 0.322691 0.616897
Si Si6 0.835023 0.824393 0.822262
Si Si7 0.213653 0.177910 0.589982
O O1 0.067443 0.804921 0.399391
O O2 0.167534 0.725439 0.376792
O O3 0.894399 0.815598 0.232287
O O4 0.107106 0.000000 0.360280
O O5 0.816307 0.500000 0.903734
O O6 0.798272 0.249472 0.938440
O O7 0.855810 0.250910 0.882539
O O8 0.106601 0.500000 0.215327
O O9 0.063934 0.766688 0.158427
O O10 0.223748 0.727413 0.325704
O O11 0.947238 0.678430 0.166446
O O12 0.228432 0.000000 0.032672
O O13 0.250000 0.250000 0.000000
O O14 0.568518 0.500000 0.633791
O O15 0.678370 0.232571 0.712587
O O16 0.442690 0.274743 0.520093
O O17 0.839512 0.000000 0.829372
O O18 0.208362 0.000000 0.589297
#
# Coordination Sequence:
#
# PCOD9181541 Si02
#       7
#     8   8   8   8   8   8   8
#     4   9  17  29  49  79 114 150 191 240 293 344
#     4  10  20  38  63  89 120 157 195 240 296 354
#     4  10  22  40  60  85 119 158 196 241 296 353
#     4  11  23  41  67  97 125 152 190 238 292 355
#     4   9  19  34  51  77 114 158 201 244 294 345
#     4  11  23  38  59  85 118 160 204 247 290 346
#     4  10  19  32  53  79 112 154 201 246 292 347
#
# _framework density 22.444313999999999
#
# number of rings (size 3 to 8) (size 9 to 14) (size 15 to 20)
#    0.000    2.000    1.429    3.429    0.000    5.143 
#    0.000    3.571    0.000    4.286    0.000    0.000 
#    0.000    0.000    0.000    0.000    0.000    0.000 
#
# Total GULP energy -156553.983539 kJ/mol
# GULP energy per Si atom -5591.213698 kJ/mol
# Density = 2.239323 g / cm^3
# Si number density = 22.444314 Si / 1000 Ang^3
#
#
#
# Elastic Constant Matrix: (Units=GPa)
#
#
# Indices 1 2 3 4 5 6 
#
# 1 136.7821 65.4542 36.9929 0.0000 -24.6614 0.0001
# 2 65.4542 104.8481 33.5797 -0.0001 -27.9773 0.0003
# 3 36.9929 33.5797 95.5697 0.0008 -26.5105 0.0002
# 4 0.0000 -0.0001 0.0008 20.8466 0.0001 -3.4731
# 5 -24.6614 -27.9773 -26.5105 0.0001 44.0626 0.0000
# 6 0.0001 0.0003 0.0002 -3.4731 0.0000 30.3455
#
#
#
# Elastic Compliance Matrix: (Units=1/GPa)
#
#
# Indices 1 2 3 4 5 6 
#
# 1 0.010818 -0.005844 -0.001781 0.000000 0.001273 0.000000
# 2 -0.005844 0.015124 -0.001555 0.000000 0.005397 0.000000
# 3 -0.001781 -0.001555 0.013382 -0.000001 0.006067 0.000000
# 4 0.000000 0.000000 -0.000001 0.048902 0.000000 0.005597
# 5 0.001273 0.005397 0.006067 0.000000 0.030484 0.000000
# 6 0.000000 0.000000 0.000000 0.005597 0.000000 0.033594
#
#
# Mechanical properties :
#
#
# Convention : Reuss Voigt Hill
#
# Bulk Modulus (GPa) = 47.69883 67.69484 57.69683
# Shear Modulus (GPa) = 28.14468 32.46245 30.30357
#
# Velocity S-wave (km/s) = 3.54500 3.80722 3.67845
# Velocity P-wave (km/s) = 6.16881 7.03941 6.61844
#
# Compressibility (1/GPa) = 0.02096487
#
# Stress axis : x y z
#
# Youngs Moduli (GPa) = 92.43459 66.12172 74.72456
#
# Poissons Ratio (x) = 0.38639 0.13310
# Poissons Ratio (y) = 0.54015 0.11620
# Poissons Ratio (z) = 0.16465 0.10282
#
# Static dielectric constant tensor:
#      x y z
#    x 1.838460 0.000000 0.032040 
#    y 0.000000 1.747040 0.000000 
#    z 0.032040 0.000000 1.893510 
# 
# From -- ./inp_files/380768.got.cif
#   From: 2010.05.17/outbox.cif.g08.bks.cpg/sg12_191_cif.got.tgz:380768.got - 2010.06.03 13:09:07.
