data_PCOD9181242
_publ_section_title
;
Structure prediction by ZEFSAII (Michael W. Deem and Ramdas Pophale) SiO2 
 PCOD9181242
Probable space group: C 2/M
;
_chemical_formula_sum "Si O2"
_cell_formula_units_Z 48
_cell_length_a 19.801985
_cell_length_b 11.192354
_cell_length_c 16.212626
_cell_angle_alpha 90.000000
_cell_angle_beta 143.422681
_cell_angle_gamma 90.000000
_cell_volume 2141.223670
_symmetry_space_group_name_H-M "C 2/M"
_symmetry_group_IT_number 12
_symmetry_cell_setting 'monoclinic'
loop_
_space_group_symop_operation_xyz
x,y,z
-x,y,-z
-x,-y,-z
x,-y,z
1/2+x,1/2+y,z
1/2-x,1/2+y,-z
1/2-x,1/2-y,-z
1/2+x,1/2-y,z
loop_
_atom_site_type_symbol
_atom_site_label
_atom_site_fract_x
_atom_site_fract_y
_atom_site_fract_z
Si Si1 0.931563 0.000000 0.558885
Si Si2 0.819742 0.000000 0.272073
Si Si3 0.721784 0.298499 0.561637
Si Si4 0.118361 0.861094 0.928122
Si Si5 0.467085 0.132214 0.788466
Si Si6 0.544407 0.864804 0.424576
Si Si7 0.179653 0.233366 0.805081
O O1 0.884156 0.886141 0.558205
O O2 0.857987 0.000000 0.403222
O O3 0.060344 0.000000 0.660261
O O4 0.767069 0.125999 0.195799
O O5 0.750000 0.250000 0.500000
O O6 0.840502 0.357418 0.702308
O O7 0.664592 0.197559 0.561793
O O8 0.151826 0.826388 0.866911
O O9 0.034225 0.754284 0.873856
O O10 0.080937 0.000000 0.895285
O O11 0.233140 0.839744 0.092534
O O12 0.461875 0.130238 0.682551
O O13 0.514577 0.000000 0.857939
O O14 0.437131 0.785389 0.346074
O O15 0.538503 0.000000 0.447915
#
# Coordination Sequence:
#
# PCOD9181242 Si02
#       7
#     4   4   8   8   8   8   8
#     4  11  22  38  57  87 121 155 197 234 296 356
#     4  11  22  36  59  83 123 162 193 235 288 373
#     4  10  19  32  55  80 112 145 188 246 292 337
#     4  10  20  31  52  83 115 147 193 245 299 343
#     4   9  18  30  47  75 113 143 179 241 293 346
#     4   9  17  29  47  76 108 145 182 230 296 344
#     4  10  19  32  52  78 114 150 191 241 290 344
#
# _framework density 22.417090000000002
#
# number of rings (size 3 to 8) (size 9 to 14) (size 15 to 20)
#    0.000    2.167    3.333    0.500    2.333    2.667 
#    0.000    0.000    0.000    5.000    0.000    1.167 
#    0.000    0.000    0.000    0.000    0.000    0.000 
#
# Total GULP energy -133852.849785 kJ/mol
# GULP energy per Si atom -5577.202074 kJ/mol
# Density = 2.236607 g / cm^3
# Si number density = 22.417090 Si / 1000 Ang^3
#
#
#
# Elastic Constant Matrix: (Units=GPa)
#
#
# Indices 1 2 3 4 5 6 
#
# 1 48.5473 20.4218 15.4295 0.0000 11.7880 0.0000
# 2 20.4218 186.0280 30.8552 0.0000 13.8687 0.0000
# 3 15.4295 30.8552 44.0415 0.0000 11.0995 0.0000
# 4 0.0000 0.0000 0.0000 24.6755 0.0000 23.7551
# 5 11.7880 13.8687 11.0995 0.0000 17.8717 0.0000
# 6 0.0000 0.0000 0.0000 23.7551 0.0000 6.4943
#
#
#
# Elastic Compliance Matrix: (Units=1/GPa)
#
#
# Indices 1 2 3 4 5 6 
#
# 1 0.025808 -0.001023 -0.005021 0.000000 -0.013111 0.000000
# 2 -0.001023 0.006215 -0.003498 0.000000 -0.001976 0.000000
# 3 -0.005021 -0.003498 0.030110 0.000000 -0.012674 0.000000
# 4 0.000000 0.000000 0.000000 -0.016073 0.000000 0.058792
# 5 -0.013111 -0.001976 -0.012674 0.000000 0.074007 0.000000
# 6 0.000000 0.000000 0.000000 0.058792 0.000000 -0.061070
#
#
# Mechanical properties :
#
#
# Convention : Reuss Voigt Hill
#
# Bulk Modulus (GPa) = 23.22907 45.78111 34.50509
# Shear Modulus (GPa) = 54.09488 23.93565 39.01527
#
# Velocity S-wave (km/s) = 4.91767 3.27118 4.17637
# Velocity P-wave (km/s) = 6.52912 5.89357 6.21947
#
# Compressibility (1/GPa) = 0.04304950
#
# Stress axis : x y z
#
# Youngs Moduli (GPa) = 38.74775 160.89224 33.21193
#
# Poissons Ratio (x) = 0.16459 0.16675
# Poissons Ratio (y) = 0.03964 0.11618
# Poissons Ratio (z) = 0.19454 0.56281
#
# Static dielectric constant tensor:
#      x y z
#    x 1.837580 0.000000 -0.008260 
#    y 0.000000 1.888110 0.000000 
#    z -0.008260 0.000000 1.880150 
# 
# From -- ./inp_files/324999.got.cif
#   From: 2010.05.17/outbox.cif.g08.bks.cpg/sg12_163_cif.got.tgz:324999.got - 2010.06.03 13:09:07.
