data_PCOD9181888
_publ_section_title
;
Structure prediction by ZEFSAII (Michael W. Deem and Ramdas Pophale) SiO2 
 PCOD9181888
Probable space group: C 2/M
;
_chemical_formula_sum "Si O2"
_cell_formula_units_Z 64
_cell_length_a 24.772570
_cell_length_b 12.880275
_cell_length_c 24.992972
_cell_angle_alpha 90.000000
_cell_angle_beta 26.378481
_cell_angle_gamma 90.000000
_cell_volume 3543.147097
_symmetry_space_group_name_H-M "C 2/M"
_symmetry_group_IT_number 12
_symmetry_cell_setting 'monoclinic'
loop_
_space_group_symop_operation_xyz
x,y,z
-x,y,-z
-x,-y,-z
x,-y,z
1/2+x,1/2+y,z
1/2-x,1/2+y,-z
1/2-x,1/2-y,-z
1/2+x,1/2-y,z
loop_
_atom_site_type_symbol
_atom_site_label
_atom_site_fract_x
_atom_site_fract_y
_atom_site_fract_z
Si Si1 0.973958 0.785998 0.459107
Si Si2 0.706729 0.124930 0.669853
Si Si3 0.719760 0.615328 0.203030
Si Si4 0.380723 0.224014 0.360947
Si Si5 0.404671 0.373751 0.858240
Si Si6 0.968946 0.378384 0.677318
Si Si7 0.910631 0.380451 0.122153
Si Si8 0.238831 0.239897 0.924221
O O1 0.841179 0.830091 0.562108
O O2 0.990523 0.677025 0.413599
O O3 0.000000 0.783171 0.500000
O O4 0.080359 0.853104 0.335975
O O5 0.647296 0.158763 0.667220
O O6 0.616529 0.165076 0.796405
O O7 0.714934 0.000000 0.666021
O O8 0.725688 0.500000 0.175322
O O9 0.782644 0.615738 0.204913
O O10 0.793753 0.690468 0.097986
O O11 0.250000 0.250000 0.500000
O O12 0.464706 0.324023 0.272834
O O13 0.448509 0.160172 0.346843
O O14 0.402587 0.500000 0.859744
O O15 0.310205 0.321574 0.899679
O O16 0.360059 0.322767 0.953941
O O17 0.974487 0.500000 0.666639
O O18 0.835732 0.340883 0.813916
O O19 0.954443 0.500000 0.091411
O O20 0.000000 0.329932 0.000000
#
# Coordination Sequence:
#
# PCOD9181888 Si02
#       8
#     8   8   8   8   8   8   8   8
#     4  11  21  36  57  85 114 149 199 242 288 352
#     4  11  22  37  58  84 117 152 191 242 297 350
#     4  10  19  32  54  82 114 148 181 230 292 348
#     4  11  23  40  56  86 116 154 197 238 291 349
#     4  10  21  38  60  83 115 151 192 243 292 347
#     4  10  21  39  59  80 116 154 192 241 290 344
#     4   9  19  33  51  79 111 146 181 224 291 347
#     4   9  20  36  57  88 111 143 193 236 293 350
#
# _framework density 18.063037999999999
#
# number of rings (size 3 to 8) (size 9 to 14) (size 15 to 20)
#    0.000    1.875    2.500    1.500    1.750    1.750 
#    0.000    1.250    0.000    0.000    0.000    0.875 
#    0.000    0.000    0.000    0.000    0.000    0.000 
#
# Total GULP energy -178342.281318 kJ/mol
# GULP energy per Si atom -5573.196291 kJ/mol
# Density = 1.802193 g / cm^3
# Si number density = 18.063038 Si / 1000 Ang^3
#
#
#
# Elastic Constant Matrix: (Units=GPa)
#
#
# Indices 1 2 3 4 5 6 
#
# 1 67.8047 25.1752 8.6924 0.0000 11.1706 0.0000
# 2 25.1752 127.6197 40.0238 -0.0001 2.7391 0.0000
# 3 8.6924 40.0238 94.0541 -0.0001 7.6749 0.0000
# 4 0.0000 -0.0001 -0.0001 16.1141 0.0000 4.7395
# 5 11.1706 2.7391 7.6749 0.0000 25.8854 0.0000
# 6 0.0000 0.0000 0.0000 4.7395 0.0000 21.0149
#
#
#
# Elastic Compliance Matrix: (Units=1/GPa)
#
#
# Indices 1 2 3 4 5 6 
#
# 1 0.017120 -0.003359 0.000431 0.000000 -0.007160 0.000000
# 2 -0.003359 0.009702 -0.003948 0.000000 0.001593 0.000000
# 3 0.000431 -0.003948 0.012557 0.000000 -0.003492 0.000000
# 4 0.000000 0.000000 0.000000 0.066466 0.000000 -0.014990
# 5 -0.007160 0.001593 -0.003492 0.000000 0.042588 0.000000
# 6 0.000000 0.000000 0.000000 -0.014990 0.000000 0.050966
#
#
# Mechanical properties :
#
#
# Convention : Reuss Voigt Hill
#
# Bulk Modulus (GPa) = 39.01983 48.58458 43.80221
# Shear Modulus (GPa) = 22.55355 26.97535 24.76445
#
# Velocity S-wave (km/s) = 3.53739 3.86865 3.70672
# Velocity P-wave (km/s) = 6.19137 6.84915 6.52855
#
# Compressibility (1/GPa) = 0.02562799
#
# Stress axis : x y z
#
# Youngs Moduli (GPa) = 58.41250 103.06684 79.63413
#
# Poissons Ratio (x) = 0.34618 -0.03435
# Poissons Ratio (y) = 0.19619 0.31443
# Poissons Ratio (z) = -0.02520 0.40695
#
# Static dielectric constant tensor:
#      x y z
#    x 1.520800 0.000000 0.001040 
#    y 0.000000 1.600020 0.000000 
#    z 0.001040 0.000000 1.650640 
# 
# From -- ./inp_files/349338.got.cif
#   From: 2010.05.17/outbox.cif.g08.bks.cpg/sg12_175_cif.got.tgz:349338.got - 2010.06.03 13:09:07.
