data_PCOD9181823
_publ_section_title
;
Structure prediction by ZEFSAII (Michael W. Deem and Ramdas Pophale) SiO2 
 PCOD9181823
Probable space group: C 2/M
;
_chemical_formula_sum "Si O2"
_cell_formula_units_Z 58
_cell_length_a 13.994956
_cell_length_b 13.556421
_cell_length_c 11.248753
_cell_angle_alpha 90.000000
_cell_angle_beta 94.521932
_cell_angle_gamma 90.000000
_cell_volume 2127.487403
_symmetry_space_group_name_H-M "C 2/M"
_symmetry_group_IT_number 12
_symmetry_cell_setting 'monoclinic'
loop_
_space_group_symop_operation_xyz
x,y,z
-x,y,-z
-x,-y,-z
x,-y,z
1/2+x,1/2+y,z
1/2-x,1/2+y,-z
1/2-x,1/2-y,-z
1/2+x,1/2-y,z
loop_
_atom_site_type_symbol
_atom_site_label
_atom_site_fract_x
_atom_site_fract_y
_atom_site_fract_z
Si Si1 0.000000 0.500000 0.000000
Si Si2 0.743120 0.890970 0.456134
Si Si3 0.454177 0.177674 0.661914
Si Si4 0.970949 0.891594 0.700236
Si Si5 0.609400 0.607274 0.055139
Si Si6 0.333330 0.889714 0.297792
Si Si7 0.366129 0.829259 0.914486
Si Si8 0.822556 0.817401 0.232132
O O1 0.916985 0.412802 0.994806
O O2 0.633195 0.879150 0.404753
O O3 0.738208 0.881238 0.596730
O O4 0.800945 0.822574 0.372374
O O5 0.778478 0.000000 0.431272
O O6 0.452667 0.292703 0.623782
O O7 0.556341 0.128315 0.649878
O O8 0.433161 0.178855 0.801611
O O9 0.075853 0.869917 0.768663
O O10 0.896602 0.893874 0.801797
O O11 0.970691 0.000000 0.643372
O O12 0.652385 0.500000 0.024149
O O13 0.641632 0.719413 0.030455
O O14 0.500000 0.604298 0.000000
O O15 0.319225 0.799363 0.208127
O O16 0.326244 0.000000 0.249735
O O17 0.264350 0.862523 0.849653
#
# Coordination Sequence:
#
# PCOD9181823 Si02
#       8
#     2   8   8   8   8   8   8   8
#     4  12  24  36  58  84 110 136 188 234 268 326
#     4  10  19  32  54  81 108 145 186 223 265 317
#     4   9  19  33  55  81 108 145 186 226 266 319
#     4   9  18  33  54  77 104 141 179 219 274 326
#     4   9  17  35  58  74 100 134 178 225 269 324
#     4  10  20  34  54  81 113 145 179 223 270 322
#     4  10  22  36  56  83 104 144 182 228 278 319
#     4  10  21  35  54  79 112 144 179 220 274 332
#
# _framework density 27.262205999999999
#
# number of rings (size 3 to 8) (size 9 to 14) (size 15 to 20)
#    0.000    2.345    0.690    1.655    5.793    1.655 
#    0.000    2.759    0.000    7.448    0.000    0.000 
#    0.000    0.000    0.000    0.000    0.000    0.000 
#
# Total GULP energy -162056.373898 kJ/mol
# GULP energy per Si atom -5588.150824 kJ/mol
# Density = 2.720016 g / cm^3
# Si number density = 27.262206 Si / 1000 Ang^3
#
#
#
# Elastic Constant Matrix: (Units=GPa)
#
#
# Indices 1 2 3 4 5 6 
#
# 1 93.1758 24.3303 32.5555 0.0000 -1.0311 0.0000
# 2 24.3303 228.4286 38.1342 0.0000 -7.3322 0.0000
# 3 32.5555 38.1342 82.9179 0.0000 -10.3954 0.0000
# 4 0.0000 0.0000 0.0000 13.8428 0.0000 -7.4701
# 5 -1.0311 -7.3322 -10.3954 0.0000 53.0455 0.0000
# 6 0.0000 0.0000 0.0000 -7.4701 0.0000 26.4262
#
#
#
# Elastic Compliance Matrix: (Units=1/GPa)
#
#
# Indices 1 2 3 4 5 6 
#
# 1 0.012534 -0.000565 -0.004757 0.000000 -0.000767 0.000000
# 2 -0.000565 0.004770 -0.001938 0.000000 0.000269 0.000000
# 3 -0.004757 -0.001938 0.015146 0.000000 0.002608 0.000000
# 4 0.000000 0.000000 0.000000 0.085243 0.000000 0.024096
# 5 -0.000767 0.000269 0.002608 0.000000 0.019385 0.000000
# 6 0.000000 0.000000 0.000000 0.024096 0.000000 0.044653
#
#
# Mechanical properties :
#
#
# Convention : Reuss Voigt Hill
#
# Bulk Modulus (GPa) = 55.77662 66.06247 60.91955
# Shear Modulus (GPa) = 24.72447 39.29637 32.01042
#
# Velocity S-wave (km/s) = 3.01477 3.80073 3.43033
# Velocity P-wave (km/s) = 5.71158 6.59891 6.17121
#
# Compressibility (1/GPa) = 0.01792866
#
# Stress axis : x y z
#
# Youngs Moduli (GPa) = 79.78500 209.63765 66.02331
#
# Poissons Ratio (x) = 0.11854 0.31408
# Poissons Ratio (y) = 0.04511 0.12796
# Poissons Ratio (z) = 0.37954 0.40630
#
# Static dielectric constant tensor:
#      x y z
#    x 2.084940 0.000000 -0.032290 
#    y 0.000000 2.069200 0.000000 
#    z -0.032290 0.000000 2.191850 
# 
# From -- ./inp_files/223301.got.cif
#   From: 2010.05.17/outbox.cif.g08.bks.cpg/sg12_112_cif.got.tgz:223301.got - 2010.06.03 13:09:07.
