data_PCOD9181344
_publ_section_title
;
Structure prediction by ZEFSAII (Michael W. Deem and Ramdas Pophale) SiO2 
 PCOD9181344
Probable space group: C 2/M
;
_chemical_formula_sum "Si O2"
_cell_formula_units_Z 48
_cell_length_a 26.693320
_cell_length_b 19.591669
_cell_length_c 13.961660
_cell_angle_alpha 90.000000
_cell_angle_beta 16.195876
_cell_angle_gamma 90.000000
_cell_volume 2036.544171
_symmetry_space_group_name_H-M "C 2/M"
_symmetry_group_IT_number 12
_symmetry_cell_setting 'monoclinic'
loop_
_space_group_symop_operation_xyz
x,y,z
-x,y,-z
-x,-y,-z
x,-y,z
1/2+x,1/2+y,z
1/2-x,1/2+y,-z
1/2-x,1/2-y,-z
1/2+x,1/2-y,z
loop_
_atom_site_type_symbol
_atom_site_label
_atom_site_fract_x
_atom_site_fract_y
_atom_site_fract_z
Si Si1 0.369816 0.678354 0.833552
Si Si2 0.742930 0.000000 0.631498
Si Si3 0.444827 0.766608 0.990941
Si Si4 0.332294 0.370141 0.582006
Si Si5 0.722365 0.145892 0.355921
Si Si6 0.177806 0.500000 0.530906
Si Si7 0.592438 0.836769 0.197100
O O1 0.500000 0.684489 0.500000
O O2 0.478738 0.636681 0.711676
O O3 0.361245 0.755390 0.891443
O O4 0.187535 0.647757 0.123523
O O5 0.828694 0.933389 0.519079
O O6 0.761707 0.000000 0.482981
O O7 0.535255 0.000000 0.050376
O O8 0.261398 0.807200 0.301513
O O9 0.404029 0.689850 0.030338
O O10 0.500000 0.764389 0.000000
O O11 0.593110 0.813541 0.667861
O O12 0.197284 0.377334 0.921573
O O13 0.728433 0.068157 0.379663
O O14 0.613951 0.154605 0.455077
#
# Coordination Sequence:
#
# PCOD9181344 Si02
#       7
#     8   4   8   8   8   4   8
#     4   9  17  31  50  78 115 140 182 240 303 338
#     4  11  20  34  54  79 118 158 192 234 301 351
#     4  11  21  35  57  89 116 150 200 253 287 343
#     4  10  19  32  52  82 114 145 193 239 290 340
#     4  11  22  38  61  88 120 155 201 244 298 351
#     4  11  22  38  58  84 123 164 193 237 304 359
#     4   9  17  30  51  80 109 145 184 238 295 344
#
# _framework density 23.569338999999999
#
# number of rings (size 3 to 8) (size 9 to 14) (size 15 to 20)
#    0.000    1.833    5.000    1.500    0.000    0.000 
#    0.000    5.000    0.000    2.000    0.000    2.333 
#    0.000    0.000    0.000    0.000    0.000    0.000 
#
# Total GULP energy -134152.044203 kJ/mol
# GULP energy per Si atom -5589.668508 kJ/mol
# Density = 2.351569 g / cm^3
# Si number density = 23.569339 Si / 1000 Ang^3
#
#
#
# Elastic Constant Matrix: (Units=GPa)
#
#
# Indices 1 2 3 4 5 6 
#
# 1 207.4468 67.4453 28.4001 0.0043 -39.8126 -0.0005
# 2 67.4453 157.3271 11.8735 0.0027 -12.0935 -0.0007
# 3 28.4001 11.8735 90.7230 0.0107 -6.2865 -0.0056
# 4 0.0043 0.0027 0.0107 13.2691 -0.0077 -4.1204
# 5 -39.8126 -12.0935 -6.2865 -0.0077 32.6549 0.0033
# 6 -0.0005 -0.0007 -0.0056 -4.1204 0.0033 31.9062
#
#
#
# Elastic Compliance Matrix: (Units=1/GPa)
#
#
# Indices 1 2 3 4 5 6 
#
# 1 0.007283 -0.002422 -0.001429 0.000004 0.007707 -0.000001
# 2 -0.002422 0.007392 -0.000227 -0.000001 -0.000259 0.000000
# 3 -0.001429 -0.000227 0.011527 -0.000008 0.000393 0.000001
# 4 0.000004 -0.000001 -0.000008 0.078511 0.000020 0.010139
# 5 0.007707 -0.000259 0.000393 0.000020 0.039999 -0.000001
# 6 -0.000001 0.000000 0.000001 0.010139 -0.000001 0.032651
#
#
# Mechanical properties :
#
#
# Convention : Reuss Voigt Hill
#
# Bulk Modulus (GPa) = 55.41540 74.54830 64.98185
# Shear Modulus (GPa) = 26.10511 38.75124 32.42818
#
# Velocity S-wave (km/s) = 3.33165 4.05920 3.71329
# Velocity P-wave (km/s) = 6.19375 7.32581 6.78344
#
# Compressibility (1/GPa) = 0.01804553
#
# Stress axis : x y z
#
# Youngs Moduli (GPa) = 137.31423 135.28821 86.75437
#
# Poissons Ratio (x) = 0.32763 0.12395
# Poissons Ratio (y) = 0.33254 0.01971
# Poissons Ratio (z) = 0.19619 0.03074
#
# Static dielectric constant tensor:
#      x y z
#    x 1.881350 0.000000 0.052140 
#    y 0.000000 1.824190 0.000000 
#    z 0.052140 0.000000 2.056600 
# 
# From -- ./inp_files/296868.got.cif
#   From: 2010.05.17/outbox.cif.g08.bks.cpg/sg12_149_cif.got.tgz:296868.got - 2010.06.03 13:09:07.
