data_PCOD9181326
_publ_section_title
;
Structure prediction by ZEFSAII (Michael W. Deem and Ramdas Pophale) SiO2 
 PCOD9181326
Probable space group: C 2/M
;
_chemical_formula_sum "Si O2"
_cell_formula_units_Z 40
_cell_length_a 20.614591
_cell_length_b 8.860598
_cell_length_c 13.013003
_cell_angle_alpha 90.000000
_cell_angle_beta 103.680208
_cell_angle_gamma 90.000000
_cell_volume 2309.492692
_symmetry_space_group_name_H-M "C 2/M"
_symmetry_group_IT_number 12
_symmetry_cell_setting 'monoclinic'
loop_
_space_group_symop_operation_xyz
x,y,z
-x,y,-z
-x,-y,-z
x,-y,z
1/2+x,1/2+y,z
1/2-x,1/2+y,-z
1/2-x,1/2-y,-z
1/2+x,1/2-y,z
loop_
_atom_site_type_symbol
_atom_site_label
_atom_site_fract_x
_atom_site_fract_y
_atom_site_fract_z
Si Si1 0.181858 0.320183 0.929532
Si Si2 0.078013 0.178248 0.046405
Si Si3 0.677544 0.180975 0.498523
Si Si4 0.804846 0.820059 0.284986
Si Si5 0.853560 0.320539 0.736529
O O1 0.187732 0.500000 0.930038
O O2 0.172261 0.256167 0.811543
O O3 0.250000 0.250000 0.000000
O O4 0.122522 0.268915 0.981746
O O5 0.101494 0.228962 0.168075
O O6 0.090584 0.000000 0.037770
O O7 0.000000 0.207288 0.000000
O O8 0.750000 0.250000 0.500000
O O9 0.840706 0.247757 0.399061
O O10 0.635426 0.214834 0.379893
O O11 0.682663 0.000000 0.509016
O O12 0.724825 0.790744 0.267226
O O13 0.813439 0.000000 0.284581
O O14 0.863800 0.500000 0.755057
#
# Coordination Sequence:
#
# PCOD9181326 Si02
#       5
#     8   8   8   8   8
#     4  12  23  36  57  82 111 146 183 228 279 327
#     4  11  24  39  56  80 111 148 188 228 274 329
#     4   9  17  29  47  75 109 142 179 222 272 325
#     4  10  19  32  52  81 112 141 179 224 274 328
#     4   9  18  32  52  77 108 145 183 223 269 325
#
# _framework density 17.319821999999998
#
# number of rings (size 3 to 8) (size 9 to 14) (size 15 to 20)
#    0.000    1.800    2.000    4.800    0.000    5.600 
#    0.000    0.000    0.000    1.200    0.000    8.400 
#    0.000    0.000    0.000    0.000    0.000    0.000 
#
# Total GULP energy -111616.005716 kJ/mol
# GULP energy per Si atom -5580.800286 kJ/mol
# Density = 1.728040 g / cm^3
# Si number density = 17.319822 Si / 1000 Ang^3
#
#
#
# Elastic Constant Matrix: (Units=GPa)
#
#
# Indices 1 2 3 4 5 6 
#
# 1 40.0247 47.1483 45.2616 0.0000 -0.8209 0.0000
# 2 47.1483 109.6309 85.9939 0.0000 1.1304 0.0000
# 3 45.2616 85.9939 179.3123 0.0000 -11.5175 0.0000
# 4 0.0000 0.0000 0.0000 37.4845 0.0000 -2.4900
# 5 -0.8209 1.1304 -11.5175 0.0000 16.0973 0.0000
# 6 0.0000 0.0000 0.0000 -2.4900 0.0000 20.6083
#
#
#
# Elastic Compliance Matrix: (Units=1/GPa)
#
#
# Indices 1 2 3 4 5 6 
#
# 1 0.052288 -0.019586 -0.003717 0.000000 0.001383 0.000000
# 2 -0.019586 0.022602 -0.006354 0.000000 -0.007132 0.000000
# 3 -0.003717 -0.006354 0.010040 0.000000 0.007440 0.000000
# 4 0.000000 0.000000 0.000000 0.026894 0.000000 0.003249
# 5 0.001383 -0.007132 0.007440 0.000000 0.068017 0.000000
# 6 0.000000 0.000000 0.000000 0.003249 0.000000 0.048917
#
#
# Mechanical properties :
#
#
# Convention : Reuss Voigt Hill
#
# Bulk Modulus (GPa) = 39.03625 76.19728 57.61676
# Shear Modulus (GPa) = 16.85723 24.87562 20.86642
#
# Velocity S-wave (km/s) = 3.12315 3.79390 3.47475
# Velocity P-wave (km/s) = 5.96597 7.95496 7.03115
#
# Compressibility (1/GPa) = 0.02561722
#
# Stress axis : x y z
#
# Youngs Moduli (GPa) = 19.12496 44.24367 99.60227
#
# Poissons Ratio (x) = 0.86656 0.37017
# Poissons Ratio (y) = 0.37458 0.63284
# Poissons Ratio (z) = 0.07108 0.28111
#
# Static dielectric constant tensor:
#      x y z
#    x 1.534630 0.000000 0.014430 
#    y 0.000000 1.573390 0.000000 
#    z 0.014430 0.000000 1.594920 
# 
# From -- ./inp_files/228919.got.cif
#   From: 2010.05.17/outbox.cif.g08.bks.cpg/sg12_115_cif.got.tgz:228919.got - 2010.06.03 13:09:07.
