data_PCOD9181324
_publ_section_title
;
Structure prediction by ZEFSAII (Michael W. Deem and Ramdas Pophale) SiO2 
 PCOD9181324
Probable space group: C 2/M
;
_chemical_formula_sum "Si O2"
_cell_formula_units_Z 56
_cell_length_a 31.184433
_cell_length_b 8.782922
_cell_length_c 20.120053
_cell_angle_alpha 90.000000
_cell_angle_beta 35.789820
_cell_angle_gamma 90.000000
_cell_volume 3222.726369
_symmetry_space_group_name_H-M "C 2/M"
_symmetry_group_IT_number 12
_symmetry_cell_setting 'monoclinic'
loop_
_space_group_symop_operation_xyz
x,y,z
-x,y,-z
-x,-y,-z
x,-y,z
1/2+x,1/2+y,z
1/2-x,1/2+y,-z
1/2-x,1/2-y,-z
1/2+x,1/2-y,z
loop_
_atom_site_type_symbol
_atom_site_label
_atom_site_fract_x
_atom_site_fract_y
_atom_site_fract_z
Si Si1 0.501146 0.816912 0.836353
Si Si2 0.642248 0.318618 0.913255
Si Si3 0.946730 0.816551 0.506805
Si Si4 0.824507 0.317242 0.876853
Si Si5 0.419251 0.824972 0.135435
Si Si6 0.305964 0.182914 0.746286
Si Si7 0.522636 0.317179 0.273397
O O1 0.563417 0.771132 0.811760
O O2 0.511977 0.749061 0.750047
O O3 0.499706 0.000000 0.836662
O O4 0.422889 0.759116 0.963023
O O5 0.635872 0.500000 0.929768
O O6 0.629940 0.274243 0.851678
O O7 0.722656 0.269010 0.835965
O O8 0.866102 0.754193 0.622447
O O9 0.000000 0.764687 0.500000
O O10 0.979708 0.770493 0.394277
O O11 0.944998 0.000000 0.510715
O O12 0.824994 0.500000 0.882722
O O13 0.826719 0.277159 0.795894
O O14 0.895014 0.246513 0.823691
O O15 0.750000 0.250000 0.000000
O O16 0.393002 0.000000 0.169256
O O17 0.500000 0.826501 0.000000
O O18 0.308475 0.000000 0.737270
O O19 0.524837 0.500000 0.267483
#
# Coordination Sequence:
#
# PCOD9181324 Si02
#       7
#     8   8   8   8   8   8   8
#     4  10  20  34  53  79 109 142 177 213 262 318
#     4  10  19  32  52  81 112 140 174 216 263 313
#     4  10  21  38  57  76  99 134 179 222 265 311
#     4  11  22  35  52  76 107 142 174 209 259 312
#     4   8  16  31  50  75 107 140 175 212 256 317
#     4  10  22  36  52  76 105 137 175 217 258 308
#     4  11  22  36  54  77 105 135 175 222 263 312
#
# _framework density 17.376591000000001
#
# number of rings (size 3 to 8) (size 9 to 14) (size 15 to 20)
#    0.000    2.000    1.429    3.429    0.000    7.429 
#    0.000    0.000    0.000    0.857    0.000    0.000 
#    0.000    0.000    0.000    0.000    0.000    0.000 
#
# Total GULP energy -156277.130633 kJ/mol
# GULP energy per Si atom -5581.326094 kJ/mol
# Density = 1.733704 g / cm^3
# Si number density = 17.376591 Si / 1000 Ang^3
#
#
#
# Elastic Constant Matrix: (Units=GPa)
#
#
# Indices 1 2 3 4 5 6 
#
# 1 75.3391 16.7036 8.6707 -0.0009 30.6741 0.0017
# 2 16.7036 31.1605 13.1338 -0.0038 10.5691 0.0028
# 3 8.6707 13.1338 67.3975 -0.0066 23.0754 0.0041
# 4 -0.0009 -0.0038 -0.0066 27.5052 0.0017 0.9641
# 5 30.6741 10.5691 23.0754 0.0017 28.5047 -0.0002
# 6 0.0017 0.0028 0.0041 0.9641 -0.0002 29.9843
#
#
#
# Elastic Compliance Matrix: (Units=1/GPa)
#
#
# Indices 1 2 3 4 5 6 
#
# 1 0.028393 -0.007253 0.010100 0.000005 -0.036041 -0.000003
# 2 -0.007253 0.039150 -0.006085 0.000004 -0.001786 -0.000002
# 3 0.010100 -0.006085 0.024449 0.000007 -0.028405 -0.000004
# 4 0.000005 0.000004 0.000007 0.036398 -0.000015 -0.001170
# 5 -0.036041 -0.001786 -0.028405 -0.000015 0.097523 0.000007
# 6 -0.000003 -0.000002 -0.000004 -0.001170 0.000007 0.033388
#
#
# Mechanical properties :
#
#
# Convention : Reuss Voigt Hill
#
# Bulk Modulus (GPa) = 11.69350 27.87928 19.78639
# Shear Modulus (GPa) = 16.99056 26.22476 21.60766
#
# Velocity S-wave (km/s) = 3.13035 3.88906 3.53014
# Velocity P-wave (km/s) = 4.45079 6.02041 5.29409
#
# Compressibility (1/GPa) = 0.08551757
#
# Stress axis : x y z
#
# Youngs Moduli (GPa) = 35.22005 25.54270 40.90172
#
# Poissons Ratio (x) = 0.18525 -0.41312
# Poissons Ratio (y) = 0.25544 0.24887
# Poissons Ratio (z) = -0.35573 0.15542
#
# Static dielectric constant tensor:
#      x y z
#    x 1.605510 0.000000 0.024990 
#    y 0.000000 1.584470 0.000000 
#    z 0.024990 0.000000 1.568200 
# 
# From -- ./inp_files/287863.got.cif
#   From: 2010.05.17/outbox.cif.g08.bks.cpg/sg12_144_cif.got.tgz:287863.got - 2010.06.03 13:09:07.
