data_PCOD9181361
_publ_section_title
;
Structure prediction by ZEFSAII (Michael W. Deem and Ramdas Pophale) SiO2 
 PCOD9181361
Probable space group: C 2/M
;
_chemical_formula_sum "Si O2"
_cell_formula_units_Z 56
_cell_length_a 16.709310
_cell_length_b 18.841294
_cell_length_c 26.043293
_cell_angle_alpha 90.000000
_cell_angle_beta 160.465522
_cell_angle_gamma 90.000000
_cell_volume 2741.559584
_symmetry_space_group_name_H-M "C 2/M"
_symmetry_group_IT_number 12
_symmetry_cell_setting 'monoclinic'
loop_
_space_group_symop_operation_xyz
x,y,z
-x,y,-z
-x,-y,-z
x,-y,z
1/2+x,1/2+y,z
1/2-x,1/2+y,-z
1/2-x,1/2-y,-z
1/2+x,1/2-y,z
loop_
_atom_site_type_symbol
_atom_site_label
_atom_site_fract_x
_atom_site_fract_y
_atom_site_fract_z
Si Si1 0.410963 0.584089 0.026250
Si Si2 0.321729 0.785062 0.437838
Si Si3 0.977507 0.201514 0.143163
Si Si4 0.218591 0.579576 0.524640
Si Si5 0.148763 0.227960 0.709600
Si Si6 0.863673 0.637883 0.233467
Si Si7 0.760848 0.420502 0.821236
O O1 0.378614 0.500000 0.010241
O O2 0.427174 0.622979 0.090916
O O3 0.654524 0.601213 0.141812
O O4 0.203581 0.619420 0.865433
O O5 0.500000 0.765285 0.500000
O O6 0.377155 0.863079 0.493250
O O7 0.387957 0.733678 0.524864
O O8 0.070541 0.791345 0.257472
O O9 0.172548 0.233289 0.221609
O O10 0.750000 0.250000 0.000000
O O11 0.141610 0.500000 0.489789
O O12 0.506780 0.582271 0.697702
O O13 0.106155 0.603573 0.402202
O O14 0.146793 0.278396 0.758698
O O15 0.238249 0.148818 0.772467
O O16 0.768861 0.500000 0.802206
O O17 0.000000 0.413829 0.000000
#
# Coordination Sequence:
#
# PCOD9181361 Si02
#       7
#     8   8   8   8   8   8   8
#     4  10  19  32  52  83 118 144 173 225 278 330
#     4   9  20  37  53  81 110 141 186 224 268 331
#     4  10  22  35  53  77 105 148 191 223 262 324
#     4  10  20  34  55  82 113 148 182 222 277 334
#     4   9  20  37  58  76 108 142 178 230 281 322
#     4   9  18  32  56  87 110 141 175 220 283 346
#     4  10  23  38  55  83 112 142 186 238 284 326
#
# _framework density 20.426328999999999
#
# number of rings (size 3 to 8) (size 9 to 14) (size 15 to 20)
#    0.000    2.429    0.000    2.571    6.000    4.286 
#    0.000    0.714    0.000    3.857    0.000    0.000 
#    0.000    0.000    0.000    0.000    0.000    0.000 
#
# Total GULP energy -156110.878657 kJ/mol
# GULP energy per Si atom -5575.388523 kJ/mol
# Density = 2.037984 g / cm^3
# Si number density = 20.426329 Si / 1000 Ang^3
#
#
#
# Elastic Constant Matrix: (Units=GPa)
#
#
# Indices 1 2 3 4 5 6 
#
# 1 21.7605 27.9717 23.2063 0.0040 -9.9062 0.0044
# 2 27.9717 163.6658 55.6832 0.0218 -34.2085 0.0049
# 3 23.2063 55.6832 133.7736 0.0476 -29.2917 0.0158
# 4 0.0040 0.0218 0.0476 20.7417 -0.0060 -0.8180
# 5 -9.9062 -34.2085 -29.2917 -0.0060 27.2607 -0.0048
# 6 0.0044 0.0049 0.0158 -0.8180 -0.0048 18.2023
#
#
#
# Elastic Compliance Matrix: (Units=1/GPa)
#
#
# Indices 1 2 3 4 5 6 
#
# 1 0.066102 -0.007452 -0.006738 0.000013 0.007429 -0.000006
# 2 -0.007452 0.009370 -0.000818 -0.000004 0.008171 0.000002
# 3 -0.006738 -0.000818 0.010754 -0.000020 0.008080 -0.000006
# 4 0.000013 -0.000004 -0.000020 0.048298 -0.000012 0.002171
# 5 0.007429 0.008171 0.008080 -0.000012 0.058317 0.000004
# 6 -0.000006 0.000002 -0.000006 0.002171 0.000004 0.055036
#
#
# Mechanical properties :
#
#
# Convention : Reuss Voigt Hill
#
# Bulk Modulus (GPa) = 17.79099 59.21357 38.50228
# Shear Modulus (GPa) = 16.85602 27.39684 22.12643
#
# Velocity S-wave (km/s) = 2.87576 3.66628 3.29482
# Velocity P-wave (km/s) = 4.44471 6.85375 5.77622
#
# Compressibility (1/GPa) = 0.05620821
#
# Stress axis : x y z
#
# Youngs Moduli (GPa) = 15.12817 106.72585 92.98796
#
# Poissons Ratio (x) = 0.79532 0.62659
# Poissons Ratio (y) = 0.11273 0.07610
# Poissons Ratio (z) = 0.10194 0.08734
#
# Static dielectric constant tensor:
#      x y z
#    x 1.746670 0.000000 0.011230 
#    y 0.000000 1.714630 -0.000030 
#    z 0.011230 -0.000030 1.834640 
# 
# From -- ./inp_files/364486.got.cif
#   From: 2010.05.17/outbox.cif.g08.bks.cpg/sg12_183_cif.got.tgz:364486.got - 2010.06.03 13:09:07.
