data_PCOD9181390
_publ_section_title
;
Structure prediction by ZEFSAII (Michael W. Deem and Ramdas Pophale) SiO2 
 PCOD9181390
Probable space group: C 2/M
;
_chemical_formula_sum "Si O2"
_cell_formula_units_Z 48
_cell_length_a 19.844023
_cell_length_b 24.093741
_cell_length_c 13.039337
_cell_angle_alpha 90.000000
_cell_angle_beta 154.628222
_cell_angle_gamma 90.000000
_cell_volume 2671.346906
_symmetry_space_group_name_H-M "C 2/M"
_symmetry_group_IT_number 12
_symmetry_cell_setting 'monoclinic'
loop_
_space_group_symop_operation_xyz
x,y,z
-x,y,-z
-x,-y,-z
x,-y,z
1/2+x,1/2+y,z
1/2-x,1/2+y,-z
1/2-x,1/2-y,-z
1/2+x,1/2-y,z
loop_
_atom_site_type_symbol
_atom_site_label
_atom_site_fract_x
_atom_site_fract_y
_atom_site_fract_z
Si Si1 0.230485 0.437523 0.796037
Si Si2 0.095361 0.063406 0.370164
Si Si3 0.024602 0.837606 0.412271
Si Si4 0.688067 0.171939 0.841602
Si Si5 0.638239 0.780464 0.548641
Si Si6 0.818193 0.122680 0.713926
O O1 0.171862 0.500000 0.721391
O O2 0.153792 0.392097 0.764918
O O3 0.232097 0.413853 0.682883
O O4 0.413925 0.438736 0.082329
O O5 0.093529 0.105048 0.463490
O O6 0.186213 0.092208 0.400847
O O7 0.145491 0.000000 0.458826
O O8 0.132669 0.785355 0.530187
O O9 0.000000 0.838366 0.500000
O O10 0.853574 0.827042 0.126313
O O11 0.542422 0.198085 0.701391
O O12 0.697555 0.203602 0.745214
O O13 0.740501 0.816672 0.611440
O O14 0.000000 0.127349 0.000000
#
# Coordination Sequence:
#
# PCOD9181390 Si02
#       6
#     8   8   8   8   8   8
#     4   8  14  27  50  74 100 130 161 206 259 302
#     4   9  18  32  49  72 100 131 173 212 241 289
#     4  11  21  33  55  76 101 136 169 207 254 294
#     4   9  18  33  49  78 107 128 164 209 253 306
#     4  10  19  32  53  76 106 132 160 206 261 304
#     4   9  17  31  50  75 104 131 164 205 256 303
#
# _framework density 17.968463
#
# number of rings (size 3 to 8) (size 9 to 14) (size 15 to 20)
#    0.000    2.667    1.667    2.000    0.000    3.000 
#    0.000    7.500    0.000    0.000    0.000    1.167 
#    0.000    0.000    0.000    0.000    0.000    0.000 
#
# Total GULP energy -133796.354056 kJ/mol
# GULP energy per Si atom -5574.848086 kJ/mol
# Density = 1.792757 g / cm^3
# Si number density = 17.968463 Si / 1000 Ang^3
#
#
#
# Elastic Constant Matrix: (Units=GPa)
#
#
# Indices 1 2 3 4 5 6 
#
# 1 42.9868 62.0457 10.9999 0.0000 4.5023 0.0000
# 2 62.0457 174.7611 26.5023 0.0000 -6.0483 0.0000
# 3 10.9999 26.5023 48.2907 0.0000 -9.0789 0.0000
# 4 0.0000 0.0000 0.0000 15.2153 0.0000 -4.4756
# 5 4.5023 -6.0483 -9.0789 0.0000 15.1449 0.0000
# 6 0.0000 0.0000 0.0000 -4.4756 0.0000 12.1195
#
#
#
# Elastic Compliance Matrix: (Units=1/GPa)
#
#
# Indices 1 2 3 4 5 6 
#
# 1 0.057762 -0.020391 -0.007580 0.000000 -0.029859 0.000000
# 2 -0.020391 0.013443 -0.000658 0.000000 0.011036 0.000000
# 3 -0.007580 -0.000658 0.026113 0.000000 0.017644 0.000000
# 4 0.000000 0.000000 0.000000 0.073733 0.000000 0.027229
# 5 -0.029859 0.011036 0.017644 0.000000 0.089890 0.000000
# 6 0.000000 0.000000 0.000000 0.027229 0.000000 0.092567
#
#
# Mechanical properties :
#
#
# Convention : Reuss Voigt Hill
#
# Bulk Modulus (GPa) = 24.96293 51.68160 38.32227
# Shear Modulus (GPa) = 11.78912 19.59531 15.69222
#
# Velocity S-wave (km/s) = 2.56423 3.30591 2.95840
# Velocity P-wave (km/s) = 4.76338 6.58763 5.74834
#
# Compressibility (1/GPa) = 0.04005939
#
# Stress axis : x y z
#
# Youngs Moduli (GPa) = 17.31245 74.38613 38.29508
#
# Poissons Ratio (x) = 1.51682 0.29028
# Poissons Ratio (y) = 0.35302 0.02521
# Poissons Ratio (z) = 0.13123 0.04896
#
# Static dielectric constant tensor:
#      x y z
#    x 1.609170 0.000000 0.015570 
#    y 0.000000 1.648860 0.000000 
#    z 0.015570 0.000000 1.616860 
# 
# From -- ./inp_files/160506.got.cif
#   From: 2010.05.17/outbox.cif.g08.bks.cpg/sg12_81_cif.got.tgz:160506.got - 2010.06.03 13:09:07.
