data_PCOD9181690
_publ_section_title
;
Structure prediction by ZEFSAII (Michael W. Deem and Ramdas Pophale) SiO2 
 PCOD9181690
Probable space group: C 2/M
;
_chemical_formula_sum "Si O2"
_cell_formula_units_Z 64
_cell_length_a 21.315200
_cell_length_b 15.695267
_cell_length_c 22.504661
_cell_angle_alpha 90.000000
_cell_angle_beta 152.368411
_cell_angle_gamma 90.000000
_cell_volume 3491.780047
_symmetry_space_group_name_H-M "C 2/M"
_symmetry_group_IT_number 12
_symmetry_cell_setting 'monoclinic'
loop_
_space_group_symop_operation_xyz
x,y,z
-x,y,-z
-x,-y,-z
x,-y,z
1/2+x,1/2+y,z
1/2-x,1/2+y,-z
1/2-x,1/2-y,-z
1/2+x,1/2-y,z
loop_
_atom_site_type_symbol
_atom_site_label
_atom_site_fract_x
_atom_site_fract_y
_atom_site_fract_z
Si Si1 0.477013 0.292633 0.718163
Si Si2 0.369317 0.094642 0.021460
Si Si3 0.637534 0.186115 0.268529
Si Si4 0.877793 0.099162 0.534263
Si Si5 0.672826 0.596994 0.963077
Si Si6 0.731921 0.767983 0.863152
Si Si7 0.389827 0.598375 0.360311
Si Si8 0.651589 0.772094 0.154051
O O1 0.413421 0.233182 0.715000
O O2 0.374810 0.343777 0.590558
O O3 0.580614 0.241268 0.761988
O O4 0.563482 0.363056 0.826662
O O5 0.526667 0.116105 0.156646
O O6 0.308723 0.095999 0.037151
O O7 0.341810 0.000000 0.973389
O O8 0.299778 0.175103 0.931483
O O9 0.775533 0.139333 0.401051
O O10 0.643512 0.250129 0.217169
O O11 0.029238 0.103021 0.634042
O O12 0.846144 0.000000 0.518151
O O13 0.641287 0.500000 0.953680
O O14 0.694129 0.661810 0.034677
O O15 0.762366 0.785749 0.819635
O O16 0.500000 0.634049 0.500000
O O17 0.368907 0.500000 0.358661
O O18 0.246876 0.644357 0.237249
O O19 0.500000 0.781535 0.000000
#
# Coordination Sequence:
#
# PCOD9181690 Si02
#       8
#     8   8   8   8   8   8   8   8
#     4  11  20  38  59  81 113 151 195 240 293 346
#     4  10  19  32  53  84 117 148 180 226 290 347
#     4  12  22  37  55  82 120 153 189 245 295 338
#     4  11  23  37  57  83 113 156 203 235 279 354
#     4  10  19  35  61  83 110 150 192 243 301 348
#     4  11  20  38  56  82 118 152 192 239 287 354
#     4  10  21  38  54  75 118 164 194 225 278 348
#     4  12  23  36  56  86 116 156 195 243 286 343
#
# _framework density 18.328761
#
# number of rings (size 3 to 8) (size 9 to 14) (size 15 to 20)
#    0.000    1.125    6.250    1.875    0.000    1.750 
#    0.000    0.000    0.000    4.125    0.000    0.000 
#    0.000    2.500    0.000    0.000    0.000    0.000 
#
# Total GULP energy -178443.480631 kJ/mol
# GULP energy per Si atom -5576.358770 kJ/mol
# Density = 1.828704 g / cm^3
# Si number density = 18.328761 Si / 1000 Ang^3
#
#
#
# Elastic Constant Matrix: (Units=GPa)
#
#
# Indices 1 2 3 4 5 6 
#
# 1 93.1284 9.7434 21.1802 0.0007 3.3999 0.0008
# 2 9.7434 46.0464 7.1459 0.0014 2.4746 0.0013
# 3 21.1802 7.1459 69.4515 0.0007 -0.3572 0.0009
# 4 0.0007 0.0014 0.0007 18.6341 0.0003 1.6704
# 5 3.3999 2.4746 -0.3572 0.0003 24.3189 0.0006
# 6 0.0008 0.0013 0.0009 1.6704 0.0006 9.6244
#
#
#
# Elastic Compliance Matrix: (Units=1/GPa)
#
#
# Indices 1 2 3 4 5 6 
#
# 1 0.011763 -0.001880 -0.003402 0.000000 -0.001503 0.000000
# 2 -0.001880 0.022497 -0.001752 -0.000001 -0.002052 -0.000002
# 3 -0.003402 -0.001752 0.015621 0.000000 0.000883 -0.000001
# 4 0.000000 -0.000001 0.000000 0.054513 0.000000 -0.009462
# 5 -0.001503 -0.002052 0.000883 0.000000 0.041552 -0.000002
# 6 0.000000 -0.000002 -0.000001 -0.009462 -0.000002 0.105545
#
#
# Mechanical properties :
#
#
# Convention : Reuss Voigt Hill
#
# Bulk Modulus (GPa) = 27.92254 31.64061 29.78158
# Shear Modulus (GPa) = 18.01823 21.88593 19.95208
#
# Velocity S-wave (km/s) = 3.13878 3.45929 3.30292
# Velocity P-wave (km/s) = 5.32947 5.76679 5.55244
#
# Compressibility (1/GPa) = 0.03581336
#
# Stress axis : x y z
#
# Youngs Moduli (GPa) = 85.01160 44.44982 64.01770
#
# Poissons Ratio (x) = 0.08358 0.21776
# Poissons Ratio (y) = 0.15986 0.11215
# Poissons Ratio (z) = 0.28917 0.07787
#
# Static dielectric constant tensor:
#      x y z
#    x 1.712520 0.000000 -0.012170 
#    y 0.000000 1.612740 0.000000 
#    z -0.012170 0.000000 1.655040 
# 
# From -- ./inp_files/322460.got.cif
#   From: 2010.05.17/outbox.cif.g08.bks.cpg/sg12_162_cif.got.tgz:322460.got - 2010.06.03 13:09:07.
