data_PCOD9181101
_publ_section_title
;
Structure prediction by ZEFSAII (Michael W. Deem and Ramdas Pophale) SiO2 
 PCOD9181101
Probable space group: C 2/M
;
_chemical_formula_sum "Si O2"
_cell_formula_units_Z 64
_cell_length_a 13.585829
_cell_length_b 13.777087
_cell_length_c 17.563652
_cell_angle_alpha 90.000000
_cell_angle_beta 99.953583
_cell_angle_gamma 90.000000
_cell_volume 3237.961782
_symmetry_space_group_name_H-M "C 2/M"
_symmetry_group_IT_number 12
_symmetry_cell_setting 'monoclinic'
loop_
_space_group_symop_operation_xyz
x,y,z
-x,y,-z
-x,-y,-z
x,-y,z
1/2+x,1/2+y,z
1/2-x,1/2+y,-z
1/2-x,1/2-y,-z
1/2+x,1/2-y,z
loop_
_atom_site_type_symbol
_atom_site_label
_atom_site_fract_x
_atom_site_fract_y
_atom_site_fract_z
Si Si1 0.436592 0.882861 0.130183
Si Si2 0.847889 0.717375 0.843099
Si Si3 0.406185 0.389574 0.941430
Si Si4 0.334263 0.890752 0.696857
Si Si5 0.290324 0.390530 0.474571
Si Si6 0.390779 0.806260 0.455103
Si Si7 0.571092 0.114693 0.701259
Si Si8 0.786388 0.388831 0.978236
O O1 0.546538 0.839732 0.137385
O O2 0.394795 0.856295 0.208667
O O3 0.441769 0.000000 0.130865
O O4 0.369718 0.854207 0.049537
O O5 0.873855 0.827742 0.864638
O O6 0.806615 0.688513 0.755882
O O7 0.782728 0.676934 0.903736
O O8 0.430483 0.500000 0.923054
O O9 0.500000 0.347414 0.000000
O O10 0.315361 0.390084 0.988412
O O11 0.265258 0.886530 0.614282
O O12 0.449906 0.877489 0.688201
O O13 0.327034 0.000000 0.729371
O O14 0.328705 0.500000 0.491940
O O15 0.370178 0.303604 0.481435
O O16 0.202230 0.366205 0.522712
O O17 0.500000 0.838740 0.500000
O O18 0.391457 0.822328 0.364389
O O19 0.594620 0.000000 0.692293
O O20 0.810495 0.500000 0.959136
#
# Coordination Sequence:
#
# PCOD9181101 Si02
#       8
#     8   8   8   8   8   8   8   8
#     4   9  18  31  51  84 113 130 161 224 291 329
#     4  11  19  31  55  80 105 135 174 222 273 324
#     4  10  22  37  49  66  98 143 192 230 260 311
#     4   9  18  34  56  83 112 138 171 223 281 331
#     4  10  22  38  57  87 121 150 185 232 283 333
#     4  11  21  35  61  87 111 149 197 228 275 342
#     4   9  17  31  54  83 112 142 178 227 279 330
#     4  10  19  32  52  76 103 135 176 224 276 324
#
# _framework density 19.765521
#
# number of rings (size 3 to 8) (size 9 to 14) (size 15 to 20)
#    0.000    2.125    1.250    3.750    0.000    2.750 
#    0.000    1.250    0.000    9.000    0.000    0.000 
#    0.000    0.000    0.000    0.000    0.000    0.000 
#
# Total GULP energy -178653.554339 kJ/mol
# GULP energy per Si atom -5582.923573 kJ/mol
# Density = 1.972053 g / cm^3
# Si number density = 19.765521 Si / 1000 Ang^3
#
#
#
# Elastic Constant Matrix: (Units=GPa)
#
#
# Indices 1 2 3 4 5 6 
#
# 1 28.7844 -3.1439 -1.4175 0.0000 -7.2222 0.0000
# 2 -3.1439 69.4387 18.2822 0.0000 -19.7186 0.0000
# 3 -1.4175 18.2822 58.5778 0.0000 -19.9032 0.0000
# 4 0.0000 0.0000 0.0000 26.6430 0.0000 -1.5907
# 5 -7.2222 -19.7186 -19.9032 0.0000 22.5553 0.0000
# 6 0.0000 0.0000 0.0000 -1.5907 0.0000 11.7947
#
#
#
# Elastic Compliance Matrix: (Units=1/GPa)
#
#
# Indices 1 2 3 4 5 6 
#
# 1 0.042849 0.007629 0.007975 0.000000 0.027427 0.000000
# 2 0.007629 0.020522 0.001008 0.000000 0.021273 0.000000
# 3 0.007975 0.001008 0.025874 0.000000 0.026267 0.000000
# 4 0.000000 0.000000 0.000000 0.037838 0.000000 0.005103
# 5 0.027427 0.021273 0.026267 0.000000 0.094893 0.000000
# 6 0.000000 0.000000 0.000000 0.005103 0.000000 0.085472
#
#
# Mechanical properties :
#
#
# Convention : Reuss Voigt Hill
#
# Bulk Modulus (GPa) = 8.16542 20.47136 14.31839
# Shear Modulus (GPa) = 15.87055 21.73727 18.80391
#
# Velocity S-wave (km/s) = 2.83670 3.31986 3.08774
# Velocity P-wave (km/s) = 3.85606 5.00748 4.46901
#
# Compressibility (1/GPa) = 0.12246769
#
# Stress axis : x y z
#
# Youngs Moduli (GPa) = 23.33800 48.72745 38.64818
#
# Poissons Ratio (x) = -0.37173 -0.30821
# Poissons Ratio (y) = -0.17804 -0.03894
# Poissons Ratio (z) = -0.18611 -0.04910
#
# Static dielectric constant tensor:
#      x y z
#    x 1.689540 0.000000 0.006020 
#    y 0.000000 1.736060 0.000000 
#    z 0.006020 0.000000 1.692560 
# 
# From -- ./inp_files/269910.got.cif
#   From: 2010.05.17/outbox.cif.g08.bks.cpg/sg12_135_cif.got.tgz:269910.got - 2010.06.03 13:09:07.
