data_PCOD9181465
_publ_section_title
;
Structure prediction by ZEFSAII (Michael W. Deem and Ramdas Pophale) SiO2 
 PCOD9181465
Probable space group: C 2/M
;
_chemical_formula_sum "Si O2"
_cell_formula_units_Z 40
_cell_length_a 23.460958
_cell_length_b 9.083951
_cell_length_c 18.936578
_cell_angle_alpha 90.000000
_cell_angle_beta 144.517521
_cell_angle_gamma 90.000000
_cell_volume 2342.555095
_symmetry_space_group_name_H-M "C 2/M"
_symmetry_group_IT_number 12
_symmetry_cell_setting 'monoclinic'
loop_
_space_group_symop_operation_xyz
x,y,z
-x,y,-z
-x,-y,-z
x,-y,z
1/2+x,1/2+y,z
1/2-x,1/2+y,-z
1/2-x,1/2-y,-z
1/2+x,1/2-y,z
loop_
_atom_site_type_symbol
_atom_site_label
_atom_site_fract_x
_atom_site_fract_y
_atom_site_fract_z
Si Si1 0.899135 0.174835 0.617518
Si Si2 0.883784 0.824130 0.879002
Si Si3 0.191349 0.325029 0.337589
Si Si4 0.401064 0.825148 0.185157
Si Si5 0.193899 0.824295 0.044855
O O1 0.872612 0.246033 0.666378
O O2 0.805051 0.202860 0.472866
O O3 0.999106 0.246824 0.691259
O O4 0.910862 0.000000 0.637382
O O5 0.836397 0.738843 0.766120
O O6 0.835618 0.785305 0.905544
O O7 0.871700 0.000000 0.855928
O O8 0.000000 0.793673 0.000000
O O9 0.174593 0.500000 0.323742
O O10 0.307866 0.795204 0.141673
O O11 0.415246 0.000000 0.195412
O O12 0.369888 0.761780 0.077289
O O13 0.176937 0.000000 0.018408
#
# Coordination Sequence:
#
# PCOD9181465 Si02
#       5
#     8   8   8   8   8
#     4  10  20  35  54  75 102 135 169 209 257 305
#     4  10  20  34  53  76 104 137 167 202 255 310
#     4  10  21  35  53  78 103 130 169 213 255 302
#     4  10  19  32  53  78 103 135 174 213 251 296
#     4   9  19  34  51  76 108 138 170 208 254 305
#
# _framework density 17.075372000000002
#
# number of rings (size 3 to 8) (size 9 to 14) (size 15 to 20)
#    0.000    2.200    0.000    3.000    0.000    6.000 
#    0.000    1.000    0.000    6.000    0.000    0.000 
#    0.000    0.000    0.000    0.000    0.000    0.000 
#
# Total GULP energy -111662.000399 kJ/mol
# GULP energy per Si atom -5583.100020 kJ/mol
# Density = 1.703651 g / cm^3
# Si number density = 17.075372 Si / 1000 Ang^3
#
#
#
# Elastic Constant Matrix: (Units=GPa)
#
#
# Indices 1 2 3 4 5 6 
#
# 1 108.5822 56.7602 73.4919 0.0000 -8.2834 0.0000
# 2 56.7602 63.5516 60.6131 0.0000 3.7954 0.0000
# 3 73.4919 60.6131 89.7592 0.0000 2.4147 0.0000
# 4 0.0000 0.0000 0.0000 35.9850 0.0000 0.7555
# 5 -8.2834 3.7954 2.4147 0.0000 28.5242 0.0000
# 6 0.0000 0.0000 0.0000 0.7555 0.0000 25.6472
#
#
#
# Elastic Compliance Matrix: (Units=1/GPa)
#
#
# Indices 1 2 3 4 5 6 
#
# 1 0.023854 -0.008405 -0.014103 0.000000 0.009239 0.000000
# 2 -0.008405 0.047494 -0.025011 0.000000 -0.006643 0.000000
# 3 -0.014103 -0.025011 0.039689 0.000000 -0.004127 0.000000
# 4 0.000000 0.000000 0.000000 0.027807 0.000000 -0.000819
# 5 0.009239 -0.006643 -0.004127 0.000000 0.038974 0.000000
# 6 0.000000 0.000000 0.000000 -0.000819 0.000000 0.039015
#
#
# Mechanical properties :
#
#
# Convention : Reuss Voigt Hill
#
# Bulk Modulus (GPa) = 62.51168 71.51372 67.01270
# Shear Modulus (GPa) = 15.76271 22.76647 19.26459
#
# Velocity S-wave (km/s) = 3.04159 3.65539 3.36253
# Velocity P-wave (km/s) = 7.00170 7.73227 7.37603
#
# Compressibility (1/GPa) = 0.01599701
#
# Stress axis : x y z
#
# Youngs Moduli (GPa) = 41.92204 21.05538 25.19584
#
# Poissons Ratio (x) = 0.17697 0.35535
# Poissons Ratio (y) = 0.35236 0.63018
# Poissons Ratio (z) = 0.59124 0.52662
#
# Static dielectric constant tensor:
#      x y z
#    x 1.560990 0.000000 0.021560 
#    y 0.000000 1.568650 0.000000 
#    z 0.021560 0.000000 1.559040 
# 
# From -- ./inp_files/171866.got.cif
#   From: 2010.05.17/outbox.cif.g08.bks.cpg/sg12_86_cif.got.tgz:171866.got - 2010.06.03 13:09:07.
