data_PCOD9181802
_publ_section_title
;
Structure prediction by ZEFSAII (Michael W. Deem and Ramdas Pophale) SiO2 
 PCOD9181802
Probable space group: C 2/M
;
_chemical_formula_sum "Si O2"
_cell_formula_units_Z 48
_cell_length_a 30.288330
_cell_length_b 8.651819
_cell_length_c 10.441306
_cell_angle_alpha 90.000000
_cell_angle_beta 99.656617
_cell_angle_gamma 90.000000
_cell_volume 2697.366400
_symmetry_space_group_name_H-M "C 2/M"
_symmetry_group_IT_number 12
_symmetry_cell_setting 'monoclinic'
loop_
_space_group_symop_operation_xyz
x,y,z
-x,y,-z
-x,-y,-z
x,-y,z
1/2+x,1/2+y,z
1/2-x,1/2+y,-z
1/2-x,1/2-y,-z
1/2+x,1/2-y,z
loop_
_atom_site_type_symbol
_atom_site_label
_atom_site_fract_x
_atom_site_fract_y
_atom_site_fract_z
Si Si1 0.614699 0.685029 0.536119
Si Si2 0.617469 0.685192 0.832817
Si Si3 0.472249 0.813244 0.112168
Si Si4 0.472940 0.186019 0.611698
Si Si5 0.716111 0.815286 0.877618
Si Si6 0.717644 0.314076 0.593571
O O1 0.611225 0.500000 0.526429
O O2 0.605642 0.730349 0.679886
O O3 0.577810 0.758522 0.427182
O O4 0.666137 0.728361 0.535370
O O5 0.621863 0.500000 0.839127
O O6 0.577041 0.741829 0.901321
O O7 0.665632 0.759206 0.884491
O O8 0.501173 0.762580 0.249210
O O9 0.467891 0.000000 0.113233
O O10 0.500000 0.770653 0.000000
O O11 0.500000 0.241644 0.500000
O O12 0.473157 0.000000 0.610997
O O13 0.726956 0.751867 0.740164
O O14 0.717875 0.000000 0.876866
O O15 0.750000 0.750000 0.000000
O O16 0.720374 0.500000 0.600954
O O17 0.750000 0.250000 0.500000
#
# Coordination Sequence:
#
# PCOD9181802 Si02
#       6
#     8   8   8   8   8   8
#     4   9  19  34  55  82 110 142 184 230 276 328
#     4  10  20  36  58  83 111 146 189 232 279 340
#     4  10  21  37  54  77 112 148 184 230 284 335
#     4  10  19  32  54  81 105 138 186 229 269 330
#     4  11  22  39  63  88 115 150 192 240 289 347
#     4  10  21  39  60  87 119 154 192 236 291 346
#
# _framework density 17.795134999999998
#
# number of rings (size 3 to 8) (size 9 to 14) (size 15 to 20)
#    0.000    2.000    1.667    3.500    0.000    4.667 
#    3.000    0.000    0.000    0.000    0.000    0.000 
#    0.000    0.000    0.000    0.000    0.000    0.000 
#
# Total GULP energy -133975.281755 kJ/mol
# GULP energy per Si atom -5582.303406 kJ/mol
# Density = 1.775463 g / cm^3
# Si number density = 17.795135 Si / 1000 Ang^3
#
#
#
# Elastic Constant Matrix: (Units=GPa)
#
#
# Indices 1 2 3 4 5 6 
#
# 1 150.0319 52.5503 94.5717 0.0000 -5.5332 0.0000
# 2 52.5503 63.2159 45.8324 0.0000 -2.9324 0.0000
# 3 94.5717 45.8324 123.3961 0.0000 -1.0920 0.0000
# 4 0.0000 0.0000 0.0000 22.6381 0.0000 1.7077
# 5 -5.5332 -2.9324 -1.0920 0.0000 37.5213 0.0000
# 6 0.0000 0.0000 0.0000 1.7077 0.0000 35.2385
#
#
#
# Elastic Compliance Matrix: (Units=1/GPa)
#
#
# Indices 1 2 3 4 5 6 
#
# 1 0.014163 -0.005265 -0.008887 0.000000 0.001419 0.000000
# 2 -0.005265 0.023686 -0.004754 0.000000 0.000936 0.000000
# 3 -0.008887 -0.004754 0.016670 0.000000 -0.001197 0.000000
# 4 0.000000 0.000000 0.000000 0.044335 0.000000 -0.002149
# 5 0.001419 0.000936 -0.001197 0.000000 0.026899 0.000000
# 6 0.000000 0.000000 0.000000 -0.002149 0.000000 0.028482
#
#
# Mechanical properties :
#
#
# Convention : Reuss Voigt Hill
#
# Bulk Modulus (GPa) = 59.85346 80.28362 70.06854
# Shear Modulus (GPa) = 25.30148 28.65889 26.98019
#
# Velocity S-wave (km/s) = 3.77479 4.01745 3.89801
# Velocity P-wave (km/s) = 7.25992 8.16904 7.72786
#
# Compressibility (1/GPa) = 0.01670747
#
# Stress axis : x y z
#
# Youngs Moduli (GPa) = 70.60413 42.21962 59.98742
#
# Poissons Ratio (x) = 0.22228 0.53310
# Poissons Ratio (y) = 0.37173 0.28518
# Poissons Ratio (z) = 0.62745 0.20072
#
# Static dielectric constant tensor:
#      x y z
#    x 1.595920 0.000000 -0.002180 
#    y 0.000000 1.599920 0.000000 
#    z -0.002180 0.000000 1.592740 
# 
# From -- ./inp_files/108716.got.cif
#   From: 2010.05.17/outbox.cif.g08.bks.cpg/sg12_55_cif.got.tgz:108716.got - 2010.06.03 13:09:07.
