data_PCOD9181434
_publ_section_title
;
Structure prediction by ZEFSAII (Michael W. Deem and Ramdas Pophale) SiO2 
 PCOD9181434
Probable space group: C 2/M
;
_chemical_formula_sum "Si O2"
_cell_formula_units_Z 40
_cell_length_a 16.619068
_cell_length_b 13.928431
_cell_length_c 12.601152
_cell_angle_alpha 90.000000
_cell_angle_beta 131.282745
_cell_angle_gamma 90.000000
_cell_volume 2191.929770
_symmetry_space_group_name_H-M "C 2/M"
_symmetry_group_IT_number 12
_symmetry_cell_setting 'monoclinic'
loop_
_space_group_symop_operation_xyz
x,y,z
-x,y,-z
-x,-y,-z
x,-y,z
1/2+x,1/2+y,z
1/2-x,1/2+y,-z
1/2-x,1/2-y,-z
1/2+x,1/2-y,z
loop_
_atom_site_type_symbol
_atom_site_label
_atom_site_fract_x
_atom_site_fract_y
_atom_site_fract_z
Si Si1 0.932638 0.609767 0.049970
Si Si2 0.098268 0.110611 0.500144
Si Si3 0.736285 0.717932 0.783698
Si Si4 0.452879 0.282044 0.216604
Si Si5 0.882724 0.109732 0.950275
O O1 0.932500 0.500000 0.086620
O O2 0.977818 0.685270 0.173991
O O3 0.814203 0.646007 0.915707
O O4 0.000000 0.616114 0.000000
O O5 0.193797 0.166384 0.641431
O O6 0.000000 0.108550 0.500000
O O7 0.052652 0.166454 0.358996
O O8 0.125552 0.000000 0.500138
O O9 0.634727 0.740155 0.769580
O O10 0.803831 0.814722 0.826327
O O11 0.398831 0.354019 0.084680
O O12 0.845788 0.000000 0.913597
O O13 0.000000 0.115978 0.000000
#
# Coordination Sequence:
#
# PCOD9181434 Si02
#       5
#     8   8   8   8   8
#     4  10  20  34  51  73 103 135 166 204 251 301
#     4   9  18  32  50  75 105 133 165 208 256 302
#     4  10  19  32  53  77  99 128 169 212 251 295
#     4  10  19  32  53  77  99 128 169 212 251 295
#     4  10  20  34  51  73 103 135 166 204 251 301
#
# _framework density 18.248760999999998
#
# number of rings (size 3 to 8) (size 9 to 14) (size 15 to 20)
#    0.000    2.200    0.000    6.000    0.000    4.800 
#    0.000    5.000    0.000    8.400    0.000    0.000 
#    0.000    0.000    0.000    0.000    0.000    0.000 
#
# Total GULP energy -111618.947712 kJ/mol
# GULP energy per Si atom -5580.947386 kJ/mol
# Density = 1.820723 g / cm^3
# Si number density = 18.248761 Si / 1000 Ang^3
#
#
#
# Elastic Constant Matrix: (Units=GPa)
#
#
# Indices 1 2 3 4 5 6 
#
# 1 33.7466 34.1268 7.5643 0.0000 0.1807 0.0000
# 2 34.1268 210.7450 94.8089 0.0000 -0.9307 0.0000
# 3 7.5643 94.8089 130.3721 0.0000 -1.5834 0.0000
# 4 0.0000 0.0000 0.0000 23.4048 0.0000 0.0871
# 5 0.1807 -0.9307 -1.5834 0.0000 1.6948 0.0000
# 6 0.0000 0.0000 0.0000 0.0871 0.0000 32.4025
#
#
#
# Elastic Compliance Matrix: (Units=1/GPa)
#
#
# Indices 1 2 3 4 5 6 
#
# 1 0.036367 -0.007334 0.003163 0.000000 -0.004950 0.000000
# 2 -0.007334 0.008533 -0.005779 0.000000 0.000069 0.000000
# 3 0.003163 -0.005779 0.011780 0.000000 0.007495 0.000000
# 4 0.000000 0.000000 0.000000 0.042727 0.000000 -0.000115
# 5 -0.004950 0.000069 0.007495 0.000000 0.597595 0.000000
# 6 0.000000 0.000000 0.000000 -0.000115 0.000000 0.030862
#
#
# Mechanical properties :
#
#
# Convention : Reuss Voigt Hill
#
# Bulk Modulus (GPa) = 27.18820 71.98483 49.58652
# Shear Modulus (GPa) = 6.57875 27.39133 16.98504
#
# Velocity S-wave (km/s) = 1.90075 3.87847 3.05413
# Velocity P-wave (km/s) = 4.44389 7.71938 6.29829
#
# Compressibility (1/GPa) = 0.03678066
#
# Stress axis : x y z
#
# Youngs Moduli (GPa) = 27.49773 117.19603 84.88755
#
# Poissons Ratio (x) = 0.85950 -0.26851
# Poissons Ratio (y) = 0.20167 0.49055
# Poissons Ratio (z) = -0.08698 0.67725
#
# Static dielectric constant tensor:
#      x y z
#    x 1.648810 0.000000 0.000430 
#    y 0.000000 1.622260 0.000000 
#    z 0.000430 0.000000 1.611550 
# 
# From -- ./inp_files/142529.got.cif
#   From: 2010.05.17/outbox.cif.g08.bks.cpg/sg12_72_cif.got.tgz:142529.got - 2010.06.03 13:09:07.
