data_PCOD9181229
_publ_section_title
;
Structure prediction by ZEFSAII (Michael W. Deem and Ramdas Pophale) SiO2 
 PCOD9181229
Probable space group: C 2/M
;
_chemical_formula_sum "Si O2"
_cell_formula_units_Z 60
_cell_length_a 15.118670
_cell_length_b 19.580226
_cell_length_c 21.322175
_cell_angle_alpha 90.000000
_cell_angle_beta 152.513225
_cell_angle_gamma 90.000000
_cell_volume 2913.236687
_symmetry_space_group_name_H-M "C 2/M"
_symmetry_group_IT_number 12
_symmetry_cell_setting 'monoclinic'
loop_
_space_group_symop_operation_xyz
x,y,z
-x,y,-z
-x,-y,-z
x,-y,z
1/2+x,1/2+y,z
1/2-x,1/2+y,-z
1/2-x,1/2-y,-z
1/2+x,1/2-y,z
loop_
_atom_site_type_symbol
_atom_site_label
_atom_site_fract_x
_atom_site_fract_y
_atom_site_fract_z
Si Si1 0.500000 0.859430 0.000000
Si Si2 0.753268 0.741161 0.206366
Si Si3 0.715690 0.923220 0.619858
Si Si4 0.476097 0.319763 0.128986
Si Si5 0.550177 0.668040 0.462627
Si Si6 0.967534 0.267222 0.718413
Si Si7 0.223665 0.422554 0.035339
Si Si8 0.058554 0.112493 0.342862
O O1 0.676459 0.809006 0.123481
O O2 0.541306 0.900548 0.962277
O O3 0.566416 0.707126 0.120857
O O4 0.904526 0.769153 0.353416
O O5 0.872749 0.701525 0.227813
O O6 0.500000 0.907221 0.500000
O O7 0.852548 0.868347 0.737909
O O8 0.752499 0.919192 0.568620
O O9 0.761260 0.000000 0.670213
O O10 0.458270 0.256448 0.166477
O O11 0.291833 0.368582 0.025151
O O12 0.500000 0.644833 0.500000
O O13 0.770468 0.692505 0.599025
O O14 0.525816 0.609052 0.395517
O O15 0.922249 0.193920 0.657471
O O16 0.209475 0.500000 0.003535
O O17 0.390879 0.418080 0.193995
#
# Coordination Sequence:
#
# PCOD9181229 Si02
#       8
#     4   8   8   8   8   8   8   8
#     4  12  21  38  54  82 115 136 186 222 284 330
#     4  11  21  33  52  80 114 143 174 225 281 328
#     4   9  18  29  47  76 104 136 177 220 264 312
#     4  10  19  32  52  78 108 142 170 231 270 325
#     4  11  19  30  51  76 107 149 181 209 265 333
#     4   9  18  31  47  75 106 144 179 205 265 328
#     4  10  20  37  56  76 103 145 189 227 272 314
#     4   9  17  30  46  72 102 134 169 226 258 311
#
# _framework density 20.595649000000002
#
# number of rings (size 3 to 8) (size 9 to 14) (size 15 to 20)
#    0.000    2.267    5.333    3.400    5.600    0.533 
#    0.000    0.000    0.000    1.600    0.000    1.867 
#    0.000    0.000    0.000    0.000    0.000    0.000 
#
# Total GULP energy -167168.859559 kJ/mol
# GULP energy per Si atom -5572.295319 kJ/mol
# Density = 2.054877 g / cm^3
# Si number density = 20.595649 Si / 1000 Ang^3
#
#
#
# Elastic Constant Matrix: (Units=GPa)
#
#
# Indices 1 2 3 4 5 6 
#
# 1 122.7784 14.1177 17.9127 0.0011 23.2220 0.0039
# 2 14.1177 52.6321 7.5344 0.0042 3.5377 0.0014
# 3 17.9127 7.5344 28.6363 0.0057 5.1080 0.0012
# 4 0.0011 0.0042 0.0057 12.8734 0.0011 -0.7420
# 5 23.2220 3.5377 5.1080 0.0011 21.2964 0.0011
# 6 0.0039 0.0014 0.0012 -0.7420 0.0011 11.0216
#
#
#
# Elastic Compliance Matrix: (Units=1/GPa)
#
#
# Indices 1 2 3 4 5 6 
#
# 1 0.011006 -0.001583 -0.004570 0.000002 -0.010643 -0.000002
# 2 -0.001583 0.020063 -0.004181 -0.000005 -0.000604 -0.000002
# 3 -0.004570 -0.004181 0.039559 -0.000016 -0.003811 -0.000003
# 4 0.000002 -0.000005 -0.000016 0.077982 -0.000003 0.005250
# 5 -0.010643 -0.000604 -0.003811 -0.000003 0.059575 -0.000002
# 6 -0.000002 -0.000002 -0.000003 0.005250 -0.000002 0.091085
#
#
# Mechanical properties :
#
#
# Convention : Reuss Voigt Hill
#
# Bulk Modulus (GPa) = 20.01539 31.46405 25.73972
# Shear Modulus (GPa) = 14.85477 20.00375 17.42926
#
# Velocity S-wave (km/s) = 2.68854 3.11989 2.91221
# Velocity P-wave (km/s) = 4.40193 5.31869 4.88188
#
# Compressibility (1/GPa) = 0.04996154
#
# Stress axis : x y z
#
# Youngs Moduli (GPa) = 90.85643 49.84177 25.27861
#
# Poissons Ratio (x) = 0.07889 0.11552
# Poissons Ratio (y) = 0.14380 0.10569
# Poissons Ratio (z) = 0.41521 0.20839
#
# Static dielectric constant tensor:
#      x y z
#    x 1.863170 0.000000 0.033410 
#    y 0.000000 1.723390 0.000000 
#    z 0.033410 0.000000 1.805200 
# 
# From -- ./inp_files/312178.got.cif
#   From: 2010.05.17/outbox.cif.g08.bks.cpg/sg12_157_cif.got.tgz:312178.got - 2010.06.03 13:09:07.
