data_PCOD9181209
_publ_section_title
;
Structure prediction by ZEFSAII (Michael W. Deem and Ramdas Pophale) SiO2 
 PCOD9181209
Probable space group: C 2/M
;
_chemical_formula_sum "Si O2"
_cell_formula_units_Z 40
_cell_length_a 25.125636
_cell_length_b 16.547231
_cell_length_c 14.763605
_cell_angle_alpha 90.000000
_cell_angle_beta 15.445125
_cell_angle_gamma 90.000000
_cell_volume 1634.673374
_symmetry_space_group_name_H-M "C 2/M"
_symmetry_group_IT_number 12
_symmetry_cell_setting 'monoclinic'
loop_
_space_group_symop_operation_xyz
x,y,z
-x,y,-z
-x,-y,-z
x,-y,z
1/2+x,1/2+y,z
1/2-x,1/2+y,-z
1/2-x,1/2-y,-z
1/2+x,1/2-y,z
loop_
_atom_site_type_symbol
_atom_site_label
_atom_site_fract_x
_atom_site_fract_y
_atom_site_fract_z
Si Si1 0.264388 0.356392 0.211120
Si Si2 0.226892 0.693862 0.889060
Si Si3 0.844234 0.092032 0.534346
Si Si4 0.775038 0.256702 0.565195
Si Si5 0.117085 0.586605 0.213116
O O1 0.342750 0.320855 0.178254
O O2 0.075908 0.413350 0.536883
O O3 0.177262 0.278522 0.298239
O O4 0.432947 0.397912 0.873157
O O5 0.000786 0.718029 0.226081
O O6 0.238027 0.661607 0.973394
O O7 0.318950 0.621368 0.678745
O O8 0.730301 0.165702 0.672040
O O9 0.778496 0.000000 0.629558
O O10 0.750000 0.250000 0.500000
O O11 0.224247 0.500000 0.035470
O O12 0.000000 0.591611 0.500000
#
# Coordination Sequence:
#
# PCOD9181209 Si02
#       5
#     8   8   8   8   8
#     4   9  19  35  54  74 102 138 171 209 260 312
#     4   9  19  35  54  74 102 138 171 209 260 312
#     4  10  19  32  52  78 105 131 169 217 262 305
#     4   9  19  37  55  73 102 141 177 208 253 315
#     4  10  20  35  54  75 101 136 177 217 259 308
#
# _framework density 24.469721
#
# number of rings (size 3 to 8) (size 9 to 14) (size 15 to 20)
#    0.000    2.600    0.000    2.400    0.000    8.000 
#    0.000    9.000    0.000    3.600    0.000    0.000 
#    0.000    0.000    0.000    0.000    0.000    0.000 
#
# Total GULP energy -111374.147898 kJ/mol
# GULP energy per Si atom -5568.707395 kJ/mol
# Density = 2.441403 g / cm^3
# Si number density = 24.469721 Si / 1000 Ang^3
#
#
#
# Elastic Constant Matrix: (Units=GPa)
#
#
# Indices 1 2 3 4 5 6 
#
# 1 98.9510 56.7661 10.0605 -0.0015 27.5441 0.0011
# 2 56.7661 173.5434 14.0067 0.0001 26.4457 0.0000
# 3 10.0605 14.0067 60.0571 -0.0026 6.1492 -0.0002
# 4 -0.0015 0.0001 -0.0026 19.5625 0.0003 1.5948
# 5 27.5441 26.4457 6.1492 0.0003 42.4991 -0.0018
# 6 0.0011 0.0000 -0.0002 1.5948 -0.0018 8.8190
#
#
#
# Elastic Compliance Matrix: (Units=1/GPa)
#
#
# Indices 1 2 3 4 5 6 
#
# 1 0.014106 -0.003503 -0.000846 0.000001 -0.006840 -0.000003
# 2 -0.003503 0.007308 -0.000898 0.000000 -0.002147 0.000000
# 3 -0.000846 -0.000898 0.017142 0.000002 -0.001374 0.000000
# 4 0.000001 0.000000 0.000002 0.051883 -0.000002 -0.009382
# 5 -0.006840 -0.002147 -0.001374 -0.000002 0.029497 0.000007
# 6 -0.000003 0.000000 0.000000 -0.009382 0.000007 0.115089
#
#
# Mechanical properties :
#
#
# Convention : Reuss Voigt Hill
#
# Bulk Modulus (GPa) = 35.63445 54.91311 45.27378
# Shear Modulus (GPa) = 19.61760 30.95731 25.28746
#
# Velocity S-wave (km/s) = 2.83452 3.56072 3.21817
# Velocity P-wave (km/s) = 5.03060 6.27654 5.68779
#
# Compressibility (1/GPa) = 0.02806273
#
# Stress axis : x y z
#
# Youngs Moduli (GPa) = 70.89309 136.83925 58.33460
#
# Poissons Ratio (x) = 0.47941 0.04932
# Poissons Ratio (y) = 0.24837 0.05236
# Poissons Ratio (z) = 0.05994 0.12283
#
# Static dielectric constant tensor:
#      x y z
#    x 2.052320 0.000000 0.016130 
#    y 0.000000 1.937570 0.000010 
#    z 0.016130 0.000010 2.099470 
# 
# From -- ./inp_files/246473.got.cif
#   From: 2010.05.17/outbox.cif.g08.bks.cpg/sg12_124_cif.got.tgz:246473.got - 2010.06.03 13:09:07.
