data_PCOD9181271
_publ_section_title
;
Structure prediction by ZEFSAII (Michael W. Deem and Ramdas Pophale) SiO2 
 PCOD9181271
Probable space group: C 2/M
;
_chemical_formula_sum "Si O2"
_cell_formula_units_Z 64
_cell_length_a 25.321322
_cell_length_b 7.671885
_cell_length_c 19.701120
_cell_angle_alpha 90.000000
_cell_angle_beta 50.050616
_cell_angle_gamma 90.000000
_cell_volume 2933.965384
_symmetry_space_group_name_H-M "C 2/M"
_symmetry_group_IT_number 12
_symmetry_cell_setting 'monoclinic'
loop_
_space_group_symop_operation_xyz
x,y,z
-x,y,-z
-x,-y,-z
x,-y,z
1/2+x,1/2+y,z
1/2-x,1/2+y,-z
1/2-x,1/2-y,-z
1/2+x,1/2-y,z
loop_
_atom_site_type_symbol
_atom_site_label
_atom_site_fract_x
_atom_site_fract_y
_atom_site_fract_z
Si Si1 0.917844 0.204404 0.790396
Si Si2 0.590198 0.789960 0.780930
Si Si3 0.228859 0.794058 0.727122
Si Si4 0.713837 0.211561 0.176886
Si Si5 0.792300 0.290257 0.533911
Si Si6 0.923580 0.292474 0.355659
Si Si7 0.665505 0.701052 0.012330
Si Si8 0.458844 0.210126 0.966926
O O1 0.864069 0.236475 0.774363
O O2 0.878056 0.282574 0.889561
O O3 0.994566 0.266483 0.709692
O O4 0.925492 0.000000 0.797068
O O5 0.646997 0.729154 0.786996
O O6 0.603407 0.722586 0.694556
O O7 0.512698 0.740967 0.863691
O O8 0.592583 0.000000 0.779918
O O9 0.258756 0.723792 0.772989
O O10 0.260155 0.720774 0.630695
O O11 0.243388 0.000000 0.716291
O O12 0.718379 0.000000 0.172434
O O13 0.763132 0.277242 0.074688
O O14 0.791614 0.500000 0.540563
O O15 0.750000 0.250000 0.500000
O O16 0.871012 0.228443 0.456343
O O17 0.913871 0.500000 0.361380
O O18 0.678826 0.500000 0.019175
O O19 0.613942 0.708563 0.990510
O O20 0.450132 0.000000 0.976497
O O21 0.500000 0.262664 0.000000
#
# Coordination Sequence:
#
# PCOD9181271 Si02
#       8
#     8   8   8   8   8   8   8   8
#     4  11  23  38  58  84 109 142 190 235 272 318
#     4  10  19  32  52  79 111 147 181 217 271 327
#     4  10  21  36  57  84 112 144 184 227 273 328
#     4  10  22  40  58  79 110 148 185 226 279 330
#     4  10  20  35  57  85 114 144 181 223 271 328
#     4  10  20  36  57  81 111 147 181 220 274 328
#     4  10  21  36  55  80 109 142 184 228 272 324
#     4  10  20  32  48  75 111 148 184 220 264 322
#
# _framework density 21.813479999999998
#
# number of rings (size 3 to 8) (size 9 to 14) (size 15 to 20)
#    0.000    1.875    2.500    1.500    0.000    3.250 
#    0.000    0.625    0.000    3.750    0.000    0.000 
#    0.000    0.000    0.000    0.000    0.000    0.000 
#
# Total GULP energy -178647.535517 kJ/mol
# GULP energy per Si atom -5582.735485 kJ/mol
# Density = 2.176383 g / cm^3
# Si number density = 21.813480 Si / 1000 Ang^3
#
#
#
# Elastic Constant Matrix: (Units=GPa)
#
#
# Indices 1 2 3 4 5 6 
#
# 1 118.8324 -10.8385 31.6587 0.0143 -16.8020 -0.0109
# 2 -10.8385 40.5836 4.3105 0.0095 4.3354 -0.0248
# 3 31.6587 4.3105 93.4876 0.0010 -16.0208 -0.0056
# 4 0.0143 0.0095 0.0010 7.7908 -0.0030 -1.5419
# 5 -16.8020 4.3354 -16.0208 -0.0030 27.8064 0.0077
# 6 -0.0109 -0.0248 -0.0056 -1.5419 0.0077 24.0362
#
#
#
# Elastic Compliance Matrix: (Units=1/GPa)
#
#
# Indices 1 2 3 4 5 6 
#
# 1 0.009959 0.002529 -0.002802 -0.000019 0.004009 0.000004
# 2 0.002529 0.026050 -0.002765 -0.000032 -0.004126 0.000027
# 3 -0.002802 -0.002765 0.012823 0.000009 0.006126 -0.000003
# 4 -0.000019 -0.000032 0.000009 0.130007 0.000011 0.008340
# 5 0.004009 -0.004126 0.006126 0.000011 0.042558 -0.000014
# 6 0.000004 0.000027 -0.000003 0.008340 -0.000014 0.042139
#
#
# Mechanical properties :
#
#
# Convention : Reuss Voigt Hill
#
# Bulk Modulus (GPa) = 23.38803 33.68502 28.53653
# Shear Modulus (GPa) = 17.61401 27.11152 22.36276
#
# Velocity S-wave (km/s) = 2.84471 3.52927 3.20532
# Velocity P-wave (km/s) = 4.64057 5.66423 5.17776
#
# Compressibility (1/GPa) = 0.04275691
#
# Stress axis : x y z
#
# Youngs Moduli (GPa) = 100.40866 38.38712 77.98618
#
# Poissons Ratio (x) = -0.09709 0.21853
# Poissons Ratio (y) = -0.25395 0.21561
# Poissons Ratio (z) = 0.28137 0.10613
#
# Static dielectric constant tensor:
#      x y z
#    x 1.779330 -0.000010 0.029820 
#    y -0.000010 1.800710 0.000000 
#    z 0.029820 0.000000 1.858000 
# 
# From -- ./inp_files/295747.got.cif
#   From: 2010.05.17/outbox.cif.g08.bks.cpg/sg12_148_cif.got.tgz:295747.got - 2010.06.03 13:09:07.
