data_PCOD9181918
_publ_section_title
;
Structure prediction by ZEFSAII (Michael W. Deem and Ramdas Pophale) SiO2 
 PCOD9181918
Probable space group: C 2/M
;
_chemical_formula_sum "Si O2"
_cell_formula_units_Z 64
_cell_length_a 10.576555
_cell_length_b 21.989706
_cell_length_c 22.885330
_cell_angle_alpha 90.000000
_cell_angle_beta 144.070135
_cell_angle_gamma 90.000000
_cell_volume 3123.250892
_symmetry_space_group_name_H-M "C 2/M"
_symmetry_group_IT_number 12
_symmetry_cell_setting 'monoclinic'
loop_
_space_group_symop_operation_xyz
x,y,z
-x,y,-z
-x,-y,-z
x,-y,z
1/2+x,1/2+y,z
1/2-x,1/2+y,-z
1/2-x,1/2-y,-z
1/2+x,1/2-y,z
loop_
_atom_site_type_symbol
_atom_site_label
_atom_site_fract_x
_atom_site_fract_y
_atom_site_fract_z
Si Si1 0.903974 0.624057 0.251654
Si Si2 0.797009 0.565584 0.880216
Si Si3 0.931500 0.334689 0.072649
Si Si4 0.901588 0.729926 0.755690
Si Si5 0.196428 0.070754 0.526798
Si Si6 0.250572 0.936816 0.082957
Si Si7 0.432087 0.297073 0.544765
Si Si8 0.035007 0.847057 0.844899
O O1 0.866027 0.574496 0.187054
O O2 0.673803 0.643616 0.192402
O O3 0.999072 0.683003 0.253616
O O4 0.079807 0.594533 0.360488
O O5 0.761560 0.500000 0.838918
O O6 0.595074 0.587109 0.842287
O O7 0.866036 0.622853 0.867319
O O8 0.000000 0.560691 0.000000
O O9 0.788111 0.379527 0.057559
O O10 0.010918 0.283026 0.145859
O O11 0.764718 0.322359 0.957768
O O12 0.648743 0.720125 0.659453
O O13 0.965845 0.799301 0.769527
O O14 0.129680 0.132033 0.465808
O O15 0.000000 0.067136 0.500000
O O16 0.219289 0.000000 0.512994
O O17 0.323972 0.000000 0.082138
O O18 0.000000 0.940035 0.000000
O O19 0.500000 0.292046 0.500000
O O20 0.250000 0.250000 0.500000
#
# Coordination Sequence:
#
# PCOD9181918 Si02
#       8
#     8   8   8   8   8   8   8   8
#     4  11  21  38  56  90 119 154 204 254 316 374
#     4   9  20  38  58  81 118 170 216 250 300 369
#     4  10  21  39  55  85 123 164 208 248 305 370
#     4  11  24  37  62  86 122 160 210 253 318 380
#     4  10  20  39  64  92 123 156 205 265 324 385
#     4  10  19  32  54  83 119 156 193 247 303 359
#     4  11  23  44  68  96 127 167 215 269 331 390
#     4  11  23  37  58  87 123 167 203 257 303 376
#
# _framework density 20.491468999999999
#
# number of rings (size 3 to 8) (size 9 to 14) (size 15 to 20)
#    0.000    1.625    3.750    1.875    1.750    1.500 
#    2.250    0.625    0.000    0.375    0.000    0.000 
#    0.000    0.000    0.000    0.000    0.000    0.000 
#
# Total GULP energy -178177.606619 kJ/mol
# GULP energy per Si atom -5568.050207 kJ/mol
# Density = 2.044483 g / cm^3
# Si number density = 20.491469 Si / 1000 Ang^3
#
#
#
# Elastic Constant Matrix: (Units=GPa)
#
#
# Indices 1 2 3 4 5 6 
#
# 1 58.5555 24.0255 10.5528 0.0001 27.4046 -0.0001
# 2 24.0255 131.2915 36.1305 0.0003 11.3893 0.0001
# 3 10.5528 36.1305 87.8113 0.0015 21.0493 -0.0001
# 4 0.0001 0.0003 0.0015 20.7213 0.0002 -6.5377
# 5 27.4046 11.3893 21.0493 0.0002 26.2546 0.0001
# 6 -0.0001 0.0001 -0.0001 -6.5377 0.0001 52.2518
#
#
#
# Elastic Compliance Matrix: (Units=1/GPa)
#
#
# Indices 1 2 3 4 5 6 
#
# 1 0.038802 -0.005510 0.008343 0.000000 -0.044800 0.000000
# 2 -0.005510 0.009398 -0.004464 0.000000 0.005254 0.000000
# 3 0.008343 -0.004464 0.017139 -0.000001 -0.020514 0.000000
# 4 0.000000 0.000000 -0.000001 0.050243 0.000001 0.006286
# 5 -0.044800 0.005254 -0.020514 0.000001 0.099019 0.000000
# 6 0.000000 0.000000 0.000000 0.006286 0.000000 0.019925
#
#
# Mechanical properties :
#
#
# Convention : Reuss Voigt Hill
#
# Bulk Modulus (GPa) = 16.10889 46.56399 31.33644
# Shear Modulus (GPa) = 19.34390 33.64218 26.49304
#
# Velocity S-wave (km/s) = 3.07579 4.05627 3.59957
# Velocity P-wave (km/s) = 4.52684 6.68660 5.70977
#
# Compressibility (1/GPa) = 0.06207751
#
# Stress axis : x y z
#
# Youngs Moduli (GPa) = 25.77179 106.40949 58.34506
#
# Poissons Ratio (x) = 0.58634 -0.48679
# Poissons Ratio (y) = 0.14201 0.26045
# Poissons Ratio (z) = -0.21502 0.47500
#
# Static dielectric constant tensor:
#      x y z
#    x 1.797560 0.000000 -0.028530 
#    y 0.000000 1.810000 0.000000 
#    z -0.028530 0.000000 1.744000 
# 
# From -- ./inp_files/359024.got.cif
#   From: 2010.05.17/outbox.cif.g08.bks.cpg/sg12_180_cif.got.tgz:359024.got - 2010.06.03 13:09:07.
