data_PCOD9181559
_publ_section_title
;
Structure prediction by ZEFSAII (Michael W. Deem and Ramdas Pophale) SiO2 
 PCOD9181559
Probable space group: C 2/M
;
_chemical_formula_sum "Si O2"
_cell_formula_units_Z 64
_cell_length_a 19.511040
_cell_length_b 7.671608
_cell_length_c 26.203528
_cell_angle_alpha 90.000000
_cell_angle_beta 129.779299
_cell_angle_gamma 90.000000
_cell_volume 3014.246708
_symmetry_space_group_name_H-M "C 2/M"
_symmetry_group_IT_number 12
_symmetry_cell_setting 'monoclinic'
loop_
_space_group_symop_operation_xyz
x,y,z
-x,y,-z
-x,-y,-z
x,-y,z
1/2+x,1/2+y,z
1/2-x,1/2+y,-z
1/2-x,1/2-y,-z
1/2+x,1/2-y,z
loop_
_atom_site_type_symbol
_atom_site_label
_atom_site_fract_x
_atom_site_fract_y
_atom_site_fract_z
Si Si1 0.005980 0.289234 0.842599
Si Si2 0.096689 0.294172 0.787194
Si Si3 0.557256 0.790938 0.479089
Si Si4 0.761479 0.788153 0.800621
Si Si5 0.309138 0.795106 0.714002
Si Si6 0.255893 0.699755 0.578116
Si Si7 0.946087 0.208470 0.634761
Si Si8 0.456251 0.706882 0.927762
O O1 0.005455 0.500000 0.841867
O O2 0.907938 0.231645 0.776640
O O3 0.015592 0.233519 0.905533
O O4 0.075015 0.224248 0.833114
O O5 0.113014 0.500000 0.801251
O O6 0.181806 0.222456 0.798048
O O7 0.010425 0.274383 0.710008
O O8 0.500000 0.724832 0.500000
O O9 0.658421 0.718206 0.525096
O O10 0.518571 0.756327 0.404494
O O11 0.563992 0.000000 0.489059
O O12 0.751299 0.731392 0.737192
O O13 0.857585 0.724730 0.866941
O O14 0.761781 0.000000 0.800572
O O15 0.274482 0.701660 0.647439
O O16 0.314312 0.000000 0.704453
O O17 0.250320 0.500000 0.557089
O O18 0.344780 0.777498 0.594676
O O19 0.943105 0.000000 0.637883
O O20 0.445166 0.500000 0.929894
O O21 0.500000 0.779274 0.000000
#
# Coordination Sequence:
#
# PCOD9181559 Si02
#       8
#     8   8   8   8   8   8   8   8
#     4   9  18  33  53  79 107 139 179 217 258 310
#     4  10  20  36  56  78 108 144 181 220 267 324
#     4  10  23  41  58  76 103 141 183 222 267 330
#     4   9  19  34  54  77 107 145 180 216 261 317
#     4  10  19  32  53  80 107 137 175 222 266 311
#     4  10  21  37  56  78 105 140 180 217 266 327
#     4  11  23  37  56  81 108 139 178 227 275 318
#     4   9  18  34  56  81 109 143 181 218 260 312
#
# _framework density 21.232500999999999
#
# number of rings (size 3 to 8) (size 9 to 14) (size 15 to 20)
#    0.000    2.250    1.250    1.125    1.750    3.000 
#    0.000    0.625    0.000    0.000    0.000    0.000 
#    0.000    0.000    0.000    0.000    0.000    0.000 
#
# Total GULP energy -178657.059172 kJ/mol
# GULP energy per Si atom -5583.033099 kJ/mol
# Density = 2.118417 g / cm^3
# Si number density = 21.232501 Si / 1000 Ang^3
#
#
#
# Elastic Constant Matrix: (Units=GPa)
#
#
# Indices 1 2 3 4 5 6 
#
# 1 149.3074 -4.1101 39.1977 0.0000 -27.2928 0.0000
# 2 -4.1101 39.2105 -11.1250 0.0000 5.0820 0.0000
# 3 39.1977 -11.1250 87.8093 0.0000 -31.9798 0.0000
# 4 0.0000 0.0000 0.0000 13.3375 0.0000 -2.1779
# 5 -27.2928 5.0820 -31.9798 0.0000 28.9048 0.0000
# 6 0.0000 0.0000 0.0000 -2.1779 0.0000 13.2079
#
#
#
# Elastic Compliance Matrix: (Units=1/GPa)
#
#
# Indices 1 2 3 4 5 6 
#
# 1 0.008202 -0.000355 -0.001445 0.000000 0.006208 0.000000
# 2 -0.000355 0.026513 0.002844 0.000000 -0.001851 0.000000
# 3 -0.001445 0.002844 0.019621 0.000000 0.019843 0.000000
# 4 0.000000 0.000000 0.000000 0.077051 0.000000 0.012705
# 5 0.006208 -0.001851 0.019843 0.000000 0.062737 0.000000
# 6 0.000000 0.000000 0.000000 0.012705 0.000000 0.077807
#
#
# Mechanical properties :
#
#
# Convention : Reuss Voigt Hill
#
# Bulk Modulus (GPa) = 17.72369 36.02804 26.87587
# Shear Modulus (GPa) = 17.32189 27.91435 22.61812
#
# Velocity S-wave (km/s) = 2.85935 3.62981 3.26737
# Velocity P-wave (km/s) = 4.38939 5.87984 5.18842
#
# Compressibility (1/GPa) = 0.05642165
#
# Stress axis : x y z
#
# Youngs Moduli (GPa) = 121.92047 37.71760 50.96688
#
# Poissons Ratio (x) = 0.01339 0.07367
# Poissons Ratio (y) = 0.04328 -0.14493
# Poissons Ratio (z) = 0.17623 -0.10725
#
# Static dielectric constant tensor:
#      x y z
#    x 1.800090 0.000000 0.002180 
#    y 0.000000 1.791270 0.000000 
#    z 0.002180 0.000000 1.742500 
# 
# From -- ./inp_files/314121.got.cif
#   From: 2010.05.17/outbox.cif.g08.bks.cpg/sg12_158_cif.got.tgz:314121.got - 2010.06.03 13:09:07.
