data_PCOD9181092
_publ_section_title
;
Structure prediction by ZEFSAII (Michael W. Deem and Ramdas Pophale) SiO2 
 PCOD9181092
Probable space group: C 2/M
;
_chemical_formula_sum "Si O2"
_cell_formula_units_Z 48
_cell_length_a 17.509591
_cell_length_b 9.150444
_cell_length_c 24.609019
_cell_angle_alpha 90.000000
_cell_angle_beta 144.204801
_cell_angle_gamma 90.000000
_cell_volume 2306.144162
_symmetry_space_group_name_H-M "C 2/M"
_symmetry_group_IT_number 12
_symmetry_cell_setting 'monoclinic'
loop_
_space_group_symop_operation_xyz
x,y,z
-x,y,-z
-x,-y,-z
x,-y,z
1/2+x,1/2+y,z
1/2-x,1/2+y,-z
1/2-x,1/2-y,-z
1/2+x,1/2-y,z
loop_
_atom_site_type_symbol
_atom_site_label
_atom_site_fract_x
_atom_site_fract_y
_atom_site_fract_z
Si Si1 0.984038 0.664624 0.551456
Si Si2 0.919639 0.674209 0.727579
Si Si3 0.556033 0.667587 0.367112
Si Si4 0.761068 0.333767 0.834590
Si Si5 0.788642 0.837856 0.747661
Si Si6 0.694906 0.323778 0.914349
O O1 0.926593 0.500000 0.513710
O O2 0.917091 0.761637 0.558762
O O3 0.132602 0.649065 0.657298
O O4 0.000000 0.726876 0.500000
O O5 0.928495 0.500000 0.730992
O O6 0.823859 0.730359 0.719092
O O7 0.887451 0.738336 0.649742
O O8 0.056525 0.748144 0.823151
O O9 0.599279 0.500000 0.389343
O O10 0.397251 0.667022 0.266279
O O11 0.805045 0.500000 0.850445
O O12 0.824410 0.228565 0.826737
O O13 0.779235 0.295734 0.908284
O O14 0.844732 0.000000 0.770998
O O15 0.682706 0.500000 0.912210
O O16 0.750000 0.250000 0.000000
#
# Coordination Sequence:
#
# PCOD9181092 Si02
#       6
#     8   8   8   8   8   8
#     4   9  18  33  53  77 104 134 169 209 255 307
#     4  11  21  34  53  75 102 135 171 210 253 300
#     4   9  17  31  51  74 100 131 170 210 250 301
#     4   8  16  31  50  72  99 131 165 202 245 298
#     4  10  19  32  52  76 102 132 168 210 253 300
#     4  10  20  35  55  79 106 134 168 208 251 300
#
# _framework density 20.813963000000001
#
# number of rings (size 3 to 8) (size 9 to 14) (size 15 to 20)
#    0.000    2.500    0.000    4.000    0.000    5.667 
#    0.000    1.667    0.000    5.000    0.000    0.000 
#    0.000    0.000    0.000    0.000    0.000    0.000 
#
# Total GULP energy -133919.842757 kJ/mol
# GULP energy per Si atom -5579.993448 kJ/mol
# Density = 2.076659 g / cm^3
# Si number density = 20.813963 Si / 1000 Ang^3
#
#
#
# Elastic Constant Matrix: (Units=GPa)
#
#
# Indices 1 2 3 4 5 6 
#
# 1 75.9684 69.4305 38.4019 0.0000 -37.5940 0.0000
# 2 69.4305 156.8701 50.7849 0.0000 -38.9337 0.0000
# 3 38.4019 50.7849 88.7547 0.0000 -43.0911 0.0000
# 4 0.0000 0.0000 0.0000 15.6924 0.0000 -8.1025
# 5 -37.5940 -38.9337 -43.0911 0.0000 40.1774 0.0000
# 6 0.0000 0.0000 0.0000 -8.1025 0.0000 25.2665
#
#
#
# Elastic Compliance Matrix: (Units=1/GPa)
#
#
# Indices 1 2 3 4 5 6 
#
# 1 0.032067 -0.009139 0.003386 0.000000 0.024781 0.000000
# 2 -0.009139 0.011135 -0.002775 0.000000 -0.000737 0.000000
# 3 0.003386 -0.002775 0.024250 0.000000 0.026487 0.000000
# 4 0.000000 0.000000 0.000000 0.076371 0.000000 0.024491
# 5 0.024781 -0.000737 0.026487 0.000000 0.075770 0.000000
# 6 0.000000 0.000000 0.000000 0.024491 0.000000 0.047432
#
#
# Mechanical properties :
#
#
# Convention : Reuss Voigt Hill
#
# Bulk Modulus (GPa) = 19.84308 70.98087 45.41198
# Shear Modulus (GPa) = 16.61797 27.09231 21.85514
#
# Velocity S-wave (km/s) = 2.82867 3.61174 3.24392
# Velocity P-wave (km/s) = 4.49697 7.18119 5.99134
#
# Compressibility (1/GPa) = 0.05039539
#
# Stress axis : x y z
#
# Youngs Moduli (GPa) = 31.18464 89.80771 41.23749
#
# Poissons Ratio (x) = 0.82072 -0.13962
# Poissons Ratio (y) = 0.28498 0.11444
# Poissons Ratio (z) = -0.10558 0.24924
#
# Static dielectric constant tensor:
#      x y z
#    x 1.770330 0.000000 0.015720 
#    y 0.000000 1.726090 0.000000 
#    z 0.015720 0.000000 1.770220 
# 
# From -- ./inp_files/273583.got.cif
#   From: 2010.05.17/outbox.cif.g08.bks.cpg/sg12_137_cif.got.tgz:273583.got - 2010.06.03 13:09:07.
