data_PCOD9181404
_publ_section_title
;
Structure prediction by ZEFSAII (Michael W. Deem and Ramdas Pophale) SiO2 
 PCOD9181404
Probable space group: C 2/M
;
_chemical_formula_sum "Si O2"
_cell_formula_units_Z 48
_cell_length_a 14.268235
_cell_length_b 7.715276
_cell_length_c 28.387084
_cell_angle_alpha 90.000000
_cell_angle_beta 124.496607
_cell_angle_gamma 90.000000
_cell_volume 2575.454568
_symmetry_space_group_name_H-M "C 2/M"
_symmetry_group_IT_number 12
_symmetry_cell_setting 'monoclinic'
loop_
_space_group_symop_operation_xyz
x,y,z
-x,y,-z
-x,-y,-z
x,-y,z
1/2+x,1/2+y,z
1/2-x,1/2+y,-z
1/2-x,1/2-y,-z
1/2+x,1/2-y,z
loop_
_atom_site_type_symbol
_atom_site_label
_atom_site_fract_x
_atom_site_fract_y
_atom_site_fract_z
Si Si1 0.514726 0.709215 0.254065
Si Si2 0.686942 0.000000 0.066893
Si Si3 0.910504 0.197882 0.125109
Si Si4 0.028835 0.500000 0.929731
Si Si5 0.727210 0.694418 0.440536
Si Si6 0.769173 0.287070 0.351705
Si Si7 0.975251 0.703579 0.345576
O O1 0.511451 0.500000 0.254602
O O2 0.459612 0.760794 0.189098
O O3 0.646095 0.765354 0.296724
O O4 0.453458 0.773599 0.283877
O O5 0.774837 0.837526 0.091498
O O6 0.598877 0.000000 0.085181
O O7 0.613302 0.000000 0.998478
O O8 0.944836 0.331440 0.094556
O O9 0.955077 0.000000 0.128716
O O10 0.770482 0.500000 0.451354
O O11 0.750000 0.750000 0.500000
O O12 0.779929 0.779573 0.408535
O O13 0.592610 0.703177 0.391978
O O14 0.768209 0.500000 0.351943
O O15 0.871455 0.232625 0.347544
O O16 0.993250 0.500000 0.360413
#
# Coordination Sequence:
#
# PCOD9181404 Si02
#       7
#     8   4   8   4   8   8   8
#     4   9  18  36  53  75 111 139 175 229 275 329
#     4   9  22  40  57  95 119 159 211 252 294 372
#     4   9  21  38  59  87 121 159 203 249 303 359
#     4  11  20  40  63  83 129 159 203 256 304 354
#     4  10  20  36  53  71 101 136 172 218 266 315
#     4   8  17  33  52  72  99 139 170 209 273 329
#     4  10  19  32  53  77 101 132 176 215 264 333
#
# _framework density 18.637485999999999
#
# number of rings (size 3 to 8) (size 9 to 14) (size 15 to 20)
#    0.500    2.167    0.000    2.500    1.167    2.000 
#    1.500   12.500    0.000    0.000    0.000    0.000 
#    0.000    0.000    0.000    0.000    0.000    0.000 
#
# Total GULP energy -133657.132760 kJ/mol
# GULP energy per Si atom -5569.047198 kJ/mol
# Density = 1.859507 g / cm^3
# Si number density = 18.637486 Si / 1000 Ang^3
#
#
#
# Elastic Constant Matrix: (Units=GPa)
#
#
# Indices 1 2 3 4 5 6 
#
# 1 111.8826 14.2920 53.6454 0.0000 -40.4509 0.0000
# 2 14.2920 47.6325 22.0680 0.0000 -9.3417 0.0000
# 3 53.6454 22.0680 137.9750 0.0000 -20.8591 0.0000
# 4 0.0000 0.0000 0.0000 22.3878 0.0000 -3.2629
# 5 -40.4509 -9.3417 -20.8591 0.0000 19.7225 0.0000
# 6 0.0000 0.0000 0.0000 -3.2629 0.0000 20.9296
#
#
#
# Elastic Compliance Matrix: (Units=1/GPa)
#
#
# Indices 1 2 3 4 5 6 
#
# 1 0.036985 0.005302 -0.004024 0.000000 0.074111 0.000000
# 2 0.005302 0.024611 -0.003085 0.000000 0.019269 0.000000
# 3 -0.004024 -0.003085 0.009329 0.000000 0.000153 0.000000
# 4 0.000000 0.000000 0.000000 0.045706 0.000000 0.007125
# 5 0.074111 0.019269 0.000153 0.000000 0.211994 0.000000
# 6 0.000000 0.000000 0.000000 0.007125 0.000000 0.048890
#
#
# Mechanical properties :
#
#
# Convention : Reuss Voigt Hill
#
# Bulk Modulus (GPa) = 14.85628 53.05565 33.95597
# Shear Modulus (GPa) = 12.38959 26.44031 19.41495
#
# Velocity S-wave (km/s) = 2.58110 3.77060 3.23106
# Velocity P-wave (km/s) = 4.10747 6.89098 5.67260
#
# Compressibility (1/GPa) = 0.06731160
#
# Stress axis : x y z
#
# Youngs Moduli (GPa) = 27.03822 40.63149 107.19798
#
# Poissons Ratio (x) = -0.21542 0.43132
# Poissons Ratio (y) = -0.14335 0.33067
# Poissons Ratio (z) = 0.10879 0.12534
#
# Static dielectric constant tensor:
#      x y z
#    x 1.633110 0.000000 -0.011230 
#    y 0.000000 1.676360 0.000000 
#    z -0.011230 0.000000 1.646220 
# 
# From -- ./inp_files/308625.got.cif
#   From: 2010.05.17/outbox.cif.g08.bks.cpg/sg12_155_cif.got.tgz:308625.got - 2010.06.03 13:09:07.
