data_PCOD9181444
_publ_section_title
;
Structure prediction by ZEFSAII (Michael W. Deem and Ramdas Pophale) SiO2 
 PCOD9181444
Probable space group: C 2/M
;
_chemical_formula_sum "Si O2"
_cell_formula_units_Z 40
_cell_length_a 24.158701
_cell_length_b 9.237318
_cell_length_c 7.842590
_cell_angle_alpha 90.000000
_cell_angle_beta 81.319460
_cell_angle_gamma 90.000000
_cell_volume 1730.117179
_symmetry_space_group_name_H-M "C 2/M"
_symmetry_group_IT_number 12
_symmetry_cell_setting 'monoclinic'
loop_
_space_group_symop_operation_xyz
x,y,z
-x,y,-z
-x,-y,-z
x,-y,z
1/2+x,1/2+y,z
1/2-x,1/2+y,-z
1/2-x,1/2-y,-z
1/2+x,1/2-y,z
loop_
_atom_site_type_symbol
_atom_site_label
_atom_site_fract_x
_atom_site_fract_y
_atom_site_fract_z
Si Si1 0.670631 0.333342 0.438142
Si Si2 0.032565 0.336281 0.800947
Si Si3 0.935122 0.828523 0.690870
Si Si4 0.768358 0.833710 0.224392
Si Si5 0.134267 0.672121 0.980300
O O1 0.676885 0.500000 0.373518
O O2 0.604963 0.296736 0.451790
O O3 0.708166 0.228008 0.305289
O O4 0.696638 0.330584 0.613876
O O5 0.030361 0.500000 0.736371
O O6 0.095549 0.303884 0.830298
O O7 0.995945 0.238667 0.693165
O O8 0.000000 0.333300 0.000000
O O9 0.941505 0.000000 0.702100
O O10 0.896593 0.763631 0.860121
O O11 0.803983 0.731177 0.084380
O O12 0.765848 0.000000 0.166865
O O13 0.133201 0.500000 0.017273
#
# Coordination Sequence:
#
# PCOD9181444 Si02
#       5
#     8   8   8   8   8
#     4   9  20  37  53  73 102 132 164 205 253 300
#     4   8  16  31  49  71 101 134 165 200 245 293
#     4  10  19  32  53  78 102 130 165 206 249 294
#     4  10  20  35  55  75  97 131 171 207 247 296
#     4  10  20  34  52  75 104 134 165 205 248 292
#
# _framework density 23.119821000000002
#
# number of rings (size 3 to 8) (size 9 to 14) (size 15 to 20)
#    0.000    2.600    0.000    3.000    0.000    7.600 
#    0.000    1.000    0.000    6.000    0.000    0.000 
#    0.000    0.000    0.000    0.000    0.000    0.000 
#
# Total GULP energy -111765.603334 kJ/mol
# GULP energy per Si atom -5588.280167 kJ/mol
# Density = 2.306720 g / cm^3
# Si number density = 23.119821 Si / 1000 Ang^3
#
#
#
# Elastic Constant Matrix: (Units=GPa)
#
#
# Indices 1 2 3 4 5 6 
#
# 1 159.9570 51.9410 9.0488 0.0000 15.1910 0.0000
# 2 51.9410 53.4208 21.4996 0.0000 14.6140 0.0000
# 3 9.0488 21.4996 48.2816 0.0000 15.9615 0.0000
# 4 0.0000 0.0000 0.0000 3.1182 0.0000 12.6934
# 5 15.1910 14.6140 15.9615 0.0000 45.1509 0.0000
# 6 0.0000 0.0000 0.0000 12.6934 0.0000 27.7909
#
#
#
# Elastic Compliance Matrix: (Units=1/GPa)
#
#
# Indices 1 2 3 4 5 6 
#
# 1 0.009479 -0.010190 0.003086 0.000000 -0.000982 0.000000
# 2 -0.010190 0.034520 -0.012344 0.000000 -0.003381 0.000000
# 3 0.003086 -0.012344 0.027915 0.000000 -0.006911 0.000000
# 4 0.000000 0.000000 0.000000 -0.373207 0.000000 0.170462
# 5 -0.000982 -0.003381 -0.006911 0.000000 0.026016 0.000000
# 6 0.000000 0.000000 0.000000 0.170462 0.000000 -0.041875
#
#
# Mechanical properties :
#
#
# Convention : Reuss Voigt Hill
#
# Bulk Modulus (GPa) = 30.28718 47.40426 38.84572
# Shear Modulus (GPa) = -18.70906 27.15667 4.22380
#
# Velocity S-wave (km/s) = -2.84777 3.43097 1.35310
# Velocity P-wave (km/s) = 1.52167 6.02027 4.39085
#
# Compressibility (1/GPa) = 0.03301727
#
# Stress axis : x y z
#
# Youngs Moduli (GPa) = 105.49416 28.96902 35.82302
#
# Poissons Ratio (x) = 0.29519 -0.11053
# Poissons Ratio (y) = 1.07496 0.44220
# Poissons Ratio (z) = -0.32550 0.35759
#
# Static dielectric constant tensor:
#      x y z
#    x 1.887120 0.000000 0.044580 
#    y 0.000000 1.787930 0.000000 
#    z 0.044580 0.000000 1.913800 
# 
# From -- ./inp_files/92923.got.cif
#   From: 2010.05.17/outbox.cif.g08.bks.cpg/sg12_47_cif.got.tgz:92923.got - 2010.06.03 13:09:07.
