data_PCOD9181525
_publ_section_title
;
Structure prediction by ZEFSAII (Michael W. Deem and Ramdas Pophale) SiO2 
 PCOD9181525
Probable space group: C 2/M
;
_chemical_formula_sum "Si O2"
_cell_formula_units_Z 56
_cell_length_a 14.667915
_cell_length_b 19.079474
_cell_length_c 15.290716
_cell_angle_alpha 90.000000
_cell_angle_beta 133.267703
_cell_angle_gamma 90.000000
_cell_volume 3115.939116
_symmetry_space_group_name_H-M "C 2/M"
_symmetry_group_IT_number 12
_symmetry_cell_setting 'monoclinic'
loop_
_space_group_symop_operation_xyz
x,y,z
-x,y,-z
-x,-y,-z
x,-y,z
1/2+x,1/2+y,z
1/2-x,1/2+y,-z
1/2-x,1/2-y,-z
1/2+x,1/2-y,z
loop_
_atom_site_type_symbol
_atom_site_label
_atom_site_fract_x
_atom_site_fract_y
_atom_site_fract_z
Si Si1 0.016634 0.815691 0.659147
Si Si2 0.937893 0.916213 0.151164
Si Si3 0.052901 0.332812 0.299462
Si Si4 0.308245 0.083803 0.118820
Si Si5 0.866935 0.631556 0.460389
Si Si6 0.827057 0.919951 0.796127
Si Si7 0.806045 0.206075 0.384532
O O1 0.036613 0.875362 0.743257
O O2 0.132136 0.809815 0.667946
O O3 0.994792 0.741619 0.693514
O O4 0.894612 0.827025 0.518104
O O5 0.039802 0.890313 0.146369
O O6 0.956131 0.000000 0.173531
O O7 0.798942 0.904746 0.023393
O O8 0.108994 0.373684 0.420833
O O9 0.165100 0.318129 0.306534
O O10 0.936114 0.375612 0.186177
O O11 0.249277 0.110539 0.172393
O O12 0.331918 0.000000 0.141293
O O13 0.763585 0.583349 0.347449
O O14 0.819559 0.710601 0.409846
O O15 0.000000 0.621750 0.500000
O O16 0.852259 0.000000 0.839435
#
# Coordination Sequence:
#
# PCOD9181525 Si02
#       7
#     8   8   8   8   8   8   8
#     4  10  19  36  56  78 105 136 178 218 256 314
#     4  10  21  37  55  74 102 144 184 218 260 306
#     4  11  20  33  55  81 110 139 172 211 267 315
#     4  10  21  36  52  76 110 141 174 219 264 309
#     4  11  17  32  53  81 110 137 165 207 267 316
#     4  10  19  32  53  79 107 140 175 211 258 319
#     4  10  19  34  55  80 106 138 168 216 270 314
#
# _framework density 17.972110000000001
#
# number of rings (size 3 to 8) (size 9 to 14) (size 15 to 20)
#    0.000    1.714    4.286    3.857    0.000    3.143 
#    0.000    3.571    0.000    1.714    0.000    0.000 
#    0.000    0.000    0.000    0.000    0.000    0.000 
#
# Total GULP energy -156246.521657 kJ/mol
# GULP energy per Si atom -5580.232916 kJ/mol
# Density = 1.793120 g / cm^3
# Si number density = 17.972110 Si / 1000 Ang^3
#
#
#
# Elastic Constant Matrix: (Units=GPa)
#
#
# Indices 1 2 3 4 5 6 
#
# 1 145.4773 36.5243 45.3476 0.0000 29.1875 0.0000
# 2 36.5243 35.2123 33.2861 0.0000 6.0174 0.0000
# 3 45.3476 33.2861 55.7010 0.0000 11.2674 0.0000
# 4 0.0000 0.0000 0.0000 16.1088 0.0000 -3.3365
# 5 29.1875 6.0174 11.2674 0.0000 25.6984 0.0000
# 6 0.0000 0.0000 0.0000 -3.3365 0.0000 15.4924
#
#
#
# Elastic Compliance Matrix: (Units=1/GPa)
#
#
# Indices 1 2 3 4 5 6 
#
# 1 0.011783 -0.007730 -0.002889 0.000000 -0.010306 0.000000
# 2 -0.007730 0.070434 -0.037569 0.000000 0.008759 0.000000
# 3 -0.002889 -0.037569 0.044235 0.000000 -0.007317 0.000000
# 4 0.000000 0.000000 0.000000 0.064976 0.000000 0.013994
# 5 -0.010306 0.008759 -0.007317 0.000000 0.051775 0.000000
# 6 0.000000 0.000000 0.000000 0.013994 0.000000 0.067562
#
#
# Mechanical properties :
#
#
# Convention : Reuss Voigt Hill
#
# Bulk Modulus (GPa) = 33.24772 51.85628 42.55200
# Shear Modulus (GPa) = 11.98560 19.54210 15.76385
#
# Velocity S-wave (km/s) = 2.58524 3.30109 2.96485
# Velocity P-wave (km/s) = 5.23938 6.59135 5.95387
#
# Compressibility (1/GPa) = 0.03007725
#
# Stress axis : x y z
#
# Youngs Moduli (GPa) = 84.86928 14.19761 22.60630
#
# Poissons Ratio (x) = 0.10975 0.06530
# Poissons Ratio (y) = 0.65605 0.84930
# Poissons Ratio (z) = 0.24515 0.53339
#
# Static dielectric constant tensor:
#      x y z
#    x 1.629130 0.000000 0.003630 
#    y 0.000000 1.614020 0.000000 
#    z 0.003630 0.000000 1.612530 
# 
# From -- ./inp_files/216437.got.cif
#   From: 2010.05.17/outbox.cif.g08.bks.cpg/sg12_109_cif.got.tgz:216437.got - 2010.06.03 13:09:07.
