data_PCOD9181075
_publ_section_title
;
Structure prediction by ZEFSAII (Michael W. Deem and Ramdas Pophale) SiO2 
 PCOD9181075
Probable space group: C 2/M
;
_chemical_formula_sum "Si O2"
_cell_formula_units_Z 64
_cell_length_a 20.491174
_cell_length_b 7.691675
_cell_length_c 21.757263
_cell_angle_alpha 90.000000
_cell_angle_beta 134.823705
_cell_angle_gamma 90.000000
_cell_volume 2432.255645
_symmetry_space_group_name_H-M "C 2/M"
_symmetry_group_IT_number 12
_symmetry_cell_setting 'monoclinic'
loop_
_space_group_symop_operation_xyz
x,y,z
-x,y,-z
-x,-y,-z
x,-y,z
1/2+x,1/2+y,z
1/2-x,1/2+y,-z
1/2-x,1/2-y,-z
1/2+x,1/2-y,z
loop_
_atom_site_type_symbol
_atom_site_label
_atom_site_fract_x
_atom_site_fract_y
_atom_site_fract_z
Si Si1 0.875815 0.198386 0.593677
Si Si2 0.243445 0.706805 0.067094
Si Si3 0.505011 0.206734 0.434640
Si Si4 0.054597 0.293029 0.788641
Si Si5 0.692128 0.210091 0.710904
Si Si6 0.789950 0.210417 0.656369
Si Si7 0.126563 0.702625 0.094865
Si Si8 0.972594 0.295357 0.855156
O O1 0.803388 0.275443 0.595225
O O2 0.904834 0.271835 0.547005
O O3 0.973107 0.209118 0.695533
O O4 0.851686 0.000000 0.567936
O O5 0.238123 0.500000 0.068444
O O6 0.340320 0.766375 0.160206
O O7 0.156627 0.776980 0.048720
O O8 0.250000 0.750000 0.000000
O O9 0.500000 0.279728 0.500000
O O10 0.410230 0.268465 0.339921
O O11 0.493411 0.000000 0.432196
O O12 0.036498 0.500000 0.774703
O O13 0.044686 0.227785 0.852838
O O14 0.707670 0.250937 0.648511
O O15 0.776334 0.289726 0.803958
O O16 0.700549 0.000000 0.723437
O O17 0.878360 0.276195 0.753346
O O18 0.794807 0.000000 0.656243
O O19 0.102851 0.500000 0.071488
O O20 0.052285 0.777967 0.093978
O O21 0.992931 0.500000 0.876759
#
# Coordination Sequence:
#
# PCOD9181075 Si02
#       8
#     8   8   8   8   8   8   8   8
#     4  10  19  32  52  76 101 128 161 203 248 296
#     4  11  23  37  52  72 102 137 171 208 248 292
#     4  10  21  35  49  68  98 135 172 209 249 295
#     4  10  19  33  55  79 102 129 162 201 246 297
#     4   9  17  31  52  74  96 126 163 202 245 294
#     4   8  15  28  47  72  98 123 155 198 246 292
#     4   9  18  33  53  76  99 125 161 204 247 291
#     4   8  15  29  50  75  99 123 156 199 244 290
#
# _framework density 26.313023999999999
#
# number of rings (size 3 to 8) (size 9 to 14) (size 15 to 20)
#    0.000    2.625    0.000    1.875    0.000    4.750 
#    0.000    1.250    0.000    3.750    0.000    0.000 
#    0.000    0.000    0.000    0.000    0.000    0.000 
#
# Total GULP energy -178785.699025 kJ/mol
# GULP energy per Si atom -5587.053095 kJ/mol
# Density = 2.625313 g / cm^3
# Si number density = 26.313024 Si / 1000 Ang^3
#
#
#
# Elastic Constant Matrix: (Units=GPa)
#
#
# Indices 1 2 3 4 5 6 
#
# 1 188.4564 8.8826 37.1065 0.0000 -11.7718 0.0000
# 2 8.8826 61.1729 10.8192 0.0000 2.0098 0.0000
# 3 37.1065 10.8192 104.3822 0.0000 -22.8188 0.0000
# 4 0.0000 0.0000 0.0000 11.0125 0.0000 -9.1980
# 5 -11.7718 2.0098 -22.8188 0.0000 54.4194 0.0000
# 6 0.0000 0.0000 0.0000 -9.1980 0.0000 18.5221
#
#
#
# Elastic Compliance Matrix: (Units=1/GPa)
#
#
# Indices 1 2 3 4 5 6 
#
# 1 0.005730 -0.000515 -0.001881 0.000000 0.000470 0.000000
# 2 -0.000515 0.016807 -0.001893 0.000000 -0.001526 0.000000
# 3 -0.001881 -0.001893 0.011418 0.000000 0.004451 0.000000
# 4 0.000000 0.000000 0.000000 0.155165 0.000000 0.077054
# 5 0.000470 -0.001526 0.004451 0.000000 0.020400 0.000000
# 6 0.000000 0.000000 0.000000 0.077054 0.000000 0.092255
#
#
# Mechanical properties :
#
#
# Convention : Reuss Voigt Hill
#
# Bulk Modulus (GPa) = 39.40373 51.95869 45.68121
# Shear Modulus (GPa) = 15.68331 36.60432 26.14382
#
# Velocity S-wave (km/s) = 2.44402 3.73381 3.15551
# Velocity P-wave (km/s) = 4.79289 6.19497 5.53848
#
# Compressibility (1/GPa) = 0.02537831
#
# Stress axis : x y z
#
# Youngs Moduli (GPa) = 174.51287 59.50004 87.58140
#
# Poissons Ratio (x) = 0.03063 0.16474
# Poissons Ratio (y) = 0.08984 0.16575
# Poissons Ratio (z) = 0.32825 0.11260
#
# Static dielectric constant tensor:
#      x y z
#    x 2.097700 0.000000 -0.072120 
#    y 0.000000 2.035940 0.000000 
#    z -0.072120 0.000000 2.123970 
# 
# From -- ./inp_files/319871.got.cif
#   From: 2010.05.17/outbox.cif.g08.bks.cpg/sg12_160_cif.got.tgz:319871.got - 2010.06.03 13:09:07.
