data_PCOD9181231
_publ_section_title
;
Structure prediction by ZEFSAII (Michael W. Deem and Ramdas Pophale) SiO2 
 PCOD9181231
Probable space group: C 2/M
;
_chemical_formula_sum "Si O2"
_cell_formula_units_Z 64
_cell_length_a 16.221678
_cell_length_b 28.499023
_cell_length_c 11.753250
_cell_angle_alpha 90.000000
_cell_angle_beta 145.864541
_cell_angle_gamma 90.000000
_cell_volume 3049.044322
_symmetry_space_group_name_H-M "C 2/M"
_symmetry_group_IT_number 12
_symmetry_cell_setting 'monoclinic'
loop_
_space_group_symop_operation_xyz
x,y,z
-x,y,-z
-x,-y,-z
x,-y,z
1/2+x,1/2+y,z
1/2-x,1/2+y,-z
1/2-x,1/2-y,-z
1/2+x,1/2-y,z
loop_
_atom_site_type_symbol
_atom_site_label
_atom_site_fract_x
_atom_site_fract_y
_atom_site_fract_z
Si Si1 0.705796 0.811034 0.833471
Si Si2 0.792858 0.090164 0.046714
Si Si3 0.067853 0.860116 0.453717
Si Si4 0.323885 0.947589 0.312765
Si Si5 0.039635 0.790520 0.221945
Si Si6 0.224806 0.352488 0.622628
Si Si7 0.497430 0.191762 0.790749
Si Si8 0.641595 0.887435 0.099065
O O1 0.657554 0.823558 0.651667
O O2 0.595218 0.788497 0.796705
O O3 0.736022 0.860836 0.929048
O O4 0.865230 0.788323 0.002227
O O5 0.704813 0.083547 0.063924
O O6 0.961580 0.101451 0.271925
O O7 0.754074 0.055506 0.900089
O O8 0.065185 0.813671 0.374440
O O9 0.228822 0.879223 0.663261
O O10 0.000000 0.849926 0.500000
O O11 0.500000 0.939238 0.500000
O O12 0.262659 0.905837 0.321612
O O13 0.304402 0.000000 0.337061
O O14 0.124008 0.827268 0.238137
O O15 0.089475 0.736970 0.263274
O O16 0.113923 0.345415 0.392055
O O17 0.593125 0.163396 0.991350
O O18 0.500000 0.907670 0.000000
#
# Coordination Sequence:
#
# PCOD9181231 Si02
#       8
#     8   8   8   8   8   8   8   8
#     4   9  19  35  53  71 105 156 199 238 288 353
#     4   8  17  35  56  80 111 150 193 239 297 364
#     4   9  19  35  53  74 109 159 204 240 289 355
#     4  10  20  37  66  98 122 150 195 251 316 387
#     4  11  22  34  51  80 116 158 203 250 294 345
#     4  11  21  36  56  84 119 155 193 249 315 356
#     4  11  22  34  50  79 116 158 208 245 285 352
#     4  10  19  32  52  78 108 151 204 250 290 346
#
# _framework density 20.990185
#
# number of rings (size 3 to 8) (size 9 to 14) (size 15 to 20)
#    0.000    2.125    0.000    5.250    0.000    3.000 
#    0.000    0.000    0.000   17.250    0.000    5.250 
#    0.000    0.000    0.000    0.000    0.000    0.000 
#
# Total GULP energy -178551.717505 kJ/mol
# GULP energy per Si atom -5579.741172 kJ/mol
# Density = 2.094241 g / cm^3
# Si number density = 20.990185 Si / 1000 Ang^3
#
#
#
# Elastic Constant Matrix: (Units=GPa)
#
#
# Indices 1 2 3 4 5 6 
#
# 1 75.4080 30.7038 26.0585 0.0000 1.9900 0.0000
# 2 30.7038 98.0610 24.8411 0.0000 -2.7139 0.0000
# 3 26.0585 24.8411 105.6994 0.0000 3.5983 0.0000
# 4 0.0000 0.0000 0.0000 9.2545 0.0000 -11.7198
# 5 1.9900 -2.7139 3.5983 0.0000 23.9006 0.0000
# 6 0.0000 0.0000 0.0000 -11.7198 0.0000 11.7838
#
#
#
# Elastic Compliance Matrix: (Units=1/GPa)
#
#
# Indices 1 2 3 4 5 6 
#
# 1 0.016063 -0.004335 -0.002894 0.000000 -0.001394 0.000000
# 2 -0.004335 0.012076 -0.001838 0.000000 0.002009 0.000000
# 3 -0.002894 -0.001838 0.010660 0.000000 -0.001573 0.000000
# 4 0.000000 0.000000 0.000000 -0.416392 0.000000 -0.414130
# 5 -0.001394 0.002009 -0.001573 0.000000 0.042421 0.000000
# 6 0.000000 0.000000 0.000000 -0.414130 0.000000 -0.327017
#
#
# Mechanical properties :
#
#
# Convention : Reuss Voigt Hill
#
# Bulk Modulus (GPa) = 48.38930 49.15279 48.77105
# Shear Modulus (GPa) = -7.84723 22.15880 7.15579
#
# Velocity S-wave (km/s) = -1.93562 3.25264 1.84838
# Velocity P-wave (km/s) = 4.25533 6.12977 5.27645
#
# Compressibility (1/GPa) = 0.02066573
#
# Stress axis : x y z
#
# Youngs Moduli (GPa) = 62.25457 82.80747 93.81162
#
# Poissons Ratio (x) = 0.35897 0.27148
# Poissons Ratio (y) = 0.26987 0.17240
# Poissons Ratio (z) = 0.18015 0.15218
#
# Static dielectric constant tensor:
#      x y z
#    x 1.845390 0.000000 0.017070 
#    y 0.000000 1.723790 0.000000 
#    z 0.017070 0.000000 1.809920 
# 
# From -- ./inp_files/161268.got.cif
#   From: 2010.05.17/outbox.cif.g08.bks.cpg/sg12_81_cif.got.tgz:161268.got - 2010.06.03 13:09:07.
