data_PCOD9181110
_publ_section_title
;
Structure prediction by ZEFSAII (Michael W. Deem and Ramdas Pophale) SiO2 
 PCOD9181110
Probable space group: C 2/M
;
_chemical_formula_sum "Si O2"
_cell_formula_units_Z 64
_cell_length_a 17.483254
_cell_length_b 13.198931
_cell_length_c 26.567404
_cell_angle_alpha 90.000000
_cell_angle_beta 34.468033
_cell_angle_gamma 90.000000
_cell_volume 3469.647900
_symmetry_space_group_name_H-M "C 2/M"
_symmetry_group_IT_number 12
_symmetry_cell_setting 'monoclinic'
loop_
_space_group_symop_operation_xyz
x,y,z
-x,y,-z
-x,-y,-z
x,-y,z
1/2+x,1/2+y,z
1/2-x,1/2+y,-z
1/2-x,1/2-y,-z
1/2+x,1/2-y,z
loop_
_atom_site_type_symbol
_atom_site_label
_atom_site_fract_x
_atom_site_fract_y
_atom_site_fract_z
Si Si1 0.096238 0.615323 0.344709
Si Si2 0.646952 0.881716 0.786526
Si Si3 0.824504 0.675573 0.532961
Si Si4 0.880127 0.878614 0.837966
Si Si5 0.662298 0.682163 0.720936
Si Si6 0.572731 0.122910 0.012582
Si Si7 0.593850 0.321570 0.291022
Si Si8 0.821846 0.889468 0.488577
O O1 0.075692 0.500000 0.339499
O O2 0.244981 0.629384 0.287272
O O3 0.080584 0.702583 0.311431
O O4 0.981798 0.644304 0.448439
O O5 0.670189 0.802160 0.729063
O O6 0.515105 0.852073 0.890669
O O7 0.769547 0.865192 0.759248
O O8 0.640035 0.000000 0.775764
O O9 0.733579 0.649657 0.629990
O O10 0.806583 0.795854 0.534317
O O11 0.771805 0.626386 0.509587
O O12 0.911642 0.839658 0.764890
O O13 0.005305 0.846480 0.804633
O O14 0.877470 0.000000 0.837995
O O15 0.728017 0.843014 0.932918
O O16 0.573374 0.000000 0.009403
O O17 0.500000 0.157922 0.000000
O O18 0.471876 0.377878 0.384919
O O19 0.799549 0.000000 0.522829
#
# Coordination Sequence:
#
# PCOD9181110 Si02
#       8
#     8   8   8   8   8   8   8   8
#     4  10  22  38  53  74 109 146 178 219 264 315
#     4  10  20  36  55  80 113 142 171 217 268 319
#     4  10  21  34  49  76 104 139 189 218 257 323
#     4  11  20  33  56  83 109 135 175 228 266 306
#     4  11  23  35  52  80 111 143 180 213 263 328
#     4   9  17  31  56  85 106 133 174 217 268 315
#     4  10  19  33  56  82 103 134 181 222 266 318
#     4  10  19  32  52  76 105 135 175 233 272 298
#
# _framework density 18.445677
#
# number of rings (size 3 to 8) (size 9 to 14) (size 15 to 20)
#    0.000    1.875    2.500    2.250    0.000    3.000 
#    0.000    0.625    0.000    4.500    0.000    7.875 
#    0.000    0.000    0.000    0.000    0.000    0.000 
#
# Total GULP energy -178499.623438 kJ/mol
# GULP energy per Si atom -5578.113232 kJ/mol
# Density = 1.840369 g / cm^3
# Si number density = 18.445677 Si / 1000 Ang^3
#
#
#
# Elastic Constant Matrix: (Units=GPa)
#
#
# Indices 1 2 3 4 5 6 
#
# 1 45.9781 9.2392 18.2590 0.0000 -23.1990 0.0000
# 2 9.2392 98.0331 2.4777 -0.0001 -9.2369 0.0000
# 3 18.2590 2.4777 39.5385 -0.0001 -19.5045 0.0000
# 4 0.0000 -0.0001 -0.0001 12.2264 0.0000 -9.3177
# 5 -23.1990 -9.2369 -19.5045 0.0000 26.8512 0.0000
# 6 0.0000 0.0000 0.0000 -9.3177 0.0000 7.5022
#
#
#
# Elastic Compliance Matrix: (Units=1/GPa)
#
#
# Indices 1 2 3 4 5 6 
#
# 1 0.038710 -0.000614 -0.002250 -0.000001 0.031599 -0.000001
# 2 -0.000614 0.010631 0.001807 0.000001 0.004439 0.000001
# 3 -0.002250 0.001807 0.039842 0.000005 0.027618 0.000006
# 4 -0.000001 0.000001 0.000005 1.528923 0.000002 1.898901
# 5 0.031599 0.004439 0.027618 0.000002 0.086132 0.000003
# 6 -0.000001 0.000001 0.000006 1.898901 0.000003 2.491703
#
#
# Mechanical properties :
#
#
# Convention : Reuss Voigt Hill
#
# Bulk Modulus (GPa) = 11.48502 27.05572 19.27037
# Shear Modulus (GPa) = 1.18285 19.55423 10.36854
#
# Velocity S-wave (km/s) = 0.80166 3.25945 2.37346
# Velocity P-wave (km/s) = 2.66398 5.37261 4.24039
#
# Compressibility (1/GPa) = 0.08706996
#
# Stress axis : x y z
#
# Youngs Moduli (GPa) = 25.83285 94.06341 25.09917
#
# Poissons Ratio (x) = 0.05776 0.05647
# Poissons Ratio (y) = 0.01586 -0.04536
# Poissons Ratio (z) = 0.05813 -0.17001
#
# Static dielectric constant tensor:
#      x y z
#    x 1.643120 0.000000 -0.033290 
#    y 0.000000 1.643530 0.000000 
#    z -0.033290 0.000000 1.652240 
# 
# From -- ./inp_files/379085.got.cif
#   From: 2010.05.17/outbox.cif.g08.bks.cpg/sg12_190_cif.got.tgz:379085.got - 2010.06.03 13:09:07.
