data_PCOD9181221
_publ_section_title
;
Structure prediction by ZEFSAII (Michael W. Deem and Ramdas Pophale) SiO2 
 PCOD9181221
Probable space group: C 2/M
;
_chemical_formula_sum "Si O2"
_cell_formula_units_Z 64
_cell_length_a 24.158795
_cell_length_b 7.697781
_cell_length_c 15.719240
_cell_angle_alpha 90.000000
_cell_angle_beta 85.172835
_cell_angle_gamma 90.000000
_cell_volume 2912.924418
_symmetry_space_group_name_H-M "C 2/M"
_symmetry_group_IT_number 12
_symmetry_cell_setting 'monoclinic'
loop_
_space_group_symop_operation_xyz
x,y,z
-x,y,-z
-x,-y,-z
x,-y,z
1/2+x,1/2+y,z
1/2-x,1/2+y,-z
1/2-x,1/2-y,-z
1/2+x,1/2-y,z
loop_
_atom_site_type_symbol
_atom_site_label
_atom_site_fract_x
_atom_site_fract_y
_atom_site_fract_z
Si Si1 0.716554 0.798838 0.613025
Si Si2 0.346759 0.787457 0.851266
Si Si3 0.162275 0.800299 0.454782
Si Si4 0.460651 0.788018 0.083105
Si Si5 0.837939 0.289592 0.046148
Si Si6 0.967559 0.712914 0.769307
Si Si7 0.263008 0.702186 0.211656
Si Si8 0.960986 0.704231 0.579352
O O1 0.779510 0.727975 0.590666
O O2 0.673507 0.710740 0.554728
O O3 0.704904 0.787432 0.714329
O O4 0.717548 0.000000 0.587058
O O5 0.407835 0.734674 0.814866
O O6 0.299172 0.727014 0.793102
O O7 0.345694 0.000000 0.851371
O O8 0.333064 0.732006 0.949141
O O9 0.104285 0.717409 0.435034
O O10 0.158501 0.000000 0.428599
O O11 0.398104 0.734003 0.072799
O O12 0.485633 0.731570 0.169920
O O13 0.461153 0.000000 0.082441
O O14 0.500000 0.732999 0.000000
O O15 0.835646 0.500000 0.046899
O O16 0.792451 0.223027 0.117348
O O17 0.967684 0.500000 0.768387
O O18 0.972411 0.775894 0.672104
O O19 0.259878 0.500000 0.233211
O O20 0.974622 0.500000 0.583147
O O21 0.000000 0.779534 0.500000
#
# Coordination Sequence:
#
# PCOD9181221 Si02
#       8
#     8   8   8   8   8   8   8   8
#     4  10  21  38  60  84 109 141 185 233 282 342
#     4   9  17  30  50  75 104 140 183 230 276 325
#     4  10  21  38  61  85 110 143 183 232 288 338
#     4   9  15  27  50  78 103 130 179 240 282 317
#     4  10  19  32  52  78 106 140 183 231 281 327
#     4   9  16  29  51  78 105 137 182 235 281 318
#     4  11  22  34  50  77 113 148 181 219 275 338
#     4  10  21  35  53  81 118 157 193 232 278 334
#
# _framework density 21.971049000000001
#
# number of rings (size 3 to 8) (size 9 to 14) (size 15 to 20)
#    0.000    2.250    1.250    2.250    0.000    3.750 
#    0.000    3.125    0.000    1.875    0.000    0.000 
#    0.000    0.000    0.000    0.000    0.000    0.000 
#
# Total GULP energy -178741.158949 kJ/mol
# GULP energy per Si atom -5585.661217 kJ/mol
# Density = 2.192104 g / cm^3
# Si number density = 21.971049 Si / 1000 Ang^3
#
#
#
# Elastic Constant Matrix: (Units=GPa)
#
#
# Indices 1 2 3 4 5 6 
#
# 1 53.9005 -2.9562 16.0523 0.0000 22.0582 0.0000
# 2 -2.9562 39.4006 2.7643 0.0000 -2.4389 0.0000
# 3 16.0523 2.7643 142.0250 0.0000 21.5169 0.0000
# 4 0.0000 0.0000 0.0000 8.0554 0.0000 -3.6507
# 5 22.0582 -2.4389 21.5169 0.0000 31.6140 0.0000
# 6 0.0000 0.0000 0.0000 -3.6507 0.0000 12.0207
#
#
#
# Elastic Compliance Matrix: (Units=1/GPa)
#
#
# Indices 1 2 3 4 5 6 
#
# 1 0.026002 0.000859 -0.000242 0.000000 -0.017912 0.000000
# 2 0.000859 0.025631 -0.000897 0.000000 0.001988 0.000000
# 3 -0.000242 -0.000897 0.007884 0.000000 -0.005266 0.000000
# 4 0.000000 0.000000 0.000000 0.143953 0.000000 0.043719
# 5 -0.017912 0.001988 -0.005266 0.000000 0.047867 0.000000
# 6 0.000000 0.000000 0.000000 0.043719 0.000000 0.096467
#
#
# Mechanical properties :
#
#
# Convention : Reuss Voigt Hill
#
# Bulk Modulus (GPa) = 16.96170 29.67190 23.31680
# Shear Modulus (GPa) = 13.58638 24.96906 19.27772
#
# Velocity S-wave (km/s) = 2.48942 3.37479 2.96533
# Velocity P-wave (km/s) = 3.99996 5.35910 4.72862
#
# Compressibility (1/GPa) = 0.05895635
#
# Stress axis : x y z
#
# Youngs Moduli (GPa) = 38.45857 39.01556 126.84493
#
# Poissons Ratio (x) = -0.03352 0.03069
# Poissons Ratio (y) = -0.03304 0.11381
# Poissons Ratio (z) = 0.00931 0.03501
#
# Static dielectric constant tensor:
#      x y z
#    x 1.769870 0.000000 -0.006280 
#    y 0.000000 1.816560 0.000000 
#    z -0.006280 0.000000 1.811810 
# 
# From -- ./inp_files/238669.got.cif
#   From: 2010.05.17/outbox.cif.g08.bks.cpg/sg12_120_cif.got.tgz:238669.got - 2010.06.03 13:09:07.
