data_PCOD9181966
_publ_section_title
;
Structure prediction by ZEFSAII (Michael W. Deem and Ramdas Pophale) SiO2 
 PCOD9181966
Probable space group: C 2/M
;
_chemical_formula_sum "Si O2"
_cell_formula_units_Z 48
_cell_length_a 28.285063
_cell_length_b 7.618906
_cell_length_c 12.275729
_cell_angle_alpha 90.000000
_cell_angle_beta 90.000000
_cell_angle_gamma 90.000000
_cell_volume 2645.434775
_symmetry_space_group_name_H-M "C 2/M"
_symmetry_group_IT_number 12
_symmetry_cell_setting 'monoclinic'
loop_
_space_group_symop_operation_xyz
x,y,z
-x,y,-z
-x,-y,-z
x,-y,z
1/2+x,1/2+y,z
1/2-x,1/2+y,-z
1/2-x,1/2-y,-z
1/2+x,1/2-y,z
loop_
_atom_site_type_symbol
_atom_site_label
_atom_site_fract_x
_atom_site_fract_y
_atom_site_fract_z
Si Si1 0.945938 0.713218 0.500000
Si Si2 0.804264 0.790787 0.624777
Si Si3 0.944092 0.000000 0.130082
Si Si4 0.444092 0.500000 0.869918
Si Si5 0.601108 0.202623 0.273627
Si Si6 0.695736 0.709213 0.624777
Si Si7 0.898892 0.297377 0.273627
O O1 0.945170 0.500000 0.500000
O O2 0.920407 0.767001 0.610743
O O3 0.920407 0.767001 0.389257
O O4 0.000000 0.771758 0.500000
O O5 0.842730 0.713208 0.706391
O O6 0.750000 0.750000 0.652289
O O7 0.812275 0.725601 0.500000
O O8 0.810395 0.000000 0.624229
O O9 0.918846 0.830284 0.182012
O O10 0.000000 0.000000 0.158342
O O11 0.939939 0.000000 0.000000
O O12 0.418846 0.330284 0.817989
O O13 0.587210 0.000000 0.255586
O O14 0.689605 0.500000 0.624229
O O15 0.657270 0.786792 0.706391
O O16 0.912790 0.500000 0.255586
#
# Coordination Sequence:
#
# PCOD9181966 Si02
#       7
#     8   8   4   4   8   8   8
#     4   9  18  31  52  85 121 153 188 233 294 368
#     4  10  19  32  54  89 129 164 197 236 291 363
#     4  11  26  45  63  85 115 158 215 265 301 350
#     4  11  26  45  63  85 115 158 215 265 301 350
#     4  11  21  37  61  89 122 158 197 244 306 364
#     4  10  19  32  54  89 129 164 197 236 291 363
#     4  11  21  37  61  89 122 158 197 244 306 364
#
# _framework density 18.144465
#
# number of rings (size 3 to 8) (size 9 to 14) (size 15 to 20)
#    0.000    1.667    3.333    2.000    0.000    4.667 
#    0.000    3.333    0.000    1.000    0.000    0.000 
#    0.000    0.000    0.000    0.000    0.000    0.000 
#
# Total GULP energy -134067.207880 kJ/mol
# GULP energy per Si atom -5586.133662 kJ/mol
# Density = 1.810317 g / cm^3
# Si number density = 18.144465 Si / 1000 Ang^3
#
#
#
# Elastic Constant Matrix: (Units=GPa)
#
#
# Indices 1 2 3 4 5 6 
#
# 1 122.9806 26.7959 52.9003 0.0000 0.0000 0.0000
# 2 26.7959 103.9883 41.9683 0.0000 0.0000 0.0000
# 3 52.9003 41.9683 84.1946 0.0000 0.0000 0.0000
# 4 0.0000 0.0000 0.0000 21.4536 0.0000 0.0000
# 5 0.0000 0.0000 0.0000 0.0000 21.4716 0.0000
# 6 0.0000 0.0000 0.0000 0.0000 0.0000 19.2128
#
#
#
# Elastic Compliance Matrix: (Units=1/GPa)
#
#
# Indices 1 2 3 4 5 6 
#
# 1 0.011143 -0.000057 -0.006973 0.000000 0.000000 0.000000
# 2 -0.000057 0.012039 -0.005965 0.000000 0.000000 0.000000
# 3 -0.006973 -0.005965 0.019232 0.000000 0.000000 0.000000
# 4 0.000000 0.000000 0.000000 0.046612 0.000000 0.000000
# 5 0.000000 0.000000 0.000000 0.000000 0.046573 0.000000
# 6 0.000000 0.000000 0.000000 0.000000 0.000000 0.052049
#
#
# Mechanical properties :
#
#
# Convention : Reuss Voigt Hill
#
# Bulk Modulus (GPa) = 60.88837 61.61025 61.24931
# Shear Modulus (GPa) = 22.81939 25.06086 23.94012
#
# Velocity S-wave (km/s) = 3.55018 3.72046 3.63632
# Velocity P-wave (km/s) = 7.10179 7.24465 7.17358
#
# Compressibility (1/GPa) = 0.01642350
#
# Stress axis : x y z
#
# Youngs Moduli (GPa) = 89.74066 83.06643 51.99763
#
# Poissons Ratio (x) = 0.00476 0.36257
# Poissons Ratio (y) = 0.00514 0.31016
# Poissons Ratio (z) = 0.62575 0.49548
#
# Static dielectric constant tensor:
#      x y z
#    x 1.644950 0.000000 0.000000 
#    y 0.000000 1.650500 0.000000 
#    z 0.000000 0.000000 1.583290 
# 
# From -- ./inp_files/179298.got.cif
#   From: 2010.05.17/outbox.cif.g08.bks.cpg/sg12_90_cif.got.tgz:179298.got - 2010.06.03 13:09:07.
