data_PCOD9181370
_publ_section_title
;
Structure prediction by ZEFSAII (Michael W. Deem and Ramdas Pophale) SiO2 
 PCOD9181370
Probable space group: C 2/M
;
_chemical_formula_sum "Si O2"
_cell_formula_units_Z 64
_cell_length_a 14.856928
_cell_length_b 19.209757
_cell_length_c 16.084788
_cell_angle_alpha 90.000000
_cell_angle_beta 42.869654
_cell_angle_gamma 90.000000
_cell_volume 3123.112546
_symmetry_space_group_name_H-M "C 2/M"
_symmetry_group_IT_number 12
_symmetry_cell_setting 'monoclinic'
loop_
_space_group_symop_operation_xyz
x,y,z
-x,y,-z
-x,-y,-z
x,-y,z
1/2+x,1/2+y,z
1/2-x,1/2+y,-z
1/2-x,1/2-y,-z
1/2+x,1/2-y,z
loop_
_atom_site_type_symbol
_atom_site_label
_atom_site_fract_x
_atom_site_fract_y
_atom_site_fract_z
Si Si1 0.648721 0.664315 0.047870
Si Si2 0.326007 0.768051 0.813071
Si Si3 0.880689 0.921535 0.645830
Si Si4 0.572491 0.762713 0.874045
Si Si5 0.299341 0.836765 0.351331
Si Si6 0.500147 0.419195 0.266644
Si Si7 0.575984 0.775024 0.529752
Si Si8 0.803199 0.416129 0.517662
O O1 0.681093 0.709942 0.109000
O O2 0.526705 0.699377 0.080184
O O3 0.591743 0.594702 0.126243
O O4 0.771010 0.665195 0.901864
O O5 0.217935 0.756108 0.812061
O O6 0.471539 0.772620 0.675946
O O7 0.772106 0.876673 0.674974
O O8 0.936728 0.888505 0.692142
O O9 0.000000 0.925919 0.500000
O O10 0.831346 0.000000 0.694687
O O11 0.582269 0.801327 0.779278
O O12 0.500000 0.801454 0.000000
O O13 0.202310 0.775888 0.451469
O O14 0.322425 0.892395 0.408535
O O15 0.489551 0.500000 0.293265
O O16 0.349100 0.397726 0.356946
O O17 0.500000 0.749182 0.500000
O O18 0.614807 0.856162 0.490942
O O19 0.825952 0.500000 0.513855
#
# Coordination Sequence:
#
# PCOD9181370 Si02
#       8
#     8   8   8   8   8   8   8   8
#     4  10  20  37  58  77 117 151 184 237 289 346
#     4  10  21  37  55  86 114 147 185 236 301 341
#     4  10  19  32  52  86 124 152 181 234 302 351
#     4  10  21  35  56  84 114 148 186 240 298 343
#     4  12  20  35  61  90 117 145 195 245 289 347
#     4  10  20  34  56  84 112 151 195 233 282 341
#     4  12  24  37  60  90 115 148 197 247 290 341
#     4  11  24  39  57  83 121 159 190 234 295 354
#
# _framework density 20.492377999999999
#
# number of rings (size 3 to 8) (size 9 to 14) (size 15 to 20)
#    0.000    1.375    2.500    4.125    0.000    0.250 
#    0.000    0.625    0.000    6.375    0.000    0.000 
#    0.000    0.000    0.000    0.000    0.000    0.000 
#
# Total GULP energy -178399.579386 kJ/mol
# GULP energy per Si atom -5574.986856 kJ/mol
# Density = 2.044574 g / cm^3
# Si number density = 20.492378 Si / 1000 Ang^3
#
#
#
# Elastic Constant Matrix: (Units=GPa)
#
#
# Indices 1 2 3 4 5 6 
#
# 1 64.9062 7.9621 -7.1520 0.0001 3.6915 0.0000
# 2 7.9621 58.9190 6.1028 0.0001 -5.8130 0.0000
# 3 -7.1520 6.1028 102.6854 0.0004 18.8194 0.0000
# 4 0.0001 0.0001 0.0004 25.4183 -0.0001 15.7190
# 5 3.6915 -5.8130 18.8194 -0.0001 22.1002 -0.0001
# 6 0.0000 0.0000 0.0000 15.7190 -0.0001 41.5904
#
#
#
# Elastic Compliance Matrix: (Units=1/GPa)
#
#
# Indices 1 2 3 4 5 6 
#
# 1 0.016342 -0.002991 0.002323 0.000000 -0.005495 0.000000
# 2 -0.002991 0.018411 -0.002704 0.000000 0.007644 0.000000
# 3 0.002323 -0.002704 0.012160 0.000000 -0.011454 0.000000
# 4 0.000000 0.000000 0.000000 0.051342 0.000000 -0.019404
# 5 -0.005495 0.007644 -0.011454 0.000000 0.057931 0.000000
# 6 0.000000 0.000000 0.000000 -0.019404 0.000000 0.031378
#
#
# Mechanical properties :
#
#
# Convention : Reuss Voigt Hill
#
# Bulk Modulus (GPa) = 24.89424 26.70406 25.79915
# Shear Modulus (GPa) = 24.07354 32.46164 28.26759
#
# Velocity S-wave (km/s) = 3.43119 3.98437 3.71808
# Velocity P-wave (km/s) = 5.27938 5.85034 5.57218
#
# Compressibility (1/GPa) = 0.04016994
#
# Stress axis : x y z
#
# Youngs Moduli (GPa) = 61.19111 54.31566 82.23571
#
# Poissons Ratio (x) = 0.16247 -0.19103
# Poissons Ratio (y) = 0.18303 0.22233
# Poissons Ratio (z) = -0.14215 0.14684
#
# Static dielectric constant tensor:
#      x y z
#    x 1.709320 0.000000 0.053450 
#    y 0.000000 1.749810 0.000000 
#    z 0.053450 0.000000 1.711030 
# 
# From -- ./inp_files/271690.got.cif
#   From: 2010.05.17/outbox.cif.g08.bks.cpg/sg12_136_cif.got.tgz:271690.got - 2010.06.03 13:09:07.
