data_PCOD9181614
_publ_section_title
;
Structure prediction by ZEFSAII (Michael W. Deem and Ramdas Pophale) SiO2 
 PCOD9181614
Probable space group: C 2/M
;
_chemical_formula_sum "Si O2"
_cell_formula_units_Z 56
_cell_length_a 23.858281
_cell_length_b 7.468660
_cell_length_c 15.081149
_cell_angle_alpha 90.000000
_cell_angle_beta 112.407887
_cell_angle_gamma 90.000000
_cell_volume 2484.392238
_symmetry_space_group_name_H-M "C 2/M"
_symmetry_group_IT_number 12
_symmetry_cell_setting 'monoclinic'
loop_
_space_group_symop_operation_xyz
x,y,z
-x,y,-z
-x,-y,-z
x,-y,z
1/2+x,1/2+y,z
1/2-x,1/2+y,-z
1/2-x,1/2-y,-z
1/2+x,1/2-y,z
loop_
_atom_site_type_symbol
_atom_site_label
_atom_site_fract_x
_atom_site_fract_y
_atom_site_fract_z
Si Si1 0.086503 0.215983 0.797090
Si Si2 0.723618 0.713763 0.886789
Si Si3 0.681228 0.208082 0.352334
Si Si4 0.162349 0.282000 0.150456
Si Si5 0.678222 0.782059 0.549832
Si Si6 0.951650 0.209027 0.038225
Si Si7 0.939810 0.287458 0.416946
O O1 0.155761 0.284460 0.837113
O O2 0.054168 0.284532 0.866464
O O3 0.056795 0.259675 0.685849
O O4 0.089206 0.000000 0.806250
O O5 0.720313 0.500000 0.873824
O O6 0.772078 0.779959 0.844610
O O7 0.750000 0.750000 0.000000
O O8 0.652028 0.282313 0.244788
O O9 0.666892 0.280871 0.441412
O O10 0.754224 0.219714 0.384727
O O11 0.663896 0.000000 0.345521
O O12 0.161754 0.500000 0.150381
O O13 0.112673 0.221090 0.050008
O O14 0.624038 0.720249 0.581093
O O15 0.680714 0.000000 0.551493
O O16 0.968056 0.000000 0.059023
O O17 0.000000 0.291438 0.000000
O O18 0.938550 0.500000 0.433437
O O19 0.000000 0.214103 0.500000
#
# Coordination Sequence:
#
# PCOD9181614 Si02
#       7
#     8   8   8   8   8   8   8
#     4  10  21  38  58  81 109 142 180 225 273 320
#     4  10  19  32  53  81 110 140 177 219 266 319
#     4   9  18  33  54  79 109 140 173 219 269 319
#     4  10  20  33  53  82 110 139 178 219 265 321
#     4   9  18  34  54  78 107 140 177 219 270 320
#     4  10  22  39  56  76 107 144 180 219 264 320
#     4  10  22  38  56  80 109 142 183 227 270 320
#
# _framework density 22.540724999999998
#
# number of rings (size 3 to 8) (size 9 to 14) (size 15 to 20)
#    0.000    2.286    1.429    0.857    0.000    5.143 
#    0.000    1.429    0.000    0.000    0.000    0.000 
#    0.000    0.000    0.000    0.000    0.000    0.000 
#
# Total GULP energy -156403.935500 kJ/mol
# GULP energy per Si atom -5585.854839 kJ/mol
# Density = 2.248942 g / cm^3
# Si number density = 22.540725 Si / 1000 Ang^3
#
#
#
# Elastic Constant Matrix: (Units=GPa)
#
#
# Indices 1 2 3 4 5 6 
#
# 1 102.1085 -3.3561 38.4349 0.0000 -21.0302 0.0000
# 2 -3.3561 64.3900 -20.2884 0.0000 -1.1197 0.0000
# 3 38.4349 -20.2884 146.1597 0.0000 -24.4494 0.0000
# 4 0.0000 0.0000 0.0000 10.0113 0.0000 -5.4369
# 5 -21.0302 -1.1197 -24.4494 0.0000 30.0567 0.0000
# 6 0.0000 0.0000 0.0000 -5.4369 0.0000 -12.4183
#
#
#
# Elastic Compliance Matrix: (Units=1/GPa)
#
#
# Indices 1 2 3 4 5 6 
#
# 1 0.011935 0.000110 -0.001997 0.000000 0.006730 0.000000
# 2 0.000110 0.016451 0.002743 0.000000 0.002921 0.000000
# 3 -0.001997 0.002743 0.008717 0.000000 0.005796 0.000000
# 4 0.000000 0.000000 0.000000 0.080699 0.000000 -0.035331
# 5 0.006730 0.002921 0.005796 0.000000 0.042803 0.000000
# 6 0.000000 0.000000 0.000000 -0.035331 0.000000 -0.065058
#
#
# Mechanical properties :
#
#
# Convention : Reuss Voigt Hill
#
# Bulk Modulus (GPa) = 25.76316 38.02656 31.89486
# Shear Modulus (GPa) = 46.82744 25.38779 36.10762
#
# Velocity S-wave (km/s) = 4.56286 3.35969 4.00670
# Velocity P-wave (km/s) = 6.26211 5.65304 5.96535
#
# Compressibility (1/GPa) = 0.03881511
#
# Stress axis : x y z
#
# Youngs Moduli (GPa) = 83.78636 60.78550 114.71291
#
# Poissons Ratio (x) = -0.00667 0.22914
# Poissons Ratio (y) = -0.00919 -0.31470
# Poissons Ratio (z) = 0.16736 -0.16676
#
# Static dielectric constant tensor:
#      x y z
#    x 1.831020 0.000000 -0.024970 
#    y 0.000000 1.843620 0.000000 
#    z -0.024970 0.000000 1.808060 
# 
# From -- ./inp_files/237416.got.cif
#   From: 2010.05.17/outbox.cif.g08.bks.cpg/sg12_119_cif.got.tgz:237416.got - 2010.06.03 13:09:07.
