data_PCOD9181897
_publ_section_title
;
Structure prediction by ZEFSAII (Michael W. Deem and Ramdas Pophale) SiO2 
 PCOD9181897
Probable space group: C 2/M
;
_chemical_formula_sum "Si O2"
_cell_formula_units_Z 32
_cell_length_a 19.825583
_cell_length_b 20.016041
_cell_length_c 17.488282
_cell_angle_alpha 90.000000
_cell_angle_beta 165.006318
_cell_angle_gamma 90.000000
_cell_volume 1795.431174
_symmetry_space_group_name_H-M "C 2/M"
_symmetry_group_IT_number 12
_symmetry_cell_setting 'monoclinic'
loop_
_space_group_symop_operation_xyz
x,y,z
-x,y,-z
-x,-y,-z
x,-y,z
1/2+x,1/2+y,z
1/2-x,1/2+y,-z
1/2-x,1/2-y,-z
1/2+x,1/2-y,z
loop_
_atom_site_type_symbol
_atom_site_label
_atom_site_fract_x
_atom_site_fract_y
_atom_site_fract_z
Si Si1 0.779372 0.790180 0.308741
Si Si2 0.828348 0.574703 0.906705
Si Si3 0.528081 0.713712 0.306163
Si Si4 0.563824 0.426060 0.377639
O O1 0.732290 0.862545 0.214576
O O2 0.000000 0.756171 0.500000
O O3 0.125013 0.791762 0.500032
O O4 0.500000 0.756174 0.000000
O O5 0.790367 0.500000 0.830738
O O6 0.634909 0.578603 0.767594
O O7 0.130443 0.578604 0.263129
O O8 0.750000 0.750000 0.500000
O O9 0.503400 0.635924 0.256796
O O10 0.250000 0.750000 0.000000
O O11 0.527532 0.500000 0.305053
#
# Coordination Sequence:
#
# PCOD9181897 Si02
#       4
#     8   8   8   8
#     4  12  21  35  54  75 109 149 189 224 253 323
#     4  10  19  32  54  83 110 142 181 216 255 320
#     4  12  24  37  53  78 117 152 184 227 278 319
#     4  10  20  36  56  80 112 151 184 217 264 330
#
# _framework density 17.823017
#
# number of rings (size 3 to 8) (size 9 to 14) (size 15 to 20)
#    0.000    1.000    5.000    3.000    0.000    2.000 
#    0.000    0.000    0.000    0.000    0.000    0.000 
#    0.000   20.000    0.000    0.000    0.000    0.000 
#
# Total GULP energy -89278.303079 kJ/mol
# GULP energy per Si atom -5579.893942 kJ/mol
# Density = 1.778245 g / cm^3
# Si number density = 17.823017 Si / 1000 Ang^3
#
#
#
# Elastic Constant Matrix: (Units=GPa)
#
#
# Indices 1 2 3 4 5 6 
#
# 1 60.6801 36.8449 32.1269 -0.0011 22.1350 0.0008
# 2 36.8449 126.0681 50.0268 0.0039 7.4212 -0.0004
# 3 32.1269 50.0268 158.0146 0.0053 32.7334 -0.0008
# 4 -0.0011 0.0039 0.0053 21.0112 -0.0050 -7.1214
# 5 22.1350 7.4212 32.7334 -0.0050 39.8880 0.0003
# 6 0.0008 -0.0004 -0.0008 -7.1214 0.0003 33.6351
#
#
#
# Elastic Compliance Matrix: (Units=1/GPa)
#
#
# Indices 1 2 3 4 5 6 
#
# 1 0.025154 -0.006416 -0.000528 -0.000001 -0.012331 -0.000001
# 2 -0.006416 0.010730 -0.002912 -0.000001 0.003953 0.000000
# 3 -0.000528 -0.002912 0.008656 -0.000003 -0.006269 0.000000
# 4 -0.000001 -0.000001 -0.000003 0.051273 0.000009 0.010856
# 5 -0.012331 0.003953 -0.006269 0.000009 0.036322 0.000002
# 6 -0.000001 0.000000 0.000000 0.010856 0.000002 0.032029
#
#
# Mechanical properties :
#
#
# Convention : Reuss Voigt Hill
#
# Bulk Modulus (GPa) = 40.27687 64.75110 52.51399
# Shear Modulus (GPa) = 26.02110 33.95782 29.98946
#
# Velocity S-wave (km/s) = 3.82510 4.36969 4.10643
# Velocity P-wave (km/s) = 6.49275 7.86561 7.21192
#
# Compressibility (1/GPa) = 0.02482814
#
# Stress axis : x y z
#
# Youngs Moduli (GPa) = 39.75589 93.19683 115.52202
#
# Poissons Ratio (x) = 0.59793 0.06105
# Poissons Ratio (y) = 0.25507 0.33635
# Poissons Ratio (z) = 0.02101 0.27135
#
# Static dielectric constant tensor:
#      x y z
#    x 1.699490 -0.000020 0.238620 
#    y -0.000020 1.680980 -0.000040 
#    z 0.238620 -0.000040 2.122940 
# 
# From -- ./inp_files/278635.got.cif
#   From: 2010.05.17/outbox.cif.g08.bks.cpg/sg12_140_cif.got.tgz:278635.got - 2010.06.03 13:09:07.
