data_PCOD9181273
_publ_section_title
;
Structure prediction by ZEFSAII (Michael W. Deem and Ramdas Pophale) SiO2 
 PCOD9181273
Probable space group: C 2/M
;
_chemical_formula_sum "Si O2"
_cell_formula_units_Z 64
_cell_length_a 18.969407
_cell_length_b 8.945684
_cell_length_c 21.185597
_cell_angle_alpha 90.000000
_cell_angle_beta 87.865643
_cell_angle_gamma 90.000000
_cell_volume 3592.581375
_symmetry_space_group_name_H-M "C 2/M"
_symmetry_group_IT_number 12
_symmetry_cell_setting 'monoclinic'
loop_
_space_group_symop_operation_xyz
x,y,z
-x,y,-z
-x,-y,-z
x,-y,z
1/2+x,1/2+y,z
1/2-x,1/2+y,-z
1/2-x,1/2-y,-z
1/2+x,1/2-y,z
loop_
_atom_site_type_symbol
_atom_site_label
_atom_site_fract_x
_atom_site_fract_y
_atom_site_fract_z
Si Si1 0.450771 0.672772 0.064401
Si Si2 0.150529 0.824371 0.461817
Si Si3 0.979742 0.825578 0.623916
Si Si4 0.617833 0.821123 0.267991
Si Si5 0.754564 0.677501 0.649608
Si Si6 0.628264 0.823041 0.597070
Si Si7 0.076056 0.679031 0.127737
Si Si8 0.827562 0.679258 0.995774
O O1 0.435462 0.500000 0.078825
O O2 0.500978 0.745380 0.115342
O O3 0.500000 0.678990 0.000000
O O4 0.379278 0.759015 0.048873
O O5 0.200874 0.737879 0.411697
O O6 0.151239 0.753495 0.530586
O O7 0.072338 0.812293 0.434431
O O8 0.169514 0.000000 0.463301
O O9 0.048974 0.728020 0.613006
O O10 0.935145 0.768222 0.685103
O O11 0.998543 0.000000 0.629993
O O12 0.696494 0.791292 0.291379
O O13 0.605168 0.782643 0.195738
O O14 0.605799 0.000000 0.276463
O O15 0.744398 0.500000 0.644536
O O16 0.680586 0.761323 0.648881
O O17 0.633799 0.000000 0.591478
O O18 0.066606 0.500000 0.124598
O O19 0.132201 0.719172 0.071134
O O20 0.822904 0.500000 0.999804
O O21 0.750000 0.750000 0.000000
#
# Coordination Sequence:
#
# PCOD9181273 Si02
#       8
#     8   8   8   8   8   8   8   8
#     4   9  17  30  50  77 106 136 172 210 248 295
#     4  10  20  35  54  76 102 131 167 211 261 318
#     4  10  21  36  54  76 102 132 167 211 260 309
#     4   9  19  37  58  77  99 132 173 213 254 306
#     4  10  20  35  54  75 102 135 171 212 259 312
#     4  12  23  34  51  75 103 134 170 214 263 311
#     4   9  18  34  56  79 103 135 174 212 254 304
#     4  10  19  32  52  79 112 144 172 211 260 305
#
# _framework density 17.814488999999998
#
# number of rings (size 3 to 8) (size 9 to 14) (size 15 to 20)
#    0.000    2.125    0.000    3.750    0.000    6.000 
#    0.000    1.250    0.000    4.500    0.000    0.000 
#    0.000    0.000    0.000    0.000    0.000    0.000 
#
# Total GULP energy -178633.790861 kJ/mol
# GULP energy per Si atom -5582.305964 kJ/mol
# Density = 1.777394 g / cm^3
# Si number density = 17.814489 Si / 1000 Ang^3
#
#
#
# Elastic Constant Matrix: (Units=GPa)
#
#
# Indices 1 2 3 4 5 6 
#
# 1 105.7472 48.0360 35.2070 0.0000 26.0482 0.0000
# 2 48.0360 79.2675 38.7539 0.0000 20.0130 0.0000
# 3 35.2070 38.7539 84.2928 0.0000 31.0510 0.0000
# 4 0.0000 0.0000 0.0000 20.1643 0.0000 3.3476
# 5 26.0482 20.0130 31.0510 0.0000 18.1770 0.0000
# 6 0.0000 0.0000 0.0000 3.3476 0.0000 33.9505
#
#
#
# Elastic Compliance Matrix: (Units=1/GPa)
#
#
# Indices 1 2 3 4 5 6 
#
# 1 0.017220 -0.006306 0.006041 0.000000 -0.028053 0.000000
# 2 -0.006306 0.019988 -0.004795 0.000000 -0.004778 0.000000
# 3 0.006041 -0.004795 0.034497 0.000000 -0.062306 0.000000
# 4 0.000000 0.000000 0.000000 0.050418 0.000000 -0.004971
# 5 -0.028053 -0.004778 -0.062306 0.000000 0.206911 0.000000
# 6 0.000000 0.000000 0.000000 -0.004971 0.000000 0.029945
#
#
# Mechanical properties :
#
#
# Convention : Reuss Voigt Hill
#
# Bulk Modulus (GPa) = 16.23817 57.03347 36.63582
# Shear Modulus (GPa) = 12.83276 24.27906 18.55591
#
# Velocity S-wave (km/s) = 2.68686 3.69573 3.23091
# Velocity P-wave (km/s) = 4.33134 7.09196 5.87607
#
# Compressibility (1/GPa) = 0.06158328
#
# Stress axis : x y z
#
# Youngs Moduli (GPa) = 58.07193 50.03059 28.98819
#
# Poissons Ratio (x) = 0.31549 -0.17511
# Poissons Ratio (y) = 0.36620 0.13901
# Poissons Ratio (z) = -0.35080 0.23992
#
# Static dielectric constant tensor:
#      x y z
#    x 1.612140 0.000000 0.017850 
#    y 0.000000 1.593780 0.000000 
#    z 0.017850 0.000000 1.590870 
# 
# From -- ./inp_files/314093.got.cif
#   From: 2010.05.17/outbox.cif.g08.bks.cpg/sg12_158_cif.got.tgz:314093.got - 2010.06.03 13:09:07.
