data_PCOD9181136
_publ_section_title
;
Structure prediction by ZEFSAII (Michael W. Deem and Ramdas Pophale) SiO2 
 PCOD9181136
Probable space group: C 2/M
;
_chemical_formula_sum "Si O2"
_cell_formula_units_Z 56
_cell_length_a 14.774384
_cell_length_b 15.262166
_cell_length_c 17.774700
_cell_angle_alpha 90.000000
_cell_angle_beta 54.014930
_cell_angle_gamma 90.000000
_cell_volume 3243.154795
_symmetry_space_group_name_H-M "C 2/M"
_symmetry_group_IT_number 12
_symmetry_cell_setting 'monoclinic'
loop_
_space_group_symop_operation_xyz
x,y,z
-x,y,-z
-x,-y,-z
x,-y,z
1/2+x,1/2+y,z
1/2-x,1/2+y,-z
1/2-x,1/2-y,-z
1/2+x,1/2-y,z
loop_
_atom_site_type_symbol
_atom_site_label
_atom_site_fract_x
_atom_site_fract_y
_atom_site_fract_z
Si Si1 0.846412 0.298662 0.904410
Si Si2 0.787852 0.601272 0.384024
Si Si3 0.748783 0.759273 0.810440
Si Si4 0.136164 0.897865 0.592428
Si Si5 0.910302 0.762562 0.251438
Si Si6 0.874962 0.405085 0.030456
Si Si7 0.608066 0.598831 0.340421
O O1 0.797040 0.311577 0.845116
O O2 0.960698 0.243259 0.837732
O O3 0.750000 0.250000 0.000000
O O4 0.875474 0.381000 0.942243
O O5 0.827299 0.500000 0.365701
O O6 0.742396 0.626252 0.488836
O O7 0.875443 0.669792 0.306972
O O8 0.679694 0.603123 0.381705
O O9 0.669652 0.726535 0.782203
O O10 0.681618 0.829040 0.893903
O O11 0.847144 0.819287 0.728837
O O12 0.114912 0.836812 0.674506
O O13 0.025274 0.893245 0.594195
O O14 0.148499 0.000000 0.608343
O O15 0.821117 0.500000 0.068469
O O16 0.000000 0.408831 0.000000
O O17 0.630812 0.500000 0.298362
#
# Coordination Sequence:
#
# PCOD9181136 Si02
#       7
#     8   8   8   8   8   8   8
#     4  10  21  35  51  75 105 136 170 209 261 313
#     4   9  19  32  52  79 107 135 173 221 271 312
#     4  10  19  33  51  75 104 136 173 209 258 314
#     4  10  19  33  51  76 107 142 177 215 258 312
#     4  11  20  34  54  78 106 140 178 214 263 312
#     4  10  19  32  52  77 102 130 165 216 268 313
#     4   9  16  28  50  77 104 131 167 219 268 309
#
# _framework density 17.267137000000002
#
# number of rings (size 3 to 8) (size 9 to 14) (size 15 to 20)
#    0.000    2.143    2.857    1.286    0.000    2.857 
#    0.000    0.714    0.000    0.000    0.000    6.000 
#    0.000    0.000    0.000    0.000    0.000    0.000 
#
# Total GULP energy -155868.924275 kJ/mol
# GULP energy per Si atom -5566.747296 kJ/mol
# Density = 1.722784 g / cm^3
# Si number density = 17.267137 Si / 1000 Ang^3
#
#
#
# Elastic Constant Matrix: (Units=GPa)
#
#
# Indices 1 2 3 4 5 6 
#
# 1 63.7757 23.7048 30.3370 0.0000 -0.3890 0.0000
# 2 23.7048 50.8736 27.9501 0.0000 6.0234 0.0000
# 3 30.3370 27.9501 87.8740 0.0000 -1.0442 0.0000
# 4 0.0000 0.0000 0.0000 45.7302 0.0000 32.3522
# 5 -0.3890 6.0234 -1.0442 0.0000 17.5587 0.0000
# 6 0.0000 0.0000 0.0000 32.3522 0.0000 37.2105
#
#
#
# Elastic Compliance Matrix: (Units=1/GPa)
#
#
# Indices 1 2 3 4 5 6 
#
# 1 0.020697 -0.007336 -0.004780 0.000000 0.002691 0.000000
# 2 -0.007336 0.027801 -0.006430 0.000000 -0.010082 0.000000
# 3 -0.004780 -0.006430 0.015111 0.000000 0.002998 0.000000
# 4 0.000000 0.000000 0.000000 0.056812 0.000000 -0.049395
# 5 0.002691 -0.010082 0.002998 0.000000 0.060648 0.000000
# 6 0.000000 0.000000 0.000000 -0.049395 0.000000 0.069820
#
#
# Mechanical properties :
#
#
# Convention : Reuss Voigt Hill
#
# Bulk Modulus (GPa) = 37.71166 40.72302 39.21734
# Shear Modulus (GPa) = 16.84522 28.13529 22.49026
#
# Velocity S-wave (km/s) = 3.12679 4.04098 3.61292
# Velocity P-wave (km/s) = 5.90960 6.73854 6.33764
#
# Compressibility (1/GPa) = 0.02651699
#
# Stress axis : x y z
#
# Youngs Moduli (GPa) = 48.31637 35.96962 66.17771
#
# Poissons Ratio (x) = 0.26389 0.31631
# Poissons Ratio (y) = 0.35447 0.42551
# Poissons Ratio (z) = 0.23094 0.23128
#
# Static dielectric constant tensor:
#      x y z
#    x 1.608090 0.000000 -0.010090 
#    y 0.000000 1.590160 0.000000 
#    z -0.010090 0.000000 1.629150 
# 
# From -- ./inp_files/214341.got.cif
#   From: 2010.05.17/outbox.cif.g08.bks.cpg/sg12_108_cif.got.tgz:214341.got - 2010.06.03 13:09:07.
