data_PCOD9181338
_publ_section_title
;
Structure prediction by ZEFSAII (Michael W. Deem and Ramdas Pophale) SiO2 
 PCOD9181338
Probable space group: C 2/M
;
_chemical_formula_sum "Si O2"
_cell_formula_units_Z 64
_cell_length_a 18.204546
_cell_length_b 32.250764
_cell_length_c 11.901054
_cell_angle_alpha 90.000000
_cell_angle_beta 31.315914
_cell_angle_gamma 90.000000
_cell_volume 3631.659705
_symmetry_space_group_name_H-M "C 2/M"
_symmetry_group_IT_number 12
_symmetry_cell_setting 'monoclinic'
loop_
_space_group_symop_operation_xyz
x,y,z
-x,y,-z
-x,-y,-z
x,-y,z
1/2+x,1/2+y,z
1/2-x,1/2+y,-z
1/2-x,1/2-y,-z
1/2+x,1/2-y,z
loop_
_atom_site_type_symbol
_atom_site_label
_atom_site_fract_x
_atom_site_fract_y
_atom_site_fract_z
Si Si1 0.118406 0.304533 0.609668
Si Si2 0.666489 0.586234 0.004390
Si Si3 0.727877 0.282790 0.369751
Si Si4 0.967524 0.845844 0.665677
Si Si5 0.704948 0.213747 0.973525
Si Si6 0.577342 0.455838 0.778685
Si Si7 0.455805 0.952219 0.689390
Si Si8 0.213076 0.393729 0.402008
O O1 0.161315 0.301353 0.685176
O O2 0.177411 0.261926 0.479897
O O3 0.184266 0.346290 0.471608
O O4 0.951624 0.303495 0.802646
O O5 0.801974 0.568894 0.893127
O O6 0.722945 0.601890 0.808212
O O7 0.576926 0.621350 0.183333
O O8 0.552521 0.550157 0.134742
O O9 0.595351 0.314782 0.532745
O O10 0.788592 0.274769 0.166448
O O11 0.825993 0.819658 0.832892
O O12 0.000000 0.864558 0.500000
O O13 0.750000 0.250000 0.000000
O O14 0.652130 0.500000 0.664325
O O15 0.679201 0.416527 0.654042
O O16 0.500000 0.457276 0.000000
O O17 0.500000 0.954376 0.500000
O O18 0.571150 0.921511 0.591683
O O19 0.457140 0.000000 0.729001
#
# Coordination Sequence:
#
# PCOD9181338 Si02
#       8
#     8   8   8   8   8   8   8   8
#     4  11  22  37  56  80 113 139 183 230 274 326
#     4  10  19  32  52  82 106 141 181 223 273 321
#     4  10  23  39  54  78 108 150 182 224 278 323
#     4  10  21  38  54  76 108 144 186 224 270 320
#     4  11  22  38  57  78 102 147 189 224 268 327
#     4   9  17  31  51  76 108 140 170 208 269 335
#     4   9  17  31  49  76 113 143 173 217 277 339
#     4  10  20  31  51  83 108 140 178 224 272 326
#
# _framework density 17.622796000000001
#
# number of rings (size 3 to 8) (size 9 to 14) (size 15 to 20)
#    0.000    2.000    1.250    2.625    1.750    3.000 
#    0.000    1.250    0.000    1.500    0.000    0.000 
#    0.000   10.000    0.000    0.000    0.000    0.000 
#
# Total GULP energy -178280.696089 kJ/mol
# GULP energy per Si atom -5571.271753 kJ/mol
# Density = 1.758269 g / cm^3
# Si number density = 17.622796 Si / 1000 Ang^3
#
#
#
# Elastic Constant Matrix: (Units=GPa)
#
#
# Indices 1 2 3 4 5 6 
#
# 1 70.3030 35.1007 27.1298 -0.0001 -10.0045 0.0001
# 2 35.1007 89.9323 48.1046 0.0000 5.3248 0.0000
# 3 27.1298 48.1046 66.2395 -0.0001 -12.5900 0.0001
# 4 -0.0001 0.0000 -0.0001 19.5480 0.0001 -11.1046
# 5 -10.0045 5.3248 -12.5900 0.0001 30.1526 -0.0001
# 6 0.0001 0.0000 0.0001 -11.1046 -0.0001 6.4976
#
#
#
# Elastic Compliance Matrix: (Units=1/GPa)
#
#
# Indices 1 2 3 4 5 6 
#
# 1 0.019390 -0.007324 -0.001254 0.000000 0.007203 0.000000
# 2 -0.007324 0.023838 -0.016916 0.000002 -0.013703 0.000004
# 3 -0.001254 -0.016916 0.030831 -0.000003 0.015445 -0.000006
# 4 0.000000 0.000002 -0.000003 1.755229 -0.000003 2.999762
# 5 0.007203 -0.013703 0.015445 -0.000003 0.044423 -0.000006
# 6 0.000000 0.000004 -0.000006 2.999762 -0.000006 5.280627
#
#
# Mechanical properties :
#
#
# Convention : Reuss Voigt Hill
#
# Bulk Modulus (GPa) = 43.34535 49.68280 46.51407
# Shear Modulus (GPa) = 0.69319 18.98227 9.83773
#
# Velocity S-wave (km/s) = 0.62786 3.28555 2.36527
# Velocity P-wave (km/s) = 5.01749 6.53044 5.82331
#
# Compressibility (1/GPa) = 0.02307053
#
# Stress axis : x y z
#
# Youngs Moduli (GPa) = 51.57422 41.95016 32.43509
#
# Poissons Ratio (x) = 0.30723 0.04066
# Poissons Ratio (y) = 0.37771 0.54869
# Poissons Ratio (z) = 0.06466 0.70965
#
# Static dielectric constant tensor:
#      x y z
#    x 1.637640 0.000000 0.006450 
#    y 0.000000 1.565350 0.000000 
#    z 0.006450 0.000000 1.600640 
# 
# From -- ./inp_files/161175.got.cif
#   From: 2010.05.17/outbox.cif.g08.bks.cpg/sg12_81_cif.got.tgz:161175.got - 2010.06.03 13:09:07.
