data_PCOD9181813
_publ_section_title
;
Structure prediction by ZEFSAII (Michael W. Deem and Ramdas Pophale) SiO2 
 PCOD9181813
Probable space group: C 2/M
;
_chemical_formula_sum "Si O2"
_cell_formula_units_Z 48
_cell_length_a 21.025750
_cell_length_b 7.528061
_cell_length_c 15.232839
_cell_angle_alpha 90.000000
_cell_angle_beta 71.970881
_cell_angle_gamma 90.000000
_cell_volume 2292.714753
_symmetry_space_group_name_H-M "C 2/M"
_symmetry_group_IT_number 12
_symmetry_cell_setting 'monoclinic'
loop_
_space_group_symop_operation_xyz
x,y,z
-x,y,-z
-x,-y,-z
x,-y,z
1/2+x,1/2+y,z
1/2-x,1/2+y,-z
1/2-x,1/2-y,-z
1/2+x,1/2-y,z
loop_
_atom_site_type_symbol
_atom_site_label
_atom_site_fract_x
_atom_site_fract_y
_atom_site_fract_z
Si Si1 0.424958 0.281999 0.294165
Si Si2 0.071716 0.785571 0.506477
Si Si3 0.690020 0.282709 0.789968
Si Si4 0.823836 0.213334 0.005747
Si Si5 0.341158 0.208225 0.695501
Si Si6 0.069935 0.794784 0.178735
O O1 0.426171 0.500000 0.294494
O O2 0.417988 0.225254 0.398233
O O3 0.363927 0.226111 0.258795
O O4 0.496308 0.218966 0.225951
O O5 0.128714 0.731814 0.413836
O O6 0.000000 0.723598 0.500000
O O7 0.069856 0.000000 0.508168
O O8 0.690091 0.500000 0.789434
O O9 0.671518 0.223871 0.896151
O O10 0.765529 0.224442 0.736501
O O11 0.830135 0.000000 0.004810
O O12 0.750000 0.250000 0.000000
O O13 0.880930 0.283978 0.915892
O O14 0.390351 0.292282 0.746185
O O15 0.340095 0.000000 0.717547
O O16 0.059001 0.000000 0.158272
#
# Coordination Sequence:
#
# PCOD9181813 Si02
#       6
#     8   8   8   8   8   8
#     4   9  18  34  54  76 107 139 173 219 263 306
#     4  10  19  34  56  79 103 137 180 219 258 306
#     4   9  19  34  51  78 111 140 169 213 269 310
#     4  10  19  32  54  81 107 136 175 215 257 312
#     4  11  21  33  53  79 109 139 172 216 264 315
#     4  10  19  33  56  81 102 136 182 218 254 308
#
# _framework density 20.935880999999998
#
# number of rings (size 3 to 8) (size 9 to 14) (size 15 to 20)
#    0.000    2.167    3.333    0.500    0.000    1.667 
#    0.000    3.333    0.000    5.000    0.000    2.333 
#    0.000    0.000    0.000    0.000    0.000    0.000 
#
# Total GULP energy -134063.600425 kJ/mol
# GULP energy per Si atom -5585.983351 kJ/mol
# Density = 2.088823 g / cm^3
# Si number density = 20.935881 Si / 1000 Ang^3
#
#
#
# Elastic Constant Matrix: (Units=GPa)
#
#
# Indices 1 2 3 4 5 6 
#
# 1 122.6469 -4.8654 56.4861 0.0000 3.2823 0.0000
# 2 -4.8654 53.4756 -4.5098 0.0000 -0.5354 0.0000
# 3 56.4861 -4.5098 155.1228 0.0000 -6.4441 0.0000
# 4 0.0000 0.0000 0.0000 2.3039 0.0000 -8.0691
# 5 3.2823 -0.5354 -6.4441 0.0000 42.5455 0.0000
# 6 0.0000 0.0000 0.0000 -8.0691 0.0000 10.4978
#
#
#
# Elastic Compliance Matrix: (Units=1/GPa)
#
#
# Indices 1 2 3 4 5 6 
#
# 1 0.009887 0.000580 -0.003638 0.000000 -0.001306 0.000000
# 2 0.000580 0.018784 0.000345 0.000000 0.000244 0.000000
# 3 -0.003638 0.000345 0.007842 0.000000 0.001473 0.000000
# 4 0.000000 0.000000 0.000000 -0.256516 0.000000 -0.197170
# 5 -0.001306 0.000244 0.001473 0.000000 0.023831 0.000000
# 6 0.000000 0.000000 0.000000 -0.197170 0.000000 -0.056297
#
#
# Mechanical properties :
#
#
# Convention : Reuss Voigt Hill
#
# Bulk Modulus (GPa) = 32.16670 47.27410 39.72040
# Shear Modulus (GPa) = -21.12557 30.01175 4.44309
#
# Velocity S-wave (km/s) = -3.18002 3.79028 1.45837
# Velocity P-wave (km/s) = 1.38362 6.46408 4.67433
#
# Compressibility (1/GPa) = 0.03108805
#
# Stress axis : x y z
#
# Youngs Moduli (GPa) = 101.14543 53.23561 127.51372
#
# Poissons Ratio (x) = -0.03086 0.46384
# Poissons Ratio (y) = -0.05863 -0.04401
# Poissons Ratio (z) = 0.36792 -0.01837
#
# Static dielectric constant tensor:
#      x y z
#    x 1.702500 0.000000 -0.017230 
#    y 0.000000 1.811040 0.000000 
#    z -0.017230 0.000000 1.729860 
# 
# From -- ./inp_files/229835.got.cif
#   From: 2010.05.17/outbox.cif.g08.bks.cpg/sg12_115_cif.got.tgz:229835.got - 2010.06.03 13:09:07.
