data_PCOD9181937
_publ_section_title
;
Structure prediction by ZEFSAII (Michael W. Deem and Ramdas Pophale) SiO2 
 PCOD9181937
Probable space group: C 2/M
;
_chemical_formula_sum "Si O2"
_cell_formula_units_Z 56
_cell_length_a 25.910421
_cell_length_b 8.562490
_cell_length_c 17.473662
_cell_angle_alpha 90.000000
_cell_angle_beta 132.450016
_cell_angle_gamma 90.000000
_cell_volume 2860.462314
_symmetry_space_group_name_H-M "C 2/M"
_symmetry_group_IT_number 12
_symmetry_cell_setting 'monoclinic'
loop_
_space_group_symop_operation_xyz
x,y,z
-x,y,-z
-x,-y,-z
x,-y,z
1/2+x,1/2+y,z
1/2-x,1/2+y,-z
1/2-x,1/2-y,-z
1/2+x,1/2-y,z
loop_
_atom_site_type_symbol
_atom_site_label
_atom_site_fract_x
_atom_site_fract_y
_atom_site_fract_z
Si Si1 0.912239 0.190032 0.011065
Si Si2 0.827254 0.189090 0.776355
Si Si3 0.057523 0.811142 0.225038
Si Si4 0.671661 0.311654 0.921792
Si Si5 0.442583 0.814609 0.603666
Si Si6 0.170059 0.187157 0.618939
Si Si7 0.414800 0.311168 0.314894
O O1 0.868490 0.239063 0.041888
O O2 0.992251 0.237145 0.105987
O O3 0.912528 0.000000 0.008757
O O4 0.873261 0.241937 0.895447
O O5 0.870388 0.234697 0.743769
O O6 0.749277 0.253793 0.701593
O O7 0.823926 0.000000 0.774997
O O8 0.048719 0.745533 0.301040
O O9 0.055534 0.000000 0.228297
O O10 0.672966 0.500000 0.923111
O O11 0.629663 0.262321 0.804159
O O12 0.750000 0.250000 0.000000
O O13 0.371460 0.750127 0.495790
O O14 0.507523 0.753498 0.618032
O O15 0.442116 0.000000 0.602550
O O16 0.126232 0.238689 0.650152
O O17 0.169964 0.000000 0.617627
O O18 0.419317 0.500000 0.320061
#
# Coordination Sequence:
#
# PCOD9181937 Si02
#       7
#     8   8   8   8   8   8   8
#     4   9  17  34  60  88 119 155 195 239 289 349
#     4  10  21  37  62  93 121 155 200 249 294 345
#     4  10  20  39  64  88 120 160 201 242 294 360
#     4  10  19  32  54  84 121 157 190 233 283 345
#     4  12  25  40  62  90 118 152 201 257 302 348
#     4  11  24  41  62  86 120 162 198 242 301 363
#     4  10  21  40  62  86 118 159 200 237 294 365
#
# _framework density 19.577255000000001
#
# number of rings (size 3 to 8) (size 9 to 14) (size 15 to 20)
#    0.000    1.714    1.429    3.429    0.000    6.286 
#    0.000    0.714    0.000    1.714    0.000    0.000 
#    0.000    0.000    0.000    0.000    0.000    0.000 
#
# Total GULP energy -156474.726291 kJ/mol
# GULP energy per Si atom -5588.383082 kJ/mol
# Density = 1.953270 g / cm^3
# Si number density = 19.577255 Si / 1000 Ang^3
#
#
#
# Elastic Constant Matrix: (Units=GPa)
#
#
# Indices 1 2 3 4 5 6 
#
# 1 124.0760 27.4416 64.0662 0.0000 24.1432 0.0000
# 2 27.4416 23.2158 22.3238 0.0000 7.2936 0.0000
# 3 64.0662 22.3238 113.9540 0.0000 24.2904 0.0000
# 4 0.0000 0.0000 0.0000 13.9719 0.0000 11.7190
# 5 24.1432 7.2936 24.2904 0.0000 18.9327 0.0000
# 6 0.0000 0.0000 0.0000 11.7190 0.0000 25.0905
#
#
#
# Elastic Compliance Matrix: (Units=1/GPa)
#
#
# Indices 1 2 3 4 5 6 
#
# 1 0.014100 -0.009943 -0.004078 0.000000 -0.008917 0.000000
# 2 -0.009943 0.061432 -0.005647 0.000000 -0.003742 0.000000
# 3 -0.004078 -0.005647 0.014593 0.000000 -0.011347 0.000000
# 4 0.000000 0.000000 0.000000 0.117670 0.000000 -0.054960
# 5 -0.008917 -0.003742 -0.011347 0.000000 0.080189 0.000000
# 6 0.000000 0.000000 0.000000 -0.054960 0.000000 0.065526
#
#
# Mechanical properties :
#
#
# Convention : Reuss Voigt Hill
#
# Bulk Modulus (GPa) = 19.68947 54.32321 37.00634
# Shear Modulus (GPa) = 12.20177 21.42664 16.81420
#
# Velocity S-wave (km/s) = 2.49923 3.31186 2.93382
# Velocity P-wave (km/s) = 4.29038 6.51406 5.51545
#
# Compressibility (1/GPa) = 0.05078857
#
# Stress axis : x y z
#
# Youngs Moduli (GPa) = 70.92406 16.27804 68.52452
#
# Poissons Ratio (x) = 0.16185 0.27947
# Poissons Ratio (y) = 0.70519 0.38697
# Poissons Ratio (z) = 0.28925 0.09192
#
# Static dielectric constant tensor:
#      x y z
#    x 1.667360 0.000000 -0.008450 
#    y 0.000000 1.672330 0.000000 
#    z -0.008450 0.000000 1.666920 
# 
# From -- ./inp_files/288377.got.cif
#   From: 2010.05.17/outbox.cif.g08.bks.cpg/sg12_145_cif.got.tgz:288377.got - 2010.06.03 13:09:07.
