data_PCOD9181007
_publ_section_title
;
Structure prediction by ZEFSAII (Michael W. Deem and Ramdas Pophale) SiO2 
 PCOD9181007
Probable space group: C 2/M
;
_chemical_formula_sum "Si O2"
_cell_formula_units_Z 64
_cell_length_a 31.929605
_cell_length_b 8.759690
_cell_length_c 15.197111
_cell_angle_alpha 90.000000
_cell_angle_beta 118.071734
_cell_angle_gamma 90.000000
_cell_volume 3750.495943
_symmetry_space_group_name_H-M "C 2/M"
_symmetry_group_IT_number 12
_symmetry_cell_setting 'monoclinic'
loop_
_space_group_symop_operation_xyz
x,y,z
-x,y,-z
-x,-y,-z
x,-y,z
1/2+x,1/2+y,z
1/2-x,1/2+y,-z
1/2-x,1/2-y,-z
1/2+x,1/2-y,z
loop_
_atom_site_type_symbol
_atom_site_label
_atom_site_fract_x
_atom_site_fract_y
_atom_site_fract_z
Si Si1 0.968409 0.682406 0.620745
Si Si2 0.032243 0.182027 0.189625
Si Si3 0.806070 0.815950 0.463634
Si Si4 0.927374 0.684285 0.080381
Si Si5 0.887728 0.684302 0.857259
Si Si6 0.390077 0.682415 0.417586
Si Si7 0.080066 0.317468 0.729081
Si Si8 0.302915 0.184079 0.650290
O O1 0.963890 0.500000 0.623301
O O2 0.954542 0.757449 0.700040
O O3 0.935164 0.744326 0.511248
O O4 0.023987 0.717264 0.660219
O O5 0.068917 0.247304 0.155322
O O6 0.979241 0.243074 0.118821
O O7 0.032734 0.000000 0.189152
O O8 0.843523 0.769645 0.426431
O O9 0.751816 0.768502 0.389832
O O10 0.818779 0.748690 0.571552
O O11 0.806959 0.000000 0.470693
O O12 0.933554 0.500000 0.087448
O O13 0.909135 0.727470 0.159463
O O14 0.894246 0.726161 0.965783
O O15 0.890496 0.500000 0.854594
O O16 0.838933 0.732717 0.762257
O O17 0.393837 0.500000 0.425527
O O18 0.390499 0.736023 0.317485
O O19 0.085720 0.500000 0.726326
O O20 0.303766 0.000000 0.646532
#
# Coordination Sequence:
#
# PCOD9181007 Si02
#       8
#     8   8   8   8   8   8   8   8
#     4  10  20  34  50  69  97 131 165 200 235 277
#     4  11  21  31  46  72 104 132 158 193 239 289
#     4   9  19  34  49  71 102 127 150 188 239 290
#     4   9  19  35  51  68  94 128 166 205 238 273
#     4  10  19  32  52  73  93 125 167 203 237 281
#     4  11  21  31  48  73  99 127 158 196 243 291
#     4   9  19  34  49  66  92 127 164 201 238 277
#     4   9  18  33  53  74  95 123 158 193 233 283
#
# _framework density 17.064409999999999
#
# number of rings (size 3 to 8) (size 9 to 14) (size 15 to 20)
#    0.000    2.250    0.000    4.125    0.000    9.500 
#    0.000    0.000    0.000    0.750    0.000    0.000 
#    0.000    0.000    0.000    0.000    0.000    0.375 
#
# Total GULP energy -178605.535682 kJ/mol
# GULP energy per Si atom -5581.422990 kJ/mol
# Density = 1.702557 g / cm^3
# Si number density = 17.064410 Si / 1000 Ang^3
#
#
#
# Elastic Constant Matrix: (Units=GPa)
#
#
# Indices 1 2 3 4 5 6 
#
# 1 87.7201 26.6946 66.7236 0.0000 -21.4063 0.0000
# 2 26.6946 17.6678 29.9379 0.0000 -4.3073 0.0000
# 3 66.7236 29.9379 146.8916 0.0000 -11.3779 0.0000
# 4 0.0000 0.0000 0.0000 13.0355 0.0000 -4.2267
# 5 -21.4063 -4.3073 -11.3779 0.0000 18.9458 0.0000
# 6 0.0000 0.0000 0.0000 -4.2267 0.0000 19.8607
#
#
#
# Elastic Compliance Matrix: (Units=1/GPa)
#
#
# Indices 1 2 3 4 5 6 
#
# 1 0.031700 -0.031591 -0.006023 0.000000 0.025018 0.000000
# 2 -0.031591 0.119610 -0.011208 0.000000 -0.015232 0.000000
# 3 -0.006023 -0.011208 0.011645 0.000000 -0.002360 0.000000
# 4 0.000000 0.000000 0.000000 0.082400 0.000000 0.017536
# 5 0.025018 -0.015232 -0.002360 0.000000 0.076169 0.000000
# 6 0.000000 0.000000 0.000000 0.017536 0.000000 0.054083
#
#
# Mechanical properties :
#
#
# Convention : Reuss Voigt Hill
#
# Bulk Modulus (GPa) = 15.31123 55.44355 35.37739
# Shear Modulus (GPa) = 10.10059 18.96329 14.53194
#
# Velocity S-wave (km/s) = 2.43556 3.33720 2.92137
# Velocity P-wave (km/s) = 4.11113 6.88553 5.67062
#
# Compressibility (1/GPa) = 0.06531154
#
# Stress axis : x y z
#
# Youngs Moduli (GPa) = 31.54580 8.36048 85.87388
#
# Poissons Ratio (x) = 0.26412 0.51720
# Poissons Ratio (y) = 0.99658 0.96244
# Poissons Ratio (z) = 0.19000 0.09370
#
# Static dielectric constant tensor:
#      x y z
#    x 1.564610 0.000000 -0.002220 
#    y 0.000000 1.571020 0.000000 
#    z -0.002220 0.000000 1.586810 
# 
# From -- ./inp_files/249181.got.cif
#   From: 2010.05.17/outbox.cif.g08.bks.cpg/sg12_125_cif.got.tgz:249181.got - 2010.06.03 13:09:07.
