data_PCOD9181345
_publ_section_title
;
Structure prediction by ZEFSAII (Michael W. Deem and Ramdas Pophale) SiO2 
 PCOD9181345
Probable space group: C 2/M
;
_chemical_formula_sum "Si O2"
_cell_formula_units_Z 48
_cell_length_a 13.204961
_cell_length_b 18.545709
_cell_length_c 12.226697
_cell_angle_alpha 90.000000
_cell_angle_beta 136.403075
_cell_angle_gamma 90.000000
_cell_volume 2064.784813
_symmetry_space_group_name_H-M "C 2/M"
_symmetry_group_IT_number 12
_symmetry_cell_setting 'monoclinic'
loop_
_space_group_symop_operation_xyz
x,y,z
-x,y,-z
-x,-y,-z
x,-y,z
1/2+x,1/2+y,z
1/2-x,1/2+y,-z
1/2-x,1/2-y,-z
1/2+x,1/2-y,z
loop_
_atom_site_type_symbol
_atom_site_label
_atom_site_fract_x
_atom_site_fract_y
_atom_site_fract_z
Si Si1 0.770458 0.155593 0.117334
Si Si2 0.403467 0.920013 0.189811
Si Si3 0.158913 0.359181 0.643752
Si Si4 0.464152 0.281422 0.092228
Si Si5 0.754255 0.918406 0.506667
Si Si6 0.730191 0.300071 0.646699
O O1 0.910350 0.167682 0.148226
O O2 0.798293 0.151864 0.267696
O O3 0.666385 0.095271 0.982518
O O4 0.669681 0.226945 0.032664
O O5 0.326913 0.865603 0.215587
O O6 0.580108 0.915163 0.334955
O O7 0.363356 0.000000 0.195243
O O8 0.264634 0.400823 0.643919
O O9 0.152315 0.277012 0.598411
O O10 0.000000 0.394227 0.500000
O O11 0.601450 0.229396 0.230487
O O12 0.500000 0.314334 0.000000
O O13 0.815880 0.850383 0.488981
O O14 0.805775 0.000000 0.524272
#
# Coordination Sequence:
#
# PCOD9181345 Si02
#       6
#     8   8   8   8   8   8
#     4  10  19  32  52  82 115 142 174 226 280 335
#     4  10  19  34  56  82 115 149 183 228 281 333
#     4  10  21  36  57  83 109 145 196 237 273 319
#     4   9  17  30  51  77 111 140 177 221 274 323
#     4  10  21  36  54  81 115 147 185 231 281 332
#     4  11  21  34  58  85 112 146 185 234 282 333
#
# _framework density 23.246974999999999
#
# number of rings (size 3 to 8) (size 9 to 14) (size 15 to 20)
#    0.000    2.000    1.667    4.000    2.333    2.667 
#    0.000    1.667    0.000    6.000    0.000    0.000 
#    0.000    0.000    0.000    0.000    0.000    0.000 
#
# Total GULP energy -133930.053542 kJ/mol
# GULP energy per Si atom -5580.418898 kJ/mol
# Density = 2.319406 g / cm^3
# Si number density = 23.246975 Si / 1000 Ang^3
#
#
#
# Elastic Constant Matrix: (Units=GPa)
#
#
# Indices 1 2 3 4 5 6 
#
# 1 55.8864 -11.3308 13.0338 0.0000 6.7373 0.0000
# 2 -11.3308 86.7573 -1.6734 0.0000 -1.2400 0.0000
# 3 13.0338 -1.6734 49.5827 0.0000 -6.2511 0.0000
# 4 0.0000 0.0000 0.0000 24.8183 0.0000 -1.2796
# 5 6.7373 -1.2400 -6.2511 0.0000 25.8370 0.0000
# 6 0.0000 0.0000 0.0000 -1.2796 0.0000 15.1149
#
#
#
# Elastic Compliance Matrix: (Units=1/GPa)
#
#
# Indices 1 2 3 4 5 6 
#
# 1 0.020658 0.002482 -0.006200 0.000000 -0.006768 0.000000
# 2 0.002482 0.011843 -0.000271 0.000000 -0.000144 0.000000
# 3 -0.006200 -0.000271 0.022683 0.000000 0.007092 0.000000
# 4 0.000000 0.000000 0.000000 0.040469 0.000000 0.003426
# 5 -0.006768 -0.000144 0.007092 0.000000 0.042178 0.000000
# 6 0.000000 0.000000 0.000000 0.003426 0.000000 0.066450
#
#
# Mechanical properties :
#
#
# Convention : Reuss Voigt Hill
#
# Bulk Modulus (GPa) = 21.18353 21.36510 21.27431
# Shear Modulus (GPa) = 21.93024 25.96717 23.94870
#
# Velocity S-wave (km/s) = 3.07475 3.34580 3.21313
# Velocity P-wave (km/s) = 4.66236 4.91287 4.78925
#
# Compressibility (1/GPa) = 0.04720649
#
# Stress axis : x y z
#
# Youngs Moduli (GPa) = 48.40630 84.43638 44.08573
#
# Poissons Ratio (x) = -0.20955 0.27333
# Poissons Ratio (y) = -0.12013 0.01194
# Poissons Ratio (z) = 0.30012 0.02287
#
# Static dielectric constant tensor:
#      x y z
#    x 1.956280 0.000000 -0.013770 
#    y 0.000000 1.853960 0.000000 
#    z -0.013770 0.000000 1.932830 
# 
# From -- ./inp_files/132999.got.cif
#   From: 2010.05.17/outbox.cif.g08.bks.cpg/sg12_67_cif.got.tgz:132999.got - 2010.06.03 13:09:07.
