data_PCOD9181824
_publ_section_title
;
Structure prediction by ZEFSAII (Michael W. Deem and Ramdas Pophale) SiO2 
 PCOD9181824
Probable space group: C 2/M
;
_chemical_formula_sum "Si O2"
_cell_formula_units_Z 44
_cell_length_a 19.491430
_cell_length_b 17.108070
_cell_length_c 17.496016
_cell_angle_alpha 90.000000
_cell_angle_beta 158.641560
_cell_angle_gamma 90.000000
_cell_volume 2124.836051
_symmetry_space_group_name_H-M "C 2/M"
_symmetry_group_IT_number 12
_symmetry_cell_setting 'monoclinic'
loop_
_space_group_symop_operation_xyz
x,y,z
-x,y,-z
-x,-y,-z
x,-y,z
1/2+x,1/2+y,z
1/2-x,1/2+y,-z
1/2-x,1/2-y,-z
1/2+x,1/2-y,z
loop_
_atom_site_type_symbol
_atom_site_label
_atom_site_fract_x
_atom_site_fract_y
_atom_site_fract_z
Si Si1 0.734427 0.094668 0.510828
Si Si2 0.473163 0.907976 0.854264
Si Si3 0.774958 0.160705 0.273265
Si Si4 0.000000 0.799954 0.000000
Si Si5 0.515852 0.092260 0.429292
Si Si6 0.092345 0.091105 0.954460
O O1 0.613421 0.124202 0.314342
O O2 0.659800 0.123398 0.515613
O O3 0.958143 0.110163 0.743696
O O4 0.711869 0.000000 0.485255
O O5 0.310797 0.895420 0.749908
O O6 0.513019 0.000000 0.888957
O O7 0.661817 0.865580 0.079543
O O8 0.000000 0.160086 0.500000
O O9 0.681384 0.243949 0.196656
O O10 0.035971 0.854511 0.965644
O O11 0.500000 0.123050 0.500000
O O12 0.562953 0.000000 0.487839
O O13 0.315143 0.098630 0.179006
O O14 0.056105 0.000000 0.936836
#
# Coordination Sequence:
#
# PCOD9181824 Si02
#       6
#     8   8   8   4   8   8
#     4   9  18  32  52  83 118 141 169 224 280 326
#     4   9  19  37  61  88 111 134 177 233 281 330
#     4  10  22  39  57  79 109 146 185 227 280 334
#     4  10  21  36  53  78 112 148 188 228 265 320
#     4   9  17  28  45  75 111 143 178 217 259 313
#     4  10  19  32  54  81 108 145 187 225 271 318
#
# _framework density 20.707478999999999
#
# number of rings (size 3 to 8) (size 9 to 14) (size 15 to 20)
#    0.000    2.727    0.000    2.455    0.000    8.000 
#    0.000    7.273    0.000    7.091    0.000    0.000 
#    0.000    0.000    0.000    0.000    0.000    0.000 
#
# Total GULP energy -122605.830415 kJ/mol
# GULP energy per Si atom -5572.992292 kJ/mol
# Density = 2.066035 g / cm^3
# Si number density = 20.707479 Si / 1000 Ang^3
#
#
#
# Elastic Constant Matrix: (Units=GPa)
#
#
# Indices 1 2 3 4 5 6 
#
# 1 30.2266 -16.7488 28.5772 0.0063 -3.5183 0.0447
# 2 -16.7488 29.0735 11.9776 0.0139 12.3647 0.0419
# 3 28.5772 11.9776 126.1229 0.0123 11.8365 0.0244
# 4 0.0063 0.0139 0.0123 26.9387 0.0100 -5.7675
# 5 -3.5183 12.3647 11.8365 0.0100 33.2750 0.0013
# 6 0.0447 0.0419 0.0244 -5.7675 0.0013 25.8565
#
#
#
# Elastic Compliance Matrix: (Units=1/GPa)
#
#
# Indices 1 2 3 4 5 6 
#
# 1 0.099053 0.071361 -0.028672 -0.000105 -0.005845 -0.000283
# 2 0.071361 0.093065 -0.023246 -0.000106 -0.018768 -0.000275
# 3 -0.028672 -0.023246 0.016663 0.000028 -0.000321 0.000078
# 4 -0.000105 -0.000106 0.000028 0.038983 0.000006 0.008696
# 5 -0.005845 -0.018768 -0.000321 0.000006 0.036523 0.000040
# 6 -0.000283 -0.000275 0.000078 0.008696 0.000040 0.040616
#
#
# Mechanical properties :
#
#
# Convention : Reuss Voigt Hill
#
# Bulk Modulus (GPa) = 4.03768 25.89277 14.96523
# Shear Modulus (GPa) = 13.56591 27.98849 20.77720
#
# Velocity S-wave (km/s) = 2.56231 3.68042 3.17103
# Velocity P-wave (km/s) = 3.27231 5.53099 4.54422
#
# Compressibility (1/GPa) = 0.24766691
#
# Stress axis : x y z
#
# Youngs Moduli (GPa) = 10.09563 10.74523 60.01310
#
# Poissons Ratio (x) = -0.76679 1.72069
# Poissons Ratio (y) = -0.72044 1.39506
# Poissons Ratio (z) = 0.28946 0.24978
#
# Static dielectric constant tensor:
#      x y z
#    x 1.740020 0.000000 -0.000670 
#    y 0.000000 1.747530 -0.000010 
#    z -0.000670 -0.000010 1.805130 
# 
# From -- ./inp_files/285255.got.cif
#   From: 2010.05.17/outbox.cif.g08.bks.cpg/sg12_143_cif.got.tgz:285255.got - 2010.06.03 13:09:07.
