data_PCOD9181665
_publ_section_title
;
Structure prediction by ZEFSAII (Michael W. Deem and Ramdas Pophale) SiO2 
 PCOD9181665
Probable space group: C 2/M
;
_chemical_formula_sum "Si O2"
_cell_formula_units_Z 48
_cell_length_a 29.839512
_cell_length_b 8.534687
_cell_length_c 19.749741
_cell_angle_alpha 90.000000
_cell_angle_beta 153.958804
_cell_angle_gamma 90.000000
_cell_volume 2208.118243
_symmetry_space_group_name_H-M "C 2/M"
_symmetry_group_IT_number 12
_symmetry_cell_setting 'monoclinic'
loop_
_space_group_symop_operation_xyz
x,y,z
-x,y,-z
-x,-y,-z
x,-y,z
1/2+x,1/2+y,z
1/2-x,1/2+y,-z
1/2-x,1/2-y,-z
1/2+x,1/2-y,z
loop_
_atom_site_type_symbol
_atom_site_label
_atom_site_fract_x
_atom_site_fract_y
_atom_site_fract_z
Si Si1 0.404762 0.679703 0.910913
Si Si2 0.321194 0.312038 0.156958
Si Si3 0.269315 0.188580 0.234776
Si Si4 0.094315 0.823466 0.333236
Si Si5 0.169126 0.673160 0.308665
Si Si6 0.950421 0.189693 0.577172
O O1 0.431969 0.500000 0.962821
O O2 0.340900 0.745767 0.886560
O O3 0.325864 0.693666 0.741370
O O4 0.500000 0.754798 0.000000
O O5 0.315480 0.500000 0.150756
O O6 0.288118 0.245354 0.184479
O O7 0.439288 0.268973 0.303150
O O8 0.250000 0.250000 0.000000
O O9 0.359670 0.246682 0.406978
O O10 0.267328 0.000000 0.234264
O O11 0.088796 0.720604 0.258090
O O12 0.216165 0.838048 0.508039
O O13 0.054099 0.759606 0.350069
O O14 0.052776 0.000000 0.266089
O O15 0.146799 0.500000 0.250304
O O16 0.939964 0.000000 0.564489
#
# Coordination Sequence:
#
# PCOD9181665 Si02
#       6
#     8   8   8   8   8   8
#     4  10  22  39  58  82 117 161 201 238 291 358
#     4  11  25  44  66  90 123 161 201 250 307 369
#     4  11  23  40  65  93 122 158 204 256 305 359
#     4   9  18  33  55  81 114 150 188 235 287 346
#     4  10  19  32  53  82 115 150 192 240 287 338
#     4  10  21  40  65  92 121 162 206 248 303 363
#
# _framework density 21.737964999999999
#
# number of rings (size 3 to 8) (size 9 to 14) (size 15 to 20)
#    0.000    1.833    1.667    2.000    0.000    7.000 
#    0.000    6.667    0.000    0.000    0.000    0.000 
#    0.000    0.000    0.000    0.000    0.000    0.000 
#
# Total GULP energy -133868.485535 kJ/mol
# GULP energy per Si atom -5577.853564 kJ/mol
# Density = 2.168849 g / cm^3
# Si number density = 21.737965 Si / 1000 Ang^3
#
#
#
# Elastic Constant Matrix: (Units=GPa)
#
#
# Indices 1 2 3 4 5 6 
#
# 1 232.9345 26.7957 53.1406 0.0000 4.1743 0.0000
# 2 26.7957 28.5231 10.1279 0.0000 6.0003 0.0000
# 3 53.1406 10.1279 62.8758 0.0000 6.0951 0.0000
# 4 0.0000 0.0000 0.0000 26.1421 0.0000 -2.2907
# 5 4.1743 6.0003 6.0951 0.0000 38.9488 0.0000
# 6 0.0000 0.0000 0.0000 -2.2907 0.0000 23.5352
#
#
#
# Elastic Compliance Matrix: (Units=1/GPa)
#
#
# Indices 1 2 3 4 5 6 
#
# 1 0.005710 -0.003997 -0.004247 0.000000 0.000668 0.000000
# 2 -0.003997 0.040914 -0.002684 0.000000 -0.005455 0.000000
# 3 -0.004247 -0.002684 0.020147 0.000000 -0.002284 0.000000
# 4 0.000000 0.000000 0.000000 0.038581 0.000000 0.003755
# 5 0.000668 -0.005455 -0.002284 0.000000 0.026801 0.000000
# 6 0.000000 0.000000 0.000000 0.003755 0.000000 0.042855
#
#
# Mechanical properties :
#
#
# Convention : Reuss Voigt Hill
#
# Bulk Modulus (GPa) = 22.26324 56.05130 39.15727
# Shear Modulus (GPa) = 23.60329 33.34319 28.47324
#
# Velocity S-wave (km/s) = 3.29874 3.92071 3.62310
# Velocity P-wave (km/s) = 4.97722 6.80712 5.96279
#
# Compressibility (1/GPa) = 0.04491710
#
# Stress axis : x y z
#
# Youngs Moduli (GPa) = 175.14296 24.44133 49.63471
#
# Poissons Ratio (x) = 0.09768 0.21078
# Poissons Ratio (y) = 0.69997 0.13321
# Poissons Ratio (z) = 0.74376 0.06560
#
# Static dielectric constant tensor:
#      x y z
#    x 1.805900 0.000000 0.005400 
#    y 0.000000 1.904120 0.000000 
#    z 0.005400 0.000000 1.893810 
# 
# From -- ./inp_files/295888.got.cif
#   From: 2010.05.17/outbox.cif.g08.bks.cpg/sg12_148_cif.got.tgz:295888.got - 2010.06.03 13:09:07.
