data_PCOD9181606
_publ_section_title
;
Structure prediction by ZEFSAII (Michael W. Deem and Ramdas Pophale) SiO2 
 PCOD9181606
Probable space group: C 2/M
;
_chemical_formula_sum "Si O2"
_cell_formula_units_Z 64
_cell_length_a 23.968527
_cell_length_b 10.445466
_cell_length_c 13.963687
_cell_angle_alpha 90.000000
_cell_angle_beta 82.088964
_cell_angle_gamma 90.000000
_cell_volume 3462.711295
_symmetry_space_group_name_H-M "C 2/M"
_symmetry_group_IT_number 12
_symmetry_cell_setting 'monoclinic'
loop_
_space_group_symop_operation_xyz
x,y,z
-x,y,-z
-x,-y,-z
x,-y,z
1/2+x,1/2+y,z
1/2-x,1/2+y,-z
1/2-x,1/2-y,-z
1/2+x,1/2-y,z
loop_
_atom_site_type_symbol
_atom_site_label
_atom_site_fract_x
_atom_site_fract_y
_atom_site_fract_z
Si Si1 0.808550 0.147502 0.089041
Si Si2 0.138564 0.151184 0.114260
Si Si3 0.318874 0.857346 0.360121
Si Si4 0.720239 0.731768 0.255285
Si Si5 0.347512 0.143609 0.567093
Si Si6 0.604747 0.649652 0.763269
Si Si7 0.943220 0.851930 0.574531
Si Si8 0.476942 0.652493 0.787578
O O1 0.761481 0.215032 0.163693
O O2 0.864513 0.149660 0.141473
O O3 0.790625 0.000000 0.080685
O O4 0.824873 0.205126 0.982333
O O5 0.170721 0.164271 0.207543
O O6 0.075460 0.205805 0.139088
O O7 0.133184 0.000000 0.094951
O O8 0.260095 0.847975 0.317132
O O9 0.313520 0.844210 0.475654
O O10 0.359081 0.744132 0.312179
O O11 0.342865 0.000000 0.335925
O O12 0.691838 0.835554 0.331484
O O13 0.395385 0.251782 0.557364
O O14 0.371746 0.000000 0.563888
O O15 0.605082 0.500000 0.728833
O O16 0.540647 0.697263 0.786816
O O17 0.959920 0.832111 0.681016
O O18 0.000000 0.835010 0.500000
O O19 0.924339 0.000000 0.566911
O O20 0.479166 0.500000 0.806412
#
# Coordination Sequence:
#
# PCOD9181606 Si02
#       8
#     8   8   8   8   8   8   8   8
#     4   9  19  33  52  80 108 139 180 230 280 323
#     4  10  19  32  53  81 109 137 181 234 277 321
#     4  10  22  37  55  81 111 146 187 226 272 327
#     4  11  20  36  55  75 108 150 186 223 271 331
#     4  11  23  37  54  80 114 146 183 230 277 327
#     4   9  18  35  58  82 111 145 180 223 276 327
#     4  10  20  35  56  81 110 146 187 227 269 325
#     4   9  17  31  52  80 109 139 179 225 269 323
#
# _framework density 18.482626
#
# number of rings (size 3 to 8) (size 9 to 14) (size 15 to 20)
#    0.000    2.125    1.250    2.250    0.000    3.250 
#    0.000    3.125    0.000    0.750    0.000    3.500 
#    0.000    0.000    0.000    0.000    0.000    0.000 
#
# Total GULP energy -178325.763285 kJ/mol
# GULP energy per Si atom -5572.680103 kJ/mol
# Density = 1.844056 g / cm^3
# Si number density = 18.482626 Si / 1000 Ang^3
#
#
#
# Elastic Constant Matrix: (Units=GPa)
#
#
# Indices 1 2 3 4 5 6 
#
# 1 74.1524 25.1737 18.4448 0.0000 -6.6893 0.0000
# 2 25.1737 65.9451 25.3967 0.0000 -1.3808 0.0000
# 3 18.4448 25.3967 90.7082 0.0000 -7.4946 0.0000
# 4 0.0000 0.0000 0.0000 -5.5833 0.0000 -18.4920
# 5 -6.6893 -1.3808 -7.4946 0.0000 17.8803 0.0000
# 6 0.0000 0.0000 0.0000 -18.4920 0.0000 1.4752
#
#
#
# Elastic Compliance Matrix: (Units=1/GPa)
#
#
# Indices 1 2 3 4 5 6 
#
# 1 0.016155 -0.005556 -0.001311 0.000000 0.005065 0.000000
# 2 -0.005556 0.018916 -0.004369 0.000000 -0.002449 0.000000
# 3 -0.001311 -0.004369 0.012892 0.000000 0.004576 0.000000
# 4 0.000000 0.000000 0.000000 -0.004213 0.000000 -0.052806
# 5 0.005065 -0.002449 0.004576 0.000000 0.059552 0.000000
# 6 0.000000 0.000000 0.000000 -0.052806 0.000000 0.015944
#
#
# Mechanical properties :
#
#
# Convention : Reuss Voigt Hill
#
# Bulk Modulus (GPa) = 39.22795 40.98178 40.10487
# Shear Modulus (GPa) = 33.28567 13.54047 23.41307
#
# Velocity S-wave (km/s) = 4.24832 2.70960 3.56302
# Velocity P-wave (km/s) = 6.73310 5.65779 6.21873
#
# Compressibility (1/GPa) = 0.02549203
#
# Stress axis : x y z
#
# Youngs Moduli (GPa) = 61.90051 52.86450 77.56640
#
# Poissons Ratio (x) = 0.29372 0.10168
# Poissons Ratio (y) = 0.34392 0.33887
# Poissons Ratio (z) = 0.08114 0.23095
#
# Static dielectric constant tensor:
#      x y z
#    x 1.655510 0.000000 -0.016290 
#    y 0.000000 1.632590 0.000000 
#    z -0.016290 0.000000 1.655610 
# 
# From -- ./inp_files/239619.got.cif
#   From: 2010.05.17/outbox.cif.g08.bks.cpg/sg12_120_cif.got.tgz:239619.got - 2010.06.03 13:09:07.
