data_PCOD9181972
_publ_section_title
;
Structure prediction by ZEFSAII (Michael W. Deem and Ramdas Pophale) SiO2 
 PCOD9181972
Probable space group: C 2/M
;
_chemical_formula_sum "Si O2"
_cell_formula_units_Z 60
_cell_length_a 25.567863
_cell_length_b 14.130922
_cell_length_c 10.764944
_cell_angle_alpha 90.000000
_cell_angle_beta 57.143082
_cell_angle_gamma 90.000000
_cell_volume 3267.160682
_symmetry_space_group_name_H-M "C 2/M"
_symmetry_group_IT_number 12
_symmetry_cell_setting 'monoclinic'
loop_
_space_group_symop_operation_xyz
x,y,z
-x,y,-z
-x,-y,-z
x,-y,z
1/2+x,1/2+y,z
1/2-x,1/2+y,-z
1/2-x,1/2-y,-z
1/2+x,1/2-y,z
loop_
_atom_site_type_symbol
_atom_site_label
_atom_site_fract_x
_atom_site_fract_y
_atom_site_fract_z
Si Si1 0.303292 0.751746 0.036278
Si Si2 0.715951 0.753561 0.366601
Si Si3 0.091553 0.394949 0.182664
Si Si4 0.000000 0.236904 0.000000
Si Si5 0.958727 0.606759 0.226593
Si Si6 0.390808 0.610220 0.053186
Si Si7 0.116207 0.607460 0.421893
Si Si8 0.696022 0.389377 0.596482
O O1 0.270094 0.783674 0.207074
O O2 0.339408 0.654663 0.026142
O O3 0.250000 0.750000 0.000000
O O4 0.357454 0.821204 0.924424
O O5 0.667656 0.812031 0.346713
O O6 0.684727 0.670732 0.486582
O O7 0.745649 0.833788 0.417906
O O8 0.118353 0.500000 0.133332
O O9 0.075543 0.384766 0.349541
O O10 0.029828 0.389423 0.181291
O O11 0.045183 0.307995 0.865178
O O12 0.045531 0.170816 0.023305
O O13 0.946235 0.500000 0.193173
O O14 0.918205 0.619774 0.402828
O O15 0.402504 0.500000 0.011117
O O16 0.359160 0.616297 0.231163
O O17 0.142304 0.500000 0.388501
O O18 0.708991 0.500000 0.557400
#
# Coordination Sequence:
#
# PCOD9181972 Si02
#       8
#     8   8   8   4   8   8   8   8
#     4  11  21  37  57  83 114 147 186 235 286 333
#     4  10  19  32  55  77 107 142 183 225 279 332
#     4  10  20  36  55  80 111 144 183 228 276 336
#     4  12  20  36  60  82 116 146 184 234 284 328
#     4  10  21  35  55  84 116 145 178 226 285 337
#     4  10  22  38  58  81 109 149 194 234 277 333
#     4  10  19  33  55  80 106 143 183 220 271 338
#     4   9  19  35  51  74 106 140 182 231 273 325
#
# _framework density 18.364570000000001
#
# number of rings (size 3 to 8) (size 9 to 14) (size 15 to 20)
#    0.000    1.867    2.667    2.000    0.000    3.200 
#    0.000    0.000    0.000    0.000    0.000    0.933 
#    0.000    0.000    0.000    0.000    0.000    0.000 
#
# Total GULP energy -167231.800534 kJ/mol
# GULP energy per Si atom -5574.393351 kJ/mol
# Density = 1.832277 g / cm^3
# Si number density = 18.364570 Si / 1000 Ang^3
#
#
#
# Elastic Constant Matrix: (Units=GPa)
#
#
# Indices 1 2 3 4 5 6 
#
# 1 44.9623 16.7190 -5.2324 0.0000 4.3695 0.0000
# 2 16.7190 104.1526 42.2348 0.0000 3.8116 0.0000
# 3 -5.2324 42.2348 58.8862 0.0000 -0.0734 0.0000
# 4 0.0000 0.0000 0.0000 27.9719 0.0000 0.8750
# 5 4.3695 3.8116 -0.0734 0.0000 23.4521 0.0000
# 6 0.0000 0.0000 0.0000 0.8750 0.0000 22.1618
#
#
#
# Elastic Compliance Matrix: (Units=1/GPa)
#
#
# Indices 1 2 3 4 5 6 
#
# 1 0.026071 -0.007033 0.007356 0.000000 -0.003691 0.000000
# 2 -0.007033 0.015554 -0.011782 0.000000 -0.001254 0.000000
# 3 0.007356 -0.011782 0.026087 0.000000 0.000626 0.000000
# 4 0.000000 0.000000 0.000000 0.035794 0.000000 -0.001413
# 5 -0.003691 -0.001254 0.000626 0.000000 0.043534 0.000000
# 6 0.000000 0.000000 0.000000 -0.001413 0.000000 0.045179
#
#
# Mechanical properties :
#
#
# Convention : Reuss Voigt Hill
#
# Bulk Modulus (GPa) = 22.32458 35.04935 28.68697
# Shear Modulus (GPa) = 21.73276 25.00245 23.36760
#
# Velocity S-wave (km/s) = 3.44380 3.69379 3.57098
# Velocity P-wave (km/s) = 5.29110 6.10891 5.71465
#
# Compressibility (1/GPa) = 0.04479367
#
# Stress axis : x y z
#
# Youngs Moduli (GPa) = 38.35708 64.29237 38.33349
#
# Poissons Ratio (x) = 0.45216 -0.28199
# Poissons Ratio (y) = 0.26976 0.45165
# Poissons Ratio (z) = -0.28216 0.75751
#
# Static dielectric constant tensor:
#      x y z
#    x 1.645060 0.000000 0.017920 
#    y 0.000000 1.632940 0.000000 
#    z 0.017920 0.000000 1.642990 
# 
# From -- ./inp_files/182534.got.cif
#   From: 2010.05.17/outbox.cif.g08.bks.cpg/sg12_92_cif.got.tgz:182534.got - 2010.06.03 13:09:07.
