data_PCOD9181912
_publ_section_title
;
Structure prediction by ZEFSAII (Michael W. Deem and Ramdas Pophale) SiO2 
 PCOD9181912
Probable space group: C 2/M
;
_chemical_formula_sum "Si O2"
_cell_formula_units_Z 40
_cell_length_a 28.625468
_cell_length_b 8.095401
_cell_length_c 10.246903
_cell_angle_alpha 90.000000
_cell_angle_beta 75.119516
_cell_angle_gamma 90.000000
_cell_volume 2294.928144
_symmetry_space_group_name_H-M "C 2/M"
_symmetry_group_IT_number 12
_symmetry_cell_setting 'monoclinic'
loop_
_space_group_symop_operation_xyz
x,y,z
-x,y,-z
-x,-y,-z
x,-y,z
1/2+x,1/2+y,z
1/2-x,1/2+y,-z
1/2-x,1/2-y,-z
1/2+x,1/2-y,z
loop_
_atom_site_type_symbol
_atom_site_label
_atom_site_fract_x
_atom_site_fract_y
_atom_site_fract_z
Si Si1 0.041632 0.000000 0.360074
Si Si2 0.475200 0.500000 0.157244
Si Si3 0.308243 0.310003 0.316011
Si Si4 0.589015 0.815488 0.727504
Si Si5 0.204155 0.190100 0.360001
Si Si6 0.398715 0.184442 0.595943
O O1 0.073277 0.164748 0.358282
O O2 0.000000 0.000000 0.500000
O O3 0.015528 0.000000 0.240604
O O4 0.442874 0.664051 0.199976
O O5 0.500000 0.500000 0.000000
O O6 0.317455 0.500000 0.274584
O O7 0.356415 0.205863 0.257653
O O8 0.258049 0.250459 0.289859
O O9 0.300338 0.303612 0.478741
O O10 0.592474 0.801062 0.566911
O O11 0.570924 0.000000 0.770929
O O12 0.158787 0.293469 0.341367
O O13 0.198069 0.000000 0.325182
O O14 0.414182 0.000000 0.624948
#
# Coordination Sequence:
#
# PCOD9181912 Si02
#       6
#     4   4   8   8   8   8
#     4  12  22  38  60  80 108 150 188 232 284 326
#     4  12  26  42  58  80 110 148 192 238 280 325
#     4   9  15  24  43  72 112 150 177 212 273 331
#     4  10  19  34  55  80 112 147 185 230 278 332
#     4   9  15  24  41  73 116 148 173 216 269 329
#     4  10  19  32  54  83 115 145 182 227 278 332
#
# _framework density 17.429739000000001
#
# number of rings (size 3 to 8) (size 9 to 14) (size 15 to 20)
#    0.000    2.000    4.000    1.200    0.000    6.400 
#    0.000    0.000    0.000    0.000    0.000    1.400 
#    0.000    0.000    0.000    0.000    0.000    0.000 
#
# Total GULP energy -111500.984787 kJ/mol
# GULP energy per Si atom -5575.049239 kJ/mol
# Density = 1.739007 g / cm^3
# Si number density = 17.429739 Si / 1000 Ang^3
#
#
#
# Elastic Constant Matrix: (Units=GPa)
#
#
# Indices 1 2 3 4 5 6 
#
# 1 114.7367 75.3281 34.4996 0.0000 -4.2120 0.0000
# 2 75.3281 165.6924 32.7653 0.0000 -9.3957 0.0000
# 3 34.4996 32.7653 40.7408 0.0000 1.5848 0.0000
# 4 0.0000 0.0000 0.0000 5.6224 0.0000 -3.8808
# 5 -4.2120 -9.3957 1.5848 0.0000 7.1183 0.0000
# 6 0.0000 0.0000 0.0000 -3.8808 0.0000 32.4077
#
#
#
# Elastic Compliance Matrix: (Units=1/GPa)
#
#
# Indices 1 2 3 4 5 6 
#
# 1 0.014558 -0.004630 -0.008778 0.000000 0.004457 0.000000
# 2 -0.004630 0.009589 -0.004213 0.000000 0.010855 0.000000
# 3 -0.008778 -0.004213 0.036098 0.000000 -0.018792 0.000000
# 4 0.000000 0.000000 0.000000 0.193884 0.000000 0.023217
# 5 0.004457 0.010855 -0.018792 0.000000 0.161633 0.000000
# 6 0.000000 0.000000 0.000000 0.023217 0.000000 0.033637
#
#
# Mechanical properties :
#
#
# Convention : Reuss Voigt Hill
#
# Bulk Modulus (GPa) = 39.99524 67.37290 53.68407
# Shear Modulus (GPa) = 10.14247 20.93481 15.53864
#
# Velocity S-wave (km/s) = 2.41489 3.46944 2.98904
# Velocity P-wave (km/s) = 5.54725 7.40184 6.54061
#
# Compressibility (1/GPa) = 0.02500297
#
# Stress axis : x y z
#
# Youngs Moduli (GPa) = 68.68897 104.28659 27.70231
#
# Poissons Ratio (x) = 0.48285 0.24317
# Poissons Ratio (y) = 0.31803 0.11672
# Poissons Ratio (z) = 0.60294 0.43939
#
# Static dielectric constant tensor:
#      x y z
#    x 1.614110 0.000000 -0.007310 
#    y 0.000000 1.613480 0.000000 
#    z -0.007310 0.000000 1.548200 
# 
# From -- ./inp_files/171433.got.cif
#   From: 2010.05.17/outbox.cif.g08.bks.cpg/sg12_86_cif.got.tgz:171433.got - 2010.06.03 13:09:07.
