data_PCOD9181768
_publ_section_title
;
Structure prediction by ZEFSAII (Michael W. Deem and Ramdas Pophale) SiO2 
 PCOD9181768
Probable space group: C 2/M
;
_chemical_formula_sum "Si O2"
_cell_formula_units_Z 56
_cell_length_a 21.902761
_cell_length_b 9.878214
_cell_length_c 17.393511
_cell_angle_alpha 90.000000
_cell_angle_beta 119.499981
_cell_angle_gamma 90.000000
_cell_volume 3275.377853
_symmetry_space_group_name_H-M "C 2/M"
_symmetry_group_IT_number 12
_symmetry_cell_setting 'monoclinic'
loop_
_space_group_symop_operation_xyz
x,y,z
-x,y,-z
-x,-y,-z
x,-y,z
1/2+x,1/2+y,z
1/2-x,1/2+y,-z
1/2-x,1/2-y,-z
1/2+x,1/2-y,z
loop_
_atom_site_type_symbol
_atom_site_label
_atom_site_fract_x
_atom_site_fract_y
_atom_site_fract_z
Si Si1 0.463610 0.659083 0.060271
Si Si2 0.578271 0.342684 0.744044
Si Si3 0.312620 0.849052 0.630589
Si Si4 0.309379 0.153853 0.443143
Si Si5 0.975060 0.659861 0.767556
Si Si6 0.319343 0.341121 0.048542
Si Si7 0.582662 0.346174 0.567371
O O1 0.473114 0.500000 0.088294
O O2 0.501151 0.761326 0.141562
O O3 0.379950 0.684912 0.021297
O O4 0.500000 0.675280 0.000000
O O5 0.555222 0.500000 0.739743
O O6 0.516797 0.238254 0.726533
O O7 0.640015 0.319724 0.844737
O O8 0.598082 0.327922 0.667448
O O9 0.310884 0.847428 0.536736
O O10 0.259628 0.734866 0.625523
O O11 0.392094 0.827050 0.705199
O O12 0.290246 0.000000 0.641748
O O13 0.375292 0.237070 0.454414
O O14 0.309561 0.000000 0.415934
O O15 0.992418 0.500000 0.780015
O O16 0.300423 0.500000 0.032119
O O17 0.250000 0.250000 0.000000
O O18 0.500000 0.333804 0.500000
O O19 0.603029 0.500000 0.558076
#
# Coordination Sequence:
#
# PCOD9181768 Si02
#       7
#     8   8   8   8   8   8   8
#     4   9  19  37  57  77 106 139 174 219 266 320
#     4   9  19  35  53  75 105 139 174 209 256 316
#     4   9  19  35  51  71 103 138 170 210 262 310
#     4  10  20  33  51  74 101 136 176 217 256 301
#     4  10  19  32  54  80 103 131 170 216 261 305
#     4   9  18  34  55  77 102 138 175 214 265 315
#     4  10  20  34  53  76 104 139 174 211 260 314
#
# _framework density 17.097265
#
# number of rings (size 3 to 8) (size 9 to 14) (size 15 to 20)
#    0.000    2.571    0.000    2.571    0.000    5.143 
#    2.571    0.000    0.000    0.000    0.000    0.000 
#    0.000    0.000    0.000    0.000    0.000    0.000 
#
# Total GULP energy -156034.145808 kJ/mol
# GULP energy per Si atom -5572.648065 kJ/mol
# Density = 1.705835 g / cm^3
# Si number density = 17.097265 Si / 1000 Ang^3
#
#
#
# Elastic Constant Matrix: (Units=GPa)
#
#
# Indices 1 2 3 4 5 6 
#
# 1 70.1796 64.3842 18.5885 0.0000 21.9968 0.0000
# 2 64.3842 133.4528 27.9141 0.0000 26.0448 0.0000
# 3 18.5885 27.9141 31.0781 0.0000 15.2410 0.0000
# 4 0.0000 0.0000 0.0000 7.2042 0.0000 6.5572
# 5 21.9968 26.0448 15.2410 0.0000 23.8762 0.0000
# 6 0.0000 0.0000 0.0000 6.5572 0.0000 37.1393
#
#
#
# Elastic Compliance Matrix: (Units=1/GPa)
#
#
# Indices 1 2 3 4 5 6 
#
# 1 0.029085 -0.011151 -0.000298 0.000000 -0.014441 0.000000
# 2 -0.011151 0.014369 -0.005223 0.000000 -0.002067 0.000000
# 3 -0.000298 -0.005223 0.049665 0.000000 -0.025731 0.000000
# 4 0.000000 0.000000 0.000000 0.165385 0.000000 -0.029200
# 5 -0.014441 -0.002067 -0.025731 0.000000 0.073866 0.000000
# 6 0.000000 0.000000 0.000000 -0.029200 0.000000 0.032081
#
#
# Mechanical properties :
#
#
# Convention : Reuss Voigt Hill
#
# Bulk Modulus (GPa) = 16.72961 50.72044 33.72502
# Shear Modulus (GPa) = 11.96973 21.89887 16.93430
#
# Velocity S-wave (km/s) = 2.64880 3.58277 3.15059
# Velocity P-wave (km/s) = 4.37734 6.84435 5.74483
#
# Compressibility (1/GPa) = 0.05977426
#
# Stress axis : x y z
#
# Youngs Moduli (GPa) = 34.38218 69.59441 20.13484
#
# Poissons Ratio (x) = 0.77606 0.00601
# Poissons Ratio (y) = 0.38340 0.10516
# Poissons Ratio (z) = 0.01026 0.36347
#
# Static dielectric constant tensor:
#      x y z
#    x 1.576370 0.000000 -0.012670 
#    y 0.000000 1.575930 0.000000 
#    z -0.012670 0.000000 1.571000 
# 
# From -- ./inp_files/281614.got.cif
#   From: 2010.05.17/outbox.cif.g08.bks.cpg/sg12_141_cif.got.tgz:281614.got - 2010.06.03 13:09:07.
