data_PCOD9181938
_publ_section_title
;
Structure prediction by ZEFSAII (Michael W. Deem and Ramdas Pophale) SiO2 
 PCOD9181938
Probable space group: C 2/M
;
_chemical_formula_sum "Si O2"
_cell_formula_units_Z 56
_cell_length_a 32.480615
_cell_length_b 19.970666
_cell_length_c 9.287114
_cell_angle_alpha 90.000000
_cell_angle_beta 30.298866
_cell_angle_gamma 90.000000
_cell_volume 3039.259679
_symmetry_space_group_name_H-M "C 2/M"
_symmetry_group_IT_number 12
_symmetry_cell_setting 'monoclinic'
loop_
_space_group_symop_operation_xyz
x,y,z
-x,y,-z
-x,-y,-z
x,-y,z
1/2+x,1/2+y,z
1/2-x,1/2+y,-z
1/2-x,1/2-y,-z
1/2+x,1/2-y,z
loop_
_atom_site_type_symbol
_atom_site_label
_atom_site_fract_x
_atom_site_fract_y
_atom_site_fract_z
Si Si1 0.717304 0.646526 0.014213
Si Si2 0.350109 0.798502 0.817592
Si Si3 0.072577 0.876274 0.631331
Si Si4 0.757441 0.919889 0.366494
Si Si5 0.674517 0.199290 0.768288
Si Si6 0.396947 0.574923 0.162681
Si Si7 0.999589 0.726923 0.167275
O O1 0.683705 0.722181 0.094499
O O2 0.640392 0.607961 0.310908
O O3 0.788704 0.654112 0.914836
O O4 0.743804 0.611802 0.787869
O O5 0.437263 0.805265 0.472517
O O6 0.344464 0.808504 0.005195
O O7 0.114753 0.880560 0.660464
O O8 0.035061 0.802359 0.733977
O O9 0.994095 0.922727 0.849417
O O10 0.696094 0.874248 0.643256
O O11 0.845209 0.906864 0.179048
O O12 0.743013 0.000000 0.409342
O O13 0.750000 0.250000 0.500000
O O14 0.591985 0.225597 0.943317
O O15 0.371545 0.500000 0.279374
O O16 0.000000 0.700912 0.000000
#
# Coordination Sequence:
#
# PCOD9181938 Si02
#       7
#     8   8   8   8   8   8   8
#     4  10  21  36  57  85 119 157 202 260 309 373
#     4  10  22  38  61  89 121 155 209 260 320 368
#     4  10  19  32  54  84 121 158 203 246 303 366
#     4  11  24  40  60  89 126 167 211 258 321 379
#     4  12  23  39  65  90 125 166 211 268 316 369
#     4  10  20  35  53  80 121 170 206 240 297 382
#     4  11  22  35  60  92 125 157 201 264 321 368
#
# _framework density 18.425540000000002
#
# number of rings (size 3 to 8) (size 9 to 14) (size 15 to 20)
#    0.000    1.429    2.857    3.857    4.000    1.714 
#    0.000    2.143    0.000    5.571    0.000    0.000 
#    0.000    0.000    0.000    0.000    0.000    0.000 
#
# Total GULP energy -156083.283672 kJ/mol
# GULP energy per Si atom -5574.402988 kJ/mol
# Density = 1.838360 g / cm^3
# Si number density = 18.425540 Si / 1000 Ang^3
#
#
#
# Elastic Constant Matrix: (Units=GPa)
#
#
# Indices 1 2 3 4 5 6 
#
# 1 155.6489 35.2619 66.9244 0.0000 13.6406 0.0000
# 2 35.2619 55.6634 26.3622 0.0000 1.8549 0.0000
# 3 66.9244 26.3622 127.3491 0.0000 18.3748 0.0000
# 4 0.0000 0.0000 0.0000 6.0211 0.0000 -11.9282
# 5 13.6406 1.8549 18.3748 0.0000 30.8545 0.0000
# 6 0.0000 0.0000 0.0000 -11.9282 0.0000 18.5640
#
#
#
# Elastic Compliance Matrix: (Units=1/GPa)
#
#
# Indices 1 2 3 4 5 6 
#
# 1 0.009048 -0.003918 -0.003720 0.000000 -0.001549 0.000000
# 2 -0.003918 0.021668 -0.002722 0.000000 0.002051 0.000000
# 3 -0.003720 -0.002722 0.011060 0.000000 -0.004779 0.000000
# 4 0.000000 0.000000 0.000000 -0.608538 0.000000 -0.391013
# 5 -0.001549 0.002051 -0.004779 0.000000 0.035817 0.000000
# 6 0.000000 0.000000 0.000000 -0.391013 0.000000 -0.197376
#
#
# Mechanical properties :
#
#
# Convention : Reuss Voigt Hill
#
# Bulk Modulus (GPa) = 47.49438 66.19538 56.84488
# Shear Modulus (GPa) = -7.13693 25.09546 8.97927
#
# Velocity S-wave (km/s) = -1.97023 3.69452 2.20994
# Velocity P-wave (km/s) = 4.54495 7.36228 6.11800
#
# Compressibility (1/GPa) = 0.02105512
#
# Stress axis : x y z
#
# Youngs Moduli (GPa) = 110.52600 46.15072 90.41215
#
# Poissons Ratio (x) = 0.18082 0.33635
# Poissons Ratio (y) = 0.43305 0.24613
# Poissons Ratio (z) = 0.41117 0.12564
#
# Static dielectric constant tensor:
#      x y z
#    x 1.656920 0.000000 0.019350 
#    y 0.000000 1.671370 0.000000 
#    z 0.019350 0.000000 1.656900 
# 
# From -- ./inp_files/113345.got.cif
#   From: 2010.05.17/outbox.cif.g08.bks.cpg/sg12_57_cif.got.tgz:113345.got - 2010.06.03 13:09:07.
