data_PCOD9181681
_publ_section_title
;
Structure prediction by ZEFSAII (Michael W. Deem and Ramdas Pophale) SiO2 
 PCOD9181681
Probable space group: C 2/M
;
_chemical_formula_sum "Si O2"
_cell_formula_units_Z 56
_cell_length_a 27.828929
_cell_length_b 8.792995
_cell_length_c 12.715143
_cell_angle_alpha 90.000000
_cell_angle_beta 69.178386
_cell_angle_gamma 90.000000
_cell_volume 2908.191034
_symmetry_space_group_name_H-M "C 2/M"
_symmetry_group_IT_number 12
_symmetry_cell_setting 'monoclinic'
loop_
_space_group_symop_operation_xyz
x,y,z
-x,y,-z
-x,-y,-z
x,-y,z
1/2+x,1/2+y,z
1/2-x,1/2+y,-z
1/2-x,1/2-y,-z
1/2+x,1/2-y,z
loop_
_atom_site_type_symbol
_atom_site_label
_atom_site_fract_x
_atom_site_fract_y
_atom_site_fract_z
Si Si1 0.706217 0.180611 0.608522
Si Si2 0.501972 0.317300 0.875279
Si Si3 0.397013 0.819588 0.579859
Si Si4 0.090527 0.317234 0.189281
Si Si5 0.291785 0.330166 0.684501
Si Si6 0.197562 0.171413 0.074821
Si Si7 0.410194 0.185342 0.339252
O O1 0.750000 0.250000 0.500000
O O2 0.733487 0.208615 0.699426
O O3 0.648348 0.236119 0.640083
O O4 0.703705 0.000000 0.591747
O O5 0.501979 0.500000 0.871095
O O6 0.453679 0.253541 0.847566
O O7 0.551528 0.253027 0.775888
O O8 0.500000 0.271709 0.000000
O O9 0.412640 0.763525 0.684658
O O10 0.336388 0.782521 0.612545
O O11 0.422881 0.766794 0.450498
O O12 0.403931 0.000000 0.577793
O O13 0.086911 0.500000 0.192317
O O14 0.145528 0.266305 0.099585
O O15 0.302704 0.500000 0.632145
O O16 0.297472 0.338152 0.803647
O O17 0.192900 0.000000 0.035305
O O18 0.250000 0.250000 0.000000
O O19 0.412644 0.000000 0.333273
#
# Coordination Sequence:
#
# PCOD9181681 Si02
#       7
#     8   8   8   8   8   8   8
#     4  10  19  32  53  83 118 154 189 228 279 341
#     4  11  26  46  63  83 114 152 200 253 301 353
#     4   9  18  34  57  88 120 148 186 233 288 352
#     4  10  21  39  64  88 115 154 194 242 302 356
#     4   9  18  31  50  79 116 154 190 232 283 338
#     4  10  20  35  55  84 120 155 197 246 290 343
#     4  10  21  37  59  88 121 158 199 242 291 353
#
# _framework density 19.255956999999999
#
# number of rings (size 3 to 8) (size 9 to 14) (size 15 to 20)
#    0.000    2.143    1.429    1.286    0.000    5.143 
#    0.000    4.286    0.000    0.000    0.000    0.000 
#    0.000    0.000    0.000    0.000    0.000    0.000 
#
# Total GULP energy -156015.315899 kJ/mol
# GULP energy per Si atom -5571.975568 kJ/mol
# Density = 1.921213 g / cm^3
# Si number density = 19.255957 Si / 1000 Ang^3
#
#
#
# Elastic Constant Matrix: (Units=GPa)
#
#
# Indices 1 2 3 4 5 6 
#
# 1 147.8895 29.8256 75.7611 0.0000 2.1275 0.0000
# 2 29.8256 30.0314 36.2815 0.0000 1.0903 0.0000
# 3 75.7611 36.2815 122.0544 0.0000 -11.3650 0.0000
# 4 0.0000 0.0000 0.0000 25.8431 0.0000 -4.5376
# 5 2.1275 1.0903 -11.3650 0.0000 28.5540 0.0000
# 6 0.0000 0.0000 0.0000 -4.5376 0.0000 30.9353
#
#
#
# Elastic Compliance Matrix: (Units=1/GPa)
#
#
# Indices 1 2 3 4 5 6 
#
# 1 0.010420 -0.003270 -0.005770 0.000000 -0.002948 0.000000
# 2 -0.003270 0.055021 -0.015056 0.000000 -0.007850 0.000000
# 3 -0.005770 -0.015056 0.016973 0.000000 0.007760 0.000000
# 4 0.000000 0.000000 0.000000 0.039718 0.000000 0.005826
# 5 -0.002948 -0.007850 0.007760 0.000000 0.038630 0.000000
# 6 0.000000 0.000000 0.000000 0.005826 0.000000 0.033180
#
#
# Mechanical properties :
#
#
# Convention : Reuss Voigt Hill
#
# Bulk Modulus (GPa) = 29.22249 64.85685 47.03967
# Shear Modulus (GPa) = 19.72062 27.60695 23.66379
#
# Velocity S-wave (km/s) = 3.20368 3.79051 3.50938
# Velocity P-wave (km/s) = 5.37527 7.27405 6.39552
#
# Compressibility (1/GPa) = 0.03422022
#
# Stress axis : x y z
#
# Youngs Moduli (GPa) = 95.97268 18.17476 58.91764
#
# Poissons Ratio (x) = 0.05944 0.33996
# Poissons Ratio (y) = 0.31386 0.88709
# Poissons Ratio (z) = 0.55376 0.27365
#
# Static dielectric constant tensor:
#      x y z
#    x 1.696270 0.000000 0.034660 
#    y 0.000000 1.699100 0.000000 
#    z 0.034660 0.000000 1.712100 
# 
# From -- ./inp_files/180818.got.cif
#   From: 2010.05.17/outbox.cif.g08.bks.cpg/sg12_91_cif.got.tgz:180818.got - 2010.06.03 13:09:07.
