data_PCOD9181418
_publ_section_title
;
Structure prediction by ZEFSAII (Michael W. Deem and Ramdas Pophale) SiO2 
 PCOD9181418
Probable space group: C 2/M
;
_chemical_formula_sum "Si O2"
_cell_formula_units_Z 36
_cell_length_a 8.521257
_cell_length_b 16.113089
_cell_length_c 13.420388
_cell_angle_alpha 90.000000
_cell_angle_beta 51.221968
_cell_angle_gamma 90.000000
_cell_volume 1436.505203
_symmetry_space_group_name_H-M "C 2/M"
_symmetry_group_IT_number 12
_symmetry_cell_setting 'monoclinic'
loop_
_space_group_symop_operation_xyz
x,y,z
-x,y,-z
-x,-y,-z
x,-y,z
1/2+x,1/2+y,z
1/2-x,1/2+y,-z
1/2-x,1/2-y,-z
1/2+x,1/2-y,z
loop_
_atom_site_type_symbol
_atom_site_label
_atom_site_fract_x
_atom_site_fract_y
_atom_site_fract_z
Si Si1 0.026497 0.099659 0.755730
Si Si2 0.743432 0.859645 0.055639
Si Si3 0.195215 0.903443 0.352955
Si Si4 0.000000 0.708103 0.000000
Si Si5 0.924288 0.592212 0.682989
O O1 0.258395 0.131023 0.674025
O O2 0.895945 0.131539 0.714424
O O3 0.044547 0.000000 0.736833
O O4 0.899392 0.115637 0.907560
O O5 0.533741 0.848191 0.081871
O O6 0.710675 0.915569 0.162954
O O7 0.814292 0.771403 0.071861
O O8 0.374901 0.866491 0.351106
O O9 0.000000 0.906511 0.500000
O O10 0.259488 0.000000 0.306615
O O11 0.980648 0.500000 0.623975
#
# Coordination Sequence:
#
# PCOD9181418 Si02
#       5
#     8   8   8   4   8
#     4  10  19  32  53  77 104 134 162 204 253 299
#     4  11  19  35  48  79 105 131 168 202 249 307
#     4   9  19  33  48  73 105 134 167 203 246 300
#     4  10  22  30  50  70 110 138 164 200 246 298
#     4  10  19  32  53  77 104 134 162 204 253 299
#
# _framework density 25.060822000000002
#
# number of rings (size 3 to 8) (size 9 to 14) (size 15 to 20)
#    0.000    2.000    2.222    2.000    0.000    2.667 
#    0.000    8.889    0.000    0.000    0.000   24.889 
#    0.000    0.000    0.000    0.000    0.000    0.000 
#
# Total GULP energy -100303.009074 kJ/mol
# GULP energy per Si atom -5572.389393 kJ/mol
# Density = 2.500378 g / cm^3
# Si number density = 25.060822 Si / 1000 Ang^3
#
#
#
# Elastic Constant Matrix: (Units=GPa)
#
#
# Indices 1 2 3 4 5 6 
#
# 1 270.9803 13.0635 42.8838 0.0000 -33.4108 0.0000
# 2 13.0635 22.9475 -3.5302 0.0000 6.1553 0.0000
# 3 42.8838 -3.5302 50.3385 0.0000 -3.5317 0.0000
# 4 0.0000 0.0000 0.0000 -9.3944 0.0000 4.5279
# 5 -33.4108 6.1553 -3.5317 0.0000 37.0424 0.0000
# 6 0.0000 0.0000 0.0000 4.5279 0.0000 21.5705
#
#
#
# Elastic Compliance Matrix: (Units=1/GPa)
#
#
# Indices 1 2 3 4 5 6 
#
# 1 0.005287 -0.005093 -0.004497 0.000000 0.005186 0.000000
# 2 -0.005093 0.050879 0.007038 0.000000 -0.012377 0.000000
# 3 -0.004497 0.007038 0.023984 0.000000 -0.002939 0.000000
# 4 0.000000 0.000000 0.000000 -0.096666 0.000000 0.020291
# 5 0.005186 -0.012377 -0.002939 0.000000 0.033450 0.000000
# 6 0.000000 0.000000 0.000000 0.020291 0.000000 0.042100
#
#
# Mechanical properties :
#
#
# Convention : Reuss Voigt Hill
#
# Bulk Modulus (GPa) = 13.32496 49.90008 31.61252
# Shear Modulus (GPa) = 56.08255 29.30030 42.69142
#
# Velocity S-wave (km/s) = 4.73573 3.42302 4.13184
# Velocity P-wave (km/s) = 5.93561 5.96469 5.95017
#
# Compressibility (1/GPa) = 0.07504710
#
# Stress axis : x y z
#
# Youngs Moduli (GPa) = 189.14484 19.65429 41.69420
#
# Poissons Ratio (x) = 0.10009 0.18751
# Poissons Ratio (y) = 0.96325 -0.29345
# Poissons Ratio (z) = 0.85064 -0.13833
#
# Static dielectric constant tensor:
#      x y z
#    x 2.104170 0.000000 -0.032840 
#    y 0.000000 1.960100 0.000000 
#    z -0.032840 0.000000 2.030980 
# 
# From -- ./inp_files/119767.got.cif
#   From: 2010.05.17/outbox.cif.g08.bks.cpg/sg12_60_cif.got.tgz:119767.got - 2010.06.03 13:09:07.
