data_PCOD9181785
_publ_section_title
;
Structure prediction by ZEFSAII (Michael W. Deem and Ramdas Pophale) SiO2 
 PCOD9181785
Probable space group: C 2/M
;
_chemical_formula_sum "Si O2"
_cell_formula_units_Z 36
_cell_length_a 11.022584
_cell_length_b 29.267533
_cell_length_c 6.768829
_cell_angle_alpha 90.000000
_cell_angle_beta 143.317691
_cell_angle_gamma 90.000000
_cell_volume 1304.463643
_symmetry_space_group_name_H-M "C 2/M"
_symmetry_group_IT_number 12
_symmetry_cell_setting 'monoclinic'
loop_
_space_group_symop_operation_xyz
x,y,z
-x,y,-z
-x,-y,-z
x,-y,z
1/2+x,1/2+y,z
1/2-x,1/2+y,-z
1/2-x,1/2-y,-z
1/2+x,1/2-y,z
loop_
_atom_site_type_symbol
_atom_site_label
_atom_site_fract_x
_atom_site_fract_y
_atom_site_fract_z
Si Si1 0.727905 0.752751 0.208461
Si Si2 0.500000 0.923643 0.500000
Si Si3 0.287536 0.048920 0.835931
Si Si4 0.728347 0.148486 0.207681
Si Si5 0.224783 0.846284 0.205921
O O1 0.817341 0.801987 0.388332
O O2 0.812943 0.703263 0.382743
O O3 0.500000 0.752054 0.000000
O O4 0.750000 0.750000 0.000000
O O5 0.645343 0.948802 0.845088
O O6 0.357041 0.889693 0.440321
O O7 0.188386 0.000000 0.659389
O O8 0.500000 0.048079 0.000000
O O9 0.189374 0.097293 0.643731
O O10 0.500000 0.149327 0.000000
O O11 0.755342 0.151383 0.005597
O O12 0.000000 0.850345 0.000000
#
# Coordination Sequence:
#
# PCOD9181785 Si02
#       5
#     8   4   8   8   8
#     4   8  13  23  42  66  95 134 165 199 256 303
#     4  10  19  32  54  80 108 138 177 220 264 322
#     4   9  17  30  52  78 102 137 181 221 267 316
#     4   8  14  26  48  70  95 135 169 206 262 304
#     4   9  17  29  49  76 106 139 173 212 263 317
#
# _framework density 27.597548
#
# number of rings (size 3 to 8) (size 9 to 14) (size 15 to 20)
#    0.000    3.333    0.000    0.333    0.000    0.000 
#    0.000    0.000    0.000  171.333    0.000   20.222 
#    0.000    0.000    0.000    0.000    0.000    0.000 
#
# Total GULP energy -100460.498169 kJ/mol
# GULP energy per Si atom -5581.138787 kJ/mol
# Density = 2.753473 g / cm^3
# Si number density = 27.597548 Si / 1000 Ang^3
#
#
#
# Elastic Constant Matrix: (Units=GPa)
#
#
# Indices 1 2 3 4 5 6 
#
# 1 239.6416 13.4622 67.3423 0.0000 9.6997 0.0000
# 2 13.4622 281.4888 6.6520 0.0000 10.4216 0.0000
# 3 67.3423 6.6520 40.3247 0.0000 17.5805 0.0000
# 4 0.0000 0.0000 0.0000 19.3515 0.0000 17.4472
# 5 9.6997 10.4216 17.5805 0.0000 86.7040 0.0000
# 6 0.0000 0.0000 0.0000 17.4472 0.0000 46.8647
#
#
#
# Elastic Compliance Matrix: (Units=1/GPa)
#
#
# Indices 1 2 3 4 5 6 
#
# 1 0.008182 -0.000124 -0.014535 0.000000 0.002047 0.000000
# 2 -0.000124 0.003577 -0.000222 0.000000 -0.000371 0.000000
# 3 -0.014535 -0.000222 0.053081 0.000000 -0.009110 0.000000
# 4 0.000000 0.000000 0.000000 0.077784 0.000000 -0.028958
# 5 0.002047 -0.000371 -0.009110 0.000000 0.013196 0.000000
# 6 0.000000 0.000000 0.000000 -0.028958 0.000000 0.032119
#
#
# Mechanical properties :
#
#
# Convention : Reuss Voigt Hill
#
# Bulk Modulus (GPa) = 28.50761 81.81867 55.16314
# Shear Modulus (GPa) = 21.79667 62.18396 41.99031
#
# Velocity S-wave (km/s) = 2.81340 4.75198 3.90490
# Velocity P-wave (km/s) = 4.57228 7.73433 6.35318
#
# Compressibility (1/GPa) = 0.03507835
#
# Stress axis : x y z
#
# Youngs Moduli (GPa) = 122.22642 279.52979 18.83927
#
# Poissons Ratio (x) = 0.03454 0.27383
# Poissons Ratio (y) = 0.01510 0.00418
# Poissons Ratio (z) = 1.77657 0.06204
#
# Static dielectric constant tensor:
#      x y z
#    x 2.102070 0.000000 -0.055640 
#    y 0.000000 2.160290 0.000000 
#    z -0.055640 0.000000 2.314720 
# 
# From -- ./inp_files/53911.got.cif
#   From: 2010.05.17/outbox.cif.g08.bks.cpg/sg12_27_cif.got.tgz:53911.got - 2010.06.03 13:09:07.
