data_PCOD9181704
_publ_section_title
;
Structure prediction by ZEFSAII (Michael W. Deem and Ramdas Pophale) SiO2 
 PCOD9181704
Probable space group: C 2/M
;
_chemical_formula_sum "Si O2"
_cell_formula_units_Z 64
_cell_length_a 27.443724
_cell_length_b 14.309310
_cell_length_c 12.131440
_cell_angle_alpha 90.000000
_cell_angle_beta 46.402662
_cell_angle_gamma 90.000000
_cell_volume 3450.125951
_symmetry_space_group_name_H-M "C 2/M"
_symmetry_group_IT_number 12
_symmetry_cell_setting 'monoclinic'
loop_
_space_group_symop_operation_xyz
x,y,z
-x,y,-z
-x,-y,-z
x,-y,z
1/2+x,1/2+y,z
1/2-x,1/2+y,-z
1/2-x,1/2-y,-z
1/2+x,1/2-y,z
loop_
_atom_site_type_symbol
_atom_site_label
_atom_site_fract_x
_atom_site_fract_y
_atom_site_fract_z
Si Si1 0.246313 0.106968 0.768667
Si Si2 0.659582 0.395230 0.122819
Si Si3 0.787841 0.274481 0.326729
Si Si4 0.013044 0.391941 0.714646
Si Si5 0.614349 0.202411 0.130361
Si Si6 0.391102 0.112459 0.621786
Si Si7 0.422938 0.891450 0.158747
Si Si8 0.253664 0.111260 0.181448
O O1 0.208000 0.178553 0.749838
O O2 0.323250 0.138264 0.662698
O O3 0.243690 0.000000 0.731913
O O4 0.217046 0.106066 0.938538
O O5 0.631040 0.500000 0.169319
O O6 0.612340 0.311899 0.158299
O O7 0.693255 0.374597 0.188564
O O8 0.750000 0.250000 0.500000
O O9 0.860894 0.324202 0.225739
O O10 0.745013 0.345639 0.316106
O O11 0.991478 0.500000 0.737238
O O12 0.045438 0.359132 0.550098
O O13 0.068974 0.389396 0.721601
O O14 0.948122 0.331853 0.843704
O O15 0.610000 0.152324 0.255058
O O16 0.682936 0.167189 0.967950
O O17 0.391648 0.000000 0.627647
O O18 0.409530 0.000000 0.144736
O O19 0.500000 0.869904 0.000000
O O20 0.267127 0.000000 0.163648
#
# Coordination Sequence:
#
# PCOD9181704 Si02
#       8
#     8   8   8   8   8   8   8   8
#     4  10  20  37  58  82 113 148 186 233 286 344
#     4  10  21  36  56  84 113 144 186 238 292 340
#     4  12  24  37  58  88 120 160 202 242 294 355
#     4  10  21  34  52  82 116 153 188 230 291 355
#     4  12  19  32  57  84 116 149 191 232 286 351
#     4  10  19  32  53  85 121 146 175 227 297 364
#     4  10  22  41  60  82 118 158 201 250 300 352
#     4  11  21  35  57  88 119 148 188 244 299 351
#
# _framework density 18.550048
#
# number of rings (size 3 to 8) (size 9 to 14) (size 15 to 20)
#    0.000    1.375    2.500    4.500    0.000    4.000 
#    0.000    0.000    0.000    2.625    0.000    0.000 
#    0.000    0.000    0.000    0.000    0.000    0.000 
#
# Total GULP energy -178598.528531 kJ/mol
# GULP energy per Si atom -5581.204017 kJ/mol
# Density = 1.850783 g / cm^3
# Si number density = 18.550048 Si / 1000 Ang^3
#
#
#
# Elastic Constant Matrix: (Units=GPa)
#
#
# Indices 1 2 3 4 5 6 
#
# 1 85.3075 56.8583 22.3582 0.0000 0.5206 0.0000
# 2 56.8583 93.1764 12.5354 0.0000 -6.0325 0.0000
# 3 22.3582 12.5354 60.7444 0.0000 13.3498 0.0000
# 4 0.0000 0.0000 0.0000 22.4435 0.0000 3.1063
# 5 0.5206 -6.0325 13.3498 0.0000 30.9879 0.0000
# 6 0.0000 0.0000 0.0000 3.1063 0.0000 37.5888
#
#
#
# Elastic Compliance Matrix: (Units=1/GPa)
#
#
# Indices 1 2 3 4 5 6 
#
# 1 0.021308 -0.012340 -0.005180 0.000000 -0.000529 0.000000
# 2 -0.012340 0.018531 -0.000133 0.000000 0.003872 0.000000
# 3 -0.005180 -0.000133 0.020306 0.000000 -0.008687 0.000000
# 4 0.000000 0.000000 0.000000 0.045072 0.000000 -0.003725
# 5 -0.000529 0.003872 -0.008687 0.000000 0.036776 0.000000
# 6 0.000000 0.000000 0.000000 -0.003725 0.000000 0.026911
#
#
# Mechanical properties :
#
#
# Convention : Reuss Voigt Hill
#
# Bulk Modulus (GPa) = 40.26061 46.97024 43.61542
# Shear Modulus (GPa) = 23.53063 28.03580 25.78321
#
# Velocity S-wave (km/s) = 3.56546 3.89184 3.73222
# Velocity P-wave (km/s) = 6.22100 6.75063 6.49122
#
# Compressibility (1/GPa) = 0.02483817
#
# Stress axis : x y z
#
# Youngs Moduli (GPa) = 46.93114 53.96368 49.24746
#
# Poissons Ratio (x) = 0.66590 0.25511
# Poissons Ratio (y) = 0.57912 0.00656
# Poissons Ratio (z) = 0.24311 0.00719
#
# Static dielectric constant tensor:
#      x y z
#    x 1.662220 0.000000 0.017140 
#    y 0.000000 1.651140 0.000000 
#    z 0.017140 0.000000 1.671640 
# 
# From -- ./inp_files/183782.got.cif
#   From: 2010.05.17/outbox.cif.g08.bks.cpg/sg12_92_cif.got.tgz:183782.got - 2010.06.03 13:09:07.
