data_PCOD9181523
_publ_section_title
;
Structure prediction by ZEFSAII (Michael W. Deem and Ramdas Pophale) SiO2 
 PCOD9181523
Probable space group: C 2/M
;
_chemical_formula_sum "Si O2"
_cell_formula_units_Z 60
_cell_length_a 19.146087
_cell_length_b 11.532821
_cell_length_c 15.992458
_cell_angle_alpha 90.000000
_cell_angle_beta 98.423811
_cell_angle_gamma 90.000000
_cell_volume 3493.172011
_symmetry_space_group_name_H-M "C 2/M"
_symmetry_group_IT_number 12
_symmetry_cell_setting 'monoclinic'
loop_
_space_group_symop_operation_xyz
x,y,z
-x,y,-z
-x,-y,-z
x,-y,z
1/2+x,1/2+y,z
1/2-x,1/2+y,-z
1/2-x,1/2-y,-z
1/2+x,1/2-y,z
loop_
_atom_site_type_symbol
_atom_site_label
_atom_site_fract_x
_atom_site_fract_y
_atom_site_fract_z
Si Si1 0.152959 0.866512 0.992388
Si Si2 0.575725 0.862208 0.539090
Si Si3 0.174160 0.637814 0.254328
Si Si4 0.500000 0.739990 0.000000
Si Si5 0.112017 0.361247 0.728442
Si Si6 0.210543 0.640067 0.449771
Si Si7 0.764862 0.730544 0.137613
Si Si8 0.981440 0.640139 0.819147
O O1 0.185029 0.789088 0.923268
O O2 0.073112 0.830601 0.001776
O O3 0.154137 0.000000 0.967369
O O4 0.207143 0.846357 0.078764
O O5 0.500000 0.812045 0.500000
O O6 0.605408 0.815899 0.632435
O O7 0.632405 0.853159 0.475702
O O8 0.564977 0.000000 0.550906
O O9 0.169797 0.500000 0.250943
O O10 0.206705 0.665739 0.350345
O O11 0.220475 0.679655 0.185021
O O12 0.093945 0.681663 0.229327
O O13 0.508375 0.815956 0.085039
O O14 0.107497 0.500000 0.724872
O O15 0.183874 0.332193 0.788339
O O16 0.045533 0.319389 0.771671
O O17 0.232400 0.500000 0.465279
O O18 0.250000 0.750000 0.500000
O O19 0.982017 0.500000 0.819426
#
# Coordination Sequence:
#
# PCOD9181523 Si02
#       8
#     8   8   8   4   8   8   8   8
#     4  11  24  38  55  75 105 144 180 223 271 328
#     4   9  17  31  53  82 111 141 179 224 273 324
#     4  10  20  35  56  80 109 142 179 223 268 323
#     4  12  20  40  54  74 104 142 180 220 272 324
#     4  10  19  32  53  79 107 137 175 224 271 317
#     4  10  20  35  57  85 115 149 184 225 279 333
#     4  11  21  37  54  78 108 136 179 223 269 325
#     4  10  20  34  54  81 106 136 179 224 271 318
#
# _framework density 17.176366000000002
#
# number of rings (size 3 to 8) (size 9 to 14) (size 15 to 20)
#    0.000    1.733    2.667    2.800    0.000    3.200 
#    0.000    0.667    0.000    0.400    0.000    0.000 
#    0.000    0.000    0.000    0.000    0.000    0.000 
#
# Total GULP energy -167113.030079 kJ/mol
# GULP energy per Si atom -5570.434336 kJ/mol
# Density = 1.713727 g / cm^3
# Si number density = 17.176366 Si / 1000 Ang^3
#
#
#
# Elastic Constant Matrix: (Units=GPa)
#
#
# Indices 1 2 3 4 5 6 
#
# 1 86.0247 7.6759 14.5881 0.0000 17.8136 0.0000
# 2 7.6759 27.0417 -1.8235 0.0000 8.9214 0.0000
# 3 14.5881 -1.8235 62.4662 0.0000 3.1851 0.0000
# 4 0.0000 0.0000 0.0000 22.4466 0.0000 4.9558
# 5 17.8136 8.9214 3.1851 0.0000 22.8170 0.0000
# 6 0.0000 0.0000 0.0000 4.9558 0.0000 13.5903
#
#
#
# Elastic Compliance Matrix: (Units=1/GPa)
#
#
# Indices 1 2 3 4 5 6 
#
# 1 0.014351 -0.000803 -0.002840 0.000000 -0.010493 0.000000
# 2 -0.000803 0.042777 0.002273 0.000000 -0.016416 0.000000
# 3 -0.002840 0.002273 0.016790 0.000000 -0.001016 0.000000
# 4 0.000000 0.000000 0.000000 0.048451 0.000000 -0.017668
# 5 -0.010493 -0.016416 -0.001016 0.000000 0.058580 0.000000
# 6 0.000000 0.000000 0.000000 -0.017668 0.000000 0.080025
#
#
# Mechanical properties :
#
#
# Convention : Reuss Voigt Hill
#
# Bulk Modulus (GPa) = 14.04915 24.04595 19.04755
# Shear Modulus (GPa) = 17.39502 22.11025 19.75263
#
# Velocity S-wave (km/s) = 3.18579 3.59172 3.39483
# Velocity P-wave (km/s) = 4.66149 5.58842 5.14587
#
# Compressibility (1/GPa) = 0.07117867
#
# Stress axis : x y z
#
# Youngs Moduli (GPa) = 69.68290 23.37698 59.55924
#
# Poissons Ratio (x) = 0.01877 0.16914
# Poissons Ratio (y) = 0.05596 -0.13540
# Poissons Ratio (z) = 0.19789 -0.05314
#
# Static dielectric constant tensor:
#      x y z
#    x 0.175180 0.000000 0.154580 
#    y 0.000000 1.568160 0.000000 
#    z 0.154580 0.000000 1.576590 
# 
# From -- ./inp_files/223867.got.cif
#   From: 2010.05.17/outbox.cif.g08.bks.cpg/sg12_112_cif.got.tgz:223867.got - 2010.06.03 13:09:07.
