data_PCOD9181177
_publ_section_title
;
Structure prediction by ZEFSAII (Michael W. Deem and Ramdas Pophale) SiO2 
 PCOD9181177
Probable space group: C 2/M
;
_chemical_formula_sum "Si O2"
_cell_formula_units_Z 56
_cell_length_a 17.280916
_cell_length_b 15.522989
_cell_length_c 12.664644
_cell_angle_alpha 90.000000
_cell_angle_beta 117.077407
_cell_angle_gamma 90.000000
_cell_volume 3024.938319
_symmetry_space_group_name_H-M "C 2/M"
_symmetry_group_IT_number 12
_symmetry_cell_setting 'monoclinic'
loop_
_space_group_symop_operation_xyz
x,y,z
-x,y,-z
-x,-y,-z
x,-y,z
1/2+x,1/2+y,z
1/2-x,1/2+y,-z
1/2-x,1/2-y,-z
1/2+x,1/2-y,z
loop_
_atom_site_type_symbol
_atom_site_label
_atom_site_fract_x
_atom_site_fract_y
_atom_site_fract_z
Si Si1 0.087897 0.231019 0.507820
Si Si2 0.022371 0.403477 0.355183
Si Si3 0.795601 0.901672 0.534917
Si Si4 0.590503 0.901236 0.010938
Si Si5 0.250690 0.304516 0.714480
Si Si6 0.669607 0.100026 0.843775
Si Si7 0.653376 0.137422 0.266237
O O1 0.060581 0.323971 0.444025
O O2 0.130860 0.167595 0.449685
O O3 0.163381 0.248869 0.639257
O O4 0.000000 0.192554 0.500000
O O5 0.046947 0.500000 0.407529
O O6 0.063027 0.388914 0.264506
O O7 0.918762 0.399181 0.281324
O O8 0.756113 0.873531 0.622831
O O9 0.723482 0.892384 0.397285
O O10 0.825472 0.000000 0.556504
O O11 0.654640 0.902341 0.151046
O O12 0.569435 0.000000 0.966908
O O13 0.500000 0.862008 0.000000
O O14 0.638965 0.863957 0.938514
O O15 0.240748 0.347744 0.821890
O O16 0.329195 0.238154 0.744278
O O17 0.696291 0.000000 0.872493
#
# Coordination Sequence:
#
# PCOD9181177 Si02
#       7
#     8   8   8   8   8   8   8
#     4  11  21  35  52  77 108 139 178 218 255 315
#     4  11  19  31  54  80 108 138 169 212 266 315
#     4  11  22  36  54  76 106 143 177 215 264 309
#     4  10  19  32  52  77 106 136 172 216 259 314
#     4  11  21  34  52  76 110 140 169 219 262 312
#     4  10  21  33  51  81 107 136 175 213 264 314
#     4  11  20  34  53  78 107 139 175 212 264 315
#
# _framework density 18.512774
#
# number of rings (size 3 to 8) (size 9 to 14) (size 15 to 20)
#    0.000    1.286    5.714    2.571    0.000    1.714 
#    0.000    0.000    0.000    0.000    0.000    0.000 
#    0.000    2.571    0.000    0.000    0.000    0.000 
#
# Total GULP energy -156096.095665 kJ/mol
# GULP energy per Si atom -5574.860559 kJ/mol
# Density = 1.847064 g / cm^3
# Si number density = 18.512774 Si / 1000 Ang^3
#
#
#
# Elastic Constant Matrix: (Units=GPa)
#
#
# Indices 1 2 3 4 5 6 
#
# 1 72.7001 26.6373 19.7655 0.0000 -27.6324 0.0000
# 2 26.6373 83.0630 16.6570 0.0000 -13.2285 0.0000
# 3 19.7655 16.6570 67.6187 0.0000 -26.4811 0.0000
# 4 0.0000 0.0000 0.0000 21.5821 0.0000 -10.0833
# 5 -27.6324 -13.2285 -26.4811 0.0000 32.1497 0.0000
# 6 0.0000 0.0000 0.0000 -10.0833 0.0000 40.1301
#
#
#
# Elastic Compliance Matrix: (Units=1/GPa)
#
#
# Indices 1 2 3 4 5 6 
#
# 1 0.021943 -0.004464 0.001996 0.000000 0.018668 0.000000
# 2 -0.004464 0.013913 -0.002042 0.000000 0.000206 0.000000
# 3 0.001996 -0.002042 0.022218 0.000000 0.019176 0.000000
# 4 0.000000 0.000000 0.000000 0.052497 0.000000 0.013191
# 5 0.018668 0.000206 0.019176 0.000000 0.063029 0.000000
# 6 0.000000 0.000000 0.000000 0.013191 0.000000 0.028233
#
#
# Mechanical properties :
#
#
# Convention : Reuss Voigt Hill
#
# Bulk Modulus (GPa) = 20.38539 38.83350 29.60944
# Shear Modulus (GPa) = 22.00650 29.46050 25.73350
#
# Velocity S-wave (km/s) = 3.45152 3.99351 3.73237
# Velocity P-wave (km/s) = 5.18839 6.50279 5.88242
#
# Compressibility (1/GPa) = 0.04905475
#
# Stress axis : x y z
#
# Youngs Moduli (GPa) = 45.57159 71.87551 45.00835
#
# Poissons Ratio (x) = 0.32088 -0.08984
# Poissons Ratio (y) = 0.20345 0.09189
# Poissons Ratio (z) = -0.09097 0.14674
#
# Static dielectric constant tensor:
#      x y z
#    x 1.680360 0.000000 -0.018440 
#    y 0.000000 1.658180 0.000000 
#    z -0.018440 0.000000 1.684270 
# 
# From -- ./inp_files/155956.got.cif
#   From: 2010.05.17/outbox.cif.g08.bks.cpg/sg12_78_cif.got.tgz:155956.got - 2010.06.03 13:09:07.
