data_PCOD9181442
_publ_section_title
;
Structure prediction by ZEFSAII (Michael W. Deem and Ramdas Pophale) SiO2 
 PCOD9181442
Probable space group: C 2/M
;
_chemical_formula_sum "Si O2"
_cell_formula_units_Z 64
_cell_length_a 18.430564
_cell_length_b 9.248764
_cell_length_c 23.220438
_cell_angle_alpha 90.000000
_cell_angle_beta 113.053421
_cell_angle_gamma 90.000000
_cell_volume 3642.056764
_symmetry_space_group_name_H-M "C 2/M"
_symmetry_group_IT_number 12
_symmetry_cell_setting 'monoclinic'
loop_
_space_group_symop_operation_xyz
x,y,z
-x,y,-z
-x,-y,-z
x,-y,z
1/2+x,1/2+y,z
1/2-x,1/2+y,-z
1/2-x,1/2-y,-z
1/2+x,1/2-y,z
loop_
_atom_site_type_symbol
_atom_site_label
_atom_site_fract_x
_atom_site_fract_y
_atom_site_fract_z
Si Si1 0.207309 0.826664 0.248625
Si Si2 0.228975 0.328252 0.134654
Si Si3 0.041329 0.172910 0.256682
Si Si4 0.669473 0.826703 0.995860
Si Si5 0.397219 0.672490 0.127189
Si Si6 0.912224 0.833634 0.501162
Si Si7 0.477055 0.170914 0.627599
Si Si8 0.350710 0.828533 0.375323
O O1 0.213434 0.755289 0.188215
O O2 0.124583 0.792762 0.253111
O O3 0.279134 0.781178 0.312408
O O4 0.212613 0.000000 0.243683
O O5 0.226700 0.500000 0.144568
O O6 0.316472 0.294633 0.137022
O O7 0.167823 0.296122 0.063639
O O8 0.970980 0.207192 0.190483
O O9 0.031697 0.256965 0.313152
O O10 0.038302 0.000000 0.266888
O O11 0.604768 0.759749 0.933276
O O12 0.674981 0.000000 0.990538
O O13 0.750000 0.750000 0.000000
O O14 0.396736 0.500000 0.115111
O O15 0.857089 0.757267 0.437011
O O16 0.000000 0.831634 0.500000
O O17 0.920969 0.746820 0.563161
O O18 0.890315 0.000000 0.504188
O O19 0.566838 0.191617 0.632957
O O20 0.461899 0.000000 0.624989
O O21 0.342745 0.000000 0.384775
#
# Coordination Sequence:
#
# PCOD9181442 Si02
#       8
#     8   8   8   8   8   8   8   8
#     4  10  21  35  51  72 100 135 169 204 248 295
#     4   9  18  32  51  75 100 127 162 205 249 293
#     4  10  21  36  51  71 102 135 169 208 247 292
#     4   9  17  30  50  77 104 129 162 206 253 297
#     4   9  18  33  53  76 101 131 167 207 249 293
#     4   9  17  30  51  78 103 128 161 202 249 297
#     4  10  19  32  53  78 102 130 164 205 252 297
#     4   9  18  33  52  76 103 128 162 206 248 294
#
# _framework density 17.572486999999999
#
# number of rings (size 3 to 8) (size 9 to 14) (size 15 to 20)
#    0.000    2.625    0.000    2.625    0.000    6.000 
#    0.000    1.250    0.000    3.750    0.000    0.000 
#    0.000    0.000    0.000    0.000    0.000    0.000 
#
# Total GULP energy -178444.423953 kJ/mol
# GULP energy per Si atom -5576.388249 kJ/mol
# Density = 1.753249 g / cm^3
# Si number density = 17.572487 Si / 1000 Ang^3
#
#
#
# Elastic Constant Matrix: (Units=GPa)
#
#
# Indices 1 2 3 4 5 6 
#
# 1 45.4848 47.7047 73.2883 0.0000 -0.4730 0.0000
# 2 47.7047 73.0998 101.1746 0.0000 0.0100 0.0000
# 3 73.2883 101.1746 220.6944 0.0000 -1.5001 0.0000
# 4 0.0000 0.0000 0.0000 42.2862 0.0000 -6.3435
# 5 -0.4730 0.0100 -1.5001 0.0000 -6.8172 0.0000
# 6 0.0000 0.0000 0.0000 -6.3435 0.0000 15.3422
#
#
#
# Elastic Compliance Matrix: (Units=1/GPa)
#
#
# Indices 1 2 3 4 5 6 
#
# 1 0.072906 -0.038398 -0.006632 0.000000 -0.003655 0.000000
# 2 -0.038398 0.057552 -0.013594 0.000000 0.005740 0.000000
# 3 -0.006632 -0.013594 0.012949 0.000000 -0.002409 0.000000
# 4 0.000000 0.000000 0.000000 0.025212 0.000000 0.010424
# 5 -0.003655 0.005740 -0.002409 0.000000 -0.145895 0.000000
# 6 0.000000 0.000000 0.000000 0.010424 0.000000 0.069490
#
#
# Mechanical properties :
#
#
# Convention : Reuss Voigt Hill
#
# Bulk Modulus (GPa) = 38.22798 87.06826 62.64812
# Shear Modulus (GPa) = 22.91658 17.96967 20.44312
#
# Velocity S-wave (km/s) = 3.61517 3.20128 3.41451
# Velocity P-wave (km/s) = 6.26320 7.95738 7.16057
#
# Compressibility (1/GPa) = 0.02615885
#
# Stress axis : x y z
#
# Youngs Moduli (GPa) = 13.71630 17.37545 77.22469
#
# Poissons Ratio (x) = 0.66718 0.51218
# Poissons Ratio (y) = 0.52668 1.04979
# Poissons Ratio (z) = 0.09097 0.23620
#
# Static dielectric constant tensor:
#      x y z
#    x 1.574870 0.000000 0.017390 
#    y 0.000000 1.587320 0.000000 
#    z 0.017390 0.000000 1.595380 
# 
# From -- ./inp_files/320016.got.cif
#   From: 2010.05.17/outbox.cif.g08.bks.cpg/sg12_161_cif.got.tgz:320016.got - 2010.06.03 13:09:07.
