data_PCOD9181685
_publ_section_title
;
Structure prediction by ZEFSAII (Michael W. Deem and Ramdas Pophale) SiO2 
 PCOD9181685
Probable space group: C 2/M
;
_chemical_formula_sum "Si O2"
_cell_formula_units_Z 56
_cell_length_a 19.946273
_cell_length_b 8.628035
_cell_length_c 21.458907
_cell_angle_alpha 90.000000
_cell_angle_beta 124.780097
_cell_angle_gamma 90.000000
_cell_volume 3033.249583
_symmetry_space_group_name_H-M "C 2/M"
_symmetry_group_IT_number 12
_symmetry_cell_setting 'monoclinic'
loop_
_space_group_symop_operation_xyz
x,y,z
-x,y,-z
-x,-y,-z
x,-y,z
1/2+x,1/2+y,z
1/2-x,1/2+y,-z
1/2-x,1/2-y,-z
1/2+x,1/2-y,z
loop_
_atom_site_type_symbol
_atom_site_label
_atom_site_fract_x
_atom_site_fract_y
_atom_site_fract_z
Si Si1 0.578139 0.689412 0.501580
Si Si2 0.135089 0.685099 0.190579
Si Si3 0.258309 0.813131 0.635625
Si Si4 0.402997 0.321190 0.959336
Si Si5 0.339958 0.181143 0.050920
Si Si6 0.596314 0.686410 0.368963
Si Si7 0.010394 0.815169 0.804956
O O1 0.500000 0.741547 0.500000
O O2 0.576695 0.500000 0.501259
O O3 0.665412 0.737626 0.576200
O O4 0.577366 0.739006 0.428874
O O5 0.137615 0.500000 0.183430
O O6 0.203723 0.732153 0.277409
O O7 0.140105 0.768511 0.127099
O O8 0.049872 0.732653 0.177936
O O9 0.319714 0.751661 0.615128
O O10 0.260357 0.000000 0.633840
O O11 0.383208 0.500000 0.963878
O O12 0.500000 0.311039 0.000000
O O13 0.379126 0.215026 0.004329
O O14 0.398241 0.263302 0.132176
O O15 0.337413 0.000000 0.062563
O O16 0.250000 0.250000 0.000000
O O17 0.603574 0.500000 0.373906
O O18 0.524908 0.725441 0.281817
O O19 0.003109 0.000000 0.809723
#
# Coordination Sequence:
#
# PCOD9181685 Si02
#       7
#     8   8   8   8   8   8   8
#     4   9  17  32  53  78 110 143 180 222 270 327
#     4  10  19  32  53  84 112 142 186 233 283 328
#     4   9  18  32  53  81 109 140 182 229 271 321
#     4  11  22  37  60  85 113 147 187 232 279 329
#     4  12  25  41  60  82 113 150 189 230 279 334
#     4   9  18  32  55  82 105 141 184 224 271 322
#     4  10  19  34  54  81 112 143 186 232 278 329
#
# _framework density 18.462046999999998
#
# number of rings (size 3 to 8) (size 9 to 14) (size 15 to 20)
#    0.000    2.000    1.429    3.000    0.000    1.714 
#    2.571    0.000    0.000    1.714    0.000    0.000 
#    0.000    0.000    0.000    0.000    0.000    0.000 
#
# Total GULP energy -156313.788758 kJ/mol
# GULP energy per Si atom -5582.635313 kJ/mol
# Density = 1.842003 g / cm^3
# Si number density = 18.462047 Si / 1000 Ang^3
#
#
#
# Elastic Constant Matrix: (Units=GPa)
#
#
# Indices 1 2 3 4 5 6 
#
# 1 85.3399 7.5810 68.8552 0.0000 16.5942 0.0000
# 2 7.5810 20.8650 12.1815 0.0000 2.5370 0.0000
# 3 68.8552 12.1815 133.4514 0.0000 13.0229 0.0000
# 4 0.0000 0.0000 0.0000 7.9276 0.0000 0.7001
# 5 16.5942 2.5370 13.0229 0.0000 28.7416 0.0000
# 6 0.0000 0.0000 0.0000 0.7001 0.0000 26.2750
#
#
#
# Elastic Compliance Matrix: (Units=1/GPa)
#
#
# Indices 1 2 3 4 5 6 
#
# 1 0.021631 -0.000891 -0.010325 0.000000 -0.007732 0.000000
# 2 -0.000891 0.050832 -0.003968 0.000000 -0.002175 0.000000
# 3 -0.010325 -0.003968 0.013148 0.000000 0.000354 0.000000
# 4 0.000000 0.000000 0.000000 0.126440 0.000000 -0.003369
# 5 -0.007732 -0.002175 0.000354 0.000000 0.039288 0.000000
# 6 0.000000 0.000000 0.000000 -0.003369 0.000000 0.038149
#
#
# Mechanical properties :
#
#
# Convention : Reuss Voigt Hill
#
# Bulk Modulus (GPa) = 18.10183 46.32131 32.21157
# Shear Modulus (GPa) = 14.78110 22.65807 18.71959
#
# Velocity S-wave (km/s) = 2.83259 3.50705 3.18771
# Velocity P-wave (km/s) = 4.53037 6.44544 5.57082
#
# Compressibility (1/GPa) = 0.05524303
#
# Stress axis : x y z
#
# Youngs Moduli (GPa) = 46.23036 19.67271 76.05643
#
# Poissons Ratio (x) = 0.01753 0.78526
# Poissons Ratio (y) = 0.04120 0.30179
# Poissons Ratio (z) = 0.47731 0.07806
#
# Static dielectric constant tensor:
#      x y z
#    x 1.637240 0.000000 0.004180 
#    y 0.000000 1.622410 0.000000 
#    z 0.004180 0.000000 1.653190 
# 
# From -- ./inp_files/314366.got.cif
#   From: 2010.05.17/outbox.cif.g08.bks.cpg/sg12_158_cif.got.tgz:314366.got - 2010.06.03 13:09:07.
