data_PCOD9181576
_publ_section_title
;
Structure prediction by ZEFSAII (Michael W. Deem and Ramdas Pophale) SiO2 
 PCOD9181576
Probable space group: C 2/M
;
_chemical_formula_sum "Si O2"
_cell_formula_units_Z 48
_cell_length_a 22.021706
_cell_length_b 25.841026
_cell_length_c 11.480548
_cell_angle_alpha 90.000000
_cell_angle_beta 154.980981
_cell_angle_gamma 90.000000
_cell_volume 2762.998270
_symmetry_space_group_name_H-M "C 2/M"
_symmetry_group_IT_number 12
_symmetry_cell_setting 'monoclinic'
loop_
_space_group_symop_operation_xyz
x,y,z
-x,y,-z
-x,-y,-z
x,-y,z
1/2+x,1/2+y,z
1/2-x,1/2+y,-z
1/2-x,1/2-y,-z
1/2+x,1/2-y,z
loop_
_atom_site_type_symbol
_atom_site_label
_atom_site_fract_x
_atom_site_fract_y
_atom_site_fract_z
Si Si1 0.337155 0.797655 0.700631
Si Si2 0.170767 0.059817 0.802201
Si Si3 0.106991 0.600806 0.350507
Si Si4 0.223819 0.616188 0.236043
Si Si5 0.864893 0.560081 0.351091
Si Si6 0.124687 0.058704 0.301668
O O1 0.250000 0.750000 0.500000
O O2 0.343224 0.844719 0.618037
O O3 0.283807 0.825186 0.727823
O O4 0.500000 0.780345 0.000000
O O5 0.238220 0.100652 0.829288
O O6 0.000000 0.062324 0.500000
O O7 0.215447 0.000000 0.849438
O O8 0.227417 0.069192 0.030948
O O9 0.120582 0.596293 0.512541
O O10 0.222611 0.561157 0.499222
O O11 0.938886 0.594603 0.025840
O O12 0.342786 0.588768 0.523383
O O13 0.863754 0.500000 0.388919
O O14 0.000000 0.566068 0.500000
O O15 0.083626 0.000000 0.258116
O O16 0.000000 0.080129 0.000000
#
# Coordination Sequence:
#
# PCOD9181576 Si02
#       6
#     8   8   8   8   8   8
#     4   9  20  38  59  80 100 129 172 227 284 326
#     4  10  21  34  51  78 115 150 177 212 253 302
#     4  10  20  35  55  77 103 138 179 219 260 319
#     4  10  20  36  55  75 103 140 180 216 263 321
#     4  10  19  32  53  80 109 145 182 211 247 304
#     4  10  21  31  45  74 108 138 172 218 264 307
#
# _framework density 17.372432
#
# number of rings (size 3 to 8) (size 9 to 14) (size 15 to 20)
#    0.000    2.167    1.667    2.500    2.333    5.333 
#    0.000    0.000    0.000    2.000    0.000    0.000 
#    0.000    0.000    0.000    0.000    0.000    0.000 
#
# Total GULP energy -133728.287997 kJ/mol
# GULP energy per Si atom -5572.012000 kJ/mol
# Density = 1.733289 g / cm^3
# Si number density = 17.372432 Si / 1000 Ang^3
#
#
#
# Elastic Constant Matrix: (Units=GPa)
#
#
# Indices 1 2 3 4 5 6 
#
# 1 56.2247 23.9883 8.3148 0.0000 -11.4953 0.0000
# 2 23.9883 60.3140 34.8945 0.0000 -5.1188 0.0000
# 3 8.3148 34.8945 106.3605 0.0000 -15.6172 0.0000
# 4 0.0000 0.0000 0.0000 25.8822 0.0000 -4.8041
# 5 -11.4953 -5.1188 -15.6172 0.0000 23.3106 0.0000
# 6 0.0000 0.0000 0.0000 -4.8041 0.0000 12.0580
#
#
#
# Elastic Compliance Matrix: (Units=1/GPa)
#
#
# Indices 1 2 3 4 5 6 
#
# 1 0.024213 -0.010536 0.003302 0.000000 0.011839 0.000000
# 2 -0.010536 0.025048 -0.008151 0.000000 -0.005156 0.000000
# 3 0.003302 -0.008151 0.013081 0.000000 0.008602 0.000000
# 4 0.000000 0.000000 0.000000 0.041722 0.000000 0.016622
# 5 0.011839 -0.005156 0.008602 0.000000 0.053368 0.000000
# 6 0.000000 0.000000 0.000000 0.016622 0.000000 0.089555
#
#
# Mechanical properties :
#
#
# Convention : Reuss Voigt Hill
#
# Bulk Modulus (GPa) = 31.67289 39.69938 35.68613
# Shear Modulus (GPa) = 17.34414 22.63028 19.98721
#
# Velocity S-wave (km/s) = 3.16313 3.61315 3.39560
# Velocity P-wave (km/s) = 5.62244 6.34886 5.99666
#
# Compressibility (1/GPa) = 0.03157274
#
# Stress axis : x y z
#
# Youngs Moduli (GPa) = 41.30009 39.92257 76.44553
#
# Poissons Ratio (x) = 0.42061 -0.25242
# Poissons Ratio (y) = 0.43512 0.62313
# Poissons Ratio (z) = -0.13637 0.32542
#
# Static dielectric constant tensor:
#      x y z
#    x 1.618060 0.000000 0.003400 
#    y 0.000000 1.576420 0.000000 
#    z 0.003400 0.000000 1.623230 
# 
# From -- ./inp_files/122066.got.cif
#   From: 2010.05.17/outbox.cif.g08.bks.cpg/sg12_62_cif.got.tgz:122066.got - 2010.06.03 13:09:07.
