data_PCOD9181812
_publ_section_title
;
Structure prediction by ZEFSAII (Michael W. Deem and Ramdas Pophale) SiO2 
 PCOD9181812
Probable space group: C 2/M
;
_chemical_formula_sum "Si O2"
_cell_formula_units_Z 48
_cell_length_a 29.854445
_cell_length_b 11.579995
_cell_length_c 22.720321
_cell_angle_alpha 90.000000
_cell_angle_beta 164.829293
_cell_angle_gamma 90.000000
_cell_volume 2055.552346
_symmetry_space_group_name_H-M "C 2/M"
_symmetry_group_IT_number 12
_symmetry_cell_setting 'monoclinic'
loop_
_space_group_symop_operation_xyz
x,y,z
-x,y,-z
-x,-y,-z
x,-y,z
1/2+x,1/2+y,z
1/2-x,1/2+y,-z
1/2-x,1/2-y,-z
1/2+x,1/2-y,z
loop_
_atom_site_type_symbol
_atom_site_label
_atom_site_fract_x
_atom_site_fract_y
_atom_site_fract_z
Si Si1 0.924614 0.869639 0.675154
Si Si2 0.376348 0.130066 0.255707
Si Si3 0.969118 0.127259 0.324620
Si Si4 0.765648 0.122025 0.794322
Si Si5 0.356268 0.847446 0.863871
Si Si6 0.532185 0.874786 0.205956
O O1 0.003962 0.868774 0.711072
O O2 0.718278 0.867571 0.410715
O O3 0.975199 0.746913 0.768987
O O4 0.961390 0.000000 0.747004
O O5 0.368603 0.255590 0.214672
O O6 0.575630 0.122896 0.526162
O O7 0.271914 0.140016 0.184199
O O8 0.337921 0.000000 0.181239
O O9 0.162084 0.129236 0.597267
O O10 0.894978 0.000000 0.246795
O O11 0.873252 0.211882 0.894974
O O12 0.849378 0.000000 0.893288
O O13 0.500000 0.884823 0.000000
O O14 0.393720 0.883672 0.978383
O O15 0.528857 0.000000 0.234522
#
# Coordination Sequence:
#
# PCOD9181812 Si02
#       6
#     8   8   8   8   8   8
#     4   9  19  35  52  71 101 142 177 210 253 304
#     4   8  15  31  52  72 101 139 175 212 257 307
#     4  10  19  32  54  81 107 135 173 218 260 304
#     4   8  16  31  48  71 106 142 171 208 261 311
#     4  11  20  31  51  80 110 138 170 212 263 314
#     4  10  20  34  51  72 104 143 176 207 253 312
#
# _framework density 23.351388
#
# number of rings (size 3 to 8) (size 9 to 14) (size 15 to 20)
#    0.000    2.667    1.667    1.500    0.000    2.333 
#    0.000    7.500    0.000    1.000    0.000    0.000 
#    0.000    0.000    0.000    0.000    0.000    0.000 
#
# Total GULP energy -133651.028254 kJ/mol
# GULP energy per Si atom -5568.792844 kJ/mol
# Density = 2.329824 g / cm^3
# Si number density = 23.351388 Si / 1000 Ang^3
#
#
#
# Elastic Constant Matrix: (Units=GPa)
#
#
# Indices 1 2 3 4 5 6 
#
# 1 55.5729 82.0842 6.8721 0.0001 -6.5992 0.0001
# 2 82.0842 281.1357 27.0553 0.0001 -1.5194 0.0000
# 3 6.8721 27.0553 74.3342 0.0005 -3.7732 0.0004
# 4 0.0001 0.0001 0.0005 -1.9329 0.0002 13.6811
# 5 -6.5992 -1.5194 -3.7732 0.0002 16.0491 0.0000
# 6 0.0001 0.0000 0.0004 13.6811 0.0000 -16.3675
#
#
#
# Elastic Compliance Matrix: (Units=1/GPa)
#
#
# Indices 1 2 3 4 5 6 
#
# 1 0.034291 -0.010052 0.001170 -0.000001 0.013424 -0.000001
# 2 -0.010052 0.006633 -0.001683 0.000000 -0.003901 0.000000
# 3 0.001170 -0.001683 0.014142 -0.000001 0.003647 -0.000001
# 4 -0.000001 0.000000 -0.000001 0.105234 -0.000002 0.087962
# 5 0.013424 -0.003901 0.003647 -0.000002 0.068316 -0.000002
# 6 -0.000001 0.000000 -0.000001 0.087962 -0.000002 0.012428
#
#
# Mechanical properties :
#
#
# Convention : Reuss Voigt Hill
#
# Bulk Modulus (GPa) = 29.46716 71.45178 50.45947
# Shear Modulus (GPa) = 18.28239 19.21848 18.75044
#
# Velocity S-wave (km/s) = 2.80112 2.87193 2.83674
# Velocity P-wave (km/s) = 4.80709 6.45463 5.69080
#
# Compressibility (1/GPa) = 0.03393608
#
# Stress axis : x y z
#
# Youngs Moduli (GPa) = 29.16179 150.76463 70.71031
#
# Poissons Ratio (x) = 1.51552 -0.08272
# Poissons Ratio (y) = 0.29314 0.11899
# Poissons Ratio (z) = -0.03412 0.25371
#
# Static dielectric constant tensor:
#      x y z
#    x 1.805520 0.000000 -0.059280 
#    y 0.000000 2.040810 0.000000 
#    z -0.059280 0.000000 1.901080 
# 
# From -- ./inp_files/328012.got.cif
#   From: 2010.05.17/outbox.cif.g08.bks.cpg/sg12_165_cif.got.tgz:328012.got - 2010.06.03 13:09:07.
