data_PCOD9181551
_publ_section_title
;
Structure prediction by ZEFSAII (Michael W. Deem and Ramdas Pophale) SiO2 
 PCOD9181551
Probable space group: C 2/M
;
_chemical_formula_sum "Si O2"
_cell_formula_units_Z 56
_cell_length_a 27.983629
_cell_length_b 13.706556
_cell_length_c 12.501116
_cell_angle_alpha 90.000000
_cell_angle_beta 37.616672
_cell_angle_gamma 90.000000
_cell_volume 2926.701196
_symmetry_space_group_name_H-M "C 2/M"
_symmetry_group_IT_number 12
_symmetry_cell_setting 'monoclinic'
loop_
_space_group_symop_operation_xyz
x,y,z
-x,y,-z
-x,-y,-z
x,-y,z
1/2+x,1/2+y,z
1/2-x,1/2+y,-z
1/2-x,1/2-y,-z
1/2+x,1/2-y,z
loop_
_atom_site_type_symbol
_atom_site_label
_atom_site_fract_x
_atom_site_fract_y
_atom_site_fract_z
Si Si1 0.565231 0.890380 0.974710
Si Si2 0.256069 0.111261 0.418857
Si Si3 0.566324 0.225539 0.182242
Si Si4 0.581841 0.112839 0.496091
Si Si5 0.189297 0.387624 0.093978
Si Si6 0.221805 0.313204 0.384852
Si Si7 0.825967 0.883593 0.001760
O O1 0.651624 0.882519 0.772420
O O2 0.558434 0.000000 0.034458
O O3 0.500000 0.881917 0.000000
O O4 0.553374 0.809032 0.084659
O O5 0.216650 0.197930 0.420414
O O6 0.249653 0.136580 0.555995
O O7 0.230095 0.000000 0.443668
O O8 0.492673 0.182818 0.375864
O O9 0.646177 0.173459 0.080535
O O10 0.587926 0.338095 0.156562
O O11 0.366096 0.118811 0.702991
O O12 0.639109 0.143457 0.491538
O O13 0.556974 0.000000 0.551772
O O14 0.192243 0.500000 0.053941
O O15 0.274807 0.359796 0.986258
O O16 0.282037 0.337728 0.182608
O O17 0.824087 0.000000 0.016411
#
# Coordination Sequence:
#
# PCOD9181551 Si02
#       7
#     8   8   8   8   8   8   8
#     4  10  20  32  49  80 116 139 167 218 277 324
#     4  10  19  32  53  80 106 140 186 225 264 317
#     4  12  20  33  55  83 109 142 175 225 279 320
#     4  10  20  34  56  83 108 138 179 225 274 325
#     4   9  19  35  57  83 108 136 179 224 273 329
#     4  10  19  36  56  76 107 147 182 221 268 318
#     4  10  21  37  55  79 109 146 185 222 267 328
#
# _framework density 19.134170000000001
#
# number of rings (size 3 to 8) (size 9 to 14) (size 15 to 20)
#    0.000    1.857    1.429    5.143    0.000    2.286 
#    0.000    0.714    0.000    2.143    0.000    0.000 
#    0.000    0.000    0.000    0.000    0.000    0.000 
#
# Total GULP energy -156325.422291 kJ/mol
# GULP energy per Si atom -5583.050796 kJ/mol
# Density = 1.909062 g / cm^3
# Si number density = 19.134170 Si / 1000 Ang^3
#
#
#
# Elastic Constant Matrix: (Units=GPa)
#
#
# Indices 1 2 3 4 5 6 
#
# 1 51.0465 20.0553 0.1251 0.0000 -1.1477 0.0000
# 2 20.0553 91.0343 7.8262 0.0000 -5.7809 0.0000
# 3 0.1251 7.8262 35.7912 0.0000 -11.7651 0.0000
# 4 0.0000 0.0000 0.0000 24.4109 0.0000 -7.2942
# 5 -1.1477 -5.7809 -11.7651 0.0000 17.9592 0.0000
# 6 0.0000 0.0000 0.0000 -7.2942 0.0000 28.5940
#
#
#
# Elastic Compliance Matrix: (Units=1/GPa)
#
#
# Indices 1 2 3 4 5 6 
#
# 1 0.021485 -0.004796 0.001169 0.000000 0.000595 0.000000
# 2 -0.004796 0.012358 -0.001884 0.000000 0.002437 0.000000
# 3 0.001169 -0.001884 0.035905 0.000000 0.022989 0.000000
# 4 0.000000 0.000000 0.000000 0.044345 0.000000 0.011312
# 5 0.000595 0.002437 0.022989 0.000000 0.071565 0.000000
# 6 0.000000 0.000000 0.000000 0.011312 0.000000 0.037858
#
#
# Mechanical properties :
#
#
# Convention : Reuss Voigt Hill
#
# Bulk Modulus (GPa) = 17.02838 25.98724 21.50781
# Shear Modulus (GPa) = 19.67626 24.18385 21.93005
#
# Velocity S-wave (km/s) = 3.21024 3.55901 3.38911
# Velocity P-wave (km/s) = 4.76021 5.52266 5.15555
#
# Compressibility (1/GPa) = 0.05872548
#
# Stress axis : x y z
#
# Youngs Moduli (GPa) = 46.54465 80.91793 27.85147
#
# Poissons Ratio (x) = 0.38808 -0.03256
# Poissons Ratio (y) = 0.22322 0.05248
# Poissons Ratio (z) = -0.05442 0.15248
#
# Static dielectric constant tensor:
#      x y z
#    x 1.662850 0.000000 0.003220 
#    y 0.000000 1.704700 0.000000 
#    z 0.003220 0.000000 1.673760 
# 
# From -- ./inp_files/250529.got.cif
#   From: 2010.05.17/outbox.cif.g08.bks.cpg/sg12_126_cif.got.tgz:250529.got - 2010.06.03 13:09:07.
