data_PCOD9181575
_publ_section_title
;
Structure prediction by ZEFSAII (Michael W. Deem and Ramdas Pophale) SiO2 
 PCOD9181575
Probable space group: C 2/M
;
_chemical_formula_sum "Si O2"
_cell_formula_units_Z 56
_cell_length_a 32.349525
_cell_length_b 8.573795
_cell_length_c 20.523783
_cell_angle_alpha 90.000000
_cell_angle_beta 149.818491
_cell_angle_gamma 90.000000
_cell_volume 2861.822653
_symmetry_space_group_name_H-M "C 2/M"
_symmetry_group_IT_number 12
_symmetry_cell_setting 'monoclinic'
loop_
_space_group_symop_operation_xyz
x,y,z
-x,y,-z
-x,-y,-z
x,-y,z
1/2+x,1/2+y,z
1/2-x,1/2+y,-z
1/2-x,1/2-y,-z
1/2+x,1/2-y,z
loop_
_atom_site_type_symbol
_atom_site_label
_atom_site_fract_x
_atom_site_fract_y
_atom_site_fract_z
Si Si1 0.736846 0.314278 0.408883
Si Si2 0.103843 0.812141 0.445672
Si Si3 0.474933 0.188640 0.164156
Si Si4 0.557471 0.811722 0.138701
Si Si5 0.357100 0.826098 0.196382
Si Si6 0.701604 0.821760 0.033530
Si Si7 0.983180 0.818674 0.547900
O O1 0.741298 0.500000 0.417494
O O2 0.750000 0.250000 0.500000
O O3 0.810359 0.250131 0.464537
O O4 0.648028 0.260636 0.262242
O O5 0.031956 0.757297 0.298605
O O6 0.081799 0.754532 0.488588
O O7 0.104895 0.000000 0.447543
O O8 0.513790 0.229014 0.147504
O O9 0.379605 0.237143 0.040412
O O10 0.475444 0.000000 0.171964
O O11 0.565901 0.000000 0.148201
O O12 0.500000 0.764389 0.000000
O O13 0.324442 0.827962 0.078036
O O14 0.428613 0.700007 0.297826
O O15 0.388941 0.000000 0.253576
O O16 0.283385 0.780943 0.144533
O O17 0.720039 0.000000 0.079552
O O18 0.000000 0.746170 0.500000
O O19 0.961463 0.000000 0.508188
#
# Coordination Sequence:
#
# PCOD9181575 Si02
#       7
#     8   8   8   8   8   8   8
#     4  12  24  40  65  95 127 163 207 257 309 369
#     4  11  22  37  62  91 117 153 203 256 307 363
#     4  10  19  35  60  86 115 154 197 247 300 359
#     4  10  22  41  64  91 125 163 202 250 310 371
#     4  10  19  32  53  80 109 144 185 234 288 342
#     4   9  18  32  52  79 110 144 184 232 289 343
#     4  10  22  40  59  81 114 156 199 247 303 362
#
# _framework density 19.567948000000001
#
# number of rings (size 3 to 8) (size 9 to 14) (size 15 to 20)
#    0.000    1.714    2.857    2.143    0.000    2.286 
#    2.571    0.000    0.000    0.000    0.000    0.000 
#    0.000    0.000    0.000    0.000    0.000    0.000 
#
# Total GULP energy -156257.454738 kJ/mol
# GULP energy per Si atom -5580.623383 kJ/mol
# Density = 1.952341 g / cm^3
# Si number density = 19.567948 Si / 1000 Ang^3
#
#
#
# Elastic Constant Matrix: (Units=GPa)
#
#
# Indices 1 2 3 4 5 6 
#
# 1 172.0334 32.4382 54.9003 0.0000 23.5894 0.0000
# 2 32.4382 23.0502 7.6717 0.0000 -0.9694 0.0000
# 3 54.9003 7.6717 60.2518 0.0000 14.2245 0.0000
# 4 0.0000 0.0000 0.0000 27.1893 0.0000 4.0318
# 5 23.5894 -0.9694 14.2245 0.0000 39.7414 0.0000
# 6 0.0000 0.0000 0.0000 4.0318 0.0000 17.8280
#
#
#
# Elastic Compliance Matrix: (Units=1/GPa)
#
#
# Indices 1 2 3 4 5 6 
#
# 1 0.011447 -0.013750 -0.007642 0.000000 -0.004395 0.000000
# 2 -0.013750 0.062261 0.002530 0.000000 0.008775 0.000000
# 3 -0.007642 0.002530 0.024197 0.000000 -0.004063 0.000000
# 4 0.000000 0.000000 0.000000 0.038055 0.000000 -0.008606
# 5 -0.004395 0.008775 -0.004063 0.000000 0.029440 0.000000
# 6 0.000000 0.000000 0.000000 -0.008606 0.000000 0.058038
#
#
# Mechanical properties :
#
#
# Convention : Reuss Voigt Hill
#
# Bulk Modulus (GPa) = 16.61663 49.48399 33.05031
# Shear Modulus (GPa) = 17.77946 27.64007 22.70977
#
# Velocity S-wave (km/s) = 3.01757 3.76242 3.41039
# Velocity P-wave (km/s) = 4.54436 6.64963 5.69512
#
# Compressibility (1/GPa) = 0.06018068
#
# Stress axis : x y z
#
# Youngs Moduli (GPa) = 87.35987 16.06134 41.32698
#
# Poissons Ratio (x) = 0.22085 0.31582
# Poissons Ratio (y) = 1.20124 -0.10455
# Poissons Ratio (z) = 0.66759 -0.04063
#
# Static dielectric constant tensor:
#      x y z
#    x 1.706780 0.000000 -0.001950 
#    y 0.000000 1.690910 0.000000 
#    z -0.001950 0.000000 1.674550 
# 
# From -- ./inp_files/329618.got.cif
#   From: 2010.05.17/outbox.cif.g08.bks.cpg/sg12_165_cif.got.tgz:329618.got - 2010.06.03 13:09:07.
