data_PCOD9181171
_publ_section_title
;
Structure prediction by ZEFSAII (Michael W. Deem and Ramdas Pophale) SiO2 
 PCOD9181171
Probable space group: C 2/M
;
_chemical_formula_sum "Si O2"
_cell_formula_units_Z 64
_cell_length_a 26.956555
_cell_length_b 12.464946
_cell_length_c 15.915282
_cell_angle_alpha 90.000000
_cell_angle_beta 142.355331
_cell_angle_gamma 90.000000
_cell_volume 3266.191241
_symmetry_space_group_name_H-M "C 2/M"
_symmetry_group_IT_number 12
_symmetry_cell_setting 'monoclinic'
loop_
_space_group_symop_operation_xyz
x,y,z
-x,y,-z
-x,-y,-z
x,-y,z
1/2+x,1/2+y,z
1/2-x,1/2+y,-z
1/2-x,1/2-y,-z
1/2+x,1/2-y,z
loop_
_atom_site_type_symbol
_atom_site_label
_atom_site_fract_x
_atom_site_fract_y
_atom_site_fract_z
Si Si1 0.802882 0.260758 0.777434
Si Si2 0.405898 0.621622 0.787724
Si Si3 0.871571 0.125337 0.113478
Si Si4 0.190061 0.202712 0.489705
Si Si5 0.215570 0.623292 0.801886
Si Si6 0.445069 0.227042 0.350314
Si Si7 0.454482 0.227250 0.082953
Si Si8 0.942795 0.622946 0.641331
O O1 0.842808 0.169568 0.770785
O O2 0.746860 0.333953 0.642591
O O3 0.747990 0.202698 0.773651
O O4 0.879775 0.313740 0.926932
O O5 0.427809 0.500000 0.837463
O O6 0.366387 0.625283 0.640960
O O7 0.480964 0.703235 0.882637
O O8 0.899728 0.180721 0.236809
O O9 0.916953 0.188869 0.099891
O O10 0.892542 0.000000 0.139989
O O11 0.776304 0.135449 0.963051
O O12 0.250000 0.250000 0.500000
O O13 0.132783 0.297104 0.448604
O O14 0.222596 0.500000 0.782819
O O15 0.124670 0.651056 0.705983
O O16 0.500000 0.269109 0.500000
O O17 0.502704 0.162488 0.363369
O O18 0.502493 0.139686 0.201615
O O19 0.918047 0.500000 0.598335
#
# Coordination Sequence:
#
# PCOD9181171 Si02
#       8
#     8   8   8   8   8   8   8   8
#     4  10  19  33  53  76 106 138 174 220 263 306
#     4  10  19  32  52  77 105 136 170 211 263 315
#     4   9  19  36  55  75 104 142 178 216 265 316
#     4   9  20  35  52  75 104 136 170 209 253 306
#     4  10  20  34  53  77 105 138 178 221 265 312
#     4  11  22  34  53  81 109 137 174 222 265 309
#     4   9  19  34  54  80 106 133 173 221 262 308
#     4  10  21  38  57  77 106 143 176 211 263 319
#
# _framework density 19.59469
#
# number of rings (size 3 to 8) (size 9 to 14) (size 15 to 20)
#    0.000    2.250    0.000    2.625    0.000    6.750 
#    0.000    0.625    0.000   12.000    0.000    0.000 
#    0.000    0.000    0.000    0.000    0.000    0.000 
#
# Total GULP energy -178550.883319 kJ/mol
# GULP energy per Si atom -5579.715104 kJ/mol
# Density = 1.955009 g / cm^3
# Si number density = 19.594690 Si / 1000 Ang^3
#
#
#
# Elastic Constant Matrix: (Units=GPa)
#
#
# Indices 1 2 3 4 5 6 
#
# 1 88.8175 -4.9474 16.4869 0.0000 13.9327 0.0000
# 2 -4.9474 22.4783 -1.2434 0.0000 -0.1576 0.0000
# 3 16.4869 -1.2434 135.7681 0.0000 -13.4966 0.0000
# 4 0.0000 0.0000 0.0000 5.9928 0.0000 -0.2257
# 5 13.9327 -0.1576 -13.4966 0.0000 31.5972 0.0000
# 6 0.0000 0.0000 0.0000 -0.2257 0.0000 12.4427
#
#
#
# Elastic Compliance Matrix: (Units=1/GPa)
#
#
# Indices 1 2 3 4 5 6 
#
# 1 0.012847 0.002660 -0.002191 0.000000 -0.006587 0.000000
# 2 0.002660 0.045066 -0.000005 0.000000 -0.000950 0.000000
# 3 -0.002191 -0.000005 0.008070 0.000000 0.004413 0.000000
# 4 0.000000 0.000000 0.000000 0.166982 0.000000 0.003028
# 5 -0.006587 -0.000950 0.004413 0.000000 0.036433 0.000000
# 6 0.000000 0.000000 0.000000 0.003028 0.000000 0.080423
#
#
# Mechanical properties :
#
#
# Convention : Reuss Voigt Hill
#
# Bulk Modulus (GPa) = 14.94472 29.73956 22.34214
# Shear Modulus (GPa) = 13.46995 25.79106 19.63050
#
# Velocity S-wave (km/s) = 2.62473 3.63192 3.16860
# Velocity P-wave (km/s) = 4.10233 5.72696 4.98132
#
# Compressibility (1/GPa) = 0.06691325
#
# Stress axis : x y z
#
# Youngs Moduli (GPa) = 77.83794 22.18966 123.91323
#
# Poissons Ratio (x) = -0.05903 0.27144
# Poissons Ratio (y) = -0.20707 0.00059
# Poissons Ratio (z) = 0.17051 0.00011
#
# Static dielectric constant tensor:
#      x y z
#    x 1.666130 0.000000 -0.003180 
#    y 0.000000 1.657460 0.000000 
#    z -0.003180 0.000000 1.765680 
# 
# From -- ./inp_files/245963.got.cif
#   From: 2010.05.17/outbox.cif.g08.bks.cpg/sg12_123_cif.got.tgz:245963.got - 2010.06.03 13:09:07.
