data_PCOD9181852
_publ_section_title
;
Structure prediction by ZEFSAII (Michael W. Deem and Ramdas Pophale) SiO2 
 PCOD9181852
Probable space group: C 2/M
;
_chemical_formula_sum "Si O2"
_cell_formula_units_Z 40
_cell_length_a 17.406981
_cell_length_b 14.725625
_cell_length_c 24.014943
_cell_angle_alpha 90.000000
_cell_angle_beta 20.545993
_cell_angle_gamma 90.000000
_cell_volume 2160.405813
_symmetry_space_group_name_H-M "C 2/M"
_symmetry_group_IT_number 12
_symmetry_cell_setting 'monoclinic'
loop_
_space_group_symop_operation_xyz
x,y,z
-x,y,-z
-x,-y,-z
x,-y,z
1/2+x,1/2+y,z
1/2-x,1/2+y,-z
1/2-x,1/2-y,-z
1/2+x,1/2-y,z
loop_
_atom_site_type_symbol
_atom_site_label
_atom_site_fract_x
_atom_site_fract_y
_atom_site_fract_z
Si Si1 0.233358 0.400234 0.268424
Si Si2 0.445202 0.608830 0.471951
Si Si3 0.718277 0.599180 0.631945
Si Si4 0.278009 0.771169 0.171852
Si Si5 0.586624 0.772243 0.661760
O O1 0.296088 0.500000 0.204037
O O2 0.273360 0.400116 0.307220
O O3 0.340629 0.313504 0.168395
O O4 0.969613 0.390261 0.440962
O O5 0.500000 0.629416 0.500000
O O6 0.453456 0.500000 0.458984
O O7 0.621045 0.661190 0.313362
O O8 0.207403 0.648365 0.614452
O O9 0.639932 0.500000 0.666000
O O10 0.582502 0.682810 0.702349
O O11 0.145180 0.723516 0.211367
O O12 0.500000 0.816740 0.000000
O O13 0.750000 0.750000 0.500000
#
# Coordination Sequence:
#
# PCOD9181852 Si02
#       5
#     8   8   8   8   8
#     4   9  17  31  54  79 106 139 173 221 276 324
#     4  10  21  39  61  80 106 149 195 230 261 320
#     4   9  16  30  55  81 102 132 182 232 266 311
#     4  11  23  37  54  83 119 147 176 225 287 332
#     4  10  19  32  54  82 107 143 184 227 272 319
#
# _framework density 18.515039999999999
#
# number of rings (size 3 to 8) (size 9 to 14) (size 15 to 20)
#    0.000    2.200    4.000    2.400    0.000    4.800 
#    0.000    4.000    0.000    4.800    0.000    0.000 
#    0.000    0.000    0.000    0.000    0.000    0.000 
#
# Total GULP energy -111388.391975 kJ/mol
# GULP energy per Si atom -5569.419599 kJ/mol
# Density = 1.847290 g / cm^3
# Si number density = 18.515040 Si / 1000 Ang^3
#
#
#
# Elastic Constant Matrix: (Units=GPa)
#
#
# Indices 1 2 3 4 5 6 
#
# 1 80.5734 39.5201 27.4653 -0.0759 -3.2556 0.1147
# 2 39.5201 107.5036 26.0461 0.0131 9.9611 -0.1419
# 3 27.4653 26.0461 65.2175 -0.0025 -7.0544 -0.2363
# 4 -0.0759 0.0131 -0.0025 8.8823 0.0190 2.1275
# 5 -3.2556 9.9611 -7.0544 0.0190 9.5543 -0.1094
# 6 0.1147 -0.1419 -0.2363 2.1275 -0.1094 -41.6063
#
#
#
# Elastic Compliance Matrix: (Units=1/GPa)
#
#
# Indices 1 2 3 4 5 6 
#
# 1 0.017149 -0.006325 -0.003641 0.000117 0.009751 0.000070
# 2 -0.006325 0.015067 -0.005745 -0.000035 -0.022106 0.000020
# 3 -0.003641 -0.005745 0.021381 -0.000021 0.020534 -0.000167
# 4 0.000117 -0.000035 -0.000021 0.111223 -0.000095 0.005688
# 5 0.009751 -0.022106 0.020534 -0.000095 0.146190 -0.000404
# 6 0.000070 0.000020 -0.000167 0.005688 -0.000404 -0.023742
#
#
# Mechanical properties :
#
#
# Convention : Reuss Voigt Hill
#
# Bulk Modulus (GPa) = 45.09454 48.81750 46.95602
# Shear Modulus (GPa) = 15.33355 6.05026 10.69190
#
# Velocity S-wave (km/s) = 2.88091 1.80965 2.40567
# Velocity P-wave (km/s) = 5.95606 5.54888 5.75608
#
# Compressibility (1/GPa) = 0.02217563
#
# Stress axis : x y z
#
# Youngs Moduli (GPa) = 58.31385 66.36808 46.76989
#
# Poissons Ratio (x) = 0.41981 0.17028
# Poissons Ratio (y) = 0.36886 0.26868
# Poissons Ratio (z) = 0.21230 0.38127
#
# Static dielectric constant tensor:
#      x y z
#    x 1.690430 0.000020 0.017850 
#    y 0.000020 1.660000 -0.000020 
#    z 0.017850 -0.000020 1.698140 
# 
# From -- ./inp_files/157597.got.cif
#   From: 2010.05.17/outbox.cif.g08.bks.cpg/sg12_79_cif.got.tgz:157597.got - 2010.06.03 13:09:07.
