data_PCOD9181953
_publ_section_title
;
Structure prediction by ZEFSAII (Michael W. Deem and Ramdas Pophale) SiO2 
 PCOD9181953
Probable space group: C 2/M
;
_chemical_formula_sum "Si O2"
_cell_formula_units_Z 64
_cell_length_a 24.897710
_cell_length_b 8.617621
_cell_length_c 14.302952
_cell_angle_alpha 90.000000
_cell_angle_beta 101.749466
_cell_angle_gamma 90.000000
_cell_volume 3004.527481
_symmetry_space_group_name_H-M "C 2/M"
_symmetry_group_IT_number 12
_symmetry_cell_setting 'monoclinic'
loop_
_space_group_symop_operation_xyz
x,y,z
-x,y,-z
-x,-y,-z
x,-y,z
1/2+x,1/2+y,z
1/2-x,1/2+y,-z
1/2-x,1/2-y,-z
1/2+x,1/2-y,z
loop_
_atom_site_type_symbol
_atom_site_label
_atom_site_fract_x
_atom_site_fract_y
_atom_site_fract_z
Si Si1 0.078349 0.318835 0.169941
Si Si2 0.957473 0.682716 0.156913
Si Si3 0.914751 0.182230 0.623314
Si Si4 0.334921 0.818397 0.066861
Si Si5 0.185480 0.821706 0.131282
Si Si6 0.139304 0.318709 0.568308
Si Si7 0.039528 0.820904 0.639588
Si Si8 0.210178 0.182014 0.756301
O O1 0.088553 0.500000 0.152990
O O2 0.085249 0.283680 0.282988
O O3 0.123100 0.215490 0.135016
O O4 0.014635 0.283779 0.125632
O O5 0.960780 0.500000 0.187108
O O6 0.900828 0.700199 0.082457
O O7 0.954767 0.788579 0.247857
O O8 0.869211 0.232668 0.533055
O O9 0.975056 0.203441 0.597919
O O10 0.910095 0.000000 0.645704
O O11 0.317872 0.764298 0.164046
O O12 0.321919 0.000000 0.050535
O O13 0.307375 0.721145 0.974803
O O14 0.225686 0.717162 0.207631
O O15 0.199051 0.000000 0.152684
O O16 0.147943 0.500000 0.556495
O O17 0.082355 0.289140 0.603785
O O18 0.185663 0.249924 0.652367
O O19 0.053375 0.000000 0.622258
O O20 0.198827 0.000000 0.756651
#
# Coordination Sequence:
#
# PCOD9181953 Si02
#       8
#     8   8   8   8   8   8   8   8
#     4  10  21  41  64  90 123 163 207 253 301 358
#     4   9  19  35  60  90 125 162 199 246 303 360
#     4  10  21  37  58  88 123 162 204 249 299 356
#     4  11  22  40  65  95 126 159 199 250 306 367
#     4  12  26  44  64  88 119 163 208 254 304 362
#     4  12  23  36  57  88 123 161 202 247 302 365
#     4  10  19  32  54  85 124 162 200 246 299 356
#     4  12  25  43  65  91 122 158 201 257 310 363
#
# _framework density 21.301186999999999
#
# number of rings (size 3 to 8) (size 9 to 14) (size 15 to 20)
#    0.000    1.250    1.250    5.625    0.000    4.500 
#    0.000    3.125    0.000    0.000    0.000    0.000 
#    0.000    0.000    0.000    0.000    0.000    0.000 
#
# Total GULP energy -179018.256352 kJ/mol
# GULP energy per Si atom -5594.320511 kJ/mol
# Density = 2.125270 g / cm^3
# Si number density = 21.301187 Si / 1000 Ang^3
#
#
#
# Elastic Constant Matrix: (Units=GPa)
#
#
# Indices 1 2 3 4 5 6 
#
# 1 46.3559 8.2879 -12.4815 0.0000 -2.3444 0.0000
# 2 8.2879 49.1641 7.7795 0.0000 11.3160 0.0000
# 3 -12.4815 7.7795 43.2306 0.0000 11.6447 0.0000
# 4 0.0000 0.0000 0.0000 23.9417 0.0000 1.3484
# 5 -2.3444 11.3160 11.6447 0.0000 22.0073 0.0000
# 6 0.0000 0.0000 0.0000 1.3484 0.0000 28.4098
#
#
#
# Elastic Compliance Matrix: (Units=1/GPa)
#
#
# Indices 1 2 3 4 5 6 
#
# 1 0.024772 -0.005747 0.007790 0.000000 0.001472 0.000000
# 2 -0.005747 0.024450 -0.002925 0.000000 -0.011637 0.000000
# 3 0.007790 -0.002925 0.029480 0.000000 -0.013265 0.000000
# 4 0.000000 0.000000 0.000000 0.041880 0.000000 -0.001988
# 5 0.001472 -0.011637 -0.013265 0.000000 0.058599 0.000000
# 6 0.000000 0.000000 0.000000 -0.001988 0.000000 0.035293
#
#
# Mechanical properties :
#
#
# Convention : Reuss Voigt Hill
#
# Bulk Modulus (GPa) = 12.99763 16.21361 14.60562
# Shear Modulus (GPa) = 20.67096 23.88274 22.27685
#
# Velocity S-wave (km/s) = 3.11853 3.35205 3.23740
# Velocity P-wave (km/s) = 4.36830 4.75498 4.56573
#
# Compressibility (1/GPa) = 0.07693709
#
# Stress axis : x y z
#
# Youngs Moduli (GPa) = 40.36869 40.89953 33.92102
#
# Poissons Ratio (x) = 0.23507 -0.26424
# Poissons Ratio (y) = 0.23202 0.09921
# Poissons Ratio (z) = -0.31446 0.11962
#
# Static dielectric constant tensor:
#      x y z
#    x 1.794100 0.000000 0.000940 
#    y 0.000000 1.705400 0.000000 
#    z 0.000940 0.000000 1.760730 
# 
# From -- ./inp_files/244237.got.cif
#   From: 2010.05.17/outbox.cif.g08.bks.cpg/sg12_123_cif.got.tgz:244237.got - 2010.06.03 13:09:07.
