data_PCOD9181738
_publ_section_title
;
Structure prediction by ZEFSAII (Michael W. Deem and Ramdas Pophale) SiO2 
 PCOD9181738
Probable space group: C 2/M
;
_chemical_formula_sum "Si O2"
_cell_formula_units_Z 40
_cell_length_a 31.207444
_cell_length_b 12.022587
_cell_length_c 12.708152
_cell_angle_alpha 90.000000
_cell_angle_beta 23.658235
_cell_angle_gamma 90.000000
_cell_volume 1913.314095
_symmetry_space_group_name_H-M "C 2/M"
_symmetry_group_IT_number 12
_symmetry_cell_setting 'monoclinic'
loop_
_space_group_symop_operation_xyz
x,y,z
-x,y,-z
-x,-y,-z
x,-y,z
1/2+x,1/2+y,z
1/2-x,1/2+y,-z
1/2-x,1/2-y,-z
1/2+x,1/2-y,z
loop_
_atom_site_type_symbol
_atom_site_label
_atom_site_fract_x
_atom_site_fract_y
_atom_site_fract_z
Si Si1 0.497279 0.202580 0.247961
Si Si2 0.713910 0.128474 0.866032
Si Si3 0.375961 0.373481 0.158186
Si Si4 0.386658 0.873253 0.694778
Si Si5 0.844649 0.711063 0.423180
O O1 0.413290 0.197695 0.532344
O O2 0.440362 0.154391 0.271850
O O3 0.601614 0.137618 0.054711
O O4 0.544152 0.322591 0.108574
O O5 0.794988 0.203451 0.619778
O O6 0.746416 0.000000 0.795478
O O7 0.691867 0.165830 0.035924
O O8 0.401108 0.500000 0.129262
O O9 0.253790 0.364826 0.391814
O O10 0.379782 0.287649 0.246697
O O11 0.500000 0.880298 0.500000
O O12 0.357063 0.000000 0.729836
#
# Coordination Sequence:
#
# PCOD9181738 Si02
#       5
#     8   8   8   8   8
#     4  10  19  32  54  78 103 135 172 208 252 305
#     4   9  18  34  56  80 105 134 170 212 255 301
#     4  10  22  38  52  73 107 139 170 213 261 307
#     4   8  15  30  53  79 105 132 166 211 256 298
#     4  10  21  35  54  78 103 135 174 215 257 302
#
# _framework density 20.906133000000001
#
# number of rings (size 3 to 8) (size 9 to 14) (size 15 to 20)
#    0.000    2.600    0.000    3.000    0.000    4.800 
#    0.000    1.000    0.000   25.800    0.000    0.000 
#    0.000    0.000    0.000    0.000    0.000    0.000 
#
# Total GULP energy -111521.911195 kJ/mol
# GULP energy per Si atom -5576.095560 kJ/mol
# Density = 2.085855 g / cm^3
# Si number density = 20.906133 Si / 1000 Ang^3
#
#
#
# Elastic Constant Matrix: (Units=GPa)
#
#
# Indices 1 2 3 4 5 6 
#
# 1 110.6351 20.3304 23.3999 0.0000 4.7662 0.0000
# 2 20.3304 57.3431 38.9349 0.0000 20.5087 0.0000
# 3 23.3999 38.9349 87.3998 0.0000 24.9060 0.0000
# 4 0.0000 0.0000 0.0000 0.4987 0.0000 3.2552
# 5 4.7662 20.5087 24.9060 0.0000 42.1166 0.0000
# 6 0.0000 0.0000 0.0000 3.2552 0.0000 -3.8317
#
#
#
# Elastic Compliance Matrix: (Units=1/GPa)
#
#
# Indices 1 2 3 4 5 6 
#
# 1 0.009865 -0.002743 -0.001782 0.000000 0.001273 0.000000
# 2 -0.002743 0.027452 -0.009350 0.000000 -0.007528 0.000000
# 3 -0.001782 -0.009350 0.017714 0.000000 -0.005721 0.000000
# 4 0.000000 0.000000 0.000000 0.306356 0.000000 0.260264
# 5 0.001273 -0.007528 -0.005721 0.000000 0.030649 0.000000
# 6 0.000000 0.000000 0.000000 0.260264 0.000000 -0.039876
#
#
# Mechanical properties :
#
#
# Convention : Reuss Voigt Hill
#
# Bulk Modulus (GPa) = 36.65422 46.74535 41.69978
# Shear Modulus (GPa) = 12.85338 19.27092 16.06215
#
# Velocity S-wave (km/s) = 2.48223 3.03938 2.77483
# Velocity P-wave (km/s) = 5.07800 5.89282 5.50052
#
# Compressibility (1/GPa) = 0.02728199
#
# Stress axis : x y z
#
# Youngs Moduli (GPa) = 101.37037 36.42706 56.45202
#
# Poissons Ratio (x) = 0.09991 0.10060
# Poissons Ratio (y) = 0.27804 0.52781
# Poissons Ratio (z) = 0.18065 0.34058
#
# Static dielectric constant tensor:
#      x y z
#    x 1.794570 0.000000 -0.023300 
#    y 0.000000 1.711080 0.000000 
#    z -0.023300 0.000000 1.795470 
# 
# From -- ./inp_files/140294.got.cif
#   From: 2010.05.17/outbox.cif.g08.bks.cpg/sg12_71_cif.got.tgz:140294.got - 2010.06.03 13:09:07.
