data_PCOD9181203
_publ_section_title
;
Structure prediction by ZEFSAII (Michael W. Deem and Ramdas Pophale) SiO2 
 PCOD9181203
Probable space group: C 2/M
;
_chemical_formula_sum "Si O2"
_cell_formula_units_Z 64
_cell_length_a 20.167280
_cell_length_b 19.607597
_cell_length_c 8.508537
_cell_angle_alpha 90.000000
_cell_angle_beta 83.347748
_cell_angle_gamma 90.000000
_cell_volume 3341.895242
_symmetry_space_group_name_H-M "C 2/M"
_symmetry_group_IT_number 12
_symmetry_cell_setting 'monoclinic'
loop_
_space_group_symop_operation_xyz
x,y,z
-x,y,-z
-x,-y,-z
x,-y,z
1/2+x,1/2+y,z
1/2-x,1/2+y,-z
1/2-x,1/2-y,-z
1/2+x,1/2-y,z
loop_
_atom_site_type_symbol
_atom_site_label
_atom_site_fract_x
_atom_site_fract_y
_atom_site_fract_z
Si Si1 0.780002 0.860302 0.977323
Si Si2 0.528436 0.302209 0.750039
Si Si3 0.195198 0.921189 0.485178
Si Si4 0.103769 0.801562 0.398227
Si Si5 0.068360 0.665986 0.923388
Si Si6 0.383342 0.423015 0.165858
Si Si7 0.169590 0.286132 0.164606
Si Si8 0.182361 0.580231 0.739662
O O1 0.839835 0.904958 0.026190
O O2 0.731479 0.836855 0.133155
O O3 0.806844 0.788356 0.903660
O O4 0.734049 0.898619 0.864093
O O5 0.567210 0.295240 0.574167
O O6 0.451561 0.310383 0.722618
O O7 0.544527 0.235368 0.845687
O O8 0.558748 0.368012 0.826439
O O9 0.151787 0.866633 0.400235
O O10 0.166762 0.917044 0.669759
O O11 0.273241 0.906443 0.429088
O O12 0.184452 0.000000 0.436631
O O13 0.142437 0.732463 0.342918
O O14 0.116006 0.623590 0.793049
O O15 0.113560 0.685522 0.061592
O O16 0.000000 0.630515 0.000000
O O17 0.408756 0.500000 0.155377
O O18 0.167244 0.500000 0.751133
#
# Coordination Sequence:
#
# PCOD9181203 Si02
#       8
#     8   8   8   8   8   8   8   8
#     4  10  19  32  53  78 103 134 167 215 260 306
#     4  10  21  33  52  78 104 141 177 209 252 304
#     4   9  19  34  52  75 105 139 173 212 255 299
#     4  10  19  34  52  75 106 136 175 215 250 303
#     4  11  21  36  56  76 105 135 167 219 264 307
#     4  10  20  34  52  76 108 143 174 208 252 302
#     4  10  19  32  52  78 103 130 171 213 264 304
#     4  10  21  36  55  79 102 133 175 213 260 312
#
# _framework density 19.15081
#
# number of rings (size 3 to 8) (size 9 to 14) (size 15 to 20)
#    0.000    2.000    3.750    0.375    0.000    1.750 
#    0.000    5.000    0.000    1.125    0.000    1.750 
#    0.000    0.000    0.000    0.000    0.000    0.000 
#
# Total GULP energy -178481.119219 kJ/mol
# GULP energy per Si atom -5577.534976 kJ/mol
# Density = 1.910722 g / cm^3
# Si number density = 19.150810 Si / 1000 Ang^3
#
#
#
# Elastic Constant Matrix: (Units=GPa)
#
#
# Indices 1 2 3 4 5 6 
#
# 1 56.3402 18.8849 5.9030 0.0000 -10.9385 0.0000
# 2 18.8849 53.8973 7.3869 0.0000 -7.7900 0.0000
# 3 5.9030 7.3869 18.9870 0.0000 -8.2216 0.0000
# 4 0.0000 0.0000 0.0000 18.3668 0.0000 0.3214
# 5 -10.9385 -7.7900 -8.2216 0.0000 28.4780 0.0000
# 6 0.0000 0.0000 0.0000 0.3214 0.0000 8.4103
#
#
#
# Elastic Compliance Matrix: (Units=1/GPa)
#
#
# Indices 1 2 3 4 5 6 
#
# 1 0.021198 -0.006355 -0.001537 0.000000 0.005960 0.000000
# 2 -0.006355 0.021835 -0.005703 0.000000 0.001885 0.000000
# 3 -0.001537 -0.005703 0.062210 0.000000 0.015810 0.000000
# 4 0.000000 0.000000 0.000000 0.054482 0.000000 -0.002082
# 5 0.005960 0.001885 0.015810 0.000000 0.042484 0.000000
# 6 0.000000 0.000000 0.000000 -0.002082 0.000000 0.118981
#
#
# Mechanical properties :
#
#
# Convention : Reuss Voigt Hill
#
# Bulk Modulus (GPa) = 12.81192 21.50823 17.16007
# Shear Modulus (GPa) = 13.35480 17.52101 15.43790
#
# Velocity S-wave (km/s) = 2.64360 3.02801 2.84231
# Velocity P-wave (km/s) = 4.00284 4.84566 4.44428
#
# Compressibility (1/GPa) = 0.07805232
#
# Stress axis : x y z
#
# Youngs Moduli (GPa) = 47.17475 45.79870 16.07462
#
# Poissons Ratio (x) = 0.29107 0.02471
# Poissons Ratio (y) = 0.29981 0.09167
# Poissons Ratio (z) = 0.07251 0.26117
#
# Static dielectric constant tensor:
#      x y z
#    x 1.676640 0.000000 -0.054900 
#    y 0.000000 1.632370 0.000000 
#    z -0.054900 0.000000 1.725880 
# 
# From -- ./inp_files/87934.got.cif
#   From: 2010.05.17/outbox.cif.g08.bks.cpg/sg12_44_cif.got.tgz:87934.got - 2010.06.03 13:09:07.
