data_PCOD9181593
_publ_section_title
;
Structure prediction by ZEFSAII (Michael W. Deem and Ramdas Pophale) SiO2 
 PCOD9181593
Probable space group: C 2/M
;
_chemical_formula_sum "Si O2"
_cell_formula_units_Z 56
_cell_length_a 16.914361
_cell_length_b 14.711729
_cell_length_c 12.279335
_cell_angle_alpha 90.000000
_cell_angle_beta 115.345779
_cell_angle_gamma 90.000000
_cell_volume 2761.455512
_symmetry_space_group_name_H-M "C 2/M"
_symmetry_group_IT_number 12
_symmetry_cell_setting 'monoclinic'
loop_
_space_group_symop_operation_xyz
x,y,z
-x,y,-z
-x,-y,-z
x,-y,z
1/2+x,1/2+y,z
1/2-x,1/2+y,-z
1/2-x,1/2-y,-z
1/2+x,1/2-y,z
loop_
_atom_site_type_symbol
_atom_site_label
_atom_site_fract_x
_atom_site_fract_y
_atom_site_fract_z
Si Si1 0.237013 0.898293 0.698697
Si Si2 0.518501 0.397830 0.383304
Si Si3 0.913113 0.104129 0.111350
Si Si4 0.843216 0.760105 0.497953
Si Si5 0.411766 0.896485 0.654032
Si Si6 0.713142 0.104405 0.021107
Si Si7 0.034765 0.299284 0.902388
O O1 0.177740 0.814164 0.625054
O O2 0.320657 0.899768 0.667861
O O3 0.271990 0.886723 0.840662
O O4 0.195486 0.000000 0.666369
O O5 0.500000 0.383444 0.500000
O O6 0.552030 0.500000 0.389630
O O7 0.436065 0.390628 0.254236
O O8 0.594003 0.327567 0.397717
O O9 0.809951 0.117809 0.029419
O O10 0.965764 0.189639 0.096831
O O11 0.935615 0.000000 0.091309
O O12 0.750000 0.750000 0.500000
O O13 0.891634 0.663520 0.534608
O O14 0.478323 0.844067 0.772977
O O15 0.439174 0.000000 0.648706
O O16 0.686723 0.000000 0.983357
O O17 0.634840 0.169814 0.942637
O O18 0.000000 0.332177 0.000000
#
# Coordination Sequence:
#
# PCOD9181593 Si02
#       7
#     8   8   8   8   8   8   8
#     4   9  17  31  54  85 113 136 176 233 286 330
#     4  10  19  34  58  86 112 142 182 232 286 334
#     4  10  22  38  54  80 116 149 187 230 276 335
#     4  10  19  32  53  80 115 145 178 225 286 336
#     4  10  20  34  52  81 113 142 184 234 280 330
#     4  10  20  35  58  87 114 142 183 236 285 327
#     4  12  22  36  59  82 113 152 191 229 281 333
#
# _framework density 20.279160999999998
#
# number of rings (size 3 to 8) (size 9 to 14) (size 15 to 20)
#    0.000    1.857    2.857    2.143    0.000    3.714 
#    0.000    0.000    0.000    1.286    0.000    0.000 
#    0.000    0.000    0.000    0.000    0.000    0.000 
#
# Total GULP energy -156092.583341 kJ/mol
# GULP energy per Si atom -5574.735119 kJ/mol
# Density = 2.023300 g / cm^3
# Si number density = 20.279161 Si / 1000 Ang^3
#
#
#
# Elastic Constant Matrix: (Units=GPa)
#
#
# Indices 1 2 3 4 5 6 
#
# 1 22.6655 30.9342 7.7522 0.0000 12.3733 0.0000
# 2 30.9342 153.7029 56.2970 0.0000 16.2236 0.0000
# 3 7.7522 56.2970 69.4965 0.0000 14.4044 0.0000
# 4 0.0000 0.0000 0.0000 30.3949 0.0000 7.6273
# 5 12.3733 16.2236 14.4044 0.0000 24.9113 0.0000
# 6 0.0000 0.0000 0.0000 7.6273 0.0000 25.7710
#
#
#
# Elastic Compliance Matrix: (Units=1/GPa)
#
#
# Indices 1 2 3 4 5 6 
#
# 1 0.084575 -0.017694 0.012745 0.000000 -0.037854 0.000000
# 2 -0.017694 0.013034 -0.009825 0.000000 0.005981 0.000000
# 3 0.012745 -0.009825 0.023760 0.000000 -0.013671 0.000000
# 4 0.000000 0.000000 0.000000 0.035540 0.000000 -0.010518
# 5 -0.037854 0.005981 -0.013671 0.000000 0.062954 0.000000
# 6 0.000000 0.000000 0.000000 -0.010518 0.000000 0.041916
#
#
# Mechanical properties :
#
#
# Convention : Reuss Voigt Hill
#
# Bulk Modulus (GPa) = 10.89061 48.42574 29.65817
# Shear Modulus (GPa) = 15.53113 26.27421 20.90267
#
# Velocity S-wave (km/s) = 2.77043 3.60339 3.21401
# Velocity P-wave (km/s) = 3.95167 6.42214 5.33196
#
# Compressibility (1/GPa) = 0.09182223
#
# Stress axis : x y z
#
# Youngs Moduli (GPa) = 11.82379 76.71989 42.08818
#
# Poissons Ratio (x) = 1.35751 -0.53643
# Poissons Ratio (y) = 0.20921 0.41350
# Poissons Ratio (z) = -0.15070 0.75375
#
# Static dielectric constant tensor:
#      x y z
#    x 1.758560 0.000000 0.025390 
#    y 0.000000 1.761660 0.000000 
#    z 0.025390 0.000000 1.715170 
# 
# From -- ./inp_files/225396.got.cif
#   From: 2010.05.17/outbox.cif.g08.bks.cpg/sg12_113_cif.got.tgz:225396.got - 2010.06.03 13:09:07.
