data_PCOD9181309
_publ_section_title
;
Structure prediction by ZEFSAII (Michael W. Deem and Ramdas Pophale) SiO2 
 PCOD9181309
Probable space group: C 2/M
;
_chemical_formula_sum "Si O2"
_cell_formula_units_Z 40
_cell_length_a 31.224551
_cell_length_b 7.825939
_cell_length_c 29.745484
_cell_angle_alpha 90.000000
_cell_angle_beta 162.156566
_cell_angle_gamma 90.000000
_cell_volume 2227.237594
_symmetry_space_group_name_H-M "C 2/M"
_symmetry_group_IT_number 12
_symmetry_cell_setting 'monoclinic'
loop_
_space_group_symop_operation_xyz
x,y,z
-x,y,-z
-x,-y,-z
x,-y,z
1/2+x,1/2+y,z
1/2-x,1/2+y,-z
1/2-x,1/2-y,-z
1/2+x,1/2-y,z
loop_
_atom_site_type_symbol
_atom_site_label
_atom_site_fract_x
_atom_site_fract_y
_atom_site_fract_z
Si Si1 0.914823 0.690048 0.802540
Si Si2 0.416385 0.699681 0.531637
Si Si3 0.420614 0.300420 0.119126
Si Si4 0.081331 0.000000 0.127919
Si Si5 0.417064 0.000000 0.463444
Si Si6 0.400578 0.293423 0.199058
O O1 0.935108 0.500000 0.841581
O O2 0.750256 0.712341 0.627683
O O3 0.000645 0.708341 0.842406
O O4 0.954757 0.834792 0.878044
O O5 0.448253 0.500000 0.552953
O O6 0.452198 0.831951 0.528015
O O7 0.497602 0.747710 0.658251
O O8 0.458164 0.500000 0.153788
O O9 0.452493 0.237108 0.201591
O O10 0.253711 0.280093 0.947336
O O11 0.249196 0.000000 0.288133
O O12 0.000000 0.000000 0.000000
O O13 0.500000 0.000000 0.500000
O O14 0.387012 0.500000 0.183375
#
# Coordination Sequence:
#
# PCOD9181309 Si02
#       6
#     8   8   8   4   4   8
#     4  10  20  37  58  80 110 146 182 225 276 326
#     4   9  20  38  57  79 110 144 181 227 272 325
#     4  10  19  32  52  80 114 148 185 227 269 322
#     4  10  22  40  58  82 112 140 184 234 275 330
#     4  10  22  38  58  84 108 140 184 228 279 332
#     4   9  19  34  51  78 113 148 186 226 271 323
#
# _framework density 17.959467
#
# number of rings (size 3 to 8) (size 9 to 14) (size 15 to 20)
#    0.000    2.400    1.000    0.600    1.400    4.000 
#    0.000    0.000    0.000    0.000    0.000    0.000 
#    0.000    0.000    0.000    0.000    0.000    0.000 
#
# Total GULP energy -111588.606021 kJ/mol
# GULP energy per Si atom -5579.430301 kJ/mol
# Density = 1.791859 g / cm^3
# Si number density = 17.959467 Si / 1000 Ang^3
#
#
#
# Elastic Constant Matrix: (Units=GPa)
#
#
# Indices 1 2 3 4 5 6 
#
# 1 159.0105 76.3399 63.7044 0.0003 -9.4853 -0.0001
# 2 76.3399 99.3154 46.6631 0.0008 -13.4943 0.0008
# 3 63.7044 46.6631 49.8541 0.0018 -27.7042 0.0018
# 4 0.0003 0.0008 0.0018 15.4810 0.0009 5.6082
# 5 -9.4853 -13.4943 -27.7042 0.0009 35.4420 0.0004
# 6 -0.0001 0.0008 0.0018 5.6082 0.0004 20.8595
#
#
#
# Elastic Compliance Matrix: (Units=1/GPa)
#
#
# Indices 1 2 3 4 5 6 
#
# 1 0.022677 -0.000301 -0.044883 0.000006 -0.029129 0.000003
# 2 -0.000301 0.020871 -0.026129 0.000002 -0.012559 0.000001
# 3 -0.044883 -0.026129 0.158524 -0.000019 0.101954 -0.000010
# 4 0.000006 0.000002 -0.000019 0.071566 -0.000014 -0.019241
# 5 -0.029129 -0.012559 0.101954 -0.000014 0.095332 -0.000007
# 6 0.000003 0.000001 -0.000010 -0.019241 -0.000007 0.053113
#
#
# Mechanical properties :
#
#
# Convention : Reuss Voigt Hill
#
# Bulk Modulus (GPa) = 16.82224 75.73275 46.27749
# Shear Modulus (GPa) = 8.55397 22.45469 15.50433
#
# Velocity S-wave (km/s) = 2.18478 3.53979 2.94138
# Velocity P-wave (km/s) = 3.96881 7.67900 6.11222
#
# Compressibility (1/GPa) = 0.05944513
#
# Stress axis : x y z
#
# Youngs Moduli (GPa) = 44.09727 47.91444 6.30819
#
# Poissons Ratio (x) = 0.01441 0.28313
# Poissons Ratio (y) = 0.01326 0.16483
# Poissons Ratio (z) = 1.97922 1.25198
#
# Static dielectric constant tensor:
#      x y z
#    x 1.579330 0.000000 -0.001860 
#    y 0.000000 1.641390 0.000000 
#    z -0.001860 0.000000 1.586070 
# 
# From -- ./inp_files/368932.got.cif
#   From: 2010.05.17/outbox.cif.g08.bks.cpg/sg12_185_cif.got.tgz:368932.got - 2010.06.03 13:09:07.
