data_PCOD9181947
_publ_section_title
;
Structure prediction by ZEFSAII (Michael W. Deem and Ramdas Pophale) SiO2 
 PCOD9181947
Probable space group: C 2/M
;
_chemical_formula_sum "Si O2"
_cell_formula_units_Z 64
_cell_length_a 15.747842
_cell_length_b 16.467340
_cell_length_c 26.306408
_cell_angle_alpha 90.000000
_cell_angle_beta 152.311883
_cell_angle_gamma 90.000000
_cell_volume 3169.858326
_symmetry_space_group_name_H-M "C 2/M"
_symmetry_group_IT_number 12
_symmetry_cell_setting 'monoclinic'
loop_
_space_group_symop_operation_xyz
x,y,z
-x,y,-z
-x,-y,-z
x,-y,z
1/2+x,1/2+y,z
1/2-x,1/2+y,-z
1/2-x,1/2-y,-z
1/2+x,1/2-y,z
loop_
_atom_site_type_symbol
_atom_site_label
_atom_site_fract_x
_atom_site_fract_y
_atom_site_fract_z
Si Si1 0.732373 0.157406 0.320820
Si Si2 0.558902 0.091704 0.326438
Si Si3 0.394465 0.903798 0.089126
Si Si4 0.003750 0.090278 0.306375
Si Si5 0.295162 0.661383 0.910824
Si Si6 0.181711 0.315523 0.569226
Si Si7 0.315799 0.145003 0.933250
Si Si8 0.088900 0.175058 0.449301
O O1 0.661539 0.096270 0.326244
O O2 0.581446 0.147080 0.197249
O O3 0.730448 0.245496 0.347716
O O4 0.935873 0.143403 0.408172
O O5 0.366537 0.136978 0.214511
O O6 0.716064 0.130214 0.444754
O O7 0.520781 0.000000 0.321315
O O8 0.260648 0.880507 0.065129
O O9 0.432153 0.000000 0.111242
O O10 0.321979 0.881777 0.995015
O O11 0.186484 0.111640 0.373095
O O12 0.998124 0.158395 0.347204
O O13 0.842118 0.100934 0.181360
O O14 0.004489 0.000000 0.329362
O O15 0.287648 0.757980 0.915303
O O16 0.500000 0.640317 0.000000
O O17 0.128118 0.265485 0.489922
O O18 0.000000 0.343600 0.500000
O O19 0.500000 0.126030 0.000000
#
# Coordination Sequence:
#
# PCOD9181947 Si02
#       8
#     8   8   8   8   8   8   8   8
#     4   9  18  34  58  84 110 144 183 228 285 342
#     4  10  19  32  54  85 118 145 179 234 290 341
#     4  11  22  37  60  88 118 150 187 240 294 339
#     4  12  24  37  57  84 117 152 186 231 281 334
#     4  10  22  40  62  86 113 151 195 239 287 342
#     4   9  20  39  60  81 109 147 189 230 275 334
#     4  11  24  41  59  81 115 158 200 236 276 338
#     4  10  20  35  57  84 113 147 185 229 283 338
#
# _framework density 20.190176999999998
#
# number of rings (size 3 to 8) (size 9 to 14) (size 15 to 20)
#    0.000    1.750    0.000    7.125    0.000    5.750 
#    0.000    3.750    0.000    3.000    0.000    0.000 
#    0.000    0.000    0.000    0.000    0.000    0.000 
#
# Total GULP energy -178613.044531 kJ/mol
# GULP energy per Si atom -5581.657642 kJ/mol
# Density = 2.014422 g / cm^3
# Si number density = 20.190177 Si / 1000 Ang^3
#
#
#
# Elastic Constant Matrix: (Units=GPa)
#
#
# Indices 1 2 3 4 5 6 
#
# 1 73.2866 27.0729 52.0422 0.0013 8.5563 0.0006
# 2 27.0729 31.6542 18.4397 -0.0008 9.2555 -0.0003
# 3 52.0422 18.4397 119.6303 -0.0097 -0.4328 -0.0047
# 4 0.0013 -0.0008 -0.0097 15.5831 -0.0006 -22.9377
# 5 8.5563 9.2555 -0.4328 -0.0006 39.5202 -0.0001
# 6 0.0006 -0.0003 -0.0047 -22.9377 -0.0001 -12.1652
#
#
#
# Elastic Compliance Matrix: (Units=1/GPa)
#
#
# Indices 1 2 3 4 5 6 
#
# 1 0.026408 -0.016858 -0.008896 0.000000 -0.001867 0.000006
# 2 -0.016858 0.048337 -0.000145 0.000000 -0.007672 -0.000002
# 3 -0.008896 -0.000145 0.012259 0.000000 0.002094 -0.000006
# 4 0.000000 0.000000 0.000000 0.016997 0.000000 -0.032049
# 5 -0.001867 -0.007672 0.002094 0.000000 0.027527 -0.000001
# 6 0.000006 -0.000002 -0.000006 -0.032049 -0.000001 -0.021773
#
#
# Mechanical properties :
#
#
# Convention : Reuss Voigt Hill
#
# Bulk Modulus (GPa) = 28.40415 46.63119 37.51767
# Shear Modulus (GPa) = 28.85354 17.05539 22.95447
#
# Velocity S-wave (km/s) = 3.78443 2.90959 3.37547
# Velocity P-wave (km/s) = 5.76149 5.86803 5.81500
#
# Compressibility (1/GPa) = 0.03520612
#
# Stress axis : x y z
#
# Youngs Moduli (GPa) = 37.86740 20.68816 81.57152
#
# Poissons Ratio (x) = 0.34875 0.72570
# Poissons Ratio (y) = 0.63835 0.01182
# Poissons Ratio (z) = 0.33689 0.00300
#
# Static dielectric constant tensor:
#      x y z
#    x 1.739350 0.000000 -0.017390 
#    y 0.000000 1.694850 0.000000 
#    z -0.017390 0.000000 1.743980 
# 
# From -- ./inp_files/340860.got.cif
#   From: 2010.05.17/outbox.cif.g08.bks.cpg/sg12_171_cif.got.tgz:340860.got - 2010.06.03 13:09:07.
