data_PCOD9181816
_publ_section_title
;
Structure prediction by ZEFSAII (Michael W. Deem and Ramdas Pophale) SiO2 
 PCOD9181816
Probable space group: C 2/M
;
_chemical_formula_sum "Si O2"
_cell_formula_units_Z 56
_cell_length_a 31.772331
_cell_length_b 7.727781
_cell_length_c 12.209476
_cell_angle_alpha 90.000000
_cell_angle_beta 116.727215
_cell_angle_gamma 90.000000
_cell_volume 2677.497886
_symmetry_space_group_name_H-M "C 2/M"
_symmetry_group_IT_number 12
_symmetry_cell_setting 'monoclinic'
loop_
_space_group_symop_operation_xyz
x,y,z
-x,y,-z
-x,-y,-z
x,-y,z
1/2+x,1/2+y,z
1/2-x,1/2+y,-z
1/2-x,1/2-y,-z
1/2+x,1/2-y,z
loop_
_atom_site_type_symbol
_atom_site_label
_atom_site_fract_x
_atom_site_fract_y
_atom_site_fract_z
Si Si1 0.517259 0.293805 0.316295
Si Si2 0.410319 0.290487 0.199256
Si Si3 0.451877 0.208784 0.885685
Si Si4 0.401809 0.712553 0.436067
Si Si5 0.637177 0.796213 0.079882
Si Si6 0.320099 0.700055 0.497925
Si Si7 0.280934 0.702052 0.678726
O O1 0.512908 0.500000 0.324548
O O2 0.464059 0.226358 0.243349
O O3 0.545541 0.259070 0.237863
O O4 0.548170 0.231560 0.454647
O O5 0.410730 0.500000 0.197337
O O6 0.395545 0.234012 0.303421
O O7 0.377142 0.232333 0.062072
O O8 0.406036 0.273859 0.896302
O O9 0.451748 0.000000 0.892331
O O10 0.500000 0.271034 0.000000
O O11 0.401303 0.500000 0.435035
O O12 0.360897 0.775226 0.469811
O O13 0.686159 0.718581 0.177822
O O14 0.640612 0.000000 0.104026
O O15 0.333420 0.500000 0.531368
O O16 0.309784 0.773953 0.606851
O O17 0.269864 0.709812 0.377886
O O18 0.271425 0.500000 0.645949
#
# Coordination Sequence:
#
# PCOD9181816 Si02
#       7
#     8   8   8   8   8   8   8
#     4  10  19  32  54  81 107 139 180 222 263 309
#     4  10  20  34  53  77 108 144 181 219 259 308
#     4  10  20  34  50  72 107 143 173 212 261 310
#     4   9  18  34  55  79 107 140 178 220 263 310
#     4  11  22  36  54  76 108 145 180 216 263 316
#     4   9  18  35  58  82 109 138 171 214 266 319
#     4  10  20  35  58  85 110 133 169 219 269 320
#
# _framework density 20.915049
#
# number of rings (size 3 to 8) (size 9 to 14) (size 15 to 20)
#    0.000    2.143    1.429    2.143    0.000    4.857 
#    0.000    2.857    0.000    1.714    0.000    0.000 
#    0.000    0.000    0.000    0.000    0.000    0.000 
#
# Total GULP energy -156384.126469 kJ/mol
# GULP energy per Si atom -5585.147374 kJ/mol
# Density = 2.086745 g / cm^3
# Si number density = 20.915049 Si / 1000 Ang^3
#
#
#
# Elastic Constant Matrix: (Units=GPa)
#
#
# Indices 1 2 3 4 5 6 
#
# 1 34.5624 -3.3157 36.2142 0.0000 -7.0187 0.0000
# 2 -3.3157 34.9795 -10.8407 0.0000 -0.1078 0.0000
# 3 36.2142 -10.8407 133.0968 0.0000 10.1016 0.0000
# 4 0.0000 0.0000 0.0000 -4.9513 0.0000 5.4099
# 5 -7.0187 -0.1078 10.1016 0.0000 20.5318 0.0000
# 6 0.0000 0.0000 0.0000 5.4099 0.0000 8.0350
#
#
#
# Elastic Compliance Matrix: (Units=1/GPa)
#
#
# Indices 1 2 3 4 5 6 
#
# 1 0.050296 0.000019 -0.015570 0.000000 0.024854 0.000000
# 2 0.000019 0.029351 0.002465 0.000000 -0.001052 0.000000
# 3 -0.015570 0.002465 0.012833 0.000000 -0.011623 0.000000
# 4 0.000000 0.000000 0.000000 -0.116364 0.000000 0.078347
# 5 0.024854 -0.001052 -0.011623 0.000000 0.062914 0.000000
# 6 0.000000 0.000000 0.000000 0.078347 0.000000 0.071706
#
#
# Mechanical properties :
#
#
# Convention : Reuss Voigt Hill
#
# Bulk Modulus (GPa) = 15.08105 27.41715 21.24910
# Shear Modulus (GPa) = 31.44481 16.76183 24.10332
#
# Velocity S-wave (km/s) = 3.88165 2.83402 3.39844
# Velocity P-wave (km/s) = 5.22646 4.88325 5.05776
#
# Compressibility (1/GPa) = 0.06630837
#
# Stress axis : x y z
#
# Youngs Moduli (GPa) = 19.88225 34.07064 77.92608
#
# Poissons Ratio (x) = -0.00064 1.21330
# Poissons Ratio (y) = -0.00038 -0.19211
# Poissons Ratio (z) = 0.30956 -0.08400
#
# Static dielectric constant tensor:
#      x y z
#    x 1.747720 0.000000 0.001900 
#    y 0.000000 1.768830 0.000000 
#    z 0.001900 0.000000 1.730760 
# 
# From -- ./inp_files/187232.got.cif
#   From: 2010.05.17/outbox.cif.g08.bks.cpg/sg12_94_cif.got.tgz:187232.got - 2010.06.03 13:09:07.
