data_PCOD9181041
_publ_section_title
;
Structure prediction by ZEFSAII (Michael W. Deem and Ramdas Pophale) SiO2 
 PCOD9181041
Probable space group: C 2/M
;
_chemical_formula_sum "Si O2"
_cell_formula_units_Z 56
_cell_length_a 22.299593
_cell_length_b 7.710792
_cell_length_c 20.793900
_cell_angle_alpha 90.000000
_cell_angle_beta 52.203207
_cell_angle_gamma 90.000000
_cell_volume 2825.289984
_symmetry_space_group_name_H-M "C 2/M"
_symmetry_group_IT_number 12
_symmetry_cell_setting 'monoclinic'
loop_
_space_group_symop_operation_xyz
x,y,z
-x,y,-z
-x,-y,-z
x,-y,z
1/2+x,1/2+y,z
1/2-x,1/2+y,-z
1/2-x,1/2-y,-z
1/2+x,1/2-y,z
loop_
_atom_site_type_symbol
_atom_site_label
_atom_site_fract_x
_atom_site_fract_y
_atom_site_fract_z
Si Si1 0.586654 0.288679 0.451110
Si Si2 0.206279 0.299352 0.112086
Si Si3 0.311576 0.708094 0.735917
Si Si4 0.729720 0.291318 0.439500
Si Si5 0.668434 0.788901 0.746769
Si Si6 0.978345 0.301699 0.083721
Si Si7 0.632667 0.698092 0.033041
O O1 0.500000 0.227536 0.500000
O O2 0.583632 0.500000 0.457959
O O3 0.628369 0.242389 0.357483
O O4 0.646212 0.231794 0.468150
O O5 0.210159 0.500000 0.089129
O O6 0.174736 0.285351 0.203733
O O7 0.157339 0.204028 0.090991
O O8 0.293179 0.233296 0.053237
O O9 0.313097 0.500000 0.741006
O O10 0.229948 0.756380 0.760795
O O11 0.728236 0.500000 0.435314
O O12 0.750000 0.250000 0.500000
O O13 0.794262 0.229758 0.345665
O O14 0.587772 0.726053 0.827353
O O15 0.664749 0.000000 0.743779
O O16 0.953549 0.500000 0.085911
O O17 0.056709 0.300856 0.070608
O O18 0.000000 0.221816 0.000000
O O19 0.618741 0.500000 0.022207
#
# Coordination Sequence:
#
# PCOD9181041 Si02
#       7
#     8   8   8   8   8   8   8
#     4   8  15  30  52  77 103 131 167 213 256 301
#     4  10  20  34  51  71  98 131 164 203 252 299
#     4   9  16  30  54  76  96 129 170 205 242 296
#     4   9  17  32  53  74 101 138 174 210 257 307
#     4   8  16  31  50  73 101 134 169 203 245 301
#     4  10  19  32  52  75 100 132 168 205 250 303
#     4  10  21  35  50  70  98 131 168 208 247 293
#
# _framework density 19.820972999999999
#
# number of rings (size 3 to 8) (size 9 to 14) (size 15 to 20)
#    0.000    2.857    0.000    3.429    0.000    3.143 
#    2.571    4.286    0.000    0.857    0.000    0.000 
#    0.000    0.000    0.000    0.000    0.000    0.000 
#
# Total GULP energy -155991.193459 kJ/mol
# GULP energy per Si atom -5571.114052 kJ/mol
# Density = 1.977586 g / cm^3
# Si number density = 19.820973 Si / 1000 Ang^3
#
#
#
# Elastic Constant Matrix: (Units=GPa)
#
#
# Indices 1 2 3 4 5 6 
#
# 1 113.1380 7.3211 93.8436 -0.0010 -12.4718 0.0002
# 2 7.3211 31.1194 7.8704 -0.0040 -2.5650 0.0004
# 3 93.8436 7.8704 118.5514 -0.0001 -2.5114 0.0004
# 4 -0.0010 -0.0040 -0.0001 4.5002 0.0005 3.4552
# 5 -12.4718 -2.5650 -2.5114 0.0005 37.8270 0.0000
# 6 0.0002 0.0004 0.0004 3.4552 0.0000 10.2870
#
#
#
# Elastic Compliance Matrix: (Units=1/GPa)
#
#
# Indices 1 2 3 4 5 6 
#
# 1 0.027826 -0.000389 -0.021838 0.000006 0.007698 -0.000002
# 2 -0.000389 0.032852 -0.001831 0.000040 0.001978 -0.000015
# 3 -0.021838 -0.001831 0.025724 -0.000007 -0.005616 0.000002
# 4 0.000006 0.000040 -0.000007 0.299434 0.000000 -0.100574
# 5 0.007698 0.001978 -0.005616 0.000000 0.028736 0.000000
# 6 -0.000002 -0.000015 0.000002 -0.100574 0.000000 0.130991
#
#
# Mechanical properties :
#
#
# Convention : Reuss Voigt Hill
#
# Bulk Modulus (GPa) = 26.11888 53.43099 39.77494
# Shear Modulus (GPa) = 8.24483 20.77442 14.50963
#
# Velocity S-wave (km/s) = 2.04173 3.24095 2.70855
# Velocity P-wave (km/s) = 4.33177 6.40471 5.46739
#
# Compressibility (1/GPa) = 0.03828648
#
# Stress axis : x y z
#
# Youngs Moduli (GPa) = 35.93725 30.43954 38.87362
#
# Poissons Ratio (x) = 0.01183 0.84892
# Poissons Ratio (y) = 0.01397 0.07119
# Poissons Ratio (z) = 0.78480 0.05574
#
# Static dielectric constant tensor:
#      x y z
#    x 1.682200 0.000000 -0.013310 
#    y 0.000000 1.748320 0.000000 
#    z -0.013310 0.000000 1.705520 
# 
# From -- ./inp_files/287917.got.cif
#   From: 2010.05.17/outbox.cif.g08.bks.cpg/sg12_144_cif.got.tgz:287917.got - 2010.06.03 13:09:07.
