data_PCOD9181749
_publ_section_title
;
Structure prediction by ZEFSAII (Michael W. Deem and Ramdas Pophale) SiO2 
 PCOD9181749
Probable space group: C 2/M
;
_chemical_formula_sum "Si O2"
_cell_formula_units_Z 64
_cell_length_a 18.995767
_cell_length_b 22.683084
_cell_length_c 18.030762
_cell_angle_alpha 90.000000
_cell_angle_beta 149.876035
_cell_angle_gamma 90.000000
_cell_volume 3899.118783
_symmetry_space_group_name_H-M "C 2/M"
_symmetry_group_IT_number 12
_symmetry_cell_setting 'monoclinic'
loop_
_space_group_symop_operation_xyz
x,y,z
-x,y,-z
-x,-y,-z
x,-y,z
1/2+x,1/2+y,z
1/2-x,1/2+y,-z
1/2-x,1/2-y,-z
1/2+x,1/2-y,z
loop_
_atom_site_type_symbol
_atom_site_label
_atom_site_fract_x
_atom_site_fract_y
_atom_site_fract_z
Si Si1 0.185840 0.832180 0.879732
Si Si2 0.372944 0.710718 0.330481
Si Si3 0.684970 0.729529 0.270697
Si Si4 0.122335 0.931543 0.937846
Si Si5 0.027534 0.719893 0.805593
Si Si6 0.156849 0.568909 0.726325
Si Si7 0.525907 0.176927 0.402901
Si Si8 0.103731 0.103298 0.158900
O O1 0.151226 0.831468 0.761154
O O2 0.152645 0.890500 0.895597
O O3 0.093432 0.780349 0.833237
O O4 0.346981 0.813490 0.038496
O O5 0.500000 0.691760 0.500000
O O6 0.238035 0.724956 0.257171
O O7 0.418473 0.774347 0.338053
O O8 0.596221 0.762316 0.252215
O O9 0.823346 0.698457 0.431419
O O10 0.602033 0.674144 0.161593
O O11 0.967632 0.919382 0.830965
O O12 0.135627 0.000000 0.932130
O O13 0.235940 0.918131 0.106942
O O14 0.979196 0.682441 0.690472
O O15 0.118971 0.500000 0.693970
O O16 0.245114 0.582171 0.731879
O O17 0.029008 0.613975 0.619691
O O18 0.000000 0.081354 0.000000
#
# Coordination Sequence:
#
# PCOD9181749 Si02
#       8
#     8   8   8   8   8   8   8   8
#     4  10  19  32  54  78  99 134 174 218 257 311
#     4   9  20  33  50  74 108 136 168 210 264 315
#     4  11  20  31  50  73 105 141 162 212 265 309
#     4  10  19  34  53  77 104 136 176 219 262 300
#     4  10  20  31  51  76 101 130 173 217 264 308
#     4  10  19  33  52  73 106 147 179 210 245 300
#     4  10  19  34  48  72 105 138 176 210 255 312
#     4  10  20  30  48  76 107 136 175 208 248 306
#
# _framework density 16.413965000000001
#
# number of rings (size 3 to 8) (size 9 to 14) (size 15 to 20)
#    0.000    2.000    3.750    0.750    1.750    1.500 
#    0.000    1.875    0.000    0.375    0.000    2.625 
#    0.000    0.000    0.000    0.000    0.000    0.000 
#
# Total GULP energy -178508.004111 kJ/mol
# GULP energy per Si atom -5578.375128 kJ/mol
# Density = 1.637661 g / cm^3
# Si number density = 16.413965 Si / 1000 Ang^3
#
#
#
# Elastic Constant Matrix: (Units=GPa)
#
#
# Indices 1 2 3 4 5 6 
#
# 1 132.7155 57.6629 57.0574 0.0000 6.1041 0.0000
# 2 57.6629 73.0446 34.6896 0.0000 4.4847 0.0000
# 3 57.0574 34.6896 48.9780 -0.0001 -7.4673 0.0000
# 4 0.0000 0.0000 -0.0001 14.3906 0.0000 -2.9508
# 5 6.1041 4.4847 -7.4673 0.0000 26.9564 0.0000
# 6 0.0000 0.0000 0.0000 -2.9508 0.0000 16.7273
#
#
#
# Elastic Compliance Matrix: (Units=1/GPa)
#
#
# Indices 1 2 3 4 5 6 
#
# 1 0.018272 -0.004753 -0.019243 0.000000 -0.008677 0.000000
# 2 -0.004753 0.023570 -0.012102 0.000000 -0.006197 0.000000
# 3 -0.019243 -0.012102 0.054687 0.000000 0.021520 0.000000
# 4 0.000000 0.000000 0.000000 0.072098 0.000000 0.012719
# 5 -0.008677 -0.006197 0.021520 0.000000 0.046054 0.000000
# 6 0.000000 0.000000 0.000000 0.012719 0.000000 0.062026
#
#
# Mechanical properties :
#
#
# Convention : Reuss Voigt Hill
#
# Bulk Modulus (GPa) = 41.09534 61.50643 51.30089
# Shear Modulus (GPa) = 14.00507 18.63673 16.32090
#
# Velocity S-wave (km/s) = 2.92420 3.37325 3.15672
# Velocity P-wave (km/s) = 6.04090 7.26121 6.67898
#
# Compressibility (1/GPa) = 0.02433366
#
# Stress axis : x y z
#
# Youngs Moduli (GPa) = 54.72863 42.42650 18.28600
#
# Poissons Ratio (x) = 0.20165 0.35187
# Poissons Ratio (y) = 0.26012 0.22130
# Poissons Ratio (z) = 1.05313 0.51344
#
# Static dielectric constant tensor:
#      x y z
#    x 1.548660 0.000000 -0.002210 
#    y 0.000000 1.520220 0.000000 
#    z -0.002210 0.000000 1.603580 
# 
# From -- ./inp_files/89644.got.cif
#   From: 2010.05.17/outbox.cif.g08.bks.cpg/sg12_45_cif.got.tgz:89644.got - 2010.06.03 13:09:07.
