data_PCOD9181862
_publ_section_title
;
Structure prediction by ZEFSAII (Michael W. Deem and Ramdas Pophale) SiO2 
 PCOD9181862
Probable space group: C 2/M
;
_chemical_formula_sum "Si O2"
_cell_formula_units_Z 64
_cell_length_a 30.069263
_cell_length_b 7.497946
_cell_length_c 24.272589
_cell_angle_alpha 90.000000
_cell_angle_beta 148.837634
_cell_angle_gamma 90.000000
_cell_volume 2831.797717
_symmetry_space_group_name_H-M "C 2/M"
_symmetry_group_IT_number 12
_symmetry_cell_setting 'monoclinic'
loop_
_space_group_symop_operation_xyz
x,y,z
-x,y,-z
-x,-y,-z
x,-y,z
1/2+x,1/2+y,z
1/2-x,1/2+y,-z
1/2-x,1/2-y,-z
1/2+x,1/2-y,z
loop_
_atom_site_type_symbol
_atom_site_label
_atom_site_fract_x
_atom_site_fract_y
_atom_site_fract_z
Si Si1 0.225011 0.785012 0.763849
Si Si2 0.743346 0.794556 0.323419
Si Si3 0.960493 0.217403 0.399889
Si Si4 0.390609 0.287801 0.012898
Si Si5 0.347706 0.713884 0.088071
Si Si6 0.809190 0.786177 0.509968
Si Si7 0.493197 0.282052 0.671132
Si Si8 0.454647 0.283813 0.894498
O O1 0.223942 0.716184 0.699797
O O2 0.139736 0.728860 0.705994
O O3 0.223027 0.000000 0.758961
O O4 0.312691 0.738041 0.887674
O O5 0.770833 0.716921 0.411302
O O6 0.640425 0.790335 0.210889
O O7 0.774088 0.000000 0.356155
O O8 0.000000 0.276085 0.500000
O O9 0.007280 0.274641 0.393439
O O10 0.963818 0.000000 0.403631
O O11 0.401593 0.500000 0.029895
O O12 0.366879 0.215106 0.047376
O O13 0.480195 0.220638 0.083496
O O14 0.356681 0.500000 0.096199
O O15 0.419086 0.778423 0.206857
O O16 0.250000 0.750000 0.000000
O O17 0.750000 0.750000 0.500000
O O18 0.908537 0.725809 0.615052
O O19 0.811052 0.000000 0.508828
O O20 0.493748 0.500000 0.671293
O O21 0.447477 0.500000 0.885366
O O22 0.500000 0.236653 0.000000
#
# Coordination Sequence:
#
# PCOD9181862 Si02
#       8
#     8   8   8   8   8   8   8   8
#     4  10  19  32  54  82 109 137 172 219 275 330
#     4  10  21  35  53  81 114 141 176 231 286 322
#     4   9  16  28  51  80 105 131 169 216 264 319
#     4  10  21  35  52  77 108 140 180 222 266 323
#     4  10  21  37  57  81 110 145 183 227 274 325
#     4  10  22  39  58  81 110 147 189 233 276 327
#     4   9  18  34  55  77 106 143 182 220 267 326
#     4  10  20  35  55  79 107 145 187 222 264 331
#
# _framework density 22.600486
#
# number of rings (size 3 to 8) (size 9 to 14) (size 15 to 20)
#    0.000    2.250    1.250    1.500    1.750    5.750 
#    0.000    0.625    0.000    1.125    0.000    0.000 
#    0.000    0.000    0.000    0.000    0.000    0.000 
#
# Total GULP energy -178782.835601 kJ/mol
# GULP energy per Si atom -5586.963613 kJ/mol
# Density = 2.254905 g / cm^3
# Si number density = 22.600486 Si / 1000 Ang^3
#
#
#
# Elastic Constant Matrix: (Units=GPa)
#
#
# Indices 1 2 3 4 5 6 
#
# 1 185.7670 4.7415 49.7112 -0.0001 0.6870 -0.0001
# 2 4.7415 59.6230 -2.9380 -0.0001 -3.0153 -0.0001
# 3 49.7112 -2.9380 100.0124 0.0000 -2.7177 0.0000
# 4 -0.0001 -0.0001 0.0000 31.3360 0.0000 54.8699
# 5 0.6870 -3.0153 -2.7177 0.0000 41.7534 0.0000
# 6 -0.0001 -0.0001 0.0000 54.8699 0.0000 133.2644
#
#
#
# Elastic Compliance Matrix: (Units=1/GPa)
#
#
# Indices 1 2 3 4 5 6 
#
# 1 0.006239 -0.000668 -0.003130 0.000000 -0.000355 0.000000
# 2 -0.000668 0.016933 0.000865 0.000000 0.001290 0.000000
# 3 -0.003130 0.000865 0.011604 0.000000 0.000869 0.000000
# 4 0.000000 0.000000 0.000000 0.114364 0.000000 -0.047088
# 5 -0.000355 0.001290 0.000869 0.000000 0.024106 0.000000
# 6 0.000000 0.000000 0.000000 -0.047088 0.000000 0.026892
#
#
# Mechanical properties :
#
#
# Convention : Reuss Voigt Hill
#
# Bulk Modulus (GPa) = 34.59276 49.82574 42.20925
# Shear Modulus (GPa) = 23.18662 60.86328 42.02495
#
# Velocity S-wave (km/s) = 3.20650 5.19505 4.31684
# Velocity P-wave (km/s) = 5.38964 7.62095 6.60027
#
# Compressibility (1/GPa) = 0.02890778
#
# Stress axis : x y z
#
# Youngs Moduli (GPa) = 160.27779 59.05608 86.17879
#
# Poissons Ratio (x) = 0.03947 0.26978
# Poissons Ratio (y) = 0.10712 -0.07452
# Poissons Ratio (z) = 0.50174 -0.05107
#
# Static dielectric constant tensor:
#      x y z
#    x 1.838000 0.000000 -0.008060 
#    y 0.000000 1.894430 0.000000 
#    z -0.008060 0.000000 1.800260 
# 
# From -- ./inp_files/353563.got.cif
#   From: 2010.05.17/outbox.cif.g08.bks.cpg/sg12_177_cif.got.tgz:353563.got - 2010.06.03 13:09:07.
