data_PCOD9181566
_publ_section_title
;
Structure prediction by ZEFSAII (Michael W. Deem and Ramdas Pophale) SiO2 
 PCOD9181566
Probable space group: C 2/M
;
_chemical_formula_sum "Si O2"
_cell_formula_units_Z 64
_cell_length_a 18.368889
_cell_length_b 8.800781
_cell_length_c 34.723826
_cell_angle_alpha 90.000000
_cell_angle_beta 142.207005
_cell_angle_gamma 90.000000
_cell_volume 3439.995178
_symmetry_space_group_name_H-M "C 2/M"
_symmetry_group_IT_number 12
_symmetry_cell_setting 'monoclinic'
loop_
_space_group_symop_operation_xyz
x,y,z
-x,y,-z
-x,-y,-z
x,-y,z
1/2+x,1/2+y,z
1/2-x,1/2+y,-z
1/2-x,1/2-y,-z
1/2+x,1/2-y,z
loop_
_atom_site_type_symbol
_atom_site_label
_atom_site_fract_x
_atom_site_fract_y
_atom_site_fract_z
Si Si1 0.084990 0.675820 0.997685
Si Si2 0.717169 0.816705 0.254005
Si Si3 0.219091 0.316961 0.870900
Si Si4 0.412473 0.181572 0.499152
Si Si5 0.991763 0.182892 0.381239
Si Si6 0.117082 0.181367 0.133696
Si Si7 0.348861 0.183187 0.620345
Si Si8 0.949429 0.315123 0.745492
O O1 0.101079 0.500000 0.994589
O O2 0.011372 0.759521 0.933736
O O3 0.207768 0.749511 0.062813
O O4 0.000000 0.685295 0.000000
O O5 0.659943 0.750689 0.191553
O O6 0.642544 0.766183 0.260121
O O7 0.855056 0.773921 0.315851
O O8 0.711586 0.000000 0.249869
O O9 0.221751 0.500000 0.874896
O O10 0.289393 0.275409 0.861050
O O11 0.083256 0.265222 0.810942
O O12 0.500000 0.211788 0.500000
O O13 0.466967 0.251009 0.560724
O O14 0.284805 0.255867 0.438112
O O15 0.399301 0.000000 0.497897
O O16 0.074997 0.249276 0.382714
O O17 0.000366 0.000000 0.385538
O O18 0.115344 0.000000 0.135312
O O19 0.406924 0.230701 0.685318
O O20 0.348947 0.000000 0.618219
O O21 0.950742 0.500000 0.746074
#
# Coordination Sequence:
#
# PCOD9181566 Si02
#       8
#     8   8   8   8   8   8   8   8
#     4   9  17  30  50  77 107 138 176 222 271 322
#     4  10  21  37  56  79 109 144 182 225 274 329
#     4   9  17  32  54  78 105 137 177 223 269 323
#     4  11  24  41  61  87 119 152 187 230 280 332
#     4  11  23  39  60  86 116 150 190 233 278 330
#     4  10  19  32  53  80 108 140 179 223 274 328
#     4  11  22  39  63  87 114 149 191 234 278 331
#     4   9  19  36  57  80 107 143 183 224 275 332
#
# _framework density 18.604676999999999
#
# number of rings (size 3 to 8) (size 9 to 14) (size 15 to 20)
#    0.000    2.000    0.000    3.750    0.000    6.000 
#    0.000    3.750    0.000    0.000    0.000    0.000 
#    0.000    0.000    0.000    0.000    0.000    0.000 
#
# Total GULP energy -178746.834749 kJ/mol
# GULP energy per Si atom -5585.838586 kJ/mol
# Density = 1.856233 g / cm^3
# Si number density = 18.604677 Si / 1000 Ang^3
#
#
#
# Elastic Constant Matrix: (Units=GPa)
#
#
# Indices 1 2 3 4 5 6 
#
# 1 128.4325 50.1598 91.6211 0.0000 14.0047 0.0000
# 2 50.1598 43.9206 49.4350 0.0000 16.4533 0.0001
# 3 91.6211 49.4350 170.6576 0.0000 64.6314 0.0000
# 4 0.0000 0.0000 0.0000 33.7724 0.0000 -2.8456
# 5 14.0047 16.4533 64.6314 0.0000 -73.0331 -0.0001
# 6 0.0000 0.0001 0.0000 -2.8456 -0.0001 12.5546
#
#
#
# Elastic Compliance Matrix: (Units=1/GPa)
#
#
# Indices 1 2 3 4 5 6 
#
# 1 0.015613 -0.012690 -0.003563 0.000000 -0.003018 0.000000
# 2 -0.012690 0.044037 -0.006575 0.000000 0.001669 0.000000
# 3 -0.003563 -0.006575 0.007862 0.000000 0.004793 0.000000
# 4 0.000000 0.000000 0.000000 0.030186 0.000000 0.006842
# 5 -0.003018 0.001669 0.004793 0.000000 -0.009654 0.000000
# 6 0.000000 0.000000 0.000000 0.006842 0.000000 0.081203
#
#
# Mechanical properties :
#
#
# Convention : Reuss Voigt Hill
#
# Bulk Modulus (GPa) = 45.75584 80.60474 63.18029
# Shear Modulus (GPa) = 22.50320 4.77845 13.64082
#
# Velocity S-wave (km/s) = 3.48163 1.60437 2.71069
# Velocity P-wave (km/s) = 6.38822 6.84478 6.62044
#
# Compressibility (1/GPa) = 0.02185514
#
# Stress axis : x y z
#
# Youngs Moduli (GPa) = 64.04725 22.70824 127.19062
#
# Poissons Ratio (x) = 0.28817 0.45323
# Poissons Ratio (y) = 0.81276 0.83632
# Poissons Ratio (z) = 0.22822 0.14931
#
# Static dielectric constant tensor:
#      x y z
#    x 1.623710 0.000000 0.008050 
#    y 0.000000 1.624530 0.000000 
#    z 0.008050 0.000000 1.613280 
# 
# From -- ./inp_files/378413.got.cif
#   From: 2010.05.17/outbox.cif.g08.bks.cpg/sg12_190_cif.got.tgz:378413.got - 2010.06.03 13:09:07.
