data_PCOD9181197
_publ_section_title
;
Structure prediction by ZEFSAII (Michael W. Deem and Ramdas Pophale) SiO2 
 PCOD9181197
Probable space group: C 2/M
;
_chemical_formula_sum "Si O2"
_cell_formula_units_Z 40
_cell_length_a 20.772811
_cell_length_b 14.329568
_cell_length_c 21.588869
_cell_angle_alpha 90.000000
_cell_angle_beta 19.165409
_cell_angle_gamma 90.000000
_cell_volume 2109.718124
_symmetry_space_group_name_H-M "C 2/M"
_symmetry_group_IT_number 12
_symmetry_cell_setting 'monoclinic'
loop_
_space_group_symop_operation_xyz
x,y,z
-x,y,-z
-x,-y,-z
x,-y,z
1/2+x,1/2+y,z
1/2-x,1/2+y,-z
1/2-x,1/2-y,-z
1/2+x,1/2-y,z
loop_
_atom_site_type_symbol
_atom_site_label
_atom_site_fract_x
_atom_site_fract_y
_atom_site_fract_z
Si Si1 0.142719 0.226852 0.678650
Si Si2 0.206926 0.106534 0.282003
Si Si3 0.941342 0.333395 0.958677
Si Si4 0.098302 0.391409 0.630775
Si Si5 0.296370 0.604958 0.945441
O O1 0.184715 0.326945 0.608083
O O2 0.323954 0.158580 0.501738
O O3 0.965620 0.179255 0.801342
O O4 0.054268 0.244844 0.826657
O O5 0.285852 0.173038 0.155707
O O6 0.000000 0.133340 0.500000
O O7 0.187508 0.000000 0.275361
O O8 0.379763 0.107073 0.175795
O O9 0.824217 0.377842 0.007847
O O10 0.153623 0.500000 0.584870
O O11 0.865328 0.386582 0.853341
O O12 0.375583 0.500000 0.873557
#
# Coordination Sequence:
#
# PCOD9181197 Si02
#       5
#     8   8   8   8   8
#     4  10  20  32  50  76 106 138 171 207 252 308
#     4  10  21  35  51  72  98 133 175 214 255 302
#     4  10  19  33  50  72 104 137 170 208 247 299
#     4   9  18  31  46  70 103 135 168 204 245 297
#     4  10  19  32  52  77 109 142 168 204 254 306
#
# _framework density 18.959878
#
# number of rings (size 3 to 8) (size 9 to 14) (size 15 to 20)
#    0.000    2.200    0.000    5.400    0.000    8.000 
#    0.000    4.000    0.000    0.000    0.000   11.200 
#    0.000   38.400    0.000    0.000    0.000    0.000 
#
# Total GULP energy -111411.578156 kJ/mol
# GULP energy per Si atom -5570.578908 kJ/mol
# Density = 1.891672 g / cm^3
# Si number density = 18.959878 Si / 1000 Ang^3
#
#
#
# Elastic Constant Matrix: (Units=GPa)
#
#
# Indices 1 2 3 4 5 6 
#
# 1 49.6599 17.6056 41.0705 0.0041 17.0660 -0.0015
# 2 17.6056 98.5431 31.7806 0.0107 13.5948 -0.0043
# 3 41.0705 31.7806 147.9778 0.0104 25.8000 -0.0076
# 4 0.0041 0.0107 0.0104 27.9081 -0.0040 -2.3613
# 5 17.0660 13.5948 25.8000 -0.0040 23.1428 0.0020
# 6 -0.0015 -0.0043 -0.0076 -2.3613 0.0020 9.2328
#
#
#
# Elastic Compliance Matrix: (Units=1/GPa)
#
#
# Indices 1 2 3 4 5 6 
#
# 1 0.030517 -0.001558 -0.005426 -0.000004 -0.015540 0.000002
# 2 -0.001558 0.011412 -0.001303 -0.000004 -0.004102 0.000004
# 3 -0.005426 -0.001303 0.009573 -0.000003 -0.005906 0.000007
# 4 -0.000004 -0.000004 -0.000003 0.036624 0.000014 0.009367
# 5 -0.015540 -0.004102 -0.005906 0.000014 0.063663 -0.000020
# 6 0.000002 0.000004 0.000007 0.009367 -0.000020 0.110705
#
#
# Mechanical properties :
#
#
# Convention : Reuss Voigt Hill
#
# Bulk Modulus (GPa) = 28.63056 53.01047 40.82052
# Shear Modulus (GPa) = 17.19913 25.77169 21.48541
#
# Velocity S-wave (km/s) = 3.01513 3.69083 3.36996
# Velocity P-wave (km/s) = 5.22061 6.79581 6.05961
#
# Compressibility (1/GPa) = 0.03492771
#
# Stress axis : x y z
#
# Youngs Moduli (GPa) = 32.76838 87.62330 104.45771
#
# Poissons Ratio (x) = 0.13656 0.56677
# Poissons Ratio (y) = 0.05107 0.13614
# Poissons Ratio (z) = 0.17780 0.11420
#
# Static dielectric constant tensor:
#      x y z
#    x 1.659630 0.000000 0.035620 
#    y 0.000000 1.679460 0.000000 
#    z 0.035620 0.000000 1.725250 
# 
# From -- ./inp_files/322055.got.cif
#   From: 2010.05.17/outbox.cif.g08.bks.cpg/sg12_162_cif.got.tgz:322055.got - 2010.06.03 13:09:07.
