data_PCOD9181001
_publ_section_title
;
Structure prediction by ZEFSAII (Michael W. Deem and Ramdas Pophale) SiO2 
 PCOD9181001
Probable space group: C 2/M
;
_chemical_formula_sum "Si O2"
_cell_formula_units_Z 56
_cell_length_a 13.480836
_cell_length_b 18.604241
_cell_length_c 11.695056
_cell_angle_alpha 90.000000
_cell_angle_beta 109.692726
_cell_angle_gamma 90.000000
_cell_volume 2761.579578
_symmetry_space_group_name_H-M "C 2/M"
_symmetry_group_IT_number 12
_symmetry_cell_setting 'monoclinic'
loop_
_space_group_symop_operation_xyz
x,y,z
-x,y,-z
-x,-y,-z
x,-y,z
1/2+x,1/2+y,z
1/2-x,1/2+y,-z
1/2-x,1/2-y,-z
1/2+x,1/2-y,z
loop_
_atom_site_type_symbol
_atom_site_label
_atom_site_fract_x
_atom_site_fract_y
_atom_site_fract_z
Si Si1 0.989654 0.631051 0.223571
Si Si2 0.669712 0.313188 0.105501
Si Si3 0.709699 0.083446 0.403187
Si Si4 0.191907 0.584220 0.994426
Si Si5 0.022243 0.208448 0.836110
Si Si6 0.711378 0.326998 0.764478
Si Si7 0.115431 0.580933 0.602109
O O1 0.927137 0.599280 0.092222
O O2 0.019315 0.713187 0.213308
O O3 0.906866 0.628529 0.296780
O O4 0.092640 0.588155 0.301714
O O5 0.734258 0.376564 0.071085
O O6 0.577088 0.335938 0.156211
O O7 0.740874 0.252024 0.191732
O O8 0.605183 0.279396 0.972643
O O9 0.776854 0.140204 0.356805
O O10 0.693441 0.103177 0.530713
O O11 0.744648 0.000000 0.409833
O O12 0.211496 0.500000 0.006273
O O13 0.222099 0.620883 0.125603
O O14 0.091564 0.174568 0.762970
O O15 0.143962 0.500000 0.651304
O O16 0.000000 0.576831 0.500000
#
# Coordination Sequence:
#
# PCOD9181001 Si02
#       7
#     8   8   8   8   8   8   8
#     4  11  17  30  52  76 100 124 163 207 243 293
#     4  10  19  35  49  69 104 138 160 191 247 301
#     4  10  20  32  49  74 104 133 160 199 250 296
#     4  11  21  32  50  78 101 125 167 209 242 282
#     4  10  19  32  52  71  95 137 169 190 240 299
#     4  11  19  34  49  73 104 130 161 201 245 296
#     4   8  16  30  45  68 102 135 158 188 247 304
#
# _framework density 20.27825
#
# number of rings (size 3 to 8) (size 9 to 14) (size 15 to 20)
#    0.000    1.857    4.286    3.429    0.000    0.571 
#    0.000    8.571    0.000    0.000    0.000    0.000 
#    0.000    3.429    0.000    0.000    0.000    0.000 
#
# Total GULP energy -156230.013661 kJ/mol
# GULP energy per Si atom -5579.643345 kJ/mol
# Density = 2.023210 g / cm^3
# Si number density = 20.278250 Si / 1000 Ang^3
#
#
#
# Elastic Constant Matrix: (Units=GPa)
#
#
# Indices 1 2 3 4 5 6 
#
# 1 73.3434 -0.4126 12.7793 0.0000 -34.8636 0.0000
# 2 -0.4126 57.8977 2.9788 0.0000 -6.3464 0.0000
# 3 12.7793 2.9788 13.4873 0.0000 -8.9761 0.0000
# 4 0.0000 0.0000 0.0000 9.6371 0.0000 -4.3884
# 5 -34.8636 -6.3464 -8.9761 0.0000 29.3094 0.0000
# 6 0.0000 0.0000 0.0000 -4.3884 0.0000 3.4871
#
#
#
# Elastic Compliance Matrix: (Units=1/GPa)
#
#
# Indices 1 2 3 4 5 6 
#
# 1 0.033025 0.004779 -0.006926 0.000000 0.038197 0.000000
# 2 0.004779 0.018414 -0.002711 0.000000 0.008841 0.000000
# 3 -0.006926 -0.002711 0.094741 0.000000 0.020190 0.000000
# 4 0.000000 0.000000 0.000000 0.243054 0.000000 0.305879
# 5 0.038197 0.008841 0.020190 0.000000 0.087651 0.000000
# 6 0.000000 0.000000 0.000000 0.305879 0.000000 0.671715
#
#
# Mechanical properties :
#
#
# Convention : Reuss Voigt Hill
#
# Bulk Modulus (GPa) = 7.32789 19.49103 13.40946
# Shear Modulus (GPa) = 4.15349 17.11225 10.63287
#
# Velocity S-wave (km/s) = 1.43272 2.90810 2.29235
# Velocity P-wave (km/s) = 2.52160 4.57260 3.69237
#
# Compressibility (1/GPa) = 0.13646497
#
# Stress axis : x y z
#
# Youngs Moduli (GPa) = 30.28029 54.30509 10.55506
#
# Poissons Ratio (x) = -0.25950 0.07310
# Poissons Ratio (y) = -0.14470 0.02861
# Poissons Ratio (z) = 0.20971 0.14720
#
# Static dielectric constant tensor:
#      x y z
#    x 1.771300 0.000000 -0.028770 
#    y 0.000000 1.690100 0.000000 
#    z -0.028770 0.000000 1.740500 
# 
# From -- ./inp_files/145663.got.cif
#   From: 2010.05.17/outbox.cif.g08.bks.cpg/sg12_73_cif.got.tgz:145663.got - 2010.06.03 13:09:07.
