data_PCOD9181976
_publ_section_title
;
Structure prediction by ZEFSAII (Michael W. Deem and Ramdas Pophale) SiO2 
 PCOD9181976
Probable space group: C 2/M
;
_chemical_formula_sum "Si O2"
_cell_formula_units_Z 56
_cell_length_a 5.376339
_cell_length_b 14.544527
_cell_length_c 36.612982
_cell_angle_alpha 90.000000
_cell_angle_beta 110.609733
_cell_angle_gamma 90.000000
_cell_volume 2679.767303
_symmetry_space_group_name_H-M "C 2/M"
_symmetry_group_IT_number 12
_symmetry_cell_setting 'monoclinic'
loop_
_space_group_symop_operation_xyz
x,y,z
-x,y,-z
-x,-y,-z
x,-y,z
1/2+x,1/2+y,z
1/2-x,1/2+y,-z
1/2-x,1/2-y,-z
1/2+x,1/2-y,z
loop_
_atom_site_type_symbol
_atom_site_label
_atom_site_fract_x
_atom_site_fract_y
_atom_site_fract_z
Si Si1 0.260099 0.689425 0.415365
Si Si2 0.659646 0.890601 0.332325
Si Si3 0.995779 0.345112 0.126257
Si Si4 0.743587 0.196656 0.217037
Si Si5 0.000000 0.187825 0.500000
Si Si6 0.311137 0.500000 0.025410
Si Si7 0.931003 0.891951 0.705607
Si Si8 0.919622 0.136812 0.094366
O O1 0.484180 0.763304 0.413926
O O2 0.205579 0.628845 0.377173
O O3 0.390186 0.640110 0.457639
O O4 0.899371 0.853485 0.319688
O O5 0.367536 0.854198 0.306350
O O6 0.658982 0.000000 0.326148
O O7 0.157735 0.329048 0.171608
O O8 0.183807 0.396814 0.107960
O O9 0.920920 0.247312 0.102506
O O10 0.716477 0.390869 0.120848
O O11 0.473159 0.226840 0.223147
O O12 0.893345 0.122507 0.249327
O O13 0.250000 0.250000 0.500000
O O14 0.372371 0.591493 0.052653
O O15 0.500000 0.500000 0.000000
O O16 0.000000 0.500000 0.000000
O O17 0.896723 0.000000 0.697374
#
# Coordination Sequence:
#
# PCOD9181976 Si02
#       8
#     8   8   8   8   4   4   8   8
#     4  10  19  32  55  79 105 137 190 231 284 346
#     4  10  21  38  54  73 111 152 185 227 284 344
#     4  10  19  40  61  87 114 153 192 227 281 331
#     4  12  21  37  60  87 117 142 190 244 276 324
#     4   8  16  30  47  76 107 134 166 240 292 330
#     4  12  26  44  62  96 128 154 192 240 280 324
#     4  10  23  39  53  78 116 152 185 229 286 341
#     4  10  20  40  64  84 122 152 187 229 275 325
#
# _framework density 20.897335999999999
#
# number of rings (size 3 to 8) (size 9 to 14) (size 15 to 20)
#    0.000    1.714    2.857    2.571    0.000    3.429 
#    2.571    8.929    0.000    0.000    0.000    9.000 
#    0.000    0.000    0.000    0.000    0.000    0.000 
#
# Total GULP energy -156049.649719 kJ/mol
# GULP energy per Si atom -5573.201776 kJ/mol
# Density = 2.084977 g / cm^3
# Si number density = 20.897336 Si / 1000 Ang^3
#
#
#
# Elastic Constant Matrix: (Units=GPa)
#
#
# Indices 1 2 3 4 5 6 
#
# 1 100.1619 -0.1280 2.8260 0.0000 4.7777 0.0000
# 2 -0.1280 47.4027 4.0136 0.0000 -4.0830 0.0000
# 3 2.8260 4.0136 83.7457 -0.0001 0.9735 0.0000
# 4 0.0000 0.0000 -0.0001 136.6083 -0.0001 -11.3649
# 5 4.7777 -4.0830 0.9735 -0.0001 40.4217 0.0000
# 6 0.0000 0.0000 0.0000 -11.3649 0.0000 1.6835
#
#
#
# Elastic Compliance Matrix: (Units=1/GPa)
#
#
# Indices 1 2 3 4 5 6 
#
# 1 0.010049 -0.000048 -0.000323 0.000000 -0.001185 0.000000
# 2 -0.000048 0.021373 -0.001048 0.000000 0.002190 0.000000
# 3 -0.000323 -0.001048 0.012006 0.000000 -0.000357 0.000000
# 4 0.000000 0.000000 0.000000 0.016698 0.000000 0.112727
# 5 -0.001185 0.002190 -0.000357 0.000000 0.025109 0.000000
# 6 0.000000 0.000000 0.000000 0.112727 0.000000 1.354996
#
#
# Mechanical properties :
#
#
# Convention : Reuss Voigt Hill
#
# Bulk Modulus (GPa) = 24.63597 27.19263 25.91430
# Shear Modulus (GPa) = 3.43265 50.71593 27.07429
#
# Velocity S-wave (km/s) = 1.28304 4.93171 3.60333
# Velocity P-wave (km/s) = 3.74294 6.74313 5.45341
#
# Compressibility (1/GPa) = 0.04059105
#
# Stress axis : x y z
#
# Youngs Moduli (GPa) = 99.50837 46.78781 83.29029
#
# Poissons Ratio (x) = 0.00223 0.02691
# Poissons Ratio (y) = 0.00473 0.08730
# Poissons Ratio (z) = 0.03215 0.04904
#
# Static dielectric constant tensor:
#      x y z
#    x 1.786500 0.000000 -0.006060 
#    y 0.000000 1.764450 0.000000 
#    z -0.006060 0.000000 1.745440 
# 
# From -- ./inp_files/371621.got.cif
#   From: 2010.05.17/outbox.cif.g08.bks.cpg/sg12_186_cif.got.tgz:371621.got - 2010.06.03 13:09:07.
