data_PCOD9181211
_publ_section_title
;
Structure prediction by ZEFSAII (Michael W. Deem and Ramdas Pophale) SiO2 
 PCOD9181211
Probable space group: C 2/M
;
_chemical_formula_sum "Si O2"
_cell_formula_units_Z 56
_cell_length_a 32.247564
_cell_length_b 7.350396
_cell_length_c 12.376987
_cell_angle_alpha 90.000000
_cell_angle_beta 123.970701
_cell_angle_gamma 90.000000
_cell_volume 2433.024672
_symmetry_space_group_name_H-M "C 2/M"
_symmetry_group_IT_number 12
_symmetry_cell_setting 'monoclinic'
loop_
_space_group_symop_operation_xyz
x,y,z
-x,y,-z
-x,-y,-z
x,-y,z
1/2+x,1/2+y,z
1/2-x,1/2+y,-z
1/2-x,1/2-y,-z
1/2+x,1/2-y,z
loop_
_atom_site_type_symbol
_atom_site_label
_atom_site_fract_x
_atom_site_fract_y
_atom_site_fract_z
Si Si1 0.744496 0.784692 0.864896
Si Si2 0.442689 0.778266 0.408700
Si Si3 0.861680 0.278478 0.663228
Si Si4 0.429859 0.222121 0.149393
Si Si5 0.522919 0.221038 0.148335
Si Si6 0.841694 0.711049 0.868308
Si Si7 0.349603 0.777636 0.407928
O O1 0.791819 0.718181 0.865735
O O2 0.693188 0.716002 0.737027
O O3 0.744117 0.000000 0.850839
O O4 0.750000 0.750000 0.000000
O O5 0.500000 0.717733 0.500000
O O6 0.421916 0.723451 0.261162
O O7 0.404228 0.720854 0.445152
O O8 0.443906 0.000000 0.413860
O O9 0.859655 0.500000 0.656592
O O10 0.920002 0.223468 0.753947
O O11 0.837036 0.215951 0.739748
O O12 0.840048 0.217987 0.516838
O O13 0.484289 0.276382 0.184971
O O14 0.428715 0.000000 0.147515
O O15 0.387268 0.288330 0.005464
O O16 0.523574 0.000000 0.148865
O O17 0.500000 0.277941 0.000000
O O18 0.855502 0.500000 0.873261
O O19 0.349801 0.000000 0.406994
#
# Coordination Sequence:
#
# PCOD9181211 Si02
#       7
#     8   8   8   8   8   8   8
#     4  11  23  39  57  75  99 132 172 216 259 303
#     4   9  15  23  37  60  93 131 164 198 246 303
#     4   9  16  27  45  72 107 141 170 204 254 311
#     4   9  15  23  39  66 100 134 168 207 252 298
#     4   9  13  20  36  65 104 140 168 200 248 303
#     4  10  19  32  52  78 105 134 170 211 253 301
#     4   9  18  31  46  68 101 137 168 205 255 305
#
# _framework density 23.01662
#
# number of rings (size 3 to 8) (size 9 to 14) (size 15 to 20)
#    0.000    2.571    1.429    2.143    0.000    6.286 
#    0.000    0.000    0.000    0.857    0.000    2.000 
#    0.000   29.143    0.000    0.000    0.000    0.000 
#
# Total GULP energy -156442.431005 kJ/mol
# GULP energy per Si atom -5587.229679 kJ/mol
# Density = 2.296423 g / cm^3
# Si number density = 23.016620 Si / 1000 Ang^3
#
#
#
# Elastic Constant Matrix: (Units=GPa)
#
#
# Indices 1 2 3 4 5 6 
#
# 1 133.2498 -13.1594 71.8464 0.0000 -24.1951 0.0000
# 2 -13.1594 81.8311 -0.6847 0.0000 -2.0347 0.0000
# 3 71.8464 -0.6847 173.5128 0.0000 -24.5543 0.0000
# 4 0.0000 0.0000 0.0000 -6.0541 0.0000 1.4992
# 5 -24.1951 -2.0347 -24.5543 0.0000 42.3723 0.0000
# 6 0.0000 0.0000 0.0000 1.4992 0.0000 -20.2852
#
#
#
# Elastic Compliance Matrix: (Units=1/GPa)
#
#
# Indices 1 2 3 4 5 6 
#
# 1 0.010399 0.001736 -0.003755 0.000000 0.003845 0.000000
# 2 0.001736 0.012528 -0.000484 0.000000 0.001313 0.000000
# 3 -0.003755 -0.000484 0.007636 0.000000 0.002257 0.000000
# 4 0.000000 0.000000 0.000000 -0.168256 0.000000 -0.012435
# 5 0.003845 0.001313 0.002257 0.000000 0.027167 0.000000
# 6 0.000000 0.000000 0.000000 -0.012435 0.000000 -0.050216
#
#
# Mechanical properties :
#
#
# Convention : Reuss Voigt Hill
#
# Bulk Modulus (GPa) = 39.12622 56.06649 47.59635
# Shear Modulus (GPa) = -33.96329 25.24601 -4.35864
#
# Velocity S-wave (km/s) = -3.84552 3.31548 -1.37761
# Velocity P-wave (km/s) = 1.63748 6.25048 4.26540
#
# Compressibility (1/GPa) = 0.02555831
#
# Stress axis : x y z
#
# Youngs Moduli (GPa) = 96.16287 79.82036 130.96554
#
# Poissons Ratio (x) = -0.13861 0.49176
# Poissons Ratio (y) = -0.16699 0.06336
# Poissons Ratio (z) = 0.36108 0.03862
#
# Static dielectric constant tensor:
#      x y z
#    x 1.796950 0.000000 -0.008490 
#    y 0.000000 1.945970 0.000000 
#    z -0.008490 0.000000 1.841320 
# 
# From -- ./inp_files/180741.got.cif
#   From: 2010.05.17/outbox.cif.g08.bks.cpg/sg12_91_cif.got.tgz:180741.got - 2010.06.03 13:09:07.
