data_PCOD9181450
_publ_section_title
;
Structure prediction by ZEFSAII (Michael W. Deem and Ramdas Pophale) SiO2 
 PCOD9181450
Probable space group: C 2/M
;
_chemical_formula_sum "Si O2"
_cell_formula_units_Z 56
_cell_length_a 19.629685
_cell_length_b 7.802597
_cell_length_c 26.846901
_cell_angle_alpha 90.000000
_cell_angle_beta 139.818994
_cell_angle_gamma 90.000000
_cell_volume 2653.041362
_symmetry_space_group_name_H-M "C 2/M"
_symmetry_group_IT_number 12
_symmetry_cell_setting 'monoclinic'
loop_
_space_group_symop_operation_xyz
x,y,z
-x,y,-z
-x,-y,-z
x,-y,z
1/2+x,1/2+y,z
1/2-x,1/2+y,-z
1/2-x,1/2-y,-z
1/2+x,1/2-y,z
loop_
_atom_site_type_symbol
_atom_site_label
_atom_site_fract_x
_atom_site_fract_y
_atom_site_fract_z
Si Si1 0.584411 0.206152 0.178982
Si Si2 0.328405 0.805931 0.499940
Si Si3 0.462745 0.697007 0.426952
Si Si4 0.861988 0.293521 0.085762
Si Si5 0.153217 0.294823 0.331200
Si Si6 0.795786 0.206799 0.256244
Si Si7 0.925135 0.706229 0.230726
O O1 0.464219 0.271029 0.111953
O O2 0.628467 0.234879 0.259511
O O3 0.675537 0.270984 0.193255
O O4 0.577845 0.000000 0.168480
O O5 0.250000 0.750000 0.500000
O O6 0.434470 0.699806 0.550991
O O7 0.257136 0.790917 0.410629
O O8 0.361906 0.000000 0.527997
O O9 0.500000 0.777746 0.500000
O O10 0.432324 0.500000 0.421633
O O11 0.366488 0.773489 0.341879
O O12 0.869502 0.500000 0.091410
O O13 0.876844 0.232848 0.151088
O O14 0.750000 0.250000 0.000000
O O15 0.166503 0.500000 0.345329
O O16 0.047456 0.236689 0.301244
O O17 0.855042 0.245436 0.238323
O O18 0.793177 0.000000 0.259539
O O19 0.930051 0.500000 0.231165
#
# Coordination Sequence:
#
# PCOD9181450 Si02
#       7
#     8   8   8   8   8   8   8
#     4   8  16  33  56  78 100 131 169 206 249 303
#     4  12  24  35  49  72 103 137 177 224 270 314
#     4  10  21  37  56  77 104 140 180 223 272 320
#     4   9  18  35  58  81 105 133 167 205 248 302
#     4   9  17  34  56  72  93 131 177 219 260 308
#     4  10  19  32  53  78 102 133 175 216 253 304
#     4   9  19  34  53  77 105 137 168 208 264 312
#
# _framework density 21.107849000000002
#
# number of rings (size 3 to 8) (size 9 to 14) (size 15 to 20)
#    0.000    2.429    0.000    4.714    0.000    6.571 
#    0.000    5.714    0.000    4.286    0.000    0.000 
#    0.000    0.000    0.000    0.000    0.000    0.000 
#
# Total GULP energy -156304.815443 kJ/mol
# GULP energy per Si atom -5582.314837 kJ/mol
# Density = 2.105981 g / cm^3
# Si number density = 21.107849 Si / 1000 Ang^3
#
#
#
# Elastic Constant Matrix: (Units=GPa)
#
#
# Indices 1 2 3 4 5 6 
#
# 1 117.0825 -2.3290 33.5200 0.0000 28.2677 0.0000
# 2 -2.3290 32.8317 -0.8166 0.0000 -0.8338 -0.0003
# 3 33.5200 -0.8166 102.4854 0.0000 28.2783 0.0000
# 4 0.0000 0.0000 0.0000 19.0421 0.0000 -0.3935
# 5 28.2677 -0.8338 28.2783 0.0000 29.8257 0.0000
# 6 0.0000 -0.0003 0.0000 -0.3935 0.0000 22.1635
#
#
#
# Elastic Compliance Matrix: (Units=1/GPa)
#
#
# Indices 1 2 3 4 5 6 
#
# 1 0.011158 0.000523 -0.000990 0.000000 -0.009621 0.000000
# 2 0.000523 0.030504 -0.000036 0.000000 0.000392 0.000000
# 3 -0.000990 -0.000036 0.013302 0.000000 -0.011675 0.000000
# 4 0.000000 0.000000 0.000000 0.052534 0.000000 0.000933
# 5 -0.009621 0.000392 -0.011675 0.000000 0.053727 0.000000
# 6 0.000000 0.000000 0.000000 0.000933 0.000000 0.045136
#
#
# Mechanical properties :
#
#
# Convention : Reuss Voigt Hill
#
# Bulk Modulus (GPa) = 18.53322 34.79425 26.66374
# Shear Modulus (GPa) = 22.18721 29.00796 25.59758
#
# Velocity S-wave (km/s) = 3.24564 3.71114 3.48617
# Velocity P-wave (km/s) = 4.77963 5.90620 5.37253
#
# Compressibility (1/GPa) = 0.05395716
#
# Stress axis : x y z
#
# Youngs Moduli (GPa) = 89.62284 32.78206 75.17395
#
# Poissons Ratio (x) = -0.01713 0.07446
# Poissons Ratio (y) = -0.04683 0.00270
# Poissons Ratio (z) = 0.08877 0.00118
#
# Static dielectric constant tensor:
#      x y z
#    x 1.790210 0.000000 0.007190 
#    y 0.000000 1.798740 0.000000 
#    z 0.007190 0.000000 1.757260 
# 
# From -- ./inp_files/363157.got.cif
#   From: 2010.05.17/outbox.cif.g08.bks.cpg/sg12_182_cif.got.tgz:363157.got - 2010.06.03 13:09:07.
