data_PCOD9181072
_publ_section_title
;
Structure prediction by ZEFSAII (Michael W. Deem and Ramdas Pophale) SiO2 
 PCOD9181072
Probable space group: C 2/M
;
_chemical_formula_sum "Si O2"
_cell_formula_units_Z 40
_cell_length_a 17.651443
_cell_length_b 24.832011
_cell_length_c 9.953270
_cell_angle_alpha 90.000000
_cell_angle_beta 146.444256
_cell_angle_gamma 90.000000
_cell_volume 2411.487924
_symmetry_space_group_name_H-M "C 2/M"
_symmetry_group_IT_number 12
_symmetry_cell_setting 'monoclinic'
loop_
_space_group_symop_operation_xyz
x,y,z
-x,y,-z
-x,-y,-z
x,-y,z
1/2+x,1/2+y,z
1/2-x,1/2+y,-z
1/2-x,1/2-y,-z
1/2+x,1/2-y,z
loop_
_atom_site_type_symbol
_atom_site_label
_atom_site_fract_x
_atom_site_fract_y
_atom_site_fract_z
Si Si1 0.273222 0.849621 0.297363
Si Si2 0.980903 0.561431 0.634148
Si Si3 0.997237 0.736432 0.724781
Si Si4 0.000000 0.825406 0.500000
Si Si5 0.500000 0.297949 0.000000
Si Si6 0.212445 0.354678 0.004385
O O1 0.342525 0.904548 0.452777
O O2 0.266797 0.852658 0.126204
O O3 0.135414 0.700593 0.931844
O O4 0.128223 0.834136 0.144971
O O5 0.977039 0.500000 0.675427
O O6 0.000000 0.560839 0.500000
O O7 0.107770 0.596422 0.877501
O O8 0.963890 0.759896 0.820961
O O9 0.880334 0.697317 0.494388
O O10 0.010954 0.786104 0.643925
O O11 0.140947 0.858454 0.707994
#
# Coordination Sequence:
#
# PCOD9181072 Si02
#       6
#     8   8   8   4   4   8
#     4  10  19  33  49  76 103 135 171 208 247 298
#     4   8  16  33  56  74  93 125 173 219 252 294
#     4  11  20  33  51  71 106 144 172 196 244 298
#     4  12  18  30  51  74 103 142 164 198 254 296
#     4  12  22  30  45  82 113 132 164 206 248 302
#     4  10  19  32  52  75  99 136 177 205 245 298
#
# _framework density 16.587271000000001
#
# number of rings (size 3 to 8) (size 9 to 14) (size 15 to 20)
#    0.000    1.800    4.000    3.600    0.000    0.000 
#    0.000    1.000    0.000    0.000    0.000   23.800 
#    0.000    0.000    0.000    0.000    0.000    0.000 
#
# Total GULP energy -111571.329716 kJ/mol
# GULP energy per Si atom -5578.566486 kJ/mol
# Density = 1.654952 g / cm^3
# Si number density = 16.587271 Si / 1000 Ang^3
#
#
#
# Elastic Constant Matrix: (Units=GPa)
#
#
# Indices 1 2 3 4 5 6 
#
# 1 45.4939 13.5294 3.8398 0.0000 7.7742 0.0000
# 2 13.5294 94.8146 38.0884 0.0000 9.0274 0.0000
# 3 3.8398 38.0884 86.5724 0.0000 24.8424 0.0000
# 4 0.0000 0.0000 0.0000 0.1073 0.0000 -1.3633
# 5 7.7742 9.0274 24.8424 0.0000 33.1003 0.0000
# 6 0.0000 0.0000 0.0000 -1.3633 0.0000 8.0814
#
#
#
# Elastic Compliance Matrix: (Units=1/GPa)
#
#
# Indices 1 2 3 4 5 6 
#
# 1 0.024005 -0.003798 0.002456 0.000000 -0.006445 0.000000
# 2 -0.003798 0.013435 -0.006305 0.000000 0.001960 0.000000
# 3 0.002456 -0.006305 0.017700 0.000000 -0.012142 0.000000
# 4 0.000000 0.000000 0.000000 -8.153445 0.000000 -1.375489
# 5 -0.006445 0.001960 -0.012142 0.000000 0.040303 0.000000
# 6 0.000000 0.000000 0.000000 -1.375489 0.000000 -0.108304
#
#
# Mechanical properties :
#
#
# Convention : Reuss Voigt Hill
#
# Bulk Modulus (GPa) = 25.09697 37.53288 31.31493
# Shear Modulus (GPa) = -0.61442 19.68602 9.53580
#
# Velocity S-wave (km/s) = -0.60928 3.44876 2.40028
# Velocity P-wave (km/s) = 3.82990 6.20767 5.15768
#
# Compressibility (1/GPa) = 0.03984544
#
# Stress axis : x y z
#
# Youngs Moduli (GPa) = 41.65863 74.43247 56.49711
#
# Poissons Ratio (x) = 0.28271 -0.13875
# Poissons Ratio (y) = 0.15823 0.35620
# Poissons Ratio (z) = -0.10231 0.46928
#
# Static dielectric constant tensor:
#      x y z
#    x 1.559270 0.000000 0.010060 
#    y 0.000000 1.550860 0.000000 
#    z 0.010060 0.000000 1.576940 
# 
# From -- ./inp_files/169330.got.cif
#   From: 2010.05.17/outbox.cif.g08.bks.cpg/sg12_85_cif.got.tgz:169330.got - 2010.06.03 13:09:07.
