data_PCOD9181461
_publ_section_title
;
Structure prediction by ZEFSAII (Michael W. Deem and Ramdas Pophale) SiO2 
 PCOD9181461
Probable space group: C 2/M
;
_chemical_formula_sum "Si O2"
_cell_formula_units_Z 48
_cell_length_a 16.363671
_cell_length_b 9.489377
_cell_length_c 14.523862
_cell_angle_alpha 90.000000
_cell_angle_beta 99.740243
_cell_angle_gamma 90.000000
_cell_volume 2222.770313
_symmetry_space_group_name_H-M "C 2/M"
_symmetry_group_IT_number 12
_symmetry_cell_setting 'monoclinic'
loop_
_space_group_symop_operation_xyz
x,y,z
-x,y,-z
-x,-y,-z
x,-y,z
1/2+x,1/2+y,z
1/2-x,1/2+y,-z
1/2-x,1/2-y,-z
1/2+x,1/2-y,z
loop_
_atom_site_type_symbol
_atom_site_label
_atom_site_fract_x
_atom_site_fract_y
_atom_site_fract_z
Si Si1 0.593198 0.831472 0.543496
Si Si2 0.848317 0.163909 0.610435
Si Si3 0.202723 0.333389 0.730548
Si Si4 0.596948 0.838653 0.050592
Si Si5 0.041563 0.838047 0.205773
Si Si6 0.150641 0.164602 0.890345
O O1 0.500000 0.788779 0.500000
O O2 0.651572 0.759969 0.478775
O O3 0.622690 0.797744 0.652137
O O4 0.599791 0.000000 0.535834
O O5 0.777418 0.188288 0.672940
O O6 0.932508 0.188859 0.684703
O O7 0.843818 0.000000 0.582133
O O8 0.200007 0.500000 0.754448
O O9 0.204487 0.239820 0.822025
O O10 0.591747 0.763678 0.147764
O O11 0.624770 0.000000 0.060258
O O12 0.500000 0.838959 0.000000
O O13 0.647777 0.749628 0.985393
O O14 0.944462 0.826252 0.165605
O O15 0.066147 0.000000 0.189645
O O16 0.170161 0.000000 0.906917
#
# Coordination Sequence:
#
# PCOD9181461 Si02
#       6
#     8   8   8   8   8   8
#     4  10  21  36  55  79 105 134 170 213 257 302
#     4  10  21  36  54  76 104 138 172 210 256 304
#     4  10  21  36  52  74 106 139 171 210 256 305
#     4   9  17  30  51  78 105 134 169 211 258 304
#     4   9  18  33  52  76 104 133 171 216 257 300
#     4  10  19  32  53  78 103 134 172 214 257 302
#
# _framework density 21.594674000000001
#
# number of rings (size 3 to 8) (size 9 to 14) (size 15 to 20)
#    0.000    2.333    0.000    2.500    0.000    5.000 
#    0.000    0.833    0.000    0.000    0.000    0.000 
#    0.000    0.000    0.000    0.000    0.000    0.000 
#
# Total GULP energy -134139.001593 kJ/mol
# GULP energy per Si atom -5589.125066 kJ/mol
# Density = 2.154552 g / cm^3
# Si number density = 21.594674 Si / 1000 Ang^3
#
#
#
# Elastic Constant Matrix: (Units=GPa)
#
#
# Indices 1 2 3 4 5 6 
#
# 1 64.8633 15.1502 5.0946 0.0000 -4.7376 0.0000
# 2 15.1502 90.1005 69.8300 0.0000 -24.7027 0.0000
# 3 5.0946 69.8300 84.9791 0.0000 -25.3820 0.0000
# 4 0.0000 0.0000 0.0000 35.6361 0.0000 -15.9647
# 5 -4.7376 -24.7027 -25.3820 0.0000 32.8859 0.0000
# 6 0.0000 0.0000 0.0000 -15.9647 0.0000 17.7427
#
#
#
# Elastic Compliance Matrix: (Units=1/GPa)
#
#
# Indices 1 2 3 4 5 6 
#
# 1 0.016465 -0.005367 0.003805 0.000000 0.001277 0.000000
# 2 -0.005367 0.032869 -0.025399 0.000000 0.004313 0.000000
# 3 0.003805 -0.025399 0.034928 0.000000 0.008427 0.000000
# 4 0.000000 0.000000 0.000000 0.047012 0.000000 0.042300
# 5 0.001277 0.004313 0.008427 0.000000 0.040336 0.000000
# 6 0.000000 0.000000 0.000000 0.042300 0.000000 0.094423
#
#
# Mechanical properties :
#
#
# Convention : Reuss Voigt Hill
#
# Bulk Modulus (GPa) = 32.96179 46.67695 39.81937
# Shear Modulus (GPa) = 15.14837 27.24416 21.19626
#
# Velocity S-wave (km/s) = 2.65143 3.55577 3.13637
# Velocity P-wave (km/s) = 4.96694 6.20645 5.62096
#
# Compressibility (1/GPa) = 0.03033816
#
# Stress axis : x y z
#
# Youngs Moduli (GPa) = 60.73451 30.42406 28.63034
#
# Poissons Ratio (x) = 0.16329 -0.10893
# Poissons Ratio (y) = 0.32598 0.72719
# Poissons Ratio (z) = -0.23108 0.77275
#
# Static dielectric constant tensor:
#      x y z
#    x 1.871100 0.000000 0.045980 
#    y 0.000000 1.723750 0.000000 
#    z 0.045980 0.000000 1.730120 
# 
# From -- ./inp_files/221601.got.cif
#   From: 2010.05.17/outbox.cif.g08.bks.cpg/sg12_111_cif.got.tgz:221601.got - 2010.06.03 13:09:07.
