data_PCOD9181325
_publ_section_title
;
Structure prediction by ZEFSAII (Michael W. Deem and Ramdas Pophale) SiO2 
 PCOD9181325
Probable space group: C 2/M
;
_chemical_formula_sum "Si O2"
_cell_formula_units_Z 64
_cell_length_a 22.468448
_cell_length_b 8.482584
_cell_length_c 21.345829
_cell_angle_alpha 90.000000
_cell_angle_beta 126.466414
_cell_angle_gamma 90.000000
_cell_volume 3271.758613
_symmetry_space_group_name_H-M "C 2/M"
_symmetry_group_IT_number 12
_symmetry_cell_setting 'monoclinic'
loop_
_space_group_symop_operation_xyz
x,y,z
-x,y,-z
-x,-y,-z
x,-y,z
1/2+x,1/2+y,z
1/2-x,1/2+y,-z
1/2-x,1/2-y,-z
1/2+x,1/2-y,z
loop_
_atom_site_type_symbol
_atom_site_label
_atom_site_fract_x
_atom_site_fract_y
_atom_site_fract_z
Si Si1 0.129278 0.812812 0.911586
Si Si2 0.144464 0.185696 0.384332
Si Si3 0.939342 0.186995 0.328181
Si Si4 0.231989 0.812489 0.759799
Si Si5 0.579995 0.813907 0.472167
Si Si6 0.273470 0.809696 0.376145
Si Si7 0.005367 0.683245 0.241645
Si Si8 0.761921 0.812228 0.911058
O O1 0.052502 0.728931 0.848195
O O2 0.189664 0.769431 0.896021
O O3 0.117666 0.000000 0.902956
O O4 0.168841 0.767843 0.001514
O O5 0.119040 0.282246 0.429171
O O6 0.221145 0.237682 0.401220
O O7 0.079693 0.214483 0.292866
O O8 0.147463 0.000000 0.402138
O O9 0.855524 0.228611 0.291684
O O10 0.963119 0.279171 0.280499
O O11 0.000785 0.230445 0.418394
O O12 0.943630 0.000000 0.318126
O O13 0.257740 0.753119 0.708501
O O14 0.269334 0.736134 0.843802
O O15 0.238992 0.000000 0.768298
O O16 0.642099 0.755721 0.559463
O O17 0.568066 0.000000 0.473335
O O18 0.273966 0.000000 0.375275
O O19 0.024594 0.500000 0.250918
O O20 0.751685 0.000000 0.909965
#
# Coordination Sequence:
#
# PCOD9181325 Si02
#       8
#     8   8   8   8   8   8   8   8
#     4  10  19  32  52  81 112 141 175 214 261 314
#     4  10  20  36  57  79 105 138 175 226 274 316
#     4  10  20  34  51  76 108 142 176 217 267 319
#     4  11  23  36  54  76 108 147 181 219 263 316
#     4  10  20  35  56  81 105 134 175 227 273 317
#     4  10  23  39  55  76 104 141 183 221 270 322
#     4  11  20  31  53  82 109 141 175 219 268 313
#     4  10  20  33  53  79 110 144 176 215 260 311
#
# _framework density 19.561346
#
# number of rings (size 3 to 8) (size 9 to 14) (size 15 to 20)
#    0.000    1.750    1.250    5.250    0.000    5.500 
#    0.000    2.500    0.000    0.750    0.000    5.250 
#    0.000    0.000    0.000    0.000    0.000    0.000 
#
# Total GULP energy -178760.800007 kJ/mol
# GULP energy per Si atom -5586.275000 kJ/mol
# Density = 1.951682 g / cm^3
# Si number density = 19.561346 Si / 1000 Ang^3
#
#
#
# Elastic Constant Matrix: (Units=GPa)
#
#
# Indices 1 2 3 4 5 6 
#
# 1 20.7805 -5.2264 -1.7794 0.0000 -1.5340 0.0000
# 2 -5.2264 19.4933 -4.4298 0.0000 -0.4714 0.0000
# 3 -1.7794 -4.4298 97.3399 0.0000 -4.1802 0.0000
# 4 0.0000 0.0000 0.0000 25.0087 0.0000 3.0902
# 5 -1.5340 -0.4714 -4.1802 0.0000 25.0463 0.0000
# 6 0.0000 0.0000 0.0000 3.0902 0.0000 17.5071
#
#
#
# Elastic Compliance Matrix: (Units=1/GPa)
#
#
# Indices 1 2 3 4 5 6 
#
# 1 0.052196 0.014489 0.001775 0.000000 0.003766 0.000000
# 2 0.014489 0.055905 0.002913 0.000000 0.002426 0.000000
# 3 0.001775 0.002913 0.010521 0.000000 0.001919 0.000000
# 4 0.000000 0.000000 0.000000 0.040878 0.000000 -0.007215
# 5 0.003766 0.002426 0.001919 0.000000 0.040523 0.000000
# 6 0.000000 0.000000 0.000000 -0.007215 0.000000 0.058393
#
#
# Mechanical properties :
#
#
# Convention : Reuss Voigt Hill
#
# Bulk Modulus (GPa) = 6.37036 12.74916 9.55976
# Shear Modulus (GPa) = 18.35628 23.44903 20.90266
#
# Velocity S-wave (km/s) = 3.06665 3.46604 3.27244
# Velocity P-wave (km/s) = 3.97527 4.74864 4.37906
#
# Compressibility (1/GPa) = 0.15697691
#
# Stress axis : x y z
#
# Youngs Moduli (GPa) = 19.15848 17.88749 95.05041
#
# Poissons Ratio (x) = -0.25917 -0.16874
# Poissons Ratio (y) = -0.27759 -0.27690
# Poissons Ratio (z) = -0.03401 -0.05211
#
# Static dielectric constant tensor:
#      x y z
#    x 1.677480 0.000000 0.006800 
#    y 0.000000 1.655650 0.000000 
#    z 0.006800 0.000000 1.725030 
# 
# From -- ./inp_files/324218.got.cif
#   From: 2010.05.17/outbox.cif.g08.bks.cpg/sg12_163_cif.got.tgz:324218.got - 2010.06.03 13:09:07.
