data_PCOD9181673
_publ_section_title
;
Structure prediction by ZEFSAII (Michael W. Deem and Ramdas Pophale) SiO2 
 PCOD9181673
Probable space group: C 2/M
;
_chemical_formula_sum "Si O2"
_cell_formula_units_Z 56
_cell_length_a 34.360142
_cell_length_b 8.705411
_cell_length_c 12.847288
_cell_angle_alpha 90.000000
_cell_angle_beta 59.014347
_cell_angle_gamma 90.000000
_cell_volume 3294.477979
_symmetry_space_group_name_H-M "C 2/M"
_symmetry_group_IT_number 12
_symmetry_cell_setting 'monoclinic'
loop_
_space_group_symop_operation_xyz
x,y,z
-x,y,-z
-x,-y,-z
x,-y,z
1/2+x,1/2+y,z
1/2-x,1/2+y,-z
1/2-x,1/2-y,-z
1/2+x,1/2-y,z
loop_
_atom_site_type_symbol
_atom_site_label
_atom_site_fract_x
_atom_site_fract_y
_atom_site_fract_z
Si Si1 0.900871 0.184430 0.106548
Si Si2 0.045315 0.183864 0.172782
Si Si3 0.947875 0.317288 0.244285
Si Si4 0.112533 0.181792 0.487720
Si Si5 0.948787 0.683457 0.607657
Si Si6 0.303625 0.684237 0.326046
Si Si7 0.702253 0.182372 0.435092
O O1 0.929727 0.265649 0.156986
O O2 0.847999 0.221227 0.198045
O O3 0.906266 0.000000 0.112266
O O4 0.919704 0.224715 0.967273
O O5 0.056398 0.262297 0.266963
O O6 0.995639 0.238359 0.204755
O O7 0.045135 0.000000 0.186219
O O8 0.952995 0.500000 0.242152
O O9 0.912031 0.263159 0.380747
O O10 0.086589 0.236174 0.420483
O O11 0.164980 0.231351 0.418290
O O12 0.108416 0.000000 0.506430
O O13 0.943794 0.500000 0.606426
O O14 0.000000 0.722762 0.500000
O O15 0.303775 0.500000 0.346285
O O16 0.306010 0.769249 0.433416
O O17 0.255027 0.721196 0.341831
O O18 0.696125 0.000000 0.432638
#
# Coordination Sequence:
#
# PCOD9181673 Si02
#       7
#     8   8   8   8   8   8   8
#     4  10  21  37  56  81 113 150 186 221 268 327
#     4  11  23  38  57  80 110 149 188 224 268 326
#     4  12  23  35  53  81 113 148 186 225 271 322
#     4  12  23  36  57  81 111 146 181 226 279 328
#     4  11  23  39  59  81 107 141 183 232 275 319
#     4   9  18  33  54  79 112 148 180 220 270 325
#     4  10  19  32  53  83 112 142 181 225 273 323
#
# _framework density 16.998139999999999
#
# number of rings (size 3 to 8) (size 9 to 14) (size 15 to 20)
#    0.000    1.286    2.857    4.286    0.000    4.000 
#    0.000    0.000    0.000    0.857    0.000    0.000 
#    0.000    0.000    0.000    0.000    0.000    0.000 
#
# Total GULP energy -156465.251071 kJ/mol
# GULP energy per Si atom -5588.044681 kJ/mol
# Density = 1.695945 g / cm^3
# Si number density = 16.998140 Si / 1000 Ang^3
#
#
#
# Elastic Constant Matrix: (Units=GPa)
#
#
# Indices 1 2 3 4 5 6 
#
# 1 90.3411 11.7375 19.9830 0.0000 0.4550 0.0000
# 2 11.7375 23.3406 4.8806 0.0000 0.6047 0.0000
# 3 19.9830 4.8806 52.7448 0.0000 13.8624 0.0000
# 4 0.0000 0.0000 0.0000 7.9965 0.0000 -1.0355
# 5 0.4550 0.6047 13.8624 0.0000 19.6948 0.0000
# 6 0.0000 0.0000 0.0000 -1.0355 0.0000 27.5211
#
#
#
# Elastic Compliance Matrix: (Units=1/GPa)
#
#
# Indices 1 2 3 4 5 6 
#
# 1 0.012948 -0.005486 -0.005354 0.000000 0.003638 0.000000
# 2 -0.005486 0.046068 -0.002265 0.000000 0.000307 0.000000
# 3 -0.005354 -0.002265 0.025946 0.000000 -0.018069 0.000000
# 4 0.000000 0.000000 0.000000 0.125667 0.000000 0.004729
# 5 0.003638 0.000307 -0.018069 0.000000 0.063399 0.000000
# 6 0.000000 0.000000 0.000000 0.004729 0.000000 0.036514
#
#
# Mechanical properties :
#
#
# Convention : Reuss Voigt Hill
#
# Bulk Modulus (GPa) = 17.02051 26.62542 21.82297
# Shear Modulus (GPa) = 14.03169 19.69752 16.86460
#
# Velocity S-wave (km/s) = 2.87624 3.40781 3.15325
# Velocity P-wave (km/s) = 4.58969 5.58408 5.11113
#
# Compressibility (1/GPa) = 0.05875263
#
# Stress axis : x y z
#
# Youngs Moduli (GPa) = 77.23291 21.70693 38.54144
#
# Poissons Ratio (x) = 0.11908 0.20635
# Poissons Ratio (y) = 0.42370 0.08729
# Poissons Ratio (z) = 0.41349 0.04917
#
# Static dielectric constant tensor:
#      x y z
#    x 1.567950 0.000000 -0.021820 
#    y 0.000000 1.569630 0.000000 
#    z -0.021820 0.000000 1.555510 
# 
# From -- ./inp_files/186470.got.cif
#   From: 2010.05.17/outbox.cif.g08.bks.cpg/sg12_94_cif.got.tgz:186470.got - 2010.06.03 13:09:07.
