data_PCOD9181782
_publ_section_title
;
Structure prediction by ZEFSAII (Michael W. Deem and Ramdas Pophale) SiO2 
 PCOD9181782
Probable space group: C 2/M
;
_chemical_formula_sum "Si O2"
_cell_formula_units_Z 48
_cell_length_a 15.590825
_cell_length_b 19.060262
_cell_length_c 12.558153
_cell_angle_alpha 90.000000
_cell_angle_beta 43.447948
_cell_angle_gamma 90.000000
_cell_volume 2566.373085
_symmetry_space_group_name_H-M "C 2/M"
_symmetry_group_IT_number 12
_symmetry_cell_setting 'monoclinic'
loop_
_space_group_symop_operation_xyz
x,y,z
-x,y,-z
-x,-y,-z
x,-y,z
1/2+x,1/2+y,z
1/2-x,1/2+y,-z
1/2-x,1/2-y,-z
1/2+x,1/2-y,z
loop_
_atom_site_type_symbol
_atom_site_label
_atom_site_fract_x
_atom_site_fract_y
_atom_site_fract_z
Si Si1 0.816135 0.162050 0.844166
Si Si2 0.348322 0.203235 0.477272
Si Si3 0.500000 0.304161 0.500000
Si Si4 0.667571 0.421716 0.964579
Si Si5 0.854436 0.579612 0.619101
Si Si6 0.500000 0.691640 0.000000
Si Si7 0.947240 0.285127 0.863543
O O1 0.877311 0.229594 0.848855
O O2 0.899269 0.154462 0.663473
O O3 0.830905 0.098740 0.913937
O O4 0.667327 0.176957 0.972292
O O5 0.250000 0.250000 0.500000
O O6 0.417052 0.254840 0.498373
O O7 0.297434 0.137867 0.591869
O O8 0.454905 0.175171 0.299596
O O9 0.615886 0.500000 0.995364
O O10 0.800536 0.418739 0.787017
O O11 0.598130 0.361078 0.962773
O O12 0.833889 0.500000 0.597791
O O13 0.000000 0.593901 0.500000
O O14 0.529457 0.742663 0.875383
#
# Coordination Sequence:
#
# PCOD9181782 Si02
#       7
#     8   8   4   8   8   4   8
#     4   9  19  34  52  73 108 141 179 222 274 329
#     4  11  21  33  55  85 117 147 186 234 280 331
#     4  10  22  36  54  82 110 140 186 240 280 324
#     4  10  20  34  54  78 107 144 180 219 273 337
#     4  10  20  34  55  83 116 147 179 229 287 337
#     4  10  19  32  54  80 107 132 178 232 278 316
#     4   9  19  31  51  79 106 142 174 225 279 324
#
# _framework density 18.703437000000001
#
# number of rings (size 3 to 8) (size 9 to 14) (size 15 to 20)
#    0.000    2.167    0.833    2.250    9.333    0.000 
#    0.000    0.417    0.000    1.000    0.000    1.167 
#    0.000    0.000    0.000    0.000    0.000    0.000 
#
# Total GULP energy -133620.179531 kJ/mol
# GULP energy per Si atom -5567.507480 kJ/mol
# Density = 1.866087 g / cm^3
# Si number density = 18.703437 Si / 1000 Ang^3
#
#
#
# Elastic Constant Matrix: (Units=GPa)
#
#
# Indices 1 2 3 4 5 6 
#
# 1 81.5035 29.9267 28.6386 0.0000 7.4289 0.0000
# 2 29.9267 56.0605 36.5897 0.0000 11.2362 0.0000
# 3 28.6386 36.5897 138.2909 0.0000 26.9695 0.0000
# 4 0.0000 0.0000 0.0000 24.8933 0.0000 7.6575
# 5 7.4289 11.2362 26.9695 0.0000 17.0343 0.0000
# 6 0.0000 0.0000 0.0000 7.6575 0.0000 25.8150
#
#
#
# Elastic Compliance Matrix: (Units=1/GPa)
#
#
# Indices 1 2 3 4 5 6 
#
# 1 0.015432 -0.007452 -0.001259 0.000000 0.000179 0.000000
# 2 -0.007452 0.025845 -0.003767 0.000000 -0.007833 0.000000
# 3 -0.001259 -0.003767 0.011424 0.000000 -0.015054 0.000000
# 4 0.000000 0.000000 0.000000 0.044205 0.000000 -0.013113
# 5 0.000179 -0.007833 -0.015054 0.000000 0.087628 0.000000
# 6 0.000000 0.000000 0.000000 -0.013113 0.000000 0.042627
#
#
# Mechanical properties :
#
#
# Convention : Reuss Voigt Hill
#
# Bulk Modulus (GPa) = 36.04311 51.79611 43.91961
# Shear Modulus (GPa) = 19.13032 25.59517 22.36274
#
# Velocity S-wave (km/s) = 3.20163 3.70330 3.46157
# Velocity P-wave (km/s) = 5.74282 6.78524 6.28567
#
# Compressibility (1/GPa) = 0.02774455
#
# Stress axis : x y z
#
# Youngs Moduli (GPa) = 64.80157 38.69243 87.53239
#
# Poissons Ratio (x) = 0.28834 0.11019
# Poissons Ratio (y) = 0.48290 0.32976
# Poissons Ratio (z) = 0.08158 0.14576
#
# Static dielectric constant tensor:
#      x y z
#    x 1.654560 0.000000 -0.005400 
#    y 0.000000 1.659290 0.000000 
#    z -0.005400 0.000000 1.713400 
# 
# From -- ./inp_files/147965.got.cif
#   From: 2010.05.17/outbox.cif.g08.bks.cpg/sg12_74_cif.got.tgz:147965.got - 2010.06.03 13:09:07.
