data_PCOD9181911
_publ_section_title
;
Structure prediction by ZEFSAII (Michael W. Deem and Ramdas Pophale) SiO2 
 PCOD9181911
Probable space group: C 2/M
;
_chemical_formula_sum "Si O2"
_cell_formula_units_Z 58
_cell_length_a 14.156296
_cell_length_b 14.014926
_cell_length_c 10.765320
_cell_angle_alpha 90.000000
_cell_angle_beta 78.159600
_cell_angle_gamma 90.000000
_cell_volume 2090.389239
_symmetry_space_group_name_H-M "C 2/M"
_symmetry_group_IT_number 12
_symmetry_cell_setting 'monoclinic'
loop_
_space_group_symop_operation_xyz
x,y,z
-x,y,-z
-x,-y,-z
x,-y,z
1/2+x,1/2+y,z
1/2-x,1/2+y,-z
1/2-x,1/2-y,-z
1/2+x,1/2-y,z
loop_
_atom_site_type_symbol
_atom_site_label
_atom_site_fract_x
_atom_site_fract_y
_atom_site_fract_z
Si Si1 0.362706 0.891312 0.555724
Si Si2 0.962309 0.806596 0.817337
Si Si3 0.216672 0.888850 0.016001
Si Si4 0.373334 0.680387 0.564260
Si Si5 0.972263 0.398247 0.790010
Si Si6 0.000000 0.000000 0.500000
Si Si7 0.799761 0.609509 0.248525
Si Si8 0.825713 0.888101 0.238148
O O1 0.389441 0.784611 0.499610
O O2 0.427801 0.897985 0.663905
O O3 0.252315 0.880905 0.632133
O O4 0.371733 0.000000 0.496854
O O5 0.943245 0.698447 0.865012
O O6 0.074685 0.831538 0.783958
O O7 0.895858 0.873115 0.919690
O O8 0.922524 0.816934 0.688388
O O9 0.276462 0.851512 0.117372
O O10 0.237702 0.000000 0.007021
O O11 0.230540 0.856751 0.871723
O O12 0.419838 0.585722 0.493020
O O13 0.262271 0.663235 0.631654
O O14 0.945620 0.500000 0.856354
O O15 0.087798 0.392468 0.755046
O O16 0.762874 0.500000 0.260681
O O17 0.851154 0.000000 0.218973
#
# Coordination Sequence:
#
# PCOD9181911 Si02
#       8
#     8   8   8   8   8   2   8   8
#     4   9  19  37  58  84 113 154 198 227 275 342
#     4  10  19  32  54  83 114 152 190 238 291 340
#     4   9  18  31  50  81 117 150 197 246 286 324
#     4  10  21  37  59  90 115 142 182 236 294 349
#     4   9  18  33  53  75 102 151 204 229 269 333
#     4  12  24  40  66  96 118 134 178 242 302 356
#     4   9  16  32  56  81 113 154 194 237 289 337
#     4  10  19  32  55  83 114 156 196 239 278 334
#
# _framework density 27.746029
#
# number of rings (size 3 to 8) (size 9 to 14) (size 15 to 20)
#    0.000    2.483    0.690    1.655    1.931    1.103 
#    0.000   14.828    0.000   16.552    0.000    0.000 
#    0.000    0.000    0.000    0.000    0.000    0.000 
#
# Total GULP energy -162211.427140 kJ/mol
# GULP energy per Si atom -5593.497488 kJ/mol
# Density = 2.768288 g / cm^3
# Si number density = 27.746029 Si / 1000 Ang^3
#
#
#
# Elastic Constant Matrix: (Units=GPa)
#
#
# Indices 1 2 3 4 5 6 
#
# 1 171.7303 28.1830 40.0803 0.0000 -12.3955 0.0000
# 2 28.1830 247.6796 28.5188 0.0000 -13.1760 0.0000
# 3 40.0803 28.5188 103.5653 0.0000 10.9200 0.0000
# 4 0.0000 0.0000 0.0000 -22.7814 0.0000 13.4665
# 5 -12.3955 -13.1760 10.9200 0.0000 45.4786 0.0000
# 6 0.0000 0.0000 0.0000 13.4665 0.0000 16.0600
#
#
#
# Elastic Compliance Matrix: (Units=1/GPa)
#
#
# Indices 1 2 3 4 5 6 
#
# 1 0.006691 -0.000317 -0.002754 0.000000 0.002393 0.000000
# 2 -0.000317 0.004290 -0.001211 0.000000 0.001447 0.000000
# 3 -0.002754 -0.001211 0.011462 0.000000 -0.003854 0.000000
# 4 0.000000 0.000000 0.000000 -0.029349 0.000000 0.024609
# 5 0.002393 0.001447 -0.003854 0.000000 0.023985 0.000000
# 6 0.000000 0.000000 0.000000 0.024609 0.000000 0.041631
#
#
# Mechanical properties :
#
#
# Convention : Reuss Voigt Hill
#
# Bulk Modulus (GPa) = 72.06109 79.61550 75.83829
# Shear Modulus (GPa) = 69.53966 36.16430 52.85198
#
# Velocity S-wave (km/s) = 5.01172 3.61419 4.36919
# Velocity P-wave (km/s) = 7.71478 6.79508 7.26949
#
# Compressibility (1/GPa) = 0.01387711
#
# Stress axis : x y z
#
# Youngs Moduli (GPa) = 149.46171 233.10008 87.24769
#
# Poissons Ratio (x) = 0.07386 0.24032
# Poissons Ratio (y) = 0.04736 0.10569
# Poissons Ratio (z) = 0.41168 0.28236
#
# Static dielectric constant tensor:
#      x y z
#    x 2.147730 0.000000 0.057860 
#    y 0.000000 2.141600 0.000000 
#    z 0.057860 0.000000 2.142300 
# 
# From -- ./inp_files/214790.got.cif
#   From: 2010.05.17/outbox.cif.g08.bks.cpg/sg12_108_cif.got.tgz:214790.got - 2010.06.03 13:09:07.
