data_PCOD9181924
_publ_section_title
;
Structure prediction by ZEFSAII (Michael W. Deem and Ramdas Pophale) SiO2 
 PCOD9181924
Probable space group: C 2/M
;
_chemical_formula_sum "Si O2"
_cell_formula_units_Z 64
_cell_length_a 17.936231
_cell_length_b 8.021208
_cell_length_c 19.112534
_cell_angle_alpha 90.000000
_cell_angle_beta 76.145958
_cell_angle_gamma 90.000000
_cell_volume 2669.732217
_symmetry_space_group_name_H-M "C 2/M"
_symmetry_group_IT_number 12
_symmetry_cell_setting 'monoclinic'
loop_
_space_group_symop_operation_xyz
x,y,z
-x,y,-z
-x,-y,-z
x,-y,z
1/2+x,1/2+y,z
1/2-x,1/2+y,-z
1/2-x,1/2-y,-z
1/2+x,1/2-y,z
loop_
_atom_site_type_symbol
_atom_site_label
_atom_site_fract_x
_atom_site_fract_y
_atom_site_fract_z
Si Si1 0.311254 0.700589 0.609544
Si Si2 0.119907 0.684031 0.063385
Si Si3 0.135928 0.303618 0.659374
Si Si4 0.927775 0.300471 0.470605
Si Si5 0.396285 0.811876 0.727060
Si Si6 0.094982 0.701814 0.914235
Si Si7 0.013115 0.759134 0.803437
Si Si8 0.726275 0.313533 0.147458
O O1 0.311405 0.500000 0.610713
O O2 0.223571 0.761868 0.641735
O O3 0.349003 0.763653 0.529506
O O4 0.369020 0.763782 0.656634
O O5 0.152837 0.500000 0.042652
O O6 0.184337 0.799399 0.082129
O O7 0.055450 0.669069 0.137678
O O8 0.083747 0.739609 0.998450
O O9 0.144851 0.500000 0.643791
O O10 0.086259 0.235768 0.605061
O O11 0.087869 0.291690 0.741882
O O12 0.939428 0.500000 0.463618
O O13 0.000000 0.233586 0.500000
O O14 0.930207 0.500000 0.719284
O O15 0.457068 0.690049 0.751656
O O16 0.318863 0.805979 0.790404
O O17 0.076748 0.500000 0.907544
O O18 0.054060 0.815996 0.865946
O O19 0.185224 0.720383 0.881141
O O20 0.716775 0.500000 0.178300
#
# Coordination Sequence:
#
# PCOD9181924 Si02
#       8
#     8   8   8   8   8   8   8   8
#     4  11  23  39  61  88 121 156 188 229 283 345
#     4  10  20  34  56  84 112 146 191 242 290 343
#     4  10  20  35  58  88 118 151 191 235 286 339
#     4  10  21  39  64  91 119 153 195 239 280 328
#     4  11  22  37  60  86 114 150 194 244 289 336
#     4  10  19  32  54  84 113 145 190 242 294 345
#     4  11  20  34  57  84 112 145 193 247 291 336
#     4  10  20  35  56  80 112 152 190 235 292 352
#
# _framework density 23.972441
#
# number of rings (size 3 to 8) (size 9 to 14) (size 15 to 20)
#    0.000    1.625    0.000    6.750    0.000    4.250 
#    0.000    1.250    0.000   31.500    0.000    0.000 
#    0.000    0.000    0.000    0.000    0.000    0.000 
#
# Total GULP energy -178263.774398 kJ/mol
# GULP energy per Si atom -5570.742950 kJ/mol
# Density = 2.391788 g / cm^3
# Si number density = 23.972441 Si / 1000 Ang^3
#
#
#
# Elastic Constant Matrix: (Units=GPa)
#
#
# Indices 1 2 3 4 5 6 
#
# 1 102.8966 11.8770 27.5814 0.0000 4.4063 0.0000
# 2 11.8770 39.8987 8.1854 0.0000 7.5427 0.0000
# 3 27.5814 8.1854 148.9592 0.0000 11.5009 0.0000
# 4 0.0000 0.0000 0.0000 3.3816 0.0000 -7.3163
# 5 4.4063 7.5427 11.5009 0.0000 41.0512 0.0000
# 6 0.0000 0.0000 0.0000 -7.3163 0.0000 15.0255
#
#
#
# Elastic Compliance Matrix: (Units=1/GPa)
#
#
# Indices 1 2 3 4 5 6 
#
# 1 0.010519 -0.002741 -0.001788 0.000000 -0.000125 0.000000
# 2 -0.002741 0.026851 -0.000623 -0.000002 -0.004465 -0.000001
# 3 -0.001788 -0.000623 0.007211 0.000000 -0.001714 0.000000
# 4 0.000000 -0.000002 0.000000 -5.527110 0.000000 -2.691301
# 5 -0.000125 -0.004465 -0.001714 0.000000 0.025674 0.000000
# 6 0.000000 -0.000001 0.000000 -2.691301 0.000000 -1.243915
#
#
# Mechanical properties :
#
#
# Convention : Reuss Voigt Hill
#
# Bulk Modulus (GPa) = 29.17341 43.00469 36.08905
# Shear Modulus (GPa) = -0.74861 28.16570 13.70854
#
# Velocity S-wave (km/s) = -0.55943 3.43143 2.39392
# Velocity P-wave (km/s) = 3.43201 5.80326 4.76741
#
# Compressibility (1/GPa) = 0.03427779
#
# Stress axis : x y z
#
# Youngs Moduli (GPa) = 95.06272 37.24207 138.68099
#
# Poissons Ratio (x) = 0.10208 0.24790
# Poissons Ratio (y) = 0.26058 0.08643
# Poissons Ratio (z) = 0.16993 0.02321
#
# Static dielectric constant tensor:
#      x y z
#    x 1.919230 0.000000 0.027850 
#    y 0.000000 1.920340 0.000000 
#    z 0.027850 0.000000 1.935100 
# 
# From -- ./inp_files/269290.got.cif
#   From: 2010.05.17/outbox.cif.g08.bks.cpg/sg12_135_cif.got.tgz:269290.got - 2010.06.03 13:09:07.
