data_PCOD9181984
_publ_section_title
;
Structure prediction by ZEFSAII (Michael W. Deem and Ramdas Pophale) SiO2 
 PCOD9181984
Probable space group: C 2/M
;
_chemical_formula_sum "Si O2"
_cell_formula_units_Z 56
_cell_length_a 19.240724
_cell_length_b 7.653807
_cell_length_c 30.609879
_cell_angle_alpha 90.000000
_cell_angle_beta 142.842277
_cell_angle_gamma 90.000000
_cell_volume 2722.735978
_symmetry_space_group_name_H-M "C 2/M"
_symmetry_group_IT_number 12
_symmetry_cell_setting 'monoclinic'
loop_
_space_group_symop_operation_xyz
x,y,z
-x,y,-z
-x,-y,-z
x,-y,z
1/2+x,1/2+y,z
1/2-x,1/2+y,-z
1/2-x,1/2-y,-z
1/2+x,1/2-y,z
loop_
_atom_site_type_symbol
_atom_site_label
_atom_site_fract_x
_atom_site_fract_y
_atom_site_fract_z
Si Si1 0.472374 0.705303 0.707442
Si Si2 0.567175 0.292609 0.992205
Si Si3 0.615116 0.710490 0.429133
Si Si4 0.041884 0.786211 0.569000
Si Si5 0.166319 0.788125 0.868514
Si Si6 0.803747 0.707154 0.701005
Si Si7 0.004224 0.210624 0.865445
O O1 0.493835 0.500000 0.711381
O O2 0.435441 0.779097 0.642187
O O3 0.586721 0.776092 0.788547
O O4 0.370373 0.720369 0.692009
O O5 0.543024 0.500000 0.978622
O O6 0.702838 0.269112 0.066418
O O7 0.500000 0.217892 0.000000
O O8 0.526306 0.220902 0.924981
O O9 0.605132 0.500000 0.423688
O O10 0.750000 0.750000 0.500000
O O11 0.542554 0.773362 0.434616
O O12 0.173747 0.728565 0.641239
O O13 0.000000 0.732520 0.500000
O O14 0.040638 0.000000 0.569117
O O15 0.102476 0.728917 0.880826
O O16 0.163984 0.000000 0.866901
O O17 0.798511 0.500000 0.691733
O O18 0.882980 0.743401 0.782672
O O19 0.011069 0.000000 0.869789
#
# Coordination Sequence:
#
# PCOD9181984 Si02
#       7
#     8   8   8   8   8   8   8
#     4   9  19  35  53  75 105 136 164 205 261 306
#     4  10  21  35  51  74 104 136 168 207 257 303
#     4  10  20  35  54  75 103 138 173 209 251 300
#     4   9  18  32  50  74 104 134 165 207 253 292
#     4   9  18  33  53  74  97 132 173 209 250 300
#     4  10  19  32  55  81 100 128 172 212 248 300
#     4   9  19  36  54  73 103 137 166 205 257 304
#
# _framework density 20.567547999999999
#
# number of rings (size 3 to 8) (size 9 to 14) (size 15 to 20)
#    0.000    2.571    0.000    2.571    0.000    6.000 
#    0.000    2.857    0.000    3.857    0.000    0.000 
#    0.000    0.000    0.000    0.000    0.000    0.000 
#
# Total GULP energy -156307.555207 kJ/mol
# GULP energy per Si atom -5582.412686 kJ/mol
# Density = 2.052074 g / cm^3
# Si number density = 20.567548 Si / 1000 Ang^3
#
#
#
# Elastic Constant Matrix: (Units=GPa)
#
#
# Indices 1 2 3 4 5 6 
#
# 1 149.5814 -5.9987 137.7406 0.0001 -6.6699 0.0002
# 2 -5.9987 33.9167 -6.1603 0.0002 -8.8470 0.0003
# 3 137.7406 -6.1603 186.7111 0.0001 -14.9290 0.0000
# 4 0.0001 0.0002 0.0001 14.5843 0.0000 13.7512
# 5 -6.6699 -8.8470 -14.9290 0.0000 39.7846 0.0000
# 6 0.0002 0.0003 0.0000 13.7512 0.0000 1.7954
#
#
#
# Elastic Compliance Matrix: (Units=1/GPa)
#
#
# Indices 1 2 3 4 5 6 
#
# 1 0.021064 0.000270 -0.015715 0.000000 -0.002306 0.000000
# 2 0.000270 0.031797 0.001463 -0.000001 0.007665 0.000000
# 3 -0.015715 0.001463 0.017333 0.000000 0.004195 0.000000
# 4 0.000000 -0.000001 0.000000 -0.011021 0.000000 0.084409
# 5 -0.002306 0.007665 0.004195 0.000000 0.028027 0.000000
# 6 0.000000 0.000000 0.000000 0.084409 0.000000 -0.089523
#
#
# Mechanical properties :
#
#
# Convention : Reuss Voigt Hill
#
# Bulk Modulus (GPa) = 23.68018 69.04137 46.36078
# Shear Modulus (GPa) = 125.88603 27.54138 76.71370
#
# Velocity S-wave (km/s) = 7.83192 3.66330 6.11387
# Velocity P-wave (km/s) = 9.66042 7.17872 8.51051
#
# Compressibility (1/GPa) = 0.04222940
#
# Stress axis : x y z
#
# Youngs Moduli (GPa) = 47.47336 31.44971 57.69378
#
# Poissons Ratio (x) = -0.00849 0.90666
# Poissons Ratio (y) = -0.01281 -0.08440
# Poissons Ratio (z) = 0.74605 -0.04601
#
# Static dielectric constant tensor:
#      x y z
#    x 1.708570 0.000000 -0.025530 
#    y 0.000000 1.767690 0.000000 
#    z -0.025530 0.000000 1.720770 
# 
# From -- ./inp_files/363253.got.cif
#   From: 2010.05.17/outbox.cif.g08.bks.cpg/sg12_182_cif.got.tgz:363253.got - 2010.06.03 13:09:07.
