data_PCOD9181655
_publ_section_title
;
Structure prediction by ZEFSAII (Michael W. Deem and Ramdas Pophale) SiO2 
 PCOD9181655
Probable space group: C 2/M
;
_chemical_formula_sum "Si O2"
_cell_formula_units_Z 64
_cell_length_a 20.730404
_cell_length_b 8.590778
_cell_length_c 25.100549
_cell_angle_alpha 90.000000
_cell_angle_beta 126.193704
_cell_angle_gamma 90.000000
_cell_volume 3607.535241
_symmetry_space_group_name_H-M "C 2/M"
_symmetry_group_IT_number 12
_symmetry_cell_setting 'monoclinic'
loop_
_space_group_symop_operation_xyz
x,y,z
-x,y,-z
-x,-y,-z
x,-y,z
1/2+x,1/2+y,z
1/2-x,1/2+y,-z
1/2-x,1/2-y,-z
1/2+x,1/2-y,z
loop_
_atom_site_type_symbol
_atom_site_label
_atom_site_fract_x
_atom_site_fract_y
_atom_site_fract_z
Si Si1 0.707338 0.813200 0.426821
Si Si2 0.025604 0.689567 0.321954
Si Si3 0.869040 0.311026 0.302237
Si Si4 0.274515 0.313346 0.847033
Si Si5 0.961423 0.687809 0.173675
Si Si6 0.783808 0.815162 0.071618
Si Si7 0.746339 0.812911 0.663166
Si Si8 0.380973 0.186656 0.808541
O O1 0.750000 0.750000 0.500000
O O2 0.614958 0.758040 0.378352
O O3 0.749587 0.756023 0.393511
O O4 0.707445 0.000000 0.427843
O O5 0.026836 0.500000 0.323616
O O6 0.957005 0.743499 0.329274
O O7 0.997607 0.732863 0.248872
O O8 0.870833 0.500000 0.303258
O O9 0.805271 0.266789 0.225292
O O10 0.830757 0.262832 0.339642
O O11 0.277952 0.500000 0.848987
O O12 0.264871 0.251220 0.901674
O O13 0.348300 0.248128 0.848807
O O14 0.951185 0.500000 0.169096
O O15 0.875825 0.763252 0.122975
O O16 0.028288 0.728040 0.162369
O O17 0.778313 0.000000 0.069193
O O18 0.750000 0.750000 0.000000
O O19 0.822513 0.756212 0.734719
O O20 0.747772 0.000000 0.661434
O O21 0.374072 0.000000 0.803251
#
# Coordination Sequence:
#
# PCOD9181655 Si02
#       8
#     8   8   8   8   8   8   8   8
#     4  11  22  37  56  79 110 151 188 232 287 346
#     4   9  16  32  57  82 107 142 187 230 279 333
#     4   8  15  29  54  82 106 136 181 229 272 323
#     4  10  19  35  58  84 116 151 188 235 286 339
#     4  10  19  36  60  85 115 150 190 236 283 338
#     4  12  25  40  59  85 117 154 192 235 286 345
#     4  10  19  32  53  82 112 145 185 233 284 338
#     4  10  19  33  56  87 119 151 188 234 285 337
#
# _framework density 17.740645000000001
#
# number of rings (size 3 to 8) (size 9 to 14) (size 15 to 20)
#    0.000    2.000    2.500    3.375    0.000    1.000 
#    0.000    1.250    0.000    7.500    0.000    0.000 
#    0.000    0.000    0.000    0.000    0.000    0.000 
#
# Total GULP energy -178593.455021 kJ/mol
# GULP energy per Si atom -5581.045469 kJ/mol
# Density = 1.770027 g / cm^3
# Si number density = 17.740645 Si / 1000 Ang^3
#
#
#
# Elastic Constant Matrix: (Units=GPa)
#
#
# Indices 1 2 3 4 5 6 
#
# 1 151.1471 39.2056 61.7015 0.0000 -20.3041 0.0000
# 2 39.2056 56.9060 28.7064 0.0000 -6.7451 0.0000
# 3 61.7015 28.7064 96.0326 0.0000 -15.0132 0.0000
# 4 0.0000 0.0000 0.0000 26.9692 0.0000 -3.3496
# 5 -20.3041 -6.7451 -15.0132 0.0000 29.1040 0.0000
# 6 0.0000 0.0000 0.0000 -3.3496 0.0000 29.0505
#
#
#
# Elastic Compliance Matrix: (Units=1/GPa)
#
#
# Indices 1 2 3 4 5 6 
#
# 1 0.010095 -0.004166 -0.004667 0.000000 0.003670 0.000000
# 2 -0.004166 0.022494 -0.004010 0.000000 0.000238 0.000000
# 3 -0.004667 -0.004010 0.015180 0.000000 0.003645 0.000000
# 4 0.000000 0.000000 0.000000 0.037618 0.000000 0.004337
# 5 0.003670 0.000238 0.003645 0.000000 0.038855 0.000000
# 6 0.000000 0.000000 0.000000 0.004337 0.000000 0.034923
#
#
# Mechanical properties :
#
#
# Convention : Reuss Voigt Hill
#
# Bulk Modulus (GPa) = 45.28306 62.59028 53.93667
# Shear Modulus (GPa) = 26.01290 28.65621 27.33456
#
# Velocity S-wave (km/s) = 3.83337 4.02342 3.92954
# Velocity P-wave (km/s) = 6.72112 7.54594 7.14544
#
# Compressibility (1/GPa) = 0.02208331
#
# Stress axis : x y z
#
# Youngs Moduli (GPa) = 99.06196 44.45631 65.87429
#
# Poissons Ratio (x) = 0.18518 0.30744
# Poissons Ratio (y) = 0.41265 0.26418
# Poissons Ratio (z) = 0.46233 0.17828
#
# Static dielectric constant tensor:
#      x y z
#    x 1.625510 0.000000 -0.001290 
#    y 0.000000 1.604320 0.000000 
#    z -0.001290 0.000000 1.569000 
# 
# From -- ./inp_files/346232.got.cif
#   From: 2010.05.17/outbox.cif.g08.bks.cpg/sg12_174_cif.got.tgz:346232.got - 2010.06.03 13:09:07.
