data_PCOD9181585
_publ_section_title
;
Structure prediction by ZEFSAII (Michael W. Deem and Ramdas Pophale) SiO2 
 PCOD9181585
Probable space group: C 2/M
;
_chemical_formula_sum "Si O2"
_cell_formula_units_Z 56
_cell_length_a 20.720782
_cell_length_b 15.232278
_cell_length_c 8.152262
_cell_angle_alpha 90.000000
_cell_angle_beta 107.151441
_cell_angle_gamma 90.000000
_cell_volume 2458.628063
_symmetry_space_group_name_H-M "C 2/M"
_symmetry_group_IT_number 12
_symmetry_cell_setting 'monoclinic'
loop_
_space_group_symop_operation_xyz
x,y,z
-x,y,-z
-x,-y,-z
x,-y,z
1/2+x,1/2+y,z
1/2-x,1/2+y,-z
1/2-x,1/2-y,-z
1/2+x,1/2-y,z
loop_
_atom_site_type_symbol
_atom_site_label
_atom_site_fract_x
_atom_site_fract_y
_atom_site_fract_z
Si Si1 0.038102 0.100896 0.705852
Si Si2 0.352814 0.720798 0.363094
Si Si3 0.611823 0.900680 0.158192
Si Si4 0.071521 0.777655 0.229367
Si Si5 0.247366 0.403515 0.423027
Si Si6 0.293185 0.161822 0.067060
Si Si7 0.177714 0.094491 0.174654
O O1 0.106929 0.152168 0.720720
O O2 0.000000 0.098009 0.500000
O O3 0.992917 0.160633 0.791425
O O4 0.046304 0.000000 0.764762
O O5 0.393634 0.728211 0.563813
O O6 0.281588 0.676191 0.353830
O O7 0.340279 0.809655 0.255356
O O8 0.561716 0.820938 0.158572
O O9 0.667407 0.899143 0.346553
O O10 0.585483 0.000000 0.123164
O O11 0.658747 0.875555 0.037501
O O12 0.124248 0.827406 0.149505
O O13 0.268037 0.500000 0.371477
O O14 0.277336 0.399055 0.626572
O O15 0.232645 0.098322 0.073637
O O16 0.250000 0.250000 0.000000
O O17 0.142367 0.000000 0.152584
#
# Coordination Sequence:
#
# PCOD9181585 Si02
#       7
#     8   8   8   8   8   8   8
#     4   9  18  34  59  89 115 141 177 224 278 331
#     4  10  19  33  56  81 112 145 179 222 273 331
#     4  11  22  36  54  77 108 146 187 229 277 326
#     4  10  19  35  58  83 109 143 183 230 275 323
#     4   9  17  30  51  81 109 138 177 222 270 327
#     4  12  21  34  51  76 112 151 180 224 272 327
#     4  10  19  32  53  80 112 144 180 223 274 329
#
# _framework density 22.776928999999999
#
# number of rings (size 3 to 8) (size 9 to 14) (size 15 to 20)
#    0.000    1.857    2.857    2.143    0.000    5.714 
#    0.000    1.429    0.000    7.286    0.000    0.000 
#    0.000    0.000    0.000    0.000    0.000    0.000 
#
# Total GULP energy -156490.249495 kJ/mol
# GULP energy per Si atom -5588.937482 kJ/mol
# Density = 2.272509 g / cm^3
# Si number density = 22.776929 Si / 1000 Ang^3
#
#
#
# Elastic Constant Matrix: (Units=GPa)
#
#
# Indices 1 2 3 4 5 6 
#
# 1 59.2910 44.1462 19.4150 0.0000 -8.0160 0.0000
# 2 44.1462 175.1544 27.1371 0.0000 -23.8518 0.0000
# 3 19.4150 27.1371 64.8870 0.0000 2.1479 0.0000
# 4 0.0000 0.0000 0.0000 14.8350 0.0000 -17.7867
# 5 -8.0160 -23.8518 2.1479 0.0000 36.8595 0.0000
# 6 0.0000 0.0000 0.0000 -17.7867 0.0000 22.6754
#
#
#
# Elastic Compliance Matrix: (Units=1/GPa)
#
#
# Indices 1 2 3 4 5 6 
#
# 1 0.022102 -0.004536 -0.004787 0.000000 0.002150 0.000000
# 2 -0.004536 0.007727 -0.002011 0.000000 0.004131 0.000000
# 3 -0.004787 -0.002011 0.017797 0.000000 -0.003379 0.000000
# 4 0.000000 0.000000 0.000000 1.132628 0.000000 0.888442
# 5 0.002150 0.004131 -0.003379 0.000000 0.030467 0.000000
# 6 0.000000 0.000000 0.000000 0.888442 0.000000 0.741001
#
#
# Mechanical properties :
#
#
# Convention : Reuss Voigt Hill
#
# Bulk Modulus (GPa) = 40.06956 53.41432 46.74194
# Shear Modulus (GPa) = 2.52180 28.78291 15.65236
#
# Velocity S-wave (km/s) = 1.05337 3.55869 2.62430
# Velocity P-wave (km/s) = 4.37148 6.35513 5.45424
#
# Compressibility (1/GPa) = 0.02495660
#
# Stress axis : x y z
#
# Youngs Moduli (GPa) = 45.24547 129.42388 56.19029
#
# Poissons Ratio (x) = 0.58707 0.26900
# Poissons Ratio (y) = 0.20523 0.11299
# Poissons Ratio (z) = 0.21660 0.26026
#
# Static dielectric constant tensor:
#      x y z
#    x 1.805830 0.000000 0.028610 
#    y 0.000000 1.866280 0.000000 
#    z 0.028610 0.000000 1.918650 
# 
# From -- ./inp_files/86346.got.cif
#   From: 2010.05.17/outbox.cif.g08.bks.cpg/sg12_44_cif.got.tgz:86346.got - 2010.06.03 13:09:07.
