data_PCOD9181245
_publ_section_title
;
Structure prediction by ZEFSAII (Michael W. Deem and Ramdas Pophale) SiO2 
 PCOD9181245
Probable space group: C 2/M
;
_chemical_formula_sum "Si O2"
_cell_formula_units_Z 64
_cell_length_a 20.477383
_cell_length_b 8.801609
_cell_length_c 20.943060
_cell_angle_alpha 90.000000
_cell_angle_beta 96.275799
_cell_angle_gamma 90.000000
_cell_volume 3752.029113
_symmetry_space_group_name_H-M "C 2/M"
_symmetry_group_IT_number 12
_symmetry_cell_setting 'monoclinic'
loop_
_space_group_symop_operation_xyz
x,y,z
-x,y,-z
-x,-y,-z
x,-y,z
1/2+x,1/2+y,z
1/2-x,1/2+y,-z
1/2-x,1/2-y,-z
1/2+x,1/2-y,z
loop_
_atom_site_type_symbol
_atom_site_label
_atom_site_fract_x
_atom_site_fract_y
_atom_site_fract_z
Si Si1 0.696276 0.683033 0.946568
Si Si2 0.443694 0.317437 0.542238
Si Si3 0.161829 0.317965 0.669331
Si Si4 0.322133 0.318716 0.196754
Si Si5 0.457336 0.682891 0.057682
Si Si6 0.492341 0.181272 0.330447
Si Si7 0.193091 0.817455 0.537324
Si Si8 0.034087 0.318302 0.810542
O O1 0.698081 0.500000 0.950347
O O2 0.711345 0.725771 0.874102
O O3 0.620238 0.728240 0.954234
O O4 0.750000 0.750000 0.000000
O O5 0.500000 0.261961 0.500000
O O6 0.446251 0.500000 0.544341
O O7 0.459969 0.257082 0.613878
O O8 0.374693 0.272705 0.504731
O O9 0.164746 0.500000 0.668064
O O10 0.195503 0.258973 0.738120
O O11 0.192046 0.247978 0.608741
O O12 0.083943 0.273691 0.663938
O O13 0.317959 0.500000 0.203143
O O14 0.397223 0.267997 0.192825
O O15 0.458312 0.500000 0.066227
O O16 0.488878 0.761197 0.123319
O O17 0.500000 0.720298 0.000000
O O18 0.506855 0.216469 0.257761
O O19 0.495497 0.000000 0.338525
O O20 0.250000 0.750000 0.500000
O O21 0.196845 0.000000 0.540470
O O22 0.045365 0.500000 0.812542
#
# Coordination Sequence:
#
# PCOD9181245 Si02
#       8
#     8   8   8   8   8   8   8   8
#     4   9  18  31  50  76 103 132 167 208 254 300
#     4  10  20  34  53  79 104 130 170 213 253 302
#     4  10  19  32  52  79 105 133 171 214 259 305
#     4   9  17  30  49  74 102 134 173 211 252 300
#     4   9  18  33  52  74 101 135 174 209 249 303
#     4   9  18  30  49  77 106 132 164 211 260 302
#     4  11  23  38  55  76 105 139 174 212 257 310
#     4   9  17  29  46  75 106 132 168 209 256 303
#
# _framework density 17.057438000000001
#
# number of rings (size 3 to 8) (size 9 to 14) (size 15 to 20)
#    0.000    2.500    1.250    3.000    0.000    6.500 
#    0.000    0.000    2.750    0.000    0.000    0.000 
#    0.000    0.000    0.000    0.000    0.000    0.000 
#
# Total GULP energy -178281.124058 kJ/mol
# GULP energy per Si atom -5571.285127 kJ/mol
# Density = 1.701861 g / cm^3
# Si number density = 17.057438 Si / 1000 Ang^3
#
#
#
# Elastic Constant Matrix: (Units=GPa)
#
#
# Indices 1 2 3 4 5 6 
#
# 1 68.6391 27.3368 66.2158 0.0000 -1.5798 0.0000
# 2 27.3368 30.1315 47.1189 0.0000 -0.7980 0.0000
# 3 66.2158 47.1189 188.0503 0.0000 3.7511 0.0000
# 4 0.0000 0.0000 0.0000 35.6315 0.0000 2.5447
# 5 -1.5798 -0.7980 3.7511 0.0000 26.9828 0.0000
# 6 0.0000 0.0000 0.0000 2.5447 0.0000 20.4936
#
#
#
# Elastic Compliance Matrix: (Units=1/GPa)
#
#
# Indices 1 2 3 4 5 6 
#
# 1 0.025713 -0.014906 -0.005355 0.000000 0.001809 0.000000
# 2 -0.014906 0.063547 -0.010724 0.000000 0.002497 0.000000
# 3 -0.005355 -0.010724 0.009931 0.000000 -0.002011 0.000000
# 4 0.000000 0.000000 0.000000 0.028316 0.000000 -0.003516
# 5 0.001809 0.002497 -0.002011 0.000000 0.037520 0.000000
# 6 0.000000 0.000000 0.000000 -0.003516 0.000000 0.049232
#
#
# Mechanical properties :
#
#
# Convention : Reuss Voigt Hill
#
# Bulk Modulus (GPa) = 26.86678 63.12932 44.99805
# Shear Modulus (GPa) = 17.32279 26.36488 21.84384
#
# Velocity S-wave (km/s) = 3.19024 3.93574 3.58244
# Velocity P-wave (km/s) = 5.41804 7.59892 6.59919
#
# Compressibility (1/GPa) = 0.03722069
#
# Stress axis : x y z
#
# Youngs Moduli (GPa) = 38.89015 15.73633 100.69931
#
# Poissons Ratio (x) = 0.23457 0.53927
# Poissons Ratio (y) = 0.57970 1.07988
# Poissons Ratio (z) = 0.20827 0.16875
#
# Static dielectric constant tensor:
#      x y z
#    x 1.559550 0.000000 -0.011020 
#    y 0.000000 1.575680 0.000000 
#    z -0.011020 0.000000 1.607730 
# 
# From -- ./inp_files/314056.got.cif
#   From: 2010.05.17/outbox.cif.g08.bks.cpg/sg12_158_cif.got.tgz:314056.got - 2010.06.03 13:09:07.
