data_PCOD9181323
_publ_section_title
;
Structure prediction by ZEFSAII (Michael W. Deem and Ramdas Pophale) SiO2 
 PCOD9181323
Probable space group: C 2/M
;
_chemical_formula_sum "Si O2"
_cell_formula_units_Z 64
_cell_length_a 33.457476
_cell_length_b 8.534313
_cell_length_c 21.212148
_cell_angle_alpha 90.000000
_cell_angle_beta 143.419621
_cell_angle_gamma 90.000000
_cell_volume 3609.575682
_symmetry_space_group_name_H-M "C 2/M"
_symmetry_group_IT_number 12
_symmetry_cell_setting 'monoclinic'
loop_
_space_group_symop_operation_xyz
x,y,z
-x,y,-z
-x,-y,-z
x,-y,z
1/2+x,1/2+y,z
1/2-x,1/2+y,-z
1/2-x,1/2-y,-z
1/2+x,1/2-y,z
loop_
_atom_site_type_symbol
_atom_site_label
_atom_site_fract_x
_atom_site_fract_y
_atom_site_fract_z
Si Si1 0.793816 0.687902 0.613936
Si Si2 0.930160 0.812084 0.737007
Si Si3 0.718353 0.691525 0.645805
Si Si4 0.716875 0.189310 0.141409
Si Si5 0.573058 0.311848 0.765672
Si Si6 0.425481 0.188090 0.089915
Si Si7 0.076487 0.190247 0.418404
Si Si8 0.708796 0.813908 0.887764
O O1 0.792700 0.500000 0.610635
O O2 0.750000 0.750000 0.500000
O O3 0.869421 0.747372 0.701188
O O4 0.760336 0.738875 0.637278
O O5 0.917083 0.764969 0.647168
O O6 0.003561 0.747534 0.846385
O O7 0.930917 0.000000 0.740234
O O8 0.717978 0.500000 0.646041
O O9 0.751817 0.744508 0.753103
O O10 0.641439 0.743957 0.538791
O O11 0.758632 0.249499 0.134700
O O12 0.719457 0.000000 0.143971
O O13 0.639195 0.234079 0.032850
O O14 0.576823 0.500000 0.767399
O O15 0.582967 0.260012 0.850879
O O16 0.497309 0.260762 0.652258
O O17 0.632169 0.239879 0.799467
O O18 0.427050 0.000000 0.097578
O O19 0.076701 0.000000 0.419712
O O20 0.712878 0.000000 0.893680
O O21 0.750000 0.750000 0.000000
#
# Coordination Sequence:
#
# PCOD9181323 Si02
#       8
#     8   8   8   8   8   8   8   8
#     4  11  20  33  56  84 113 144 184 232 279 327
#     4  10  19  33  54  80 110 143 184 231 276 324
#     4   9  18  35  57  81 110 145 182 225 273 330
#     4  10  21  37  58  81 109 144 184 226 274 330
#     4  10  19  32  55  83 111 142 180 227 275 322
#     4  10  19  32  52  81 111 141 181 226 277 328
#     4   8  15  30  53  80 107 139 180 222 267 318
#     4  12  23  36  56  81 111 143 183 230 274 324
#
# _framework density 17.730616000000001
#
# number of rings (size 3 to 8) (size 9 to 14) (size 15 to 20)
#    0.000    2.000    2.500    3.375    0.000    0.500 
#    0.000    2.500    0.000    7.500    0.000    0.000 
#    0.000    0.000    0.000    0.000    0.000    0.000 
#
# Total GULP energy -178587.748245 kJ/mol
# GULP energy per Si atom -5580.867133 kJ/mol
# Density = 1.769026 g / cm^3
# Si number density = 17.730616 Si / 1000 Ang^3
#
#
#
# Elastic Constant Matrix: (Units=GPa)
#
#
# Indices 1 2 3 4 5 6 
#
# 1 129.0313 22.4431 99.3383 0.0000 16.8614 0.0000
# 2 22.4431 31.8720 30.6165 0.0000 3.0631 0.0000
# 3 99.3383 30.6165 171.1599 0.0000 17.3945 0.0000
# 4 0.0000 0.0000 0.0000 20.3941 0.0000 4.8649
# 5 16.8614 3.0631 17.3945 0.0000 32.4737 0.0000
# 6 0.0000 0.0000 0.0000 4.8649 0.0000 28.2528
#
#
#
# Elastic Compliance Matrix: (Units=1/GPa)
#
#
# Indices 1 2 3 4 5 6 
#
# 1 0.014481 -0.002570 -0.007620 0.000000 -0.003195 0.000000
# 2 -0.002570 0.038342 -0.005430 0.000000 0.000627 0.000000
# 3 -0.007620 -0.005430 0.011403 0.000000 -0.001639 0.000000
# 4 0.000000 0.000000 0.000000 0.051134 0.000000 -0.008805
# 5 -0.003195 0.000627 -0.001639 0.000000 0.033272 0.000000
# 6 0.000000 0.000000 0.000000 -0.008805 0.000000 0.036911
#
#
# Mechanical properties :
#
#
# Convention : Reuss Voigt Hill
#
# Bulk Modulus (GPa) = 30.31741 70.76210 50.53975
# Shear Modulus (GPa) = 21.95108 28.20181 25.07645
#
# Velocity S-wave (km/s) = 3.52239 3.99252 3.76480
# Velocity P-wave (km/s) = 5.80336 7.82623 6.88944
#
# Compressibility (1/GPa) = 0.03298435
#
# Stress axis : x y z
#
# Youngs Moduli (GPa) = 69.05476 26.08140 87.69513
#
# Poissons Ratio (x) = 0.06703 0.66826
# Poissons Ratio (y) = 0.17747 0.47623
# Poissons Ratio (z) = 0.52622 0.14163
#
# Static dielectric constant tensor:
#      x y z
#    x 1.588750 0.000000 0.021060 
#    y 0.000000 1.607940 0.000000 
#    z 0.021060 0.000000 1.611030 
# 
# From -- ./inp_files/295709.got.cif
#   From: 2010.05.17/outbox.cif.g08.bks.cpg/sg12_148_cif.got.tgz:295709.got - 2010.06.03 13:09:07.
