data_PCOD9181628
_publ_section_title
;
Structure prediction by ZEFSAII (Michael W. Deem and Ramdas Pophale) SiO2 
 PCOD9181628
Probable space group: C 2/M
;
_chemical_formula_sum "Si O2"
_cell_formula_units_Z 48
_cell_length_a 23.512438
_cell_length_b 12.555134
_cell_length_c 10.230765
_cell_angle_alpha 90.000000
_cell_angle_beta 118.146423
_cell_angle_gamma 90.000000
_cell_volume 2662.993486
_symmetry_space_group_name_H-M "C 2/M"
_symmetry_group_IT_number 12
_symmetry_cell_setting 'monoclinic'
loop_
_space_group_symop_operation_xyz
x,y,z
-x,y,-z
-x,-y,-z
x,-y,z
1/2+x,1/2+y,z
1/2-x,1/2+y,-z
1/2-x,1/2-y,-z
1/2+x,1/2-y,z
loop_
_atom_site_type_symbol
_atom_site_label
_atom_site_fract_x
_atom_site_fract_y
_atom_site_fract_z
Si Si1 0.491683 0.876401 0.643863
Si Si2 0.223115 0.265281 0.796595
Si Si3 0.946379 0.244959 0.050575
Si Si4 0.167585 0.626228 0.197582
Si Si5 0.661794 0.877018 0.484761
Si Si6 0.334959 0.622121 0.060365
O O1 0.500000 0.845639 0.500000
O O2 0.523741 0.800337 0.787336
O O3 0.415406 0.876423 0.587797
O O4 0.515197 0.000000 0.682933
O O5 0.274412 0.172182 0.824132
O O6 0.192081 0.308591 0.632033
O O7 0.170080 0.212432 0.832901
O O8 0.267760 0.356367 0.910171
O O9 0.897517 0.151128 0.041426
O O10 0.899352 0.329874 0.929842
O O11 0.000000 0.215128 0.000000
O O12 0.166481 0.500000 0.195655
O O13 0.178068 0.663062 0.357802
O O14 0.683429 0.000000 0.520829
O O15 0.337908 0.500000 0.108270
#
# Coordination Sequence:
#
# PCOD9181628 Si02
#       6
#     8   8   8   8   8   8
#     4  10  20  33  53  83 115 148 184 226 276 326
#     4  10  20  36  57  80 109 144 182 226 279 333
#     4  11  21  36  58  82 110 151 187 227 271 327
#     4  10  20  33  55  85 113 144 180 224 275 327
#     4  10  19  32  53  81 113 144 178 225 274 325
#     4  10  22  38  57  80 107 143 186 232 276 325
#
# _framework density 18.024827999999999
#
# number of rings (size 3 to 8) (size 9 to 14) (size 15 to 20)
#    0.000    1.833    1.667    3.000    0.000    1.000 
#    0.000    5.000    0.000    6.500    0.000    0.000 
#    0.000    0.000    0.000    0.000    0.000    0.000 
#
# Total GULP energy -133852.021208 kJ/mol
# GULP energy per Si atom -5577.167550 kJ/mol
# Density = 1.798380 g / cm^3
# Si number density = 18.024828 Si / 1000 Ang^3
#
#
#
# Elastic Constant Matrix: (Units=GPa)
#
#
# Indices 1 2 3 4 5 6 
#
# 1 89.6166 18.2091 17.9129 0.0000 -15.7661 0.0000
# 2 18.2091 48.4523 23.8634 0.0000 4.1845 0.0000
# 3 17.9129 23.8634 96.6733 0.0000 -2.0853 0.0000
# 4 0.0000 0.0000 0.0000 15.2216 0.0000 -5.4022
# 5 -15.7661 4.1845 -2.0853 0.0000 28.7672 0.0000
# 6 0.0000 0.0000 0.0000 -5.4022 0.0000 9.9216
#
#
#
# Elastic Compliance Matrix: (Units=1/GPa)
#
#
# Indices 1 2 3 4 5 6 
#
# 1 0.013947 -0.005441 -0.001061 0.000000 0.008358 0.000000
# 2 -0.005441 0.026050 -0.005577 0.000000 -0.007175 0.000000
# 3 -0.001061 -0.005577 0.011941 0.000000 0.001095 0.000000
# 4 0.000000 0.000000 0.000000 0.081432 0.000000 0.044339
# 5 0.008358 -0.007175 0.001095 0.000000 0.040466 0.000000
# 6 0.000000 0.000000 0.000000 0.044339 0.000000 0.124933
#
#
# Mechanical properties :
#
#
# Convention : Reuss Voigt Hill
#
# Bulk Modulus (GPa) = 35.99653 39.41252 37.70453
# Shear Modulus (GPa) = 15.05184 22.43254 18.74219
#
# Velocity S-wave (km/s) = 2.89288 3.53162 3.22809
# Velocity P-wave (km/s) = 5.58321 6.20830 5.90403
#
# Compressibility (1/GPa) = 0.02778045
#
# Stress axis : x y z
#
# Youngs Moduli (GPa) = 71.70210 38.38779 83.74519
#
# Poissons Ratio (x) = 0.20885 0.08885
# Poissons Ratio (y) = 0.39011 0.46705
# Poissons Ratio (z) = 0.07607 0.21409
#
# Static dielectric constant tensor:
#      x y z
#    x 1.642380 0.000000 -0.034890 
#    y 0.000000 1.594810 0.000000 
#    z -0.034890 0.000000 1.631030 
# 
# From -- ./inp_files/94903.got.cif
#   From: 2010.05.17/outbox.cif.g08.bks.cpg/sg12_48_cif.got.tgz:94903.got - 2010.06.03 13:09:07.
