data_PCOD9181093
_publ_section_title
;
Structure prediction by ZEFSAII (Michael W. Deem and Ramdas Pophale) SiO2 
 PCOD9181093
Probable space group: C 2/M
;
_chemical_formula_sum "Si O2"
_cell_formula_units_Z 48
_cell_length_a 22.626490
_cell_length_b 13.696871
_cell_length_c 22.917981
_cell_angle_alpha 90.000000
_cell_angle_beta 154.439446
_cell_angle_gamma 90.000000
_cell_volume 3064.504387
_symmetry_space_group_name_H-M "C 2/M"
_symmetry_group_IT_number 12
_symmetry_cell_setting 'monoclinic'
loop_
_space_group_symop_operation_xyz
x,y,z
-x,y,-z
-x,-y,-z
x,-y,z
1/2+x,1/2+y,z
1/2-x,1/2+y,-z
1/2-x,1/2-y,-z
1/2+x,1/2-y,z
loop_
_atom_site_type_symbol
_atom_site_label
_atom_site_fract_x
_atom_site_fract_y
_atom_site_fract_z
Si Si1 0.828159 0.615448 0.111099
Si Si2 0.156780 0.116189 0.621804
Si Si3 0.103763 0.734402 0.944268
Si Si4 0.709854 0.227217 0.367558
Si Si5 0.855121 0.388645 0.903595
Si Si6 0.364495 0.884415 0.580775
O O1 0.807442 0.500000 0.089018
O O2 0.851457 0.661460 0.067916
O O3 0.971382 0.633509 0.272674
O O4 0.698871 0.670706 0.023177
O O5 0.206759 0.175802 0.610126
O O6 0.246255 0.142436 0.758098
O O7 0.000000 0.131517 0.500000
O O8 0.178248 0.000000 0.629742
O O9 0.942317 0.753185 0.791055
O O10 0.132744 0.681200 0.030705
O O11 0.688812 0.153254 0.403524
O O12 0.788432 0.320196 0.464354
O O13 0.177588 0.500000 0.106655
O O14 0.000000 0.390936 0.000000
O O15 0.340756 0.000000 0.553620
#
# Coordination Sequence:
#
# PCOD9181093 Si02
#       6
#     8   8   8   8   8   8
#     4   9  19  34  52  75 103 133 166 208 251 294
#     4  10  21  34  50  76 106 134 165 205 250 297
#     4  10  19  32  53  78 103 132 166 205 251 299
#     4  10  19  33  53  76 103 133 167 207 249 297
#     4  10  19  32  52  76 102 133 166 202 250 305
#     4   9  19  34  53  74 100 136 170 204 249 297
#
# _framework density 15.663218000000001
#
# number of rings (size 3 to 8) (size 9 to 14) (size 15 to 20)
#    0.000    2.333    1.667    1.000    2.333    2.000 
#    0.000    0.000    0.000    2.000    0.000    0.000 
#    0.000    0.000    0.000    0.000    0.000    0.000 
#
# Total GULP energy -133806.747902 kJ/mol
# GULP energy per Si atom -5575.281163 kJ/mol
# Density = 1.562757 g / cm^3
# Si number density = 15.663218 Si / 1000 Ang^3
#
#
#
# Elastic Constant Matrix: (Units=GPa)
#
#
# Indices 1 2 3 4 5 6 
#
# 1 83.4383 54.2864 68.3225 -0.0002 -0.1496 -0.0001
# 2 54.2864 106.8792 76.0540 -0.0003 -1.8255 -0.0003
# 3 68.3225 76.0540 139.5062 -0.0005 -10.6068 -0.0004
# 4 -0.0002 -0.0003 -0.0005 32.2816 -0.0003 6.7863
# 5 -0.1496 -1.8255 -10.6068 -0.0003 17.3387 -0.0002
# 6 -0.0001 -0.0003 -0.0004 6.7863 -0.0002 32.7563
#
#
#
# Elastic Compliance Matrix: (Units=1/GPa)
#
#
# Indices 1 2 3 4 5 6 
#
# 1 0.022447 -0.005512 -0.008409 0.000000 -0.005530 0.000000
# 2 -0.005512 0.016865 -0.006674 0.000000 -0.002354 0.000000
# 3 -0.008409 -0.006674 0.015591 0.000000 0.008762 0.000000
# 4 0.000000 0.000000 0.000000 0.032388 0.000001 -0.006710
# 5 -0.005530 -0.002354 0.008762 0.000001 0.062739 0.000000
# 6 0.000000 0.000000 0.000000 -0.006710 0.000000 0.031919
#
#
# Mechanical properties :
#
#
# Convention : Reuss Voigt Hill
#
# Bulk Modulus (GPa) = 72.92157 80.79441 76.85799
# Shear Modulus (GPa) = 21.95806 25.21937 23.58871
#
# Velocity S-wave (km/s) = 3.74824 4.01696 3.88492
# Velocity P-wave (km/s) = 8.08637 8.55622 8.32461
#
# Compressibility (1/GPa) = 0.01371336
#
# Stress axis : x y z
#
# Youngs Moduli (GPa) = 44.55035 59.29550 64.14143
#
# Poissons Ratio (x) = 0.32685 0.53934
# Poissons Ratio (y) = 0.24557 0.42805
# Poissons Ratio (z) = 0.37460 0.39571
#
# Static dielectric constant tensor:
#      x y z
#    x 1.488960 0.000000 -0.007640 
#    y 0.000000 1.499830 0.000000 
#    z -0.007640 0.000000 1.480700 
# 
# From -- ./inp_files/85665.got.cif
#   From: 2010.05.17/outbox.cif.g08.bks.cpg/sg12_43_cif.got.tgz:85665.got - 2010.06.03 13:09:07.
