data_PCOD9181542
_publ_section_title
;
Structure prediction by ZEFSAII (Michael W. Deem and Ramdas Pophale) SiO2 
 PCOD9181542
Probable space group: C 2/M
;
_chemical_formula_sum "Si O2"
_cell_formula_units_Z 52
_cell_length_a 21.007101
_cell_length_b 18.373817
_cell_length_c 14.802511
_cell_angle_alpha 90.000000
_cell_angle_beta 152.279294
_cell_angle_gamma 90.000000
_cell_volume 2657.694872
_symmetry_space_group_name_H-M "C 2/M"
_symmetry_group_IT_number 12
_symmetry_cell_setting 'monoclinic'
loop_
_space_group_symop_operation_xyz
x,y,z
-x,y,-z
-x,-y,-z
x,-y,z
1/2+x,1/2+y,z
1/2-x,1/2+y,-z
1/2-x,1/2-y,-z
1/2+x,1/2-y,z
loop_
_atom_site_type_symbol
_atom_site_label
_atom_site_fract_x
_atom_site_fract_y
_atom_site_fract_z
Si Si1 0.508883 0.000000 0.287601
Si Si2 0.657353 0.000000 0.655831
Si Si3 0.204431 0.339211 0.304080
Si Si4 0.577626 0.746877 0.514518
Si Si5 0.951731 0.722412 0.067506
Si Si6 0.293176 0.649603 0.888563
Si Si7 0.622809 0.000000 0.227521
Si Si8 0.366830 0.846860 0.142263
O O1 0.561900 0.000000 0.251963
O O2 0.419627 0.928240 0.192989
O O3 0.629380 0.000000 0.513500
O O4 0.500000 0.000000 0.500000
O O5 0.744124 0.070281 0.795377
O O6 0.351138 0.304007 0.469813
O O7 0.205077 0.425415 0.317136
O O8 0.108942 0.303868 0.262043
O O9 0.121828 0.317076 0.109140
O O10 0.500000 0.707464 0.500000
O O11 0.690365 0.796807 0.705501
O O12 0.476542 0.802728 0.339329
O O13 0.868708 0.693422 0.049460
O O14 0.935506 0.809975 0.044227
O O15 0.266956 0.652535 0.963380
O O16 0.500000 0.000000 0.000000
#
# Coordination Sequence:
#
# PCOD9181542 Si02
#       8
#     4   4   8   8   8   8   4   8
#     4  12  20  30  56  88 109 142 195 239 283 319
#     4  12  18  34  54  83 117 151 190 241 277 327
#     4  10  20  36  54  74 108 143 183 232 285 337
#     4   9  19  34  55  79 107 140 181 233 288 338
#     4  10  20  33  51  79 107 148 185 224 282 339
#     4  10  19  32  53  79 116 145 181 233 284 329
#     4  12  20  38  53  78 111 142 189 238 280 334
#     4  11  18  32  52  83 110 140 189 234 281 330
#
# _framework density 19.565828
#
# number of rings (size 3 to 8) (size 9 to 14) (size 15 to 20)
#    0.000    1.538    6.154    0.923    0.000    0.615 
#    0.000    0.385    0.000    9.231    0.000    0.000 
#    0.000    0.000    0.000    0.000    0.000    0.000 
#
# Total GULP energy -144933.341996 kJ/mol
# GULP energy per Si atom -5574.359308 kJ/mol
# Density = 1.952130 g / cm^3
# Si number density = 19.565828 Si / 1000 Ang^3
#
#
#
# Elastic Constant Matrix: (Units=GPa)
#
#
# Indices 1 2 3 4 5 6 
#
# 1 88.7796 56.8918 8.7073 0.0000 -13.1786 0.0000
# 2 56.8918 172.5327 16.9317 0.0000 26.4193 0.0000
# 3 8.7073 16.9317 12.9381 0.0000 1.1175 0.0000
# 4 0.0000 0.0000 0.0000 2.3889 0.0000 -15.5670
# 5 -13.1786 26.4193 1.1175 0.0000 29.3079 0.0000
# 6 0.0000 0.0000 0.0000 -15.5670 0.0000 3.5869
#
#
#
# Elastic Compliance Matrix: (Units=1/GPa)
#
#
# Indices 1 2 3 4 5 6 
#
# 1 0.019706 -0.008764 -0.003250 0.000000 0.016885 0.000000
# 2 -0.008764 0.011647 -0.008123 0.000000 -0.014130 0.000000
# 3 -0.003250 -0.008123 0.089899 0.000000 0.002433 0.000000
# 4 0.000000 0.000000 0.000000 -0.015344 0.000000 -0.066593
# 5 0.016885 -0.014130 0.002433 0.000000 0.054358 0.000000
# 6 0.000000 0.000000 0.000000 -0.066593 0.000000 -0.010219
#
#
# Mechanical properties :
#
#
# Convention : Reuss Voigt Hill
#
# Bulk Modulus (GPa) = 12.34943 48.81242 30.58093
# Shear Modulus (GPa) = 23.00830 19.83806 21.42318
#
# Velocity S-wave (km/s) = 3.43292 3.18766 3.31256
# Velocity P-wave (km/s) = 4.69454 6.20888 5.50404
#
# Compressibility (1/GPa) = 0.08097537
#
# Stress axis : x y z
#
# Youngs Moduli (GPa) = 50.74712 85.85981 11.12363
#
# Poissons Ratio (x) = 0.75251 0.03616
# Poissons Ratio (y) = 0.44477 0.09036
# Poissons Ratio (z) = 0.16495 0.69745
#
# Static dielectric constant tensor:
#      x y z
#    x 1.760400 0.000000 0.018880 
#    y 0.000000 1.686470 0.000000 
#    z 0.018880 0.000000 1.725520 
# 
# From -- ./inp_files/234516.got.cif
#   From: 2010.05.17/outbox.cif.g08.bks.cpg/sg12_118_cif.got.tgz:234516.got - 2010.06.03 13:09:07.
