data_PCOD9181524
_publ_section_title
;
Structure prediction by ZEFSAII (Michael W. Deem and Ramdas Pophale) SiO2 
 PCOD9181524
Probable space group: C 2/M
;
_chemical_formula_sum "Si O2"
_cell_formula_units_Z 64
_cell_length_a 29.171680
_cell_length_b 9.057529
_cell_length_c 11.530805
_cell_angle_alpha 90.000000
_cell_angle_beta 77.578960
_cell_angle_gamma 90.000000
_cell_volume 2975.394584
_symmetry_space_group_name_H-M "C 2/M"
_symmetry_group_IT_number 12
_symmetry_cell_setting 'monoclinic'
loop_
_space_group_symop_operation_xyz
x,y,z
-x,y,-z
-x,-y,-z
x,-y,z
1/2+x,1/2+y,z
1/2-x,1/2+y,-z
1/2-x,1/2-y,-z
1/2+x,1/2-y,z
loop_
_atom_site_type_symbol
_atom_site_label
_atom_site_fract_x
_atom_site_fract_y
_atom_site_fract_z
Si Si1 0.313295 0.826003 0.210977
Si Si2 0.384032 0.170013 0.748607
Si Si3 0.022155 0.824462 0.324075
Si Si4 0.176698 0.671392 0.517873
Si Si5 0.918912 0.828270 0.410001
Si Si6 0.290215 0.676016 0.719557
Si Si7 0.908764 0.168787 0.136448
Si Si8 0.451657 0.168986 0.912172
O O1 0.313728 0.810782 0.351138
O O2 0.260754 0.783898 0.201540
O O3 0.356005 0.727809 0.143565
O O4 0.321664 0.000000 0.181173
O O5 0.428985 0.249913 0.664626
O O6 0.335112 0.250111 0.755081
O O7 0.400917 0.171630 0.873619
O O8 0.381225 0.000000 0.713542
O O9 0.019528 0.773030 0.190628
O O10 0.972411 0.783602 0.407436
O O11 0.026321 0.000000 0.329613
O O12 0.183061 0.500000 0.485470
O O13 0.123130 0.724303 0.527151
O O14 0.207209 0.770030 0.415213
O O15 0.915813 0.826315 0.270832
O O16 0.911399 0.000000 0.450277
O O17 0.294344 0.500000 0.720739
O O18 0.914092 0.000000 0.094518
O O19 0.943839 0.270319 0.043912
O O20 0.468250 0.000000 0.899275
#
# Coordination Sequence:
#
# PCOD9181524 Si02
#       8
#     8   8   8   8   8   8   8   8
#     4   9  20  36  53  78 108 137 169 209 257 308
#     4   9  20  36  53  75 103 135 174 218 258 301
#     4   9  17  33  55  75 103 138 173 213 256 301
#     4  10  20  34  54  79 109 138 167 209 257 307
#     4   9  19  34  52  78 109 138 171 212 256 305
#     4  11  21  35  57  78 101 136 175 213 257 309
#     4  10  19  32  53  79 107 139 173 211 255 305
#     4   9  19  34  52  74 106 140 172 215 256 301
#
# _framework density 21.509751999999999
#
# number of rings (size 3 to 8) (size 9 to 14) (size 15 to 20)
#    0.750    1.750    0.000    2.250    0.000    3.500 
#    0.000    3.750    0.000    3.750    0.000    0.000 
#    0.000    0.000    0.000    0.000    0.000    0.000 
#
# Total GULP energy -178620.224931 kJ/mol
# GULP energy per Si atom -5581.882029 kJ/mol
# Density = 2.146080 g / cm^3
# Si number density = 21.509752 Si / 1000 Ang^3
#
#
#
# Elastic Constant Matrix: (Units=GPa)
#
#
# Indices 1 2 3 4 5 6 
#
# 1 130.7528 37.1252 -2.8593 0.0000 -6.1615 0.0000
# 2 37.1252 69.1206 4.3157 0.0000 -8.6046 0.0000
# 3 -2.8593 4.3157 37.4808 0.0000 0.3435 0.0000
# 4 0.0000 0.0000 0.0000 26.2762 0.0000 -0.2064
# 5 -6.1615 -8.6046 0.3435 0.0000 25.7922 0.0000
# 6 0.0000 0.0000 0.0000 -0.2064 0.0000 24.2415
#
#
#
# Elastic Compliance Matrix: (Units=1/GPa)
#
#
# Indices 1 2 3 4 5 6 
#
# 1 0.009090 -0.004896 0.001252 0.000000 0.000522 0.000000
# 2 -0.004896 0.017851 -0.002473 0.000000 0.004819 0.000000
# 3 0.001252 -0.002473 0.027069 0.000000 -0.000886 0.000000
# 4 0.000000 0.000000 0.000000 0.038060 0.000000 0.000324
# 5 0.000522 0.004819 -0.000886 0.000000 0.040515 0.000000
# 6 0.000000 0.000000 0.000000 0.000324 0.000000 0.041254
#
#
# Mechanical properties :
#
#
# Convention : Reuss Voigt Hill
#
# Bulk Modulus (GPa) = 23.93641 34.94638 29.44139
# Shear Modulus (GPa) = 25.00027 28.51350 26.75688
#
# Velocity S-wave (km/s) = 3.41292 3.64484 3.53078
# Velocity P-wave (km/s) = 5.16556 5.83054 5.50809
#
# Compressibility (1/GPa) = 0.04177736
#
# Stress axis : x y z
#
# Youngs Moduli (GPa) = 110.01094 56.01868 36.94298
#
# Poissons Ratio (x) = 0.27424 -0.04627
# Poissons Ratio (y) = 0.53857 0.09136
# Poissons Ratio (z) = -0.13777 0.13854
#
# Static dielectric constant tensor:
#      x y z
#    x 1.824040 0.000000 0.055870 
#    y 0.000000 1.715000 0.000000 
#    z 0.055870 0.000000 1.830650 
# 
# From -- ./inp_files/248236.got.cif
#   From: 2010.05.17/outbox.cif.g08.bks.cpg/sg12_125_cif.got.tgz:248236.got - 2010.06.03 13:09:07.
