data_PCOD9181008
_publ_section_title
;
Structure prediction by ZEFSAII (Michael W. Deem and Ramdas Pophale) SiO2 
 PCOD9181008
Probable space group: C 2/M
;
_chemical_formula_sum "Si O2"
_cell_formula_units_Z 56
_cell_length_a 19.646974
_cell_length_b 7.636126
_cell_length_c 32.191698
_cell_angle_alpha 90.000000
_cell_angle_beta 145.271594
_cell_angle_gamma 90.000000
_cell_volume 2751.369964
_symmetry_space_group_name_H-M "C 2/M"
_symmetry_group_IT_number 12
_symmetry_cell_setting 'monoclinic'
loop_
_space_group_symop_operation_xyz
x,y,z
-x,y,-z
-x,-y,-z
x,-y,z
1/2+x,1/2+y,z
1/2-x,1/2+y,-z
1/2-x,1/2-y,-z
1/2+x,1/2-y,z
loop_
_atom_site_type_symbol
_atom_site_label
_atom_site_fract_x
_atom_site_fract_y
_atom_site_fract_z
Si Si1 0.424138 0.789228 0.001440
Si Si2 0.809568 0.789857 0.074601
Si Si3 0.380663 0.700873 0.418116
Si Si4 0.458624 0.288784 0.850592
Si Si5 0.806289 0.299584 0.291376
Si Si6 0.440770 0.788215 0.602202
Si Si7 0.733187 0.206661 0.558621
O O1 0.492189 0.749885 0.078684
O O2 0.417179 0.000000 0.993834
O O3 0.500000 0.722912 0.000000
O O4 0.287124 0.724468 0.940044
O O5 0.944973 0.724133 0.135397
O O6 0.815791 0.000000 0.082739
O O7 0.750000 0.750000 0.000000
O O8 0.500000 0.773239 0.500000
O O9 0.404898 0.500000 0.418313
O O10 0.340453 0.799193 0.357059
O O11 0.282382 0.707163 0.404776
O O12 0.454576 0.500000 0.843767
O O13 0.324318 0.218507 0.779060
O O14 0.796776 0.500000 0.271554
O O15 0.924062 0.220895 0.329039
O O16 0.367990 0.727429 0.524669
O O17 0.359265 0.738312 0.600007
O O18 0.444412 0.000000 0.601456
O O19 0.715692 0.000000 0.555154
#
# Coordination Sequence:
#
# PCOD9181008 Si02
#       7
#     8   8   8   8   8   8   8
#     4   9  17  30  50  75 102 133 166 203 245 288
#     4   8  14  27  47  70  96 127 163 199 234 282
#     4  11  22  34  51  75 101 130 170 218 257 299
#     4   9  18  32  51  74 100 131 166 204 246 297
#     4  10  20  35  53  73 101 136 170 210 263 312
#     4   9  18  32  50  71  97 129 164 207 256 308
#     4  10  19  32  52  73  95 126 166 211 258 306
#
# _framework density 20.353497000000001
#
# number of rings (size 3 to 8) (size 9 to 14) (size 15 to 20)
#    0.000    2.571    1.429    0.857    0.000    2.571 
#    0.000    1.429    0.000    1.714    0.000    0.000 
#    0.000    0.000    0.000    0.000    0.000    0.000 
#
# Total GULP energy -156062.618786 kJ/mol
# GULP energy per Si atom -5573.664957 kJ/mol
# Density = 2.030717 g / cm^3
# Si number density = 20.353497 Si / 1000 Ang^3
#
#
#
# Elastic Constant Matrix: (Units=GPa)
#
#
# Indices 1 2 3 4 5 6 
#
# 1 171.8848 5.6312 52.8544 0.0000 40.4535 0.0002
# 2 5.6312 46.9169 -1.1622 -0.0003 7.1884 0.0001
# 3 52.8544 -1.1622 69.9800 -0.0001 36.8161 -0.0002
# 4 0.0000 -0.0003 -0.0001 7.4385 0.0000 -16.7003
# 5 40.4535 7.1884 36.8161 0.0000 38.2362 0.0000
# 6 0.0002 0.0001 -0.0002 -16.7003 0.0000 -56.7803
#
#
#
# Elastic Compliance Matrix: (Units=1/GPa)
#
#
# Indices 1 2 3 4 5 6 
#
# 1 0.008100 -0.000238 -0.003317 0.000000 -0.005332 0.000000
# 2 -0.000238 0.022904 0.005457 0.000001 -0.009309 0.000000
# 3 -0.003317 0.005457 0.031572 0.000000 -0.027916 0.000000
# 4 0.000000 0.000001 0.000000 0.080969 0.000000 -0.023815
# 5 -0.005332 -0.009309 -0.027916 0.000000 0.060424 0.000000
# 6 0.000000 0.000000 0.000000 -0.023815 0.000000 -0.010607
#
#
# Mechanical properties :
#
#
# Convention : Reuss Voigt Hill
#
# Bulk Modulus (GPa) = 15.06416 44.82537 29.94477
# Shear Modulus (GPa) = 23.62008 13.20943 18.41475
#
# Velocity S-wave (km/s) = 3.41030 2.55031 3.01116
# Velocity P-wave (km/s) = 4.78792 5.54467 5.18013
#
# Compressibility (1/GPa) = 0.06638271
#
# Stress axis : x y z
#
# Youngs Moduli (GPa) = 123.45004 43.65985 31.67328
#
# Poissons Ratio (x) = 0.01037 0.10506
# Poissons Ratio (y) = 0.02932 -0.17285
# Poissons Ratio (z) = 0.40950 -0.23827
#
# Static dielectric constant tensor:
#      x y z
#    x 1.774800 0.000000 0.058890 
#    y 0.000000 1.762420 0.000000 
#    z 0.058890 0.000000 1.703500 
# 
# From -- ./inp_files/313786.got.cif
#   From: 2010.05.17/outbox.cif.g08.bks.cpg/sg12_157_cif.got.tgz:313786.got - 2010.06.03 13:09:07.
