data_PCOD9181960
_publ_section_title
;
Structure prediction by ZEFSAII (Michael W. Deem and Ramdas Pophale) SiO2 
 PCOD9181960
Probable space group: C 2/M
;
_chemical_formula_sum "Si O2"
_cell_formula_units_Z 52
_cell_length_a 18.644816
_cell_length_b 18.261444
_cell_length_c 12.382130
_cell_angle_alpha 90.000000
_cell_angle_beta 143.153231
_cell_angle_gamma 90.000000
_cell_volume 2528.168289
_symmetry_space_group_name_H-M "C 2/M"
_symmetry_group_IT_number 12
_symmetry_cell_setting 'monoclinic'
loop_
_space_group_symop_operation_xyz
x,y,z
-x,y,-z
-x,-y,-z
x,-y,z
1/2+x,1/2+y,z
1/2-x,1/2+y,-z
1/2-x,1/2-y,-z
1/2+x,1/2-y,z
loop_
_atom_site_type_symbol
_atom_site_label
_atom_site_fract_x
_atom_site_fract_y
_atom_site_fract_z
Si Si1 0.500000 0.730076 0.500000
Si Si2 0.999388 0.415196 0.369088
Si Si3 0.133661 0.777681 0.294723
Si Si4 0.756996 0.417368 0.469414
Si Si5 0.142163 0.584705 0.166364
Si Si6 0.264642 0.769837 0.802102
Si Si7 0.415197 0.762141 0.178768
O O1 0.369672 0.756469 0.385349
O O2 0.446858 0.707939 0.317101
O O3 0.962934 0.500000 0.296882
O O4 0.131782 0.405373 0.477875
O O5 0.000000 0.410131 0.500000
O O6 0.923196 0.346035 0.233038
O O7 0.250000 0.750000 0.500000
O O8 0.146588 0.864285 0.318899
O O9 0.149850 0.757610 0.189980
O O10 0.021800 0.744762 0.220201
O O11 0.717915 0.500000 0.409382
O O12 0.808688 0.408113 0.652655
O O13 0.155545 0.500000 0.147748
O O14 0.215577 0.642360 0.182952
O O15 0.000000 0.600396 0.000000
O O16 0.303571 0.744749 0.967177
#
# Coordination Sequence:
#
# PCOD9181960 Si02
#       7
#     4   8   8   8   8   8   8
#     4  12  24  42  56  82 124 160 202 252 310 370
#     4  10  19  32  54  86 125 164 195 239 304 365
#     4  12  20  38  62  88 119 158 201 257 302 357
#     4  10  19  33  54  84 119 159 197 243 307 358
#     4  10  19  33  57  90 120 148 196 254 304 358
#     4  12  24  38  62  90 118 159 204 255 310 365
#     4  12  23  39  62  88 121 160 206 254 305 365
#
# _framework density 20.568249999999999
#
# number of rings (size 3 to 8) (size 9 to 14) (size 15 to 20)
#    0.000    0.923    5.385    2.769    0.000    1.846 
#    0.000    0.385    0.000    2.769    0.000    0.000 
#    0.000    0.000    0.000    0.000    0.000    0.000 
#
# Total GULP energy -144873.858046 kJ/mol
# GULP energy per Si atom -5572.071463 kJ/mol
# Density = 2.052144 g / cm^3
# Si number density = 20.568250 Si / 1000 Ang^3
#
#
#
# Elastic Constant Matrix: (Units=GPa)
#
#
# Indices 1 2 3 4 5 6 
#
# 1 86.1069 8.6392 18.7426 0.0000 -24.6466 0.0000
# 2 8.6392 112.8604 15.0022 0.0000 -0.6023 0.0000
# 3 18.7426 15.0022 96.2713 0.0000 -13.5832 0.0000
# 4 0.0000 0.0000 0.0000 15.6275 0.0000 -3.0202
# 5 -24.6466 -0.6023 -13.5832 0.0000 38.8432 0.0000
# 6 0.0000 0.0000 0.0000 -3.0202 0.0000 26.0645
#
#
#
# Elastic Compliance Matrix: (Units=1/GPa)
#
#
# Indices 1 2 3 4 5 6 
#
# 1 0.014503 -0.000869 -0.001464 0.000000 0.008677 0.000000
# 2 -0.000869 0.009105 -0.001375 0.000000 -0.000891 0.000000
# 3 -0.001464 -0.001375 0.011311 0.000000 0.003005 0.000000
# 4 0.000000 0.000000 0.000000 0.065456 0.000000 0.007585
# 5 0.008677 -0.000891 0.003005 0.000000 0.032287 0.000000
# 6 0.000000 0.000000 0.000000 0.007585 0.000000 0.039245
#
#
# Mechanical properties :
#
#
# Convention : Reuss Voigt Hill
#
# Bulk Modulus (GPa) = 36.36139 42.22298 39.29218
# Shear Modulus (GPa) = 26.52647 32.96400 29.74524
#
# Velocity S-wave (km/s) = 3.59511 4.00767 3.80698
# Velocity P-wave (km/s) = 5.91184 6.47982 6.20233
#
# Compressibility (1/GPa) = 0.02750170
#
# Stress axis : x y z
#
# Youngs Moduli (GPa) = 68.95154 109.82835 88.41243
#
# Poissons Ratio (x) = 0.09547 0.12942
# Poissons Ratio (y) = 0.05994 0.12160
# Poissons Ratio (z) = 0.10093 0.15106
#
# Static dielectric constant tensor:
#      x y z
#    x 1.781590 0.000000 -0.008230 
#    y 0.000000 1.836060 0.000000 
#    z -0.008230 0.000000 1.769450 
# 
# From -- ./inp_files/159618.got.cif
#   From: 2010.05.17/outbox.cif.g08.bks.cpg/sg12_80_cif.got.tgz:159618.got - 2010.06.03 13:09:07.
