data_PCOD9181980
_publ_section_title
;
Structure prediction by ZEFSAII (Michael W. Deem and Ramdas Pophale) SiO2 
 PCOD9181980
Probable space group: C 2/M
;
_chemical_formula_sum "Si O2"
_cell_formula_units_Z 56
_cell_length_a 20.857061
_cell_length_b 7.494270
_cell_length_c 19.949355
_cell_angle_alpha 90.000000
_cell_angle_beta 122.788309
_cell_angle_gamma 90.000000
_cell_volume 2621.443689
_symmetry_space_group_name_H-M "C 2/M"
_symmetry_group_IT_number 12
_symmetry_cell_setting 'monoclinic'
loop_
_space_group_symop_operation_xyz
x,y,z
-x,y,-z
-x,-y,-z
x,-y,z
1/2+x,1/2+y,z
1/2-x,1/2+y,-z
1/2-x,1/2-y,-z
1/2+x,1/2-y,z
loop_
_atom_site_type_symbol
_atom_site_label
_atom_site_fract_x
_atom_site_fract_y
_atom_site_fract_z
Si Si1 0.482178 0.218389 0.065713
Si Si2 0.337415 0.788165 0.065975
Si Si3 0.115249 0.793074 0.758242
Si Si4 0.382599 0.789859 0.760180
Si Si5 0.556386 0.716029 0.350866
Si Si6 0.786878 0.781209 0.308748
Si Si7 0.418553 0.282600 0.485449
O O1 0.399669 0.276109 0.047060
O O2 0.547675 0.279738 0.154828
O O3 0.481897 0.000000 0.065055
O O4 0.500000 0.275336 0.000000
O O5 0.358087 0.715923 0.150655
O O6 0.346537 0.000000 0.075182
O O7 0.250000 0.750000 0.000000
O O8 0.177164 0.721299 0.741431
O O9 0.030687 0.716105 0.703592
O O10 0.106532 0.000000 0.733816
O O11 0.400260 0.770536 0.691645
O O12 0.299024 0.716434 0.729293
O O13 0.380075 0.000000 0.774091
O O14 0.555970 0.500000 0.350233
O O15 0.587961 0.773470 0.440876
O O16 0.847267 0.726473 0.399902
O O17 0.783756 0.000000 0.308606
O O18 0.500000 0.226349 0.500000
O O19 0.419702 0.500000 0.485123
#
# Coordination Sequence:
#
# PCOD9181980 Si02
#       7
#     8   8   8   8   8   8   8
#     4   9  19  35  55  77 102 137 177 218 261 311
#     4  11  23  38  58  83 110 139 175 222 269 320
#     4  10  19  34  57  82 106 139 182 225 264 311
#     4  10  20  35  54  77 107 141 180 220 265 324
#     4  10  19  32  55  80 109 143 177 222 272 319
#     4   9  18  31  53  81 106 141 189 229 257 307
#     4   9  15  28  50  80 110 138 181 230 269 305
#
# _framework density 21.362275
#
# number of rings (size 3 to 8) (size 9 to 14) (size 15 to 20)
#    0.000    2.286    2.857    0.429    2.000    0.571 
#    0.000    0.714    0.000    3.429    0.000    0.000 
#    0.000    0.000    0.000    0.000    0.000    0.000 
#
# Total GULP energy -156368.870641 kJ/mol
# GULP energy per Si atom -5584.602523 kJ/mol
# Density = 2.131365 g / cm^3
# Si number density = 21.362275 Si / 1000 Ang^3
#
#
#
# Elastic Constant Matrix: (Units=GPa)
#
#
# Indices 1 2 3 4 5 6 
#
# 1 216.7513 -0.8257 89.2556 0.0000 -4.7515 0.0000
# 2 -0.8257 52.1009 -11.2923 0.0000 7.4132 -0.0001
# 3 89.2556 -11.2923 122.8606 0.0000 -12.9798 0.0000
# 4 0.0000 0.0000 0.0000 9.2082 0.0000 -14.1682
# 5 -4.7515 7.4132 -12.9798 0.0000 36.7032 0.0000
# 6 0.0000 -0.0001 0.0000 -14.1682 0.0000 5.0038
#
#
#
# Elastic Compliance Matrix: (Units=1/GPa)
#
#
# Indices 1 2 3 4 5 6 
#
# 1 0.006648 -0.000872 -0.004986 0.000000 -0.000727 0.000000
# 2 -0.000872 0.020127 0.002121 0.000000 -0.003428 0.000000
# 3 -0.004986 0.002121 0.012303 0.000000 0.003277 0.000000
# 4 0.000000 0.000000 0.000000 -0.032353 0.000000 -0.091608
# 5 -0.000727 -0.003428 0.003277 0.000000 0.029003 0.000000
# 6 0.000000 0.000000 0.000000 -0.091608 0.000000 -0.059538
#
#
# Mechanical properties :
#
#
# Convention : Reuss Voigt Hill
#
# Bulk Modulus (GPa) = 31.64185 60.66533 46.15359
# Shear Modulus (GPa) = -861.79557 31.15473 -415.32042
#
# Velocity S-wave (km/s) = -20.10709 3.82304 -13.95850
# Velocity P-wave (km/s) = 22.89576 6.92442 15.43160
#
# Compressibility (1/GPa) = 0.03160371
#
# Stress axis : x y z
#
# Youngs Moduli (GPa) = 150.42986 49.68399 81.28180
#
# Poissons Ratio (x) = 0.04332 0.40529
# Poissons Ratio (y) = 0.13117 -0.17242
# Poissons Ratio (z) = 0.75008 -0.10539
#
# Static dielectric constant tensor:
#      x y z
#    x 1.751780 0.000000 0.002310 
#    y 0.000000 1.850490 0.000000 
#    z 0.002310 0.000000 1.722910 
# 
# From -- ./inp_files/281594.got.cif
#   From: 2010.05.17/outbox.cif.g08.bks.cpg/sg12_141_cif.got.tgz:281594.got - 2010.06.03 13:09:07.
