data_PCOD9181076
_publ_section_title
;
Structure prediction by ZEFSAII (Michael W. Deem and Ramdas Pophale) SiO2 
 PCOD9181076
Probable space group: C 2/M
;
_chemical_formula_sum "Si O2"
_cell_formula_units_Z 56
_cell_length_a 15.121447
_cell_length_b 9.559079
_cell_length_c 28.508118
_cell_angle_alpha 90.000000
_cell_angle_beta 141.108913
_cell_angle_gamma 90.000000
_cell_volume 2587.189887
_symmetry_space_group_name_H-M "C 2/M"
_symmetry_group_IT_number 12
_symmetry_cell_setting 'monoclinic'
loop_
_space_group_symop_operation_xyz
x,y,z
-x,y,-z
-x,-y,-z
x,-y,z
1/2+x,1/2+y,z
1/2-x,1/2+y,-z
1/2-x,1/2-y,-z
1/2+x,1/2-y,z
loop_
_atom_site_type_symbol
_atom_site_label
_atom_site_fract_x
_atom_site_fract_y
_atom_site_fract_z
Si Si1 0.783674 0.346109 0.970120
Si Si2 0.684900 0.664653 0.515891
Si Si3 0.160138 0.156681 0.087967
Si Si4 0.533259 0.167541 0.319532
Si Si5 0.584713 0.844281 0.135026
Si Si6 0.585327 0.168510 0.240372
Si Si7 0.406546 0.331306 0.356458
O O1 0.718090 0.500000 0.945225
O O2 0.761044 0.263910 0.913197
O O3 0.750000 0.250000 0.000000
O O4 0.951390 0.362746 0.046148
O O5 0.693418 0.500000 0.509150
O O6 0.750000 0.750000 0.500000
O O7 0.796343 0.686357 0.603375
O O8 0.519121 0.698685 0.444675
O O9 0.164999 0.219897 0.142144
O O10 0.218296 0.000000 0.109910
O O11 0.000000 0.146796 0.000000
O O12 0.508924 0.217774 0.256114
O O13 0.457482 0.253311 0.329888
O O14 0.503861 0.000000 0.312464
O O15 0.534324 0.802989 0.166264
O O16 0.653177 0.000000 0.166391
O O17 0.749311 0.212191 0.305097
O O18 0.583393 0.000000 0.244175
O O19 0.406317 0.500000 0.348923
#
# Coordination Sequence:
#
# PCOD9181076 Si02
#       7
#     8   8   8   8   8   8   8
#     4  10  19  32  52  76 101 128 162 204 248 295
#     4   8  14  25  45  71  96 125 165 211 254 292
#     4   9  17  31  52  74  96 122 156 199 242 286
#     4   9  17  31  50  72 100 134 170 210 253 299
#     4   9  18  34  52  70  97 132 164 196 246 304
#     4   9  18  33  52  72 101 137 170 205 249 304
#     4   9  17  31  50  72  99 131 169 212 254 299
#
# _framework density 21.645106999999999
#
# number of rings (size 3 to 8) (size 9 to 14) (size 15 to 20)
#    0.000    3.000    0.000    0.857    0.000    2.857 
#    2.571    5.000    0.000    0.000    0.000   10.000 
#    0.000    0.000    0.000    0.000    0.000    0.000 
#
# Total GULP energy -155943.384152 kJ/mol
# GULP energy per Si atom -5569.406577 kJ/mol
# Density = 2.159584 g / cm^3
# Si number density = 21.645107 Si / 1000 Ang^3
#
#
#
# Elastic Constant Matrix: (Units=GPa)
#
#
# Indices 1 2 3 4 5 6 
#
# 1 74.6230 32.8355 13.7690 0.0000 -20.8333 0.0000
# 2 32.8355 89.9425 9.4211 0.0000 -20.7923 0.0000
# 3 13.7690 9.4211 85.6124 0.0000 -6.6564 0.0000
# 4 0.0000 0.0000 0.0000 14.0702 0.0000 -8.3488
# 5 -20.8333 -20.7923 -6.6564 0.0000 38.9009 0.0000
# 6 0.0000 0.0000 0.0000 -8.3488 0.0000 21.7505
#
#
#
# Elastic Compliance Matrix: (Units=1/GPa)
#
#
# Indices 1 2 3 4 5 6 
#
# 1 0.017663 -0.004728 -0.001806 0.000000 0.006624 0.000000
# 2 -0.004728 0.014017 -0.000402 0.000000 0.004891 0.000000
# 3 -0.001806 -0.000402 0.012084 0.000000 0.000886 0.000000
# 4 0.000000 0.000000 0.000000 0.092034 0.000000 0.035326
# 5 0.006624 0.004891 0.000886 0.000000 0.032019 0.000000
# 6 0.000000 0.000000 0.000000 0.035326 0.000000 0.059536
#
#
# Mechanical properties :
#
#
# Convention : Reuss Voigt Hill
#
# Bulk Modulus (GPa) = 33.45182 40.24766 36.84974
# Shear Modulus (GPa) = 19.90534 27.88780 23.89657
#
# Velocity S-wave (km/s) = 3.03582 3.59334 3.32628
# Velocity P-wave (km/s) = 5.27034 5.98756 5.64036
#
# Compressibility (1/GPa) = 0.02989374
#
# Stress axis : x y z
#
# Youngs Moduli (GPa) = 56.61397 71.34134 82.75379
#
# Poissons Ratio (x) = 0.33731 0.14941
# Poissons Ratio (y) = 0.26768 0.03325
# Poissons Ratio (z) = 0.10222 0.02866
#
# Static dielectric constant tensor:
#      x y z
#    x 1.828150 0.000000 0.076670 
#    y 0.000000 1.786060 0.000000 
#    z 0.076670 0.000000 1.910330 
# 
# From -- ./inp_files/313290.got.cif
#   From: 2010.05.17/outbox.cif.g08.bks.cpg/sg12_157_cif.got.tgz:313290.got - 2010.06.03 13:09:07.
