data_PCOD9181533
_publ_section_title
;
Structure prediction by ZEFSAII (Michael W. Deem and Ramdas Pophale) SiO2 
 PCOD9181533
Probable space group: C 2/M
;
_chemical_formula_sum "Si O2"
_cell_formula_units_Z 48
_cell_length_a 22.328469
_cell_length_b 9.233520
_cell_length_c 12.635196
_cell_angle_alpha 90.000000
_cell_angle_beta 109.405237
_cell_angle_gamma 90.000000
_cell_volume 2457.018728
_symmetry_space_group_name_H-M "C 2/M"
_symmetry_group_IT_number 12
_symmetry_cell_setting 'monoclinic'
loop_
_space_group_symop_operation_xyz
x,y,z
-x,y,-z
-x,-y,-z
x,-y,z
1/2+x,1/2+y,z
1/2-x,1/2+y,-z
1/2-x,1/2-y,-z
1/2+x,1/2-y,z
loop_
_atom_site_type_symbol
_atom_site_label
_atom_site_fract_x
_atom_site_fract_y
_atom_site_fract_z
Si Si1 0.575188 0.663877 0.571826
Si Si2 0.405799 0.831001 0.625767
Si Si3 0.230344 0.669313 0.382654
Si Si4 0.244674 0.327842 0.160062
Si Si5 0.049094 0.327453 0.768623
Si Si6 0.851245 0.829048 0.042881
O O1 0.500000 0.656584 0.500000
O O2 0.598185 0.500000 0.605514
O O3 0.604945 0.734764 0.485026
O O4 0.578489 0.761754 0.677806
O O5 0.346202 0.815882 0.667936
O O6 0.473734 0.795679 0.717222
O O7 0.409326 0.000000 0.594270
O O8 0.245464 0.500000 0.404694
O O9 0.250000 0.750000 0.500000
O O10 0.259009 0.720242 0.288227
O O11 0.230523 0.500000 0.155248
O O12 0.302909 0.307932 0.113799
O O13 0.185154 0.242606 0.076622
O O14 0.057938 0.500000 0.777433
O O15 0.084415 0.250759 0.886116
O O16 0.860536 0.000000 0.033550
#
# Coordination Sequence:
#
# PCOD9181533 Si02
#       6
#     8   8   8   8   8   8
#     4   9  17  29  47  73 106 141 177 221 268 313
#     4   9  19  35  52  76 109 145 184 223 268 328
#     4  10  22  39  58  81 110 146 186 226 270 327
#     4   9  20  39  58  79 109 143 182 227 273 324
#     4  10  19  32  53  79 109 144 181 223 274 326
#     4  10  20  35  58  85 110 138 181 231 277 325
#
# _framework density 19.535871
#
# number of rings (size 3 to 8) (size 9 to 14) (size 15 to 20)
#    0.000    2.500    0.000    1.500    2.333    4.667 
#    0.000    0.833    0.000    5.000    0.000    0.000 
#    0.000    0.000    0.000    0.000    0.000    0.000 
#
# Total GULP energy -133973.626212 kJ/mol
# GULP energy per Si atom -5582.234426 kJ/mol
# Density = 1.949141 g / cm^3
# Si number density = 19.535871 Si / 1000 Ang^3
#
#
#
# Elastic Constant Matrix: (Units=GPa)
#
#
# Indices 1 2 3 4 5 6 
#
# 1 42.8154 24.0791 17.7921 0.0000 6.9674 0.0000
# 2 24.0791 61.6635 42.9584 0.0000 13.3770 0.0000
# 3 17.7921 42.9584 111.0975 0.0000 10.3662 0.0000
# 4 0.0000 0.0000 0.0000 33.6182 0.0000 5.5206
# 5 6.9674 13.3770 10.3662 0.0000 32.0946 0.0000
# 6 0.0000 0.0000 0.0000 5.5206 0.0000 19.0452
#
#
#
# Elastic Compliance Matrix: (Units=1/GPa)
#
#
# Indices 1 2 3 4 5 6 
#
# 1 0.030032 -0.011095 -0.000353 0.000000 -0.001781 0.000000
# 2 -0.011095 0.027777 -0.008360 0.000000 -0.006469 0.000000
# 3 -0.000353 -0.008360 0.012330 0.000000 -0.000421 0.000000
# 4 0.000000 0.000000 0.000000 0.031232 0.000000 -0.009053
# 5 -0.001781 -0.006469 -0.000421 0.000000 0.034377 0.000000
# 6 0.000000 0.000000 0.000000 -0.009053 0.000000 0.055131
#
#
# Mechanical properties :
#
#
# Convention : Reuss Voigt Hill
#
# Bulk Modulus (GPa) = 32.76297 42.80395 37.78346
# Shear Modulus (GPa) = 20.77533 25.66806 23.22169
#
# Velocity S-wave (km/s) = 3.26459 3.62870 3.45145
# Velocity P-wave (km/s) = 5.56930 6.28607 5.93851
#
# Compressibility (1/GPa) = 0.03052226
#
# Stress axis : x y z
#
# Youngs Moduli (GPa) = 33.29729 36.00102 81.10524
#
# Poissons Ratio (x) = 0.39943 0.02866
# Poissons Ratio (y) = 0.36943 0.67806
# Poissons Ratio (z) = 0.01177 0.30098
#
# Static dielectric constant tensor:
#      x y z
#    x 1.719370 0.000000 0.018370 
#    y 0.000000 1.661020 0.000000 
#    z 0.018370 0.000000 1.672380 
# 
# From -- ./inp_files/173054.got.cif
#   From: 2010.05.17/outbox.cif.g08.bks.cpg/sg12_87_cif.got.tgz:173054.got - 2010.06.03 13:09:07.
