data_PCOD9181471
_publ_section_title
;
Structure prediction by ZEFSAII (Michael W. Deem and Ramdas Pophale) SiO2 
 PCOD9181471
Probable space group: C 2/M
;
_chemical_formula_sum "Si O2"
_cell_formula_units_Z 40
_cell_length_a 28.174495
_cell_length_b 9.412847
_cell_length_c 19.044634
_cell_angle_alpha 90.000000
_cell_angle_beta 153.957494
_cell_angle_gamma 90.000000
_cell_volume 2217.439085
_symmetry_space_group_name_H-M "C 2/M"
_symmetry_group_IT_number 12
_symmetry_cell_setting 'monoclinic'
loop_
_space_group_symop_operation_xyz
x,y,z
-x,y,-z
-x,-y,-z
x,-y,z
1/2+x,1/2+y,z
1/2-x,1/2+y,-z
1/2-x,1/2-y,-z
1/2+x,1/2-y,z
loop_
_atom_site_type_symbol
_atom_site_label
_atom_site_fract_x
_atom_site_fract_y
_atom_site_fract_z
Si Si1 0.954771 0.332322 0.516733
Si Si2 0.856879 0.668152 0.119096
Si Si3 0.905550 0.836512 0.814737
Si Si4 0.256685 0.166112 0.716736
Si Si5 0.055508 0.333563 0.916125
O O1 0.924760 0.500000 0.475955
O O2 0.852284 0.239787 0.402118
O O3 0.000000 0.295267 0.500000
O O4 0.050155 0.312805 0.699584
O O5 0.832470 0.500000 0.081487
O O6 0.902357 0.713943 0.103762
O O7 0.750000 0.750000 0.000000
O O8 0.807425 0.748991 0.718078
O O9 0.958332 0.759030 0.818253
O O10 0.876944 0.000000 0.762827
O O11 0.000000 0.835914 0.000000
O O12 0.241051 0.000000 0.680173
O O13 0.345421 0.176055 0.897107
O O14 0.023784 0.500000 0.869835
#
# Coordination Sequence:
#
# PCOD9181471 Si02
#       5
#     8   8   8   8   8
#     4  10  21  36  53  75 104 136 170 210 255 302
#     4  10  21  36  54  76 103 135 170 211 256 302
#     4   9  17  30  51  78 105 134 169 208 251 301
#     4  10  19  32  53  78 104 135 170 210 253 299
#     4   9  18  33  52  76 105 135 170 211 253 297
#
# _framework density 18.038827000000001
#
# number of rings (size 3 to 8) (size 9 to 14) (size 15 to 20)
#    0.000    2.400    0.000    2.400    0.000    5.200 
#    0.000    1.000    0.000    0.000    0.000    0.000 
#    0.000    0.000    0.000    0.000    0.000    0.000 
#
# Total GULP energy -111639.043580 kJ/mol
# GULP energy per Si atom -5581.952179 kJ/mol
# Density = 1.799777 g / cm^3
# Si number density = 18.038827 Si / 1000 Ang^3
#
#
#
# Elastic Constant Matrix: (Units=GPa)
#
#
# Indices 1 2 3 4 5 6 
#
# 1 215.4729 115.8185 55.1282 0.0000 23.1194 0.0000
# 2 115.8185 127.4565 53.4188 0.0000 30.9658 0.0000
# 3 55.1282 53.4188 29.2021 0.0000 20.1337 0.0000
# 4 0.0000 0.0000 0.0000 17.4990 0.0000 12.7073
# 5 23.1194 30.9658 20.1337 0.0000 32.1362 0.0000
# 6 0.0000 0.0000 0.0000 12.7073 0.0000 38.9234
#
#
#
# Elastic Compliance Matrix: (Units=1/GPa)
#
#
# Indices 1 2 3 4 5 6 
#
# 1 0.010468 -0.003830 -0.017795 0.000000 0.007308 0.000000
# 2 -0.003830 0.037302 -0.067114 0.000000 0.008859 0.000000
# 3 -0.017795 -0.067114 0.241518 0.000000 -0.073843 0.000000
# 4 0.000000 0.000000 0.000000 0.074904 0.000000 -0.024454
# 5 0.007308 0.008859 -0.073843 0.000000 0.063587 0.000000
# 6 0.000000 0.000000 0.000000 -0.024454 0.000000 0.033675
#
#
# Mechanical properties :
#
#
# Convention : Reuss Voigt Hill
#
# Bulk Modulus (GPa) = 8.94357 91.20695 50.07526
# Shear Modulus (GPa) = 7.39426 27.56279 17.47852
#
# Velocity S-wave (km/s) = 2.02681 3.91317 3.11616
# Velocity P-wave (km/s) = 3.23203 8.43139 6.38492
#
# Compressibility (1/GPa) = 0.11181212
#
# Stress axis : x y z
#
# Youngs Moduli (GPa) = 95.52863 26.80844 4.14047
#
# Poissons Ratio (x) = 0.10267 0.07368
# Poissons Ratio (y) = 0.36584 0.27788
# Poissons Ratio (z) = 1.69990 1.79921
#
# Static dielectric constant tensor:
#      x y z
#    x 1.595150 0.000000 -0.017440 
#    y 0.000000 1.608140 0.000000 
#    z -0.017440 0.000000 1.593560 
# 
# From -- ./inp_files/151680.got.cif
#   From: 2010.05.17/outbox.cif.g08.bks.cpg/sg12_76_cif.got.tgz:151680.got - 2010.06.03 13:09:07.
