data_PCOD9181900
_publ_section_title
;
Structure prediction by ZEFSAII (Michael W. Deem and Ramdas Pophale) SiO2 
 PCOD9181900
Probable space group: C 2/M
;
_chemical_formula_sum "Si O2"
_cell_formula_units_Z 64
_cell_length_a 15.153545
_cell_length_b 7.518230
_cell_length_c 28.687605
_cell_angle_alpha 90.000000
_cell_angle_beta 130.349739
_cell_angle_gamma 90.000000
_cell_volume 2490.805649
_symmetry_space_group_name_H-M "C 2/M"
_symmetry_group_IT_number 12
_symmetry_cell_setting 'monoclinic'
loop_
_space_group_symop_operation_xyz
x,y,z
-x,y,-z
-x,-y,-z
x,-y,z
1/2+x,1/2+y,z
1/2-x,1/2+y,-z
1/2-x,1/2-y,-z
1/2+x,1/2-y,z
loop_
_atom_site_type_symbol
_atom_site_label
_atom_site_fract_x
_atom_site_fract_y
_atom_site_fract_z
Si Si1 0.979456 0.781204 0.113711
Si Si2 0.122358 0.203843 0.016881
Si Si3 0.197873 0.204637 0.237286
Si Si4 0.178804 0.702554 0.853614
Si Si5 0.534658 0.215511 0.269759
Si Si6 0.628221 0.204421 0.542813
Si Si7 0.366630 0.709827 0.594645
Si Si8 0.401952 0.706290 0.368155
O O1 0.911551 0.705473 0.134401
O O2 0.114424 0.728488 0.166960
O O3 0.977731 0.000000 0.113917
O O4 0.908897 0.720362 0.044226
O O5 0.210726 0.289098 0.083747
O O6 0.164336 0.000000 0.023168
O O7 0.000000 0.193765 0.000000
O O8 0.116183 0.219240 0.255455
O O9 0.319117 0.284068 0.295014
O O10 0.222347 0.000000 0.235855
O O11 0.211296 0.500000 0.851461
O O12 0.097842 0.777030 0.785049
O O13 0.583384 0.271665 0.336018
O O14 0.535125 0.000000 0.268021
O O15 0.500000 0.286810 0.500000
O O16 0.736086 0.285362 0.551566
O O17 0.658045 0.204660 0.608027
O O18 0.616414 0.000000 0.523602
O O19 0.357008 0.500000 0.581459
O O20 0.469874 0.782255 0.597751
O O21 0.412886 0.500000 0.383633
#
# Coordination Sequence:
#
# PCOD9181900 Si02
#       8
#     8   8   8   8   8   8   8   8
#     4   9  18  31  51  75  98 134 180 223 273 335
#     4   9  17  30  47  68  98 135 176 225 276 324
#     4  10  19  33  54  80 111 146 186 236 289 339
#     4   9  18  31  50  75 102 134 175 227 276 325
#     4  10  19  32  54  83 111 144 188 235 285 342
#     4  10  22  42  66  89 118 158 197 234 280 336
#     4  10  22  39  59  86 122 157 189 235 289 335
#     4  11  23  38  59  89 121 155 195 237 284 337
#
# _framework density 25.694499
#
# number of rings (size 3 to 8) (size 9 to 14) (size 15 to 20)
#    0.000    2.250    1.250    1.500    0.000    3.750 
#    0.000    2.500    0.000    1.500    0.000    0.000 
#    0.000    0.000    0.000    0.000    0.000    0.000 
#
# Total GULP energy -178731.707616 kJ/mol
# GULP energy per Si atom -5585.365863 kJ/mol
# Density = 2.563602 g / cm^3
# Si number density = 25.694499 Si / 1000 Ang^3
#
#
#
# Elastic Constant Matrix: (Units=GPa)
#
#
# Indices 1 2 3 4 5 6 
#
# 1 88.9026 13.0013 38.3346 0.0000 15.5012 0.0000
# 2 13.0013 87.4375 17.5996 0.0000 5.5308 0.0000
# 3 38.3346 17.5996 141.5055 0.0000 33.3921 0.0000
# 4 0.0000 0.0000 0.0000 12.2583 0.0000 0.3230
# 5 15.5012 5.5308 33.3921 0.0000 55.6126 0.0000
# 6 0.0000 0.0000 0.0000 0.3230 0.0000 9.4844
#
#
#
# Elastic Compliance Matrix: (Units=1/GPa)
#
#
# Indices 1 2 3 4 5 6 
#
# 1 0.013007 -0.001228 -0.002964 0.000000 -0.001723 0.000000
# 2 -0.001228 0.011852 -0.001100 0.000000 -0.000176 0.000000
# 3 -0.002964 -0.001100 0.009071 0.000000 -0.004511 0.000000
# 4 0.000000 0.000000 0.000000 0.081651 0.000000 -0.002780
# 5 -0.001723 -0.000176 -0.004511 0.000000 0.021188 0.000000
# 6 0.000000 0.000000 0.000000 -0.002780 0.000000 0.105531
#
#
# Mechanical properties :
#
#
# Convention : Reuss Voigt Hill
#
# Bulk Modulus (GPa) = 42.83540 50.63518 46.73529
# Shear Modulus (GPa) = 19.18168 32.06505 25.62337
#
# Velocity S-wave (km/s) = 2.73523 3.53644 3.16132
# Velocity P-wave (km/s) = 5.16552 6.03528 5.61726
#
# Compressibility (1/GPa) = 0.02334518
#
# Stress axis : x y z
#
# Youngs Moduli (GPa) = 76.88462 84.37475 110.23950
#
# Poissons Ratio (x) = 0.10364 0.32676
# Poissons Ratio (y) = 0.09444 0.12124
# Poissons Ratio (z) = 0.22789 0.09279
#
# Static dielectric constant tensor:
#      x y z
#    x 2.016480 0.000000 0.012470 
#    y 0.000000 2.054010 0.000000 
#    z 0.012470 0.000000 2.147420 
# 
# From -- ./inp_files/375528.got.cif
#   From: 2010.05.17/outbox.cif.g08.bks.cpg/sg12_188_cif.got.tgz:375528.got - 2010.06.03 13:09:07.
