data_PCOD9181275
_publ_section_title
;
Structure prediction by ZEFSAII (Michael W. Deem and Ramdas Pophale) SiO2 
 PCOD9181275
Probable space group: C 2/M
;
_chemical_formula_sum "Si O2"
_cell_formula_units_Z 56
_cell_length_a 24.821900
_cell_length_b 7.506201
_cell_length_c 15.887208
_cell_angle_alpha 90.000000
_cell_angle_beta 55.417968
_cell_angle_gamma 90.000000
_cell_volume 2437.072822
_symmetry_space_group_name_H-M "C 2/M"
_symmetry_group_IT_number 12
_symmetry_cell_setting 'monoclinic'
loop_
_space_group_symop_operation_xyz
x,y,z
-x,y,-z
-x,-y,-z
x,-y,z
1/2+x,1/2+y,z
1/2-x,1/2+y,-z
1/2-x,1/2-y,-z
1/2+x,1/2-y,z
loop_
_atom_site_type_symbol
_atom_site_label
_atom_site_fract_x
_atom_site_fract_y
_atom_site_fract_z
Si Si1 0.575259 0.215338 0.450595
Si Si2 0.067196 0.296582 0.973458
Si Si3 0.798269 0.287265 0.380422
Si Si4 0.332349 0.293626 0.786497
Si Si5 0.209878 0.719237 0.798561
Si Si6 0.074626 0.715519 0.640721
Si Si7 0.568560 0.290333 0.163690
O O1 0.500000 0.266010 0.500000
O O2 0.622097 0.287018 0.336831
O O3 0.592346 0.272637 0.530157
O O4 0.578845 0.000000 0.443409
O O5 0.067461 0.500000 0.939729
O O6 0.066089 0.297808 0.075043
O O7 0.136425 0.220166 0.883310
O O8 0.000000 0.212276 0.000000
O O9 0.803520 0.500000 0.368188
O O10 0.750000 0.250000 0.500000
O O11 0.774085 0.223330 0.311027
O O12 0.870413 0.221114 0.342677
O O13 0.321090 0.500000 0.818379
O O14 0.263082 0.216287 0.818756
O O15 0.374671 0.216798 0.825595
O O16 0.211633 0.500000 0.800381
O O17 0.074944 0.500000 0.640684
O O18 0.001534 0.770775 0.729088
O O19 0.579677 0.500000 0.139981
#
# Coordination Sequence:
#
# PCOD9181275 Si02
#       7
#     8   8   8   8   8   8   8
#     4  10  19  32  52  79 112 148 186 229 273 318
#     4  10  21  40  65  85 104 140 187 229 275 332
#     4  10  20  35  57  83 111 143 182 226 272 325
#     4  10  21  36  54  79 114 150 184 222 274 338
#     4   9  19  37  58  80 109 146 184 224 271 328
#     4  10  20  35  55  80 111 148 190 232 274 328
#     4  11  23  36  54  83 113 142 181 230 279 326
#
# _framework density 22.978387999999999
#
# number of rings (size 3 to 8) (size 9 to 14) (size 15 to 20)
#    0.000    2.000    1.429    2.143    0.000    5.143 
#    0.000    1.429    0.000    0.000    0.000    0.000 
#    0.000    0.000    0.000    0.000    0.000    0.000 
#
# Total GULP energy -156518.140663 kJ/mol
# GULP energy per Si atom -5589.933595 kJ/mol
# Density = 2.292609 g / cm^3
# Si number density = 22.978388 Si / 1000 Ang^3
#
#
#
# Elastic Constant Matrix: (Units=GPa)
#
#
# Indices 1 2 3 4 5 6 
#
# 1 205.1167 5.8944 54.0961 0.0001 -0.6218 0.0000
# 2 5.8944 64.3738 -12.7255 0.0001 1.3000 -0.0001
# 3 54.0961 -12.7255 86.7594 0.0000 4.8090 0.0000
# 4 0.0001 0.0001 0.0000 11.8952 0.0000 5.2838
# 5 -0.6218 1.3000 4.8090 0.0000 39.5131 0.0000
# 6 0.0000 -0.0001 0.0000 5.2838 0.0000 -0.5691
#
#
#
# Elastic Compliance Matrix: (Units=1/GPa)
#
#
# Indices 1 2 3 4 5 6 
#
# 1 0.005956 -0.001337 -0.003944 0.000000 0.000618 0.000000
# 2 -0.001337 0.016325 0.003281 0.000000 -0.000958 -0.000001
# 3 -0.003944 0.003281 0.014574 0.000000 -0.001944 0.000000
# 4 0.000000 0.000000 0.000000 0.016407 0.000000 0.152321
# 5 0.000618 -0.000958 -0.001944 0.000000 0.025586 0.000000
# 6 0.000000 -0.000001 0.000000 0.152321 0.000000 -0.342911
#
#
# Mechanical properties :
#
#
# Convention : Reuss Voigt Hill
#
# Bulk Modulus (GPa) = 30.43684 50.08666 40.26175
# Shear Modulus (GPa) = -20.07128 30.76682 5.34777
#
# Velocity S-wave (km/s) = -2.95868 3.66313 1.52721
# Velocity P-wave (km/s) = 1.26604 6.30365 4.54636
#
# Compressibility (1/GPa) = 0.03285492
#
# Stress axis : x y z
#
# Youngs Moduli (GPa) = 167.90572 61.25668 68.61394
#
# Poissons Ratio (x) = 0.08193 0.27061
# Poissons Ratio (y) = 0.22457 -0.22515
# Poissons Ratio (z) = 0.66221 -0.20101
#
# Static dielectric constant tensor:
#      x y z
#    x 1.868710 0.000000 0.006110 
#    y 0.000000 1.910070 0.000000 
#    z 0.006110 0.000000 1.805460 
# 
# From -- ./inp_files/238262.got.cif
#   From: 2010.05.17/outbox.cif.g08.bks.cpg/sg12_120_cif.got.tgz:238262.got - 2010.06.03 13:09:07.
