data_PCOD9181376
_publ_section_title
;
Structure prediction by ZEFSAII (Michael W. Deem and Ramdas Pophale) SiO2 
 PCOD9181376
Probable space group: C 2/M
;
_chemical_formula_sum "Si O2"
_cell_formula_units_Z 64
_cell_length_a 23.501117
_cell_length_b 17.662812
_cell_length_c 12.061973
_cell_angle_alpha 90.000000
_cell_angle_beta 47.635774
_cell_angle_gamma 90.000000
_cell_volume 3699.460450
_symmetry_space_group_name_H-M "C 2/M"
_symmetry_group_IT_number 12
_symmetry_cell_setting 'monoclinic'
loop_
_space_group_symop_operation_xyz
x,y,z
-x,y,-z
-x,-y,-z
x,-y,z
1/2+x,1/2+y,z
1/2-x,1/2+y,-z
1/2-x,1/2-y,-z
1/2+x,1/2-y,z
loop_
_atom_site_type_symbol
_atom_site_label
_atom_site_fract_x
_atom_site_fract_y
_atom_site_fract_z
Si Si1 0.300048 0.409010 0.826291
Si Si2 0.502224 0.087147 0.862303
Si Si3 0.154469 0.337393 0.924632
Si Si4 0.669709 0.908357 0.662138
Si Si5 0.832037 0.911330 0.354978
Si Si6 0.915353 0.911558 0.483572
Si Si7 0.568410 0.409915 0.178082
Si Si8 0.418936 0.313827 0.057081
O O1 0.283695 0.500000 0.833201
O O2 0.222853 0.360504 0.916511
O O3 0.357876 0.382192 0.652417
O O4 0.348608 0.399692 0.874705
O O5 0.587184 0.117251 0.722209
O O6 0.496091 0.000000 0.834502
O O7 0.500000 0.087411 0.000000
O O8 0.427230 0.131544 0.923758
O O9 0.174858 0.378621 0.781015
O O10 0.136642 0.251429 0.915884
O O11 0.743876 0.887126 0.493262
O O12 0.667977 0.000000 0.670866
O O13 0.873894 0.906792 0.419032
O O14 0.875666 0.860640 0.208990
O O15 0.833101 0.000000 0.319898
O O16 0.001380 0.881898 0.349988
O O17 0.924630 0.000000 0.502197
O O18 0.556019 0.500000 0.178820
O O19 0.561322 0.368436 0.071067
O O20 0.500000 0.282627 0.000000
#
# Coordination Sequence:
#
# PCOD9181376 Si02
#       8
#     8   8   8   8   8   8   8   8
#     4  10  19  34  57  82 102 126 171 221 261 300
#     4   8  14  26  46  69  96 126 159 205 258 302
#     4  11  20  31  48  74 105 136 165 207 257 305
#     4   9  16  30  50  73  99 128 169 217 261 299
#     4  10  19  32  53  75 100 135 171 211 255 302
#     4   9  16  31  55  80 101 123 162 218 265 297
#     4  10  21  36  55  76 101 137 176 213 252 299
#     4  12  24  35  48  72 109 148 175 197 242 311
#
# _framework density 17.29982
#
# number of rings (size 3 to 8) (size 9 to 14) (size 15 to 20)
#    0.000    2.125    2.500    3.750    0.000    3.000 
#    0.000    0.000    0.000    0.000    0.000    0.875 
#    0.000    5.000    0.000    0.000    0.000    0.250 
#
# Total GULP energy -178382.944919 kJ/mol
# GULP energy per Si atom -5574.467029 kJ/mol
# Density = 1.726044 g / cm^3
# Si number density = 17.299820 Si / 1000 Ang^3
#
#
#
# Elastic Constant Matrix: (Units=GPa)
#
#
# Indices 1 2 3 4 5 6 
#
# 1 74.2643 22.2016 19.1625 0.0000 -24.1958 0.0000
# 2 22.2016 30.1541 10.4012 0.0000 -6.6883 0.0000
# 3 19.1625 10.4012 52.3682 0.0000 -22.3023 0.0000
# 4 0.0000 0.0000 0.0000 7.1203 0.0000 0.7719
# 5 -24.1958 -6.6883 -22.3023 0.0000 29.1397 0.0000
# 6 0.0000 0.0000 0.0000 0.7719 0.0000 13.8688
#
#
#
# Elastic Compliance Matrix: (Units=1/GPa)
#
#
# Indices 1 2 3 4 5 6 
#
# 1 0.022564 -0.013421 0.001597 0.000000 0.016878 0.000000
# 2 -0.013421 0.043917 -0.006327 0.000000 -0.005906 0.000000
# 3 0.001597 -0.006327 0.029247 0.000000 0.022258 0.000000
# 4 0.000000 0.000000 0.000000 0.141297 0.000000 -0.007865
# 5 0.016878 -0.005906 0.022258 0.000000 0.064011 0.000000
# 6 0.000000 0.000000 0.000000 -0.007865 0.000000 0.072542
#
#
# Mechanical properties :
#
#
# Convention : Reuss Voigt Hill
#
# Bulk Modulus (GPa) = 16.82768 28.92414 22.87591
# Shear Modulus (GPa) = 11.63633 17.02719 14.33176
#
# Velocity S-wave (km/s) = 2.59632 3.14067 2.88138
# Velocity P-wave (km/s) = 4.32851 5.46876 4.93170
#
# Compressibility (1/GPa) = 0.05942590
#
# Stress axis : x y z
#
# Youngs Moduli (GPa) = 44.31751 22.77045 34.19145
#
# Poissons Ratio (x) = 0.30560 -0.05459
# Poissons Ratio (y) = 0.59477 0.21633
# Poissons Ratio (z) = -0.07076 0.14407
#
# Static dielectric constant tensor:
#      x y z
#    x 1.613730 0.000000 -0.040580 
#    y 0.000000 1.589060 0.000000 
#    z -0.040580 0.000000 1.592000 
# 
# From -- ./inp_files/168496.got.cif
#   From: 2010.05.17/outbox.cif.g08.bks.cpg/sg12_85_cif.got.tgz:168496.got - 2010.06.03 13:09:07.
