data_PCOD9181308
_publ_section_title
;
Structure prediction by ZEFSAII (Michael W. Deem and Ramdas Pophale) SiO2 
 PCOD9181308
Probable space group: C 2/M
;
_chemical_formula_sum "Si O2"
_cell_formula_units_Z 48
_cell_length_a 19.840867
_cell_length_b 20.895502
_cell_length_c 5.169308
_cell_angle_alpha 90.000000
_cell_angle_beta 95.849110
_cell_angle_gamma 90.000000
_cell_volume 2131.959260
_symmetry_space_group_name_H-M "C 2/M"
_symmetry_group_IT_number 12
_symmetry_cell_setting 'monoclinic'
loop_
_space_group_symop_operation_xyz
x,y,z
-x,y,-z
-x,-y,-z
x,-y,z
1/2+x,1/2+y,z
1/2-x,1/2+y,-z
1/2-x,1/2-y,-z
1/2+x,1/2-y,z
loop_
_atom_site_type_symbol
_atom_site_label
_atom_site_fract_x
_atom_site_fract_y
_atom_site_fract_z
Si Si1 0.544025 0.788802 0.776097
Si Si2 0.194489 0.623286 0.445224
Si Si3 0.075690 0.078302 0.106904
Si Si4 0.343522 0.577041 0.362579
Si Si5 0.185757 0.293833 0.943345
Si Si6 0.428591 0.932199 0.329790
O O1 0.500000 0.781857 0.500000
O O2 0.618338 0.758254 0.814079
O O3 0.563909 0.864776 0.814908
O O4 0.500000 0.768043 0.000000
O O5 0.265894 0.595249 0.382267
O O6 0.205202 0.656521 0.726078
O O7 0.132112 0.576473 0.487064
O O8 0.172269 0.672951 0.214784
O O9 0.105786 0.100608 0.391982
O O10 0.073275 0.000000 0.115575
O O11 0.127959 0.097098 0.903283
O O12 0.000000 0.099328 0.000000
O O13 0.346664 0.500000 0.369798
O O14 0.250000 0.250000 0.000000
O O15 0.500000 0.936330 0.500000
O O16 0.417513 0.000000 0.181941
#
# Coordination Sequence:
#
# PCOD9181308 Si02
#       6
#     8   8   8   8   8   8
#     4  10  20  37  60  87 116 151 195 237 284 346
#     4  11  22  37  57  84 115 149 190 233 280 339
#     4   9  17  30  50  75 103 143 189 223 261 320
#     4  10  19  32  52  80 114 147 179 224 280 339
#     4  11  23  40  62  83 108 146 193 243 289 334
#     4   9  18  33  54  84 122 157 187 223 272 335
#
# _framework density 22.514502
#
# number of rings (size 3 to 8) (size 9 to 14) (size 15 to 20)
#    0.000    2.000    0.000    5.500    0.000    2.333 
#    0.000   12.500    0.000   10.000    0.000    0.000 
#    0.000    0.000    0.000    0.000    0.000    0.000 
#
# Total GULP energy -134026.640890 kJ/mol
# GULP energy per Si atom -5584.443370 kJ/mol
# Density = 2.246326 g / cm^3
# Si number density = 22.514502 Si / 1000 Ang^3
#
#
#
# Elastic Constant Matrix: (Units=GPa)
#
#
# Indices 1 2 3 4 5 6 
#
# 1 135.9294 15.5278 10.5098 0.0000 16.8212 0.0000
# 2 15.5278 32.2020 10.0187 0.0000 10.5491 0.0000
# 3 10.5098 10.0187 75.8963 0.0000 6.9696 0.0000
# 4 0.0000 0.0000 0.0000 29.4447 0.0000 -0.1649
# 5 16.8212 10.5491 6.9696 0.0000 40.6786 0.0000
# 6 0.0000 0.0000 0.0000 -0.1649 0.0000 23.4790
#
#
#
# Elastic Compliance Matrix: (Units=1/GPa)
#
#
# Indices 1 2 3 4 5 6 
#
# 1 0.008035 -0.002905 -0.000501 0.000000 -0.002483 0.000000
# 2 -0.002905 0.036060 -0.003667 0.000000 -0.007522 0.000000
# 3 -0.000501 -0.003667 0.013841 0.000000 -0.001213 0.000000
# 4 0.000000 0.000000 0.000000 0.033963 0.000000 0.000239
# 5 -0.002483 -0.007522 -0.001213 0.000000 0.027768 0.000000
# 6 0.000000 0.000000 0.000000 0.000239 0.000000 0.042593
#
#
# Mechanical properties :
#
#
# Convention : Reuss Voigt Hill
#
# Bulk Modulus (GPa) = 22.83682 35.12671 28.98177
# Shear Modulus (GPa) = 26.17771 32.58521 29.38146
#
# Velocity S-wave (km/s) = 3.41354 3.80846 3.61640
# Velocity P-wave (km/s) = 5.06967 5.91396 5.50801
#
# Compressibility (1/GPa) = 0.04378893
#
# Stress axis : x y z
#
# Youngs Moduli (GPa) = 124.46088 27.73176 72.25039
#
# Poissons Ratio (x) = 0.08056 0.03620
# Poissons Ratio (y) = 0.36155 0.26495
# Poissons Ratio (z) = 0.06237 0.10169
#
# Static dielectric constant tensor:
#      x y z
#    x 1.850380 0.000000 0.011520 
#    y 0.000000 1.937830 0.000000 
#    z 0.011520 0.000000 1.788100 
# 
# From -- ./inp_files/16685.got.cif
#   From: 2010.05.17/outbox.cif.g08.bks.cpg/sg12_9_cif.got.tgz:16685.got - 2010.06.03 13:09:07.
