data_PCOD9181179
_publ_section_title
;
Structure prediction by ZEFSAII (Michael W. Deem and Ramdas Pophale) SiO2 
 PCOD9181179
Probable space group: C 2/M
;
_chemical_formula_sum "Si O2"
_cell_formula_units_Z 56
_cell_length_a 9.757719
_cell_length_b 29.101153
_cell_length_c 14.248965
_cell_angle_alpha 90.000000
_cell_angle_beta 42.581779
_cell_angle_gamma 90.000000
_cell_volume 2737.793417
_symmetry_space_group_name_H-M "C 2/M"
_symmetry_group_IT_number 12
_symmetry_cell_setting 'monoclinic'
loop_
_space_group_symop_operation_xyz
x,y,z
-x,y,-z
-x,-y,-z
x,-y,z
1/2+x,1/2+y,z
1/2-x,1/2+y,-z
1/2-x,1/2-y,-z
1/2+x,1/2-y,z
loop_
_atom_site_type_symbol
_atom_site_label
_atom_site_fract_x
_atom_site_fract_y
_atom_site_fract_z
Si Si1 0.794348 0.349363 0.004906
Si Si2 0.164223 0.051699 0.052344
Si Si3 0.821802 0.698061 0.193714
Si Si4 0.996234 0.358499 0.388185
Si Si5 0.867130 0.202291 0.424751
Si Si6 0.392133 0.697158 0.185754
Si Si7 0.209841 0.551199 0.229990
O O1 0.795931 0.322617 0.102824
O O2 0.591149 0.331496 0.056731
O O3 0.774565 0.403380 0.035742
O O4 0.002740 0.333832 0.850528
O O5 0.226728 0.051544 0.911186
O O6 0.207401 0.000000 0.067254
O O7 0.921354 0.059478 0.178589
O O8 0.595155 0.700523 0.349455
O O9 0.900584 0.750129 0.151037
O O10 0.183024 0.326511 0.261372
O O11 0.049028 0.409594 0.330032
O O12 0.000000 0.357817 0.500000
O O13 0.781573 0.337895 0.466567
O O14 0.750000 0.250000 0.500000
O O15 0.884905 0.197982 0.302959
O O16 0.137690 0.500000 0.289923
#
# Coordination Sequence:
#
# PCOD9181179 Si02
#       7
#     8   8   8   8   8   8   8
#     4  10  20  36  53  78 106 136 175 229 268 310
#     4   9  18  35  58  81 105 135 174 223 280 328
#     4  10  21  35  49  73 110 143 182 212 255 320
#     4  10  19  32  52  77 106 139 174 209 263 316
#     4  10  20  33  51  71 103 147 185 211 246 311
#     4  10  19  34  51  74 107 142 173 220 265 305
#     4   9  18  34  55  83 107 129 170 226 281 327
#
# _framework density 20.454428
#
# number of rings (size 3 to 8) (size 9 to 14) (size 15 to 20)
#    0.000    2.286    2.857    1.286    0.000    1.429 
#    5.143    1.429    0.000    0.857    0.000    2.000 
#    0.000    0.000    0.000    0.000    0.000    0.000 
#
# Total GULP energy -156304.090136 kJ/mol
# GULP energy per Si atom -5582.288933 kJ/mol
# Density = 2.040787 g / cm^3
# Si number density = 20.454428 Si / 1000 Ang^3
#
#
#
# Elastic Constant Matrix: (Units=GPa)
#
#
# Indices 1 2 3 4 5 6 
#
# 1 36.8778 13.9966 25.4733 0.0000 -8.5958 0.0000
# 2 13.9966 178.9224 62.4021 0.0000 -28.6986 0.0000
# 3 25.4733 62.4021 127.9719 0.0000 -30.9522 0.0000
# 4 0.0000 0.0000 0.0000 39.5806 0.0000 13.5381
# 5 -8.5958 -28.6986 -30.9522 0.0000 32.5981 0.0000
# 6 0.0000 0.0000 0.0000 13.5381 0.0000 198.9547
#
#
#
# Elastic Compliance Matrix: (Units=1/GPa)
#
#
# Indices 1 2 3 4 5 6 
#
# 1 0.031675 -0.000057 -0.005542 0.000000 0.003040 0.000000
# 2 -0.000057 0.007086 -0.002517 0.000000 0.003834 0.000000
# 3 -0.005542 -0.002517 0.012014 0.000000 0.007731 0.000000
# 4 0.000000 0.000000 0.000000 0.025867 0.000000 -0.001760
# 5 0.003040 0.003834 0.007731 0.000000 0.042194 0.000000
# 6 0.000000 0.000000 0.000000 -0.001760 0.000000 0.005146
#
#
# Mechanical properties :
#
#
# Convention : Reuss Voigt Hill
#
# Bulk Modulus (GPa) = 28.94893 60.83512 44.89203
# Shear Modulus (GPa) = 32.95356 70.35333 51.65345
#
# Velocity S-wave (km/s) = 4.01817 5.87110 5.03068
# Velocity P-wave (km/s) = 5.97589 8.70437 7.46583
#
# Compressibility (1/GPa) = 0.03454359
#
# Stress axis : x y z
#
# Youngs Moduli (GPa) = 31.57069 141.12002 83.23384
#
# Poissons Ratio (x) = 0.00811 0.46126
# Poissons Ratio (y) = 0.00181 0.20947
# Poissons Ratio (z) = 0.17496 0.35515
#
# Static dielectric constant tensor:
#      x y z
#    x 1.811140 0.000000 0.013110 
#    y 0.000000 1.718240 0.000000 
#    z 0.013110 0.000000 1.796750 
# 
# From -- ./inp_files/135277.got.cif
#   From: 2010.05.17/outbox.cif.g08.bks.cpg/sg12_68_cif.got.tgz:135277.got - 2010.06.03 13:09:07.
