data_PCOD9181121
_publ_section_title
;
Structure prediction by ZEFSAII (Michael W. Deem and Ramdas Pophale) SiO2 
 PCOD9181121
Probable space group: C 2/M
;
_chemical_formula_sum "Si O2"
_cell_formula_units_Z 48
_cell_length_a 15.045883
_cell_length_b 14.819932
_cell_length_c 9.841968
_cell_angle_alpha 90.000000
_cell_angle_beta 79.267879
_cell_angle_gamma 90.000000
_cell_volume 2156.165934
_symmetry_space_group_name_H-M "C 2/M"
_symmetry_group_IT_number 12
_symmetry_cell_setting 'monoclinic'
loop_
_space_group_symop_operation_xyz
x,y,z
-x,y,-z
-x,-y,-z
x,-y,z
1/2+x,1/2+y,z
1/2-x,1/2+y,-z
1/2-x,1/2-y,-z
1/2+x,1/2-y,z
loop_
_atom_site_type_symbol
_atom_site_label
_atom_site_fract_x
_atom_site_fract_y
_atom_site_fract_z
Si Si1 0.967549 0.205970 0.371095
Si Si2 0.942186 0.596405 0.345360
Si Si3 0.214277 0.892169 0.627926
Si Si4 0.753961 0.400851 0.294139
Si Si5 0.337908 0.767662 0.786441
Si Si6 0.583353 0.900170 0.073561
O O1 0.932583 0.307428 0.420028
O O2 0.885612 0.152618 0.324596
O O3 0.000000 0.158151 0.500000
O O4 0.059878 0.228384 0.266517
O O5 0.928688 0.500000 0.424163
O O6 0.862139 0.597526 0.258647
O O7 0.035596 0.593093 0.237050
O O8 0.232435 0.882444 0.460245
O O9 0.288585 0.836130 0.692765
O O10 0.216179 0.000000 0.657802
O O11 0.717651 0.500000 0.272216
O O12 0.718505 0.322585 0.211819
O O13 0.344328 0.822910 0.924104
O O14 0.617869 0.000000 0.030710
O O15 0.500000 0.877123 0.000000
#
# Coordination Sequence:
#
# PCOD9181121 Si02
#       6
#     8   8   8   8   8   8
#     4  11  20  31  52  76 111 147 182 219 262 317
#     4   9  18  32  51  75 103 135 174 221 271 315
#     4  11  22  35  52  80 116 153 188 219 259 322
#     4  10  19  32  52  76 108 144 179 214 257 317
#     4  11  20  34  56  78 108 143 184 223 272 317
#     4   9  19  36  57  80 103 131 175 231 284 328
#
# _framework density 22.261737
#
# number of rings (size 3 to 8) (size 9 to 14) (size 15 to 20)
#    0.000    1.833    3.333    2.000    0.000    2.000 
#    0.000    0.833    0.000    0.500    0.000    0.000 
#    0.000    0.000    0.000    0.000    0.000    0.000 
#
# Total GULP energy -133749.053272 kJ/mol
# GULP energy per Si atom -5572.877220 kJ/mol
# Density = 2.221107 g / cm^3
# Si number density = 22.261737 Si / 1000 Ang^3
#
#
#
# Elastic Constant Matrix: (Units=GPa)
#
#
# Indices 1 2 3 4 5 6 
#
# 1 129.1498 64.5294 31.7086 0.0000 8.9479 0.0000
# 2 64.5294 159.1401 40.6314 0.0000 27.9032 0.0000
# 3 31.7086 40.6314 51.1148 0.0000 10.2796 0.0000
# 4 0.0000 0.0000 0.0000 12.5404 0.0000 3.2713
# 5 8.9479 27.9032 10.2796 0.0000 34.1843 0.0000
# 6 0.0000 0.0000 0.0000 3.2713 0.0000 -10.5438
#
#
#
# Elastic Compliance Matrix: (Units=1/GPa)
#
#
# Indices 1 2 3 4 5 6 
#
# 1 0.010325 -0.003397 -0.003958 0.000000 0.001260 0.000000
# 2 -0.003397 0.009835 -0.004550 0.000000 -0.005770 0.000000
# 3 -0.003958 -0.004550 0.026269 0.000000 -0.003150 0.000000
# 4 0.000000 0.000000 0.000000 0.073772 0.000000 0.022888
# 5 0.001260 -0.005770 -0.003150 0.000000 0.034580 0.000000
# 6 0.000000 0.000000 0.000000 0.022888 0.000000 -0.087741
#
#
# Mechanical properties :
#
#
# Convention : Reuss Voigt Hill
#
# Bulk Modulus (GPa) = 44.21105 68.12705 56.16905
# Shear Modulus (GPa) = 50.81894 20.73854 35.77874
#
# Velocity S-wave (km/s) = 4.78304 3.05549 4.01332
# Velocity P-wave (km/s) = 7.09972 6.56637 6.83825
#
# Compressibility (1/GPa) = 0.02261878
#
# Stress axis : x y z
#
# Youngs Moduli (GPa) = 96.85528 101.68185 38.06734
#
# Poissons Ratio (x) = 0.34541 0.15067
# Poissons Ratio (y) = 0.32902 0.17320
# Poissons Ratio (z) = 0.38336 0.46264
#
# Static dielectric constant tensor:
#      x y z
#    x 1.854920 0.000000 -0.035020 
#    y 0.000000 1.905710 0.000000 
#    z -0.035020 0.000000 1.931550 
# 
# From -- ./inp_files/142890.got.cif
#   From: 2010.05.17/outbox.cif.g08.bks.cpg/sg12_72_cif.got.tgz:142890.got - 2010.06.03 13:09:07.
