data_PCOD9181028
_publ_section_title
;
Structure prediction by ZEFSAII (Michael W. Deem and Ramdas Pophale) SiO2 
 PCOD9181028
Probable space group: C 2/M
;
_chemical_formula_sum "Si O2"
_cell_formula_units_Z 64
_cell_length_a 28.229060
_cell_length_b 7.568705
_cell_length_c 14.853851
_cell_angle_alpha 90.000000
_cell_angle_beta 71.565750
_cell_angle_gamma 90.000000
_cell_volume 3010.787323
_symmetry_space_group_name_H-M "C 2/M"
_symmetry_group_IT_number 12
_symmetry_cell_setting 'monoclinic'
loop_
_space_group_symop_operation_xyz
x,y,z
-x,y,-z
-x,-y,-z
x,-y,z
1/2+x,1/2+y,z
1/2-x,1/2+y,-z
1/2-x,1/2-y,-z
1/2+x,1/2-y,z
loop_
_atom_site_type_symbol
_atom_site_label
_atom_site_fract_x
_atom_site_fract_y
_atom_site_fract_z
Si Si1 0.100877 0.291415 0.266947
Si Si2 0.994169 0.201684 0.404421
Si Si3 0.309165 0.788614 0.457259
Si Si4 0.394918 0.293999 0.116602
Si Si5 0.801761 0.290299 0.266820
Si Si6 0.815089 0.287287 0.648661
Si Si7 0.538146 0.716266 0.762562
Si Si8 0.929833 0.787039 0.903297
O O1 0.094358 0.500000 0.288090
O O2 0.049793 0.200765 0.329418
O O3 0.147253 0.225137 0.297492
O O4 0.105987 0.265701 0.157239
O O5 0.000000 0.285220 0.500000
O O6 0.961181 0.279261 0.341961
O O7 0.976487 0.000000 0.429623
O O8 0.250000 0.750000 0.500000
O O9 0.322237 0.717255 0.350811
O O10 0.330256 0.721192 0.539421
O O11 0.316497 0.000000 0.450729
O O12 0.409390 0.500000 0.106405
O O13 0.335814 0.281440 0.166740
O O14 0.420609 0.220201 0.191545
O O15 0.413892 0.218854 0.010682
O O16 0.807877 0.500000 0.263613
O O17 0.742757 0.254969 0.297746
O O18 0.817933 0.500000 0.644111
O O19 0.539224 0.500000 0.756269
O O20 0.485298 0.768026 0.839517
O O21 0.930153 0.000000 0.906347
#
# Coordination Sequence:
#
# PCOD9181028 Si02
#       8
#     8   8   8   8   8   8   8   8
#     4  10  20  33  52  76 100 130 167 206 249 294
#     4   9  18  33  52  76 107 138 167 200 237 284
#     4   8  15  29  47  66  91 123 156 191 232 278
#     4  10  19  32  52  74  97 129 165 203 250 297
#     4  10  20  32  48  74 104 129 159 204 250 289
#     4   9  18  34  53  71  96 133 171 201 237 294
#     4   8  15  30  52  75  97 126 166 203 236 286
#     4   9  18  34  54  73  95 126 166 208 247 294
#
# _framework density 21.256900000000002
#
# number of rings (size 3 to 8) (size 9 to 14) (size 15 to 20)
#    0.000    2.875    0.000    1.875    0.000    4.750 
#    0.000    3.125    0.000    3.750    0.000    0.000 
#    0.000    0.000    0.000    0.000    0.000    0.000 
#
# Total GULP energy -178384.569794 kJ/mol
# GULP energy per Si atom -5574.517806 kJ/mol
# Density = 2.120852 g / cm^3
# Si number density = 21.256900 Si / 1000 Ang^3
#
#
#
# Elastic Constant Matrix: (Units=GPa)
#
#
# Indices 1 2 3 4 5 6 
#
# 1 71.9414 -7.0422 31.0940 0.0000 28.3096 0.0000
# 2 -7.0422 56.3205 -5.8058 0.0000 4.8849 0.0000
# 3 31.0940 -5.8058 119.3408 0.0000 19.3267 0.0000
# 4 0.0000 0.0000 0.0000 8.8985 0.0000 5.1547
# 5 28.3096 4.8849 19.3267 0.0000 29.9351 0.0000
# 6 0.0000 0.0000 0.0000 5.1547 0.0000 1.8912
#
#
#
# Elastic Compliance Matrix: (Units=1/GPa)
#
#
# Indices 1 2 3 4 5 6 
#
# 1 0.024047 0.004648 -0.002494 0.000000 -0.021889 0.000000
# 2 0.004648 0.019156 0.001049 0.000000 -0.008199 0.000000
# 3 -0.002494 0.001049 0.009745 0.000000 -0.004104 0.000000
# 4 0.000000 0.000000 0.000000 -0.194121 0.000000 0.529107
# 5 -0.021889 -0.008199 -0.004104 0.000000 0.058094 0.000000
# 6 0.000000 0.000000 0.000000 0.529107 0.000000 -0.913391
#
#
# Mechanical properties :
#
#
# Convention : Reuss Voigt Hill
#
# Bulk Modulus (GPa) = 16.84845 31.56608 24.20726
# Shear Modulus (GPa) = -5.08600 23.43539 9.17470
#
# Velocity S-wave (km/s) = -1.54849 3.32397 2.07978
# Velocity P-wave (km/s) = 2.17858 5.44185 4.14487
#
# Compressibility (1/GPa) = 0.05935265
#
# Stress axis : x y z
#
# Youngs Moduli (GPa) = 41.58526 52.20313 102.61831
#
# Poissons Ratio (x) = -0.24265 0.25597
# Poissons Ratio (y) = -0.19330 -0.10760
# Poissons Ratio (z) = 0.10373 -0.05474
#
# Static dielectric constant tensor:
#      x y z
#    x 1.761620 0.000000 0.044100 
#    y 0.000000 1.814350 0.000000 
#    z 0.044100 0.000000 1.796200 
# 
# From -- ./inp_files/243797.got.cif
#   From: 2010.05.17/outbox.cif.g08.bks.cpg/sg12_122_cif.got.tgz:243797.got - 2010.06.03 13:09:07.
