data_PCOD9181210
_publ_section_title
;
Structure prediction by ZEFSAII (Michael W. Deem and Ramdas Pophale) SiO2 
 PCOD9181210
Probable space group: C 2/M
;
_chemical_formula_sum "Si O2"
_cell_formula_units_Z 64
_cell_length_a 24.162990
_cell_length_b 9.137329
_cell_length_c 22.878262
_cell_angle_alpha 90.000000
_cell_angle_beta 47.892533
_cell_angle_gamma 90.000000
_cell_volume 3747.413205
_symmetry_space_group_name_H-M "C 2/M"
_symmetry_group_IT_number 12
_symmetry_cell_setting 'monoclinic'
loop_
_space_group_symop_operation_xyz
x,y,z
-x,y,-z
-x,-y,-z
x,-y,z
1/2+x,1/2+y,z
1/2-x,1/2+y,-z
1/2-x,1/2-y,-z
1/2+x,1/2-y,z
loop_
_atom_site_type_symbol
_atom_site_label
_atom_site_fract_x
_atom_site_fract_y
_atom_site_fract_z
Si Si1 0.034075 0.324407 0.714965
Si Si2 0.542093 0.826130 0.353505
Si Si3 0.828240 0.168823 0.438552
Si Si4 0.681051 0.174979 0.327581
Si Si5 0.994797 0.174694 0.143308
Si Si6 0.576472 0.831781 0.983843
Si Si7 0.909135 0.167410 0.506994
Si Si8 0.345529 0.675332 0.174432
O O1 0.039279 0.500000 0.716478
O O2 0.114919 0.255047 0.643601
O O3 0.003655 0.252834 0.795413
O O4 0.982630 0.289096 0.694874
O O5 0.627159 0.794696 0.310441
O O6 0.487542 0.744288 0.437154
O O7 0.529702 0.000000 0.369420
O O8 0.750000 0.250000 0.500000
O O9 0.866045 0.168729 0.475602
O O10 0.819219 0.000000 0.425715
O O11 0.641136 0.249511 0.410572
O O12 0.765872 0.222075 0.256572
O O13 0.681700 0.000000 0.336497
O O14 0.913861 0.204174 0.170558
O O15 0.002876 0.000000 0.142875
O O16 0.056226 0.240983 0.055929
O O17 0.635964 0.755342 0.899373
O O18 0.595501 0.000000 0.983554
O O19 0.500000 0.832122 0.000000
O O20 0.920220 0.000000 0.517232
O O21 0.343787 0.500000 0.165926
#
# Coordination Sequence:
#
# PCOD9181210 Si02
#       8
#     8   8   8   8   8   8   8   8
#     4  10  20  34  52  74  99 132 171 212 250 294
#     4   9  19  36  54  71  96 134 176 212 251 297
#     4  10  21  35  49  69 100 136 169 207 254 302
#     4  10  20  34  53  75 100 133 171 210 252 302
#     4  10  19  32  52  78 105 134 166 203 246 304
#     4   9  17  31  51  75 103 135 164 198 245 300
#     4  10  21  34  49  73 100 130 170 214 257 297
#     4   9  19  33  50  76 105 132 161 201 252 302
#
# _framework density 17.078448000000002
#
# number of rings (size 3 to 8) (size 9 to 14) (size 15 to 20)
#    0.000    2.375    0.000    2.250    1.750    6.500 
#    0.000    0.000    0.000    0.750    0.000    0.000 
#    0.000    0.000    0.000    0.000    0.000    0.000 
#
# Total GULP energy -178532.117935 kJ/mol
# GULP energy per Si atom -5579.128685 kJ/mol
# Density = 1.703958 g / cm^3
# Si number density = 17.078448 Si / 1000 Ang^3
#
#
#
# Elastic Constant Matrix: (Units=GPa)
#
#
# Indices 1 2 3 4 5 6 
#
# 1 31.3167 28.7152 31.8082 0.0002 -0.5406 -0.0002
# 2 28.7152 67.7737 52.3673 0.0003 10.6155 -0.0007
# 3 31.8082 52.3673 123.2672 0.0001 15.5230 -0.0002
# 4 0.0002 0.0003 0.0001 34.8546 -0.0001 5.5333
# 5 -0.5406 10.6155 15.5230 -0.0001 22.7031 0.0002
# 6 -0.0002 -0.0007 -0.0002 5.5333 0.0002 16.3227
#
#
#
# Elastic Compliance Matrix: (Units=1/GPa)
#
#
# Indices 1 2 3 4 5 6 
#
# 1 0.061229 -0.022007 -0.008677 0.000000 0.017681 0.000000
# 2 -0.022007 0.030258 -0.005830 0.000000 -0.010686 0.000001
# 3 -0.008677 -0.005830 0.013690 0.000000 -0.006841 0.000000
# 4 0.000000 0.000000 0.000000 0.030322 0.000000 -0.010279
# 5 0.017681 -0.010686 -0.006841 0.000000 0.054142 -0.000001
# 6 0.000000 0.000001 0.000000 -0.010279 -0.000001 0.064749
#
#
# Mechanical properties :
#
#
# Convention : Reuss Voigt Hill
#
# Bulk Modulus (GPa) = 31.10569 49.79321 40.44945
# Shear Modulus (GPa) = 14.78703 22.07387 18.43045
#
# Velocity S-wave (km/s) = 2.94569 3.59903 3.28863
# Velocity P-wave (km/s) = 5.46099 6.81833 6.17706
#
# Compressibility (1/GPa) = 0.03214845
#
# Stress axis : x y z
#
# Youngs Moduli (GPa) = 16.33202 33.04953 73.04799
#
# Poissons Ratio (x) = 0.72733 0.63384
# Poissons Ratio (y) = 0.35942 0.42586
# Poissons Ratio (z) = 0.14171 0.19267
#
# Static dielectric constant tensor:
#      x y z
#    x 1.586580 0.000000 0.007880 
#    y 0.000000 1.574980 0.000000 
#    z 0.007880 0.000000 1.546850 
# 
# From -- ./inp_files/324189.got.cif
#   From: 2010.05.17/outbox.cif.g08.bks.cpg/sg12_163_cif.got.tgz:324189.got - 2010.06.03 13:09:07.
