data_PCOD9181045
_publ_section_title
;
Structure prediction by ZEFSAII (Michael W. Deem and Ramdas Pophale) SiO2 
 PCOD9181045
Probable space group: C 2/M
;
_chemical_formula_sum "Si O2"
_cell_formula_units_Z 64
_cell_length_a 16.138019
_cell_length_b 9.421363
_cell_length_c 20.959847
_cell_angle_alpha 90.000000
_cell_angle_beta 65.984409
_cell_angle_gamma 90.000000
_cell_volume 2910.915475
_symmetry_space_group_name_H-M "C 2/M"
_symmetry_group_IT_number 12
_symmetry_cell_setting 'monoclinic'
loop_
_space_group_symop_operation_xyz
x,y,z
-x,y,-z
-x,-y,-z
x,-y,z
1/2+x,1/2+y,z
1/2-x,1/2+y,-z
1/2-x,1/2-y,-z
1/2+x,1/2-y,z
loop_
_atom_site_type_symbol
_atom_site_label
_atom_site_fract_x
_atom_site_fract_y
_atom_site_fract_z
Si Si1 0.286991 0.166280 0.082662
Si Si2 0.676474 0.332694 0.325914
Si Si3 0.039948 0.163054 0.593176
Si Si4 0.925817 0.333747 0.157775
Si Si5 0.430327 0.662704 0.961485
Si Si6 0.436542 0.163041 0.291048
Si Si7 0.845753 0.665321 0.795003
Si Si8 0.699200 0.669316 0.459456
O O1 0.351973 0.175380 0.125125
O O2 0.342664 0.249290 0.010999
O O3 0.196417 0.245514 0.133626
O O4 0.274972 0.000000 0.071786
O O5 0.697697 0.500000 0.305783
O O6 0.568129 0.323619 0.373913
O O7 0.689424 0.236624 0.259723
O O8 0.719379 0.288638 0.380215
O O9 0.093720 0.194593 0.511598
O O10 0.077821 0.253871 0.639778
O O11 0.059719 0.000000 0.602267
O O12 0.952345 0.500000 0.154076
O O13 0.891979 0.289785 0.238442
O O14 0.011516 0.241038 0.110382
O O15 0.408632 0.500000 0.952737
O O16 0.500000 0.661132 0.000000
O O17 0.545099 0.171659 0.242762
O O18 0.412028 0.000000 0.309780
O O19 0.818792 0.500000 0.808201
O O20 0.715457 0.500000 0.457698
O O21 0.750000 0.750000 0.500000
#
# Coordination Sequence:
#
# PCOD9181045 Si02
#       8
#     8   8   8   8   8   8   8   8
#     4  10  19  32  52  75 100 133 170 205 246 298
#     4   9  18  35  56  73  95 132 173 206 242 295
#     4   9  18  34  55  75  96 129 172 209 242 290
#     4   9  18  33  52  73  98 130 168 206 246 297
#     4   9  17  30  49  74 102 130 164 207 252 295
#     4   9  19  35  53  74 101 132 165 205 252 297
#     4  10  20  34  52  75 103 131 164 208 252 294
#     4  10  21  35  52  77 106 133 163 205 253 296
#
# _framework density 21.986208999999999
#
# number of rings (size 3 to 8) (size 9 to 14) (size 15 to 20)
#    0.000    2.625    0.000    1.500    0.000    6.500 
#    0.000    4.375    0.000    3.750    0.000    0.000 
#    0.000    0.000    0.000    0.000    0.000    0.000 
#
# Total GULP energy -178817.632277 kJ/mol
# GULP energy per Si atom -5588.051009 kJ/mol
# Density = 2.193617 g / cm^3
# Si number density = 21.986209 Si / 1000 Ang^3
#
#
#
# Elastic Constant Matrix: (Units=GPa)
#
#
# Indices 1 2 3 4 5 6 
#
# 1 71.5219 16.7028 5.0398 0.0000 4.5075 0.0000
# 2 16.7028 73.3951 40.0784 0.0000 -11.1825 0.0000
# 3 5.0398 40.0784 104.1051 0.0000 -6.0271 0.0000
# 4 0.0000 0.0000 0.0000 30.3186 0.0000 -2.0207
# 5 4.5075 -11.1825 -6.0271 0.0000 42.1437 0.0000
# 6 0.0000 0.0000 0.0000 -2.0207 0.0000 12.5556
#
#
#
# Elastic Compliance Matrix: (Units=1/GPa)
#
#
# Indices 1 2 3 4 5 6 
#
# 1 0.015086 -0.004245 0.000751 0.000000 -0.002632 0.000000
# 2 -0.004245 0.019024 -0.006857 0.000000 0.004521 0.000000
# 3 0.000751 -0.006857 0.012200 0.000000 -0.000155 0.000000
# 4 0.000000 0.000000 0.000000 0.033341 0.000000 0.005366
# 5 -0.002632 0.004521 -0.000155 0.000000 0.025187 0.000000
# 6 0.000000 0.000000 0.000000 0.005366 0.000000 0.080509
#
#
# Mechanical properties :
#
#
# Convention : Reuss Voigt Hill
#
# Bulk Modulus (GPa) = 39.04687 41.40713 40.22700
# Shear Modulus (GPa) = 23.30099 29.48365 26.39232
#
# Velocity S-wave (km/s) = 3.25899 3.66595 3.46844
# Velocity P-wave (km/s) = 5.65328 6.06572 5.86313
#
# Compressibility (1/GPa) = 0.02561025
#
# Stress axis : x y z
#
# Youngs Moduli (GPa) = 66.28689 52.56566 81.96733
#
# Poissons Ratio (x) = 0.22312 -0.06159
# Poissons Ratio (y) = 0.28136 0.56201
# Poissons Ratio (z) = -0.04980 0.36042
#
# Static dielectric constant tensor:
#      x y z
#    x 1.890750 0.000000 -0.019710 
#    y 0.000000 1.732840 0.000000 
#    z -0.019710 0.000000 1.783930 
# 
# From -- ./inp_files/319899.got.cif
#   From: 2010.05.17/outbox.cif.g08.bks.cpg/sg12_160_cif.got.tgz:319899.got - 2010.06.03 13:09:07.
