data_PCOD9181577
_publ_section_title
;
Structure prediction by ZEFSAII (Michael W. Deem and Ramdas Pophale) SiO2 
 PCOD9181577
Probable space group: C 2/M
;
_chemical_formula_sum "Si O2"
_cell_formula_units_Z 48
_cell_length_a 22.543598
_cell_length_b 7.763639
_cell_length_c 22.038112
_cell_angle_alpha 90.000000
_cell_angle_beta 33.762245
_cell_angle_gamma 90.000000
_cell_volume 2143.585422
_symmetry_space_group_name_H-M "C 2/M"
_symmetry_group_IT_number 12
_symmetry_cell_setting 'monoclinic'
loop_
_space_group_symop_operation_xyz
x,y,z
-x,y,-z
-x,-y,-z
x,-y,z
1/2+x,1/2+y,z
1/2-x,1/2+y,-z
1/2-x,1/2-y,-z
1/2+x,1/2-y,z
loop_
_atom_site_type_symbol
_atom_site_label
_atom_site_fract_x
_atom_site_fract_y
_atom_site_fract_z
Si Si1 0.062445 0.289113 0.045426
Si Si2 0.164188 0.197311 0.622883
Si Si3 0.791280 0.206344 0.828618
Si Si4 0.932278 0.295377 0.818694
Si Si5 0.670550 0.801841 0.754028
Si Si6 0.890526 0.788589 0.623102
O O1 0.058738 0.500000 0.045723
O O2 0.079631 0.239228 0.101419
O O3 0.944207 0.226788 0.128266
O O4 0.170144 0.231627 0.920670
O O5 0.250000 0.250000 0.500000
O O6 0.170106 0.299736 0.681061
O O7 0.044068 0.218830 0.700298
O O8 0.181975 0.000000 0.624381
O O9 0.835805 0.249609 0.856815
O O10 0.872919 0.265570 0.707594
O O11 0.786929 0.000000 0.828560
O O12 0.943614 0.500000 0.809881
O O13 0.782643 0.728850 0.681145
O O14 0.669873 0.000000 0.776123
O O15 0.000000 0.727881 0.500000
O O16 0.893372 0.000000 0.618160
#
# Coordination Sequence:
#
# PCOD9181577 Si02
#       6
#     8   8   8   8   8   8
#     4   8  16  31  52  79 108 141 183 232 277 324
#     4  11  22  36  56  82 109 142 182 223 272 327
#     4  10  19  32  53  80 109 147 191 226 272 329
#     4  10  20  35  53  80 114 143 178 226 281 328
#     4   9  18  35  55  76 109 145 181 229 276 321
#     4   9  19  33  51  78 109 144 186 232 275 321
#
# _framework density 22.392388
#
# number of rings (size 3 to 8) (size 9 to 14) (size 15 to 20)
#    0.000    2.500    0.000    3.500    2.333    0.667 
#    0.000    7.500    0.000    1.000    0.000    5.833 
#    0.000    0.000    0.000    0.000    0.000    0.000 
#
# Total GULP energy -133974.016152 kJ/mol
# GULP energy per Si atom -5582.250673 kJ/mol
# Density = 2.234142 g / cm^3
# Si number density = 22.392388 Si / 1000 Ang^3
#
#
#
# Elastic Constant Matrix: (Units=GPa)
#
#
# Indices 1 2 3 4 5 6 
#
# 1 76.5903 0.5978 21.3591 0.0002 -26.8335 -0.0002
# 2 0.5978 38.8158 15.6993 0.0029 -1.5149 -0.0027
# 3 21.3591 15.6993 148.0390 -0.0008 -21.5193 0.0003
# 4 0.0002 0.0029 -0.0008 5.5537 -0.0010 -2.6095
# 5 -26.8335 -1.5149 -21.5193 -0.0010 29.0324 0.0007
# 6 -0.0002 -0.0027 0.0003 -2.6095 0.0007 7.3941
#
#
#
# Elastic Compliance Matrix: (Units=1/GPa)
#
#
# Indices 1 2 3 4 5 6 
#
# 1 0.019325 0.000502 -0.000270 0.000002 0.017687 0.000000
# 2 0.000502 0.026947 -0.002979 -0.000012 -0.000338 0.000006
# 3 -0.000270 -0.002979 0.007902 0.000003 0.005452 -0.000001
# 4 0.000002 -0.000012 0.000003 0.215854 0.000009 0.076179
# 5 0.017687 -0.000338 0.005452 0.000009 0.054815 -0.000002
# 6 0.000000 0.000006 -0.000001 0.076179 -0.000002 0.162128
#
#
# Mechanical properties :
#
#
# Convention : Reuss Voigt Hill
#
# Bulk Modulus (GPa) = 20.54299 37.63974 29.09137
# Shear Modulus (GPa) = 9.82913 23.44864 16.63889
#
# Velocity S-wave (km/s) = 2.09739 3.23951 2.72887
# Velocity P-wave (km/s) = 3.88064 5.55322 4.79049
#
# Compressibility (1/GPa) = 0.04867840
#
# Stress axis : x y z
#
# Youngs Moduli (GPa) = 51.74775 37.11024 126.54285
#
# Poissons Ratio (x) = -0.01863 0.03422
# Poissons Ratio (y) = -0.02598 0.37700
# Poissons Ratio (z) = 0.01399 0.11056
#
# Static dielectric constant tensor:
#      x y z
#    x 1.840330 0.000000 0.006200 
#    y 0.000000 1.836190 0.000000 
#    z 0.006200 0.000000 1.835610 
# 
# From -- ./inp_files/180245.got.cif
#   From: 2010.05.17/outbox.cif.g08.bks.cpg/sg12_91_cif.got.tgz:180245.got - 2010.06.03 13:09:07.
