data_PCOD9181396
_publ_section_title
;
Structure prediction by ZEFSAII (Michael W. Deem and Ramdas Pophale) SiO2 
 PCOD9181396
Probable space group: C 2/M
;
_chemical_formula_sum "Si O2"
_cell_formula_units_Z 64
_cell_length_a 21.179162
_cell_length_b 13.619140
_cell_length_c 13.978975
_cell_angle_alpha 90.000000
_cell_angle_beta 107.591932
_cell_angle_gamma 90.000000
_cell_volume 3843.553770
_symmetry_space_group_name_H-M "C 2/M"
_symmetry_group_IT_number 12
_symmetry_cell_setting 'monoclinic'
loop_
_space_group_symop_operation_xyz
x,y,z
-x,y,-z
-x,-y,-z
x,-y,z
1/2+x,1/2+y,z
1/2-x,1/2+y,-z
1/2-x,1/2-y,-z
1/2+x,1/2-y,z
loop_
_atom_site_type_symbol
_atom_site_label
_atom_site_fract_x
_atom_site_fract_y
_atom_site_fract_z
Si Si1 0.853940 0.690536 0.017693
Si Si2 0.194002 0.111513 0.243139
Si Si3 0.722445 0.885085 0.393429
Si Si4 0.559304 0.114994 0.602319
Si Si5 0.978282 0.382895 0.195591
Si Si6 0.879818 0.693080 0.804792
Si Si7 0.688880 0.797914 0.578558
Si Si8 0.216713 0.890334 0.029109
O O1 0.916691 0.659339 0.108154
O O2 0.788758 0.630034 0.018171
O O3 0.869200 0.676369 0.912681
O O4 0.832779 0.803982 0.024431
O O5 0.136709 0.192644 0.223503
O O6 0.252435 0.143944 0.340425
O O7 0.220918 0.116360 0.146483
O O8 0.173109 0.000000 0.252628
O O9 0.674308 0.867037 0.281321
O O10 0.685532 0.842521 0.470486
O O11 0.786602 0.814784 0.413045
O O12 0.736905 0.000000 0.411084
O O13 0.500000 0.127660 0.500000
O O14 0.534159 0.134285 0.697707
O O15 0.620992 0.182039 0.601765
O O16 0.580710 0.000000 0.607473
O O17 0.981628 0.500000 0.182009
O O18 0.047087 0.336478 0.193179
O O19 0.194174 0.000000 0.994162
#
# Coordination Sequence:
#
# PCOD9181396 Si02
#       8
#     8   8   8   8   8   8   8   8
#     4  10  20  33  50  73 100 130 165 201 241 295
#     4   9  17  32  54  75  96 125 163 207 249 288
#     4  10  20  33  51  76 103 130 162 201 245 293
#     4  10  20  34  53  75  99 127 160 202 247 288
#     4  11  22  34  50  72  99 132 167 201 241 292
#     4  10  21  34  48  71 103 134 162 199 245 292
#     4  10  19  32  53  77 100 128 163 204 246 289
#     4   9  18  33  52  74  98 125 162 207 250 288
#
# _framework density 16.651257000000001
#
# number of rings (size 3 to 8) (size 9 to 14) (size 15 to 20)
#    0.000    2.125    0.000    3.750    0.000    6.500 
#    0.000    0.625    0.000    4.125    0.000    0.000 
#    0.000    0.000    0.000    0.000    0.000    0.000 
#
# Total GULP energy -178582.421052 kJ/mol
# GULP energy per Si atom -5580.700658 kJ/mol
# Density = 1.661336 g / cm^3
# Si number density = 16.651257 Si / 1000 Ang^3
#
#
#
# Elastic Constant Matrix: (Units=GPa)
#
#
# Indices 1 2 3 4 5 6 
#
# 1 120.6330 64.8685 49.2002 0.0000 -5.4805 0.0000
# 2 64.8685 126.8312 51.1949 0.0000 -4.9664 0.0000
# 3 49.2002 51.1949 99.2252 0.0000 5.7157 0.0000
# 4 0.0000 0.0000 0.0000 18.3447 0.0000 -5.0598
# 5 -5.4805 -4.9664 5.7157 0.0000 14.0938 0.0000
# 6 0.0000 0.0000 0.0000 -5.0598 0.0000 15.5947
#
#
#
# Elastic Compliance Matrix: (Units=1/GPa)
#
#
# Indices 1 2 3 4 5 6 
#
# 1 0.012714 -0.004602 -0.004220 0.000000 0.005033 0.000000
# 2 -0.004602 0.012097 -0.004200 0.000000 0.004176 0.000000
# 3 -0.004220 -0.004200 0.014864 0.000000 -0.009149 0.000000
# 4 0.000000 0.000000 0.000000 0.059869 0.000000 0.019425
# 5 0.005033 0.004176 -0.009149 0.000000 0.078093 0.000000
# 6 0.000000 0.000000 0.000000 0.019425 0.000000 0.070427
#
#
# Mechanical properties :
#
#
# Convention : Reuss Voigt Hill
#
# Bulk Modulus (GPa) = 73.35842 75.24630 74.30236
# Shear Modulus (GPa) = 17.94348 21.70170 19.82259
#
# Velocity S-wave (km/s) = 3.28625 3.61405 3.45404
# Velocity P-wave (km/s) = 7.65184 7.91851 7.78632
#
# Compressibility (1/GPa) = 0.01363170
#
# Stress axis : x y z
#
# Youngs Moduli (GPa) = 78.65283 82.66315 67.27501
#
# Poissons Ratio (x) = 0.38045 0.28387
# Poissons Ratio (y) = 0.36199 0.28256
# Poissons Ratio (z) = 0.33188 0.34719
#
# Static dielectric constant tensor:
#      x y z
#    x 1.524760 0.000000 -0.014300 
#    y 0.000000 1.567640 0.000000 
#    z -0.014300 0.000000 1.558580 
# 
# From -- ./inp_files/232490.got.cif
#   From: 2010.05.17/outbox.cif.g08.bks.cpg/sg12_117_cif.got.tgz:232490.got - 2010.06.03 13:09:07.
