data_PCOD9181556
_publ_section_title
;
Structure prediction by ZEFSAII (Michael W. Deem and Ramdas Pophale) SiO2 
 PCOD9181556
Probable space group: C 2/M
;
_chemical_formula_sum "Si O2"
_cell_formula_units_Z 64
_cell_length_a 15.263909
_cell_length_b 7.568946
_cell_length_c 24.849547
_cell_angle_alpha 90.000000
_cell_angle_beta 102.679072
_cell_angle_gamma 90.000000
_cell_volume 2800.902700
_symmetry_space_group_name_H-M "C 2/M"
_symmetry_group_IT_number 12
_symmetry_cell_setting 'monoclinic'
loop_
_space_group_symop_operation_xyz
x,y,z
-x,y,-z
-x,-y,-z
x,-y,z
1/2+x,1/2+y,z
1/2-x,1/2+y,-z
1/2-x,1/2-y,-z
1/2+x,1/2-y,z
loop_
_atom_site_type_symbol
_atom_site_label
_atom_site_fract_x
_atom_site_fract_y
_atom_site_fract_z
Si Si1 0.405869 0.713502 0.016655
Si Si2 0.891372 0.298004 0.138227
Si Si3 0.600056 0.293432 0.487723
Si Si4 0.584370 0.786104 0.182810
Si Si5 0.155705 0.282905 0.304319
Si Si6 0.798668 0.790503 0.902495
Si Si7 0.825310 0.206848 0.394266
Si Si8 0.484952 0.201646 0.630445
O O1 0.399689 0.500000 0.022035
O O2 0.402074 0.795623 0.074898
O O3 0.500000 0.750867 0.000000
O O4 0.330048 0.778044 0.964660
O O5 0.887576 0.500000 0.157770
O O6 0.793910 0.213845 0.133037
O O7 0.982304 0.218991 0.174087
O O8 0.500000 0.284073 0.500000
O O9 0.620310 0.500000 0.481484
O O10 0.662963 0.218132 0.543517
O O11 0.587411 0.206516 0.428241
O O12 0.644815 0.728704 0.241119
O O13 0.624659 0.731343 0.131298
O O14 0.581262 0.000000 0.182314
O O15 0.156270 0.500000 0.305359
O O16 0.245397 0.221249 0.346836
O O17 0.067973 0.223704 0.325811
O O18 0.784665 0.000000 0.908340
O O19 0.921915 0.216441 0.377460
O O20 0.806646 0.000000 0.400078
O O21 0.508003 0.000000 0.645431
#
# Coordination Sequence:
#
# PCOD9181556 Si02
#       8
#     8   8   8   8   8   8   8   8
#     4  10  19  33  55  80 110 142 169 207 259 310
#     4  10  21  35  55  81 107 136 172 214 260 309
#     4   8  15  29  50  75 104 137 169 204 254 314
#     4  10  21  38  56  75 101 137 179 218 256 306
#     4   9  20  37  54  73 102 139 176 213 260 311
#     4  10  21  37  55  79 109 139 171 213 263 308
#     4   9  18  35  55  73 101 141 175 206 253 315
#     4  10  19  32  53  80 107 134 168 216 264 304
#
# _framework density 22.849775000000001
#
# number of rings (size 3 to 8) (size 9 to 14) (size 15 to 20)
#    0.000    2.500    1.250    1.500    0.000    5.000 
#    0.000    4.375    0.000    0.000    0.000    0.000 
#    0.000    0.000    0.000    0.000    0.000    0.000 
#
# Total GULP energy -178626.684535 kJ/mol
# GULP energy per Si atom -5582.083892 kJ/mol
# Density = 2.279777 g / cm^3
# Si number density = 22.849775 Si / 1000 Ang^3
#
#
#
# Elastic Constant Matrix: (Units=GPa)
#
#
# Indices 1 2 3 4 5 6 
#
# 1 69.1949 -6.4562 11.5796 0.0000 26.5564 0.0000
# 2 -6.4562 48.8388 -8.7080 0.0000 5.2522 0.0000
# 3 11.5796 -8.7080 72.6513 0.0000 14.4536 0.0000
# 4 0.0000 0.0000 0.0000 11.2197 0.0000 -0.0330
# 5 26.5564 5.2522 14.4536 0.0000 34.4029 0.0000
# 6 0.0000 0.0000 0.0000 -0.0330 0.0000 -32.6674
#
#
#
# Elastic Compliance Matrix: (Units=1/GPa)
#
#
# Indices 1 2 3 4 5 6 
#
# 1 0.021582 0.004872 0.000662 0.000000 -0.017681 0.000000
# 2 0.004872 0.022723 0.003694 0.000000 -0.008782 0.000000
# 3 0.000662 0.003694 0.015621 0.000000 -0.007638 0.000000
# 4 0.000000 0.000000 0.000000 0.089129 0.000000 -0.000090
# 5 -0.017681 -0.008782 -0.007638 0.000000 0.047265 0.000000
# 6 0.000000 0.000000 0.000000 -0.000090 0.000000 -0.030611
#
#
# Mechanical properties :
#
#
# Convention : Reuss Voigt Hill
#
# Bulk Modulus (GPa) = 12.75797 20.39064 16.57431
# Shear Modulus (GPa) = 28.83848 15.54233 22.19041
#
# Velocity S-wave (km/s) = 3.55645 2.61089 3.11970
# Velocity P-wave (km/s) = 4.73919 4.24643 4.49956
#
# Compressibility (1/GPa) = 0.07838235
#
# Stress axis : x y z
#
# Youngs Moduli (GPa) = 46.33547 44.00876 64.01574
#
# Poissons Ratio (x) = -0.21443 -0.04236
# Poissons Ratio (y) = -0.22577 -0.23648
# Poissons Ratio (z) = -0.03066 -0.16257
#
# Static dielectric constant tensor:
#      x y z
#    x 1.872470 0.000000 0.041140 
#    y 0.000000 1.838700 0.000000 
#    z 0.041140 0.000000 1.842520 
# 
# From -- ./inp_files/359905.got.cif
#   From: 2010.05.17/outbox.cif.g08.bks.cpg/sg12_180_cif.got.tgz:359905.got - 2010.06.03 13:09:07.
