data_PCOD9181347
_publ_section_title
;
Structure prediction by ZEFSAII (Michael W. Deem and Ramdas Pophale) SiO2 
 PCOD9181347
Probable space group: C 2/M
;
_chemical_formula_sum "Si O2"
_cell_formula_units_Z 64
_cell_length_a 26.293693
_cell_length_b 13.090171
_cell_length_c 13.899239
_cell_angle_alpha 90.000000
_cell_angle_beta 134.451722
_cell_angle_gamma 90.000000
_cell_volume 3414.988854
_symmetry_space_group_name_H-M "C 2/M"
_symmetry_group_IT_number 12
_symmetry_cell_setting 'monoclinic'
loop_
_space_group_symop_operation_xyz
x,y,z
-x,y,-z
-x,-y,-z
x,-y,z
1/2+x,1/2+y,z
1/2-x,1/2+y,-z
1/2-x,1/2-y,-z
1/2+x,1/2-y,z
loop_
_atom_site_type_symbol
_atom_site_label
_atom_site_fract_x
_atom_site_fract_y
_atom_site_fract_z
Si Si1 0.122165 0.882015 0.383593
Si Si2 0.159536 0.249436 0.262914
Si Si3 0.283885 0.779501 0.149412
Si Si4 0.777565 0.880802 0.306923
Si Si5 0.647424 0.379849 0.059405
Si Si6 0.059323 0.620519 0.663198
Si Si7 0.527503 0.732674 0.794966
Si Si8 0.030022 0.610712 0.145446
O O1 0.171889 0.824171 0.371138
O O2 0.154376 0.877451 0.533053
O O3 0.044729 0.830651 0.285813
O O4 0.116539 0.000000 0.347224
O O5 0.220010 0.316456 0.292047
O O6 0.131188 0.177611 0.138628
O O7 0.102953 0.329073 0.230055
O O8 0.289779 0.677191 0.222641
O O9 0.226160 0.849537 0.128230
O O10 0.359866 0.838313 0.248934
O O11 0.250000 0.750000 0.000000
O O12 0.756869 0.000000 0.266598
O O13 0.640246 0.500000 0.062655
O O14 0.593874 0.338704 0.906815
O O15 0.063727 0.500000 0.699723
O O16 0.031362 0.703858 0.702540
O O17 0.000000 0.622579 0.500000
O O18 0.525914 0.822349 0.871338
O O19 0.040730 0.500000 0.205132
O O20 0.000000 0.599864 0.000000
#
# Coordination Sequence:
#
# PCOD9181347 Si02
#       8
#     8   8   8   8   8   8   8   8
#     4  10  21  37  59  86 122 163 201 239 293 362
#     4  10  20  36  57  85 120 157 195 244 293 356
#     4  11  23  43  62  90 120 156 201 258 310 363
#     4  10  22  39  60  88 118 156 200 249 302 359
#     4  11  22  37  58  87 119 154 198 245 300 357
#     4  11  24  43  66  90 120 159 203 255 313 369
#     4  11  21  38  57  86 118 158 197 248 297 355
#     4  10  19  32  52  82 116 150 189 236 290 348
#
# _framework density 18.74091
#
# number of rings (size 3 to 8) (size 9 to 14) (size 15 to 20)
#    0.000    1.500    2.500    3.000    0.000    1.000 
#    0.000    1.875    0.000   14.625    0.000    0.000 
#    0.000    0.000    0.000    0.000    0.000    0.000 
#
# Total GULP energy -178334.587624 kJ/mol
# GULP energy per Si atom -5572.955863 kJ/mol
# Density = 1.869826 g / cm^3
# Si number density = 18.740910 Si / 1000 Ang^3
#
#
#
# Elastic Constant Matrix: (Units=GPa)
#
#
# Indices 1 2 3 4 5 6 
#
# 1 41.3313 25.3322 15.3486 0.0000 -0.9879 0.0000
# 2 25.3322 154.7324 43.8535 0.0000 -2.0921 0.0000
# 3 15.3486 43.8535 75.1060 0.0000 -8.3986 0.0000
# 4 0.0000 0.0000 0.0000 29.7534 0.0000 0.2666
# 5 -0.9879 -2.0921 -8.3986 0.0000 29.8183 0.0000
# 6 0.0000 0.0000 0.0000 0.2666 0.0000 22.3441
#
#
#
# Elastic Compliance Matrix: (Units=1/GPa)
#
#
# Indices 1 2 3 4 5 6 
#
# 1 0.027690 -0.003503 -0.003653 0.000000 -0.000357 0.000000
# 2 -0.003503 0.008204 -0.004154 0.000000 -0.000710 0.000000
# 3 -0.003653 -0.004154 0.016975 0.000000 0.004369 0.000000
# 4 0.000000 0.000000 0.000000 0.033613 0.000000 -0.000401
# 5 -0.000357 -0.000710 0.004369 0.000000 0.034705 0.000000
# 6 0.000000 0.000000 0.000000 -0.000401 0.000000 0.044759
#
#
# Mechanical properties :
#
#
# Convention : Reuss Voigt Hill
#
# Bulk Modulus (GPa) = 33.05913 48.91535 40.98724
# Shear Modulus (GPa) = 25.17004 28.82554 26.99779
#
# Velocity S-wave (km/s) = 3.66874 3.92613 3.79962
# Velocity P-wave (km/s) = 5.96864 6.83448 6.41618
#
# Compressibility (1/GPa) = 0.03024883
#
# Stress axis : x y z
#
# Youngs Moduli (GPa) = 36.11448 121.89414 58.91024
#
# Poissons Ratio (x) = 0.42695 0.21523
# Poissons Ratio (y) = 0.12650 0.24470
# Poissons Ratio (z) = 0.13194 0.50632
#
# Static dielectric constant tensor:
#      x y z
#    x 1.664330 0.000000 -0.000270 
#    y 0.000000 1.651900 0.000000 
#    z -0.000270 0.000000 1.666350 
# 
# From -- ./inp_files/245969.got.cif
#   From: 2010.05.17/outbox.cif.g08.bks.cpg/sg12_123_cif.got.tgz:245969.got - 2010.06.03 13:09:07.
