data_PCOD9181810
_publ_section_title
;
Structure prediction by ZEFSAII (Michael W. Deem and Ramdas Pophale) SiO2 
 PCOD9181810
Probable space group: C 2/M
;
_chemical_formula_sum "Si O2"
_cell_formula_units_Z 64
_cell_length_a 14.841482
_cell_length_b 7.510220
_cell_length_c 23.615868
_cell_angle_alpha 90.000000
_cell_angle_beta 84.774031
_cell_angle_gamma 90.000000
_cell_volume 2621.348793
_symmetry_space_group_name_H-M "C 2/M"
_symmetry_group_IT_number 12
_symmetry_cell_setting 'monoclinic'
loop_
_space_group_symop_operation_xyz
x,y,z
-x,y,-z
-x,-y,-z
x,-y,z
1/2+x,1/2+y,z
1/2-x,1/2+y,-z
1/2-x,1/2-y,-z
1/2+x,1/2-y,z
loop_
_atom_site_type_symbol
_atom_site_label
_atom_site_fract_x
_atom_site_fract_y
_atom_site_fract_z
Si Si1 0.474766 0.702820 0.377299
Si Si2 0.564100 0.787653 0.743541
Si Si3 0.201512 0.785713 0.561699
Si Si4 0.060158 0.718097 0.048817
Si Si5 0.179325 0.706325 0.342367
Si Si6 0.589661 0.790586 0.860805
Si Si7 0.148242 0.284997 0.222455
Si Si8 0.270109 0.214679 0.901398
O O1 0.495388 0.500000 0.391810
O O2 0.424551 0.705446 0.318855
O O3 0.401469 0.780292 0.424907
O O4 0.572351 0.790542 0.363531
O O5 0.615009 0.719232 0.797054
O O6 0.459015 0.753153 0.765923
O O7 0.577238 0.000000 0.735086
O O8 0.250000 0.750000 0.500000
O O9 0.262918 0.715582 0.609848
O O10 0.195690 0.000000 0.567239
O O11 0.060473 0.500000 0.046744
O O12 0.003442 0.775321 0.107344
O O13 0.163253 0.776338 0.052604
O O14 0.000000 0.780274 0.000000
O O15 0.205328 0.500000 0.335834
O O16 0.190261 0.785701 0.278835
O O17 0.666466 0.769821 0.903682
O O18 0.576215 0.000000 0.852168
O O19 0.157388 0.500000 0.221263
O O20 0.189442 0.220878 0.161295
O O21 0.271715 0.000000 0.901555
#
# Coordination Sequence:
#
# PCOD9181810 Si02
#       8
#     8   8   8   8   8   8   8   8
#     4  10  21  36  56  85 113 139 177 229 276 312
#     4   9  17  33  55  77 107 146 181 215 266 331
#     4  10  23  40  58  80 109 146 185 221 266 322
#     4   9  18  35  57  77 104 147 192 224 258 321
#     4   9  19  37  58  79 107 147 184 217 266 327
#     4  10  20  34  53  80 110 141 180 226 273 320
#     4   8  14  29  54  76 100 137 180 216 253 316
#     4  10  19  32  54  81 106 141 183 223 270 321
#
# _framework density 24.414912000000001
#
# number of rings (size 3 to 8) (size 9 to 14) (size 15 to 20)
#    0.000    2.625    1.250    1.125    1.750    3.000 
#    0.000    5.625    0.000    0.750    0.000    0.000 
#    0.000    0.000    0.000    0.000    0.000    0.000 
#
# Total GULP energy -178711.045345 kJ/mol
# GULP energy per Si atom -5584.720167 kJ/mol
# Density = 2.435934 g / cm^3
# Si number density = 24.414912 Si / 1000 Ang^3
#
#
#
# Elastic Constant Matrix: (Units=GPa)
#
#
# Indices 1 2 3 4 5 6 
#
# 1 77.8496 -7.3206 9.1918 0.0000 6.4996 0.0000
# 2 -7.3206 64.5773 -4.7001 0.0000 -1.2749 0.0000
# 3 9.1918 -4.7001 48.6754 0.0000 5.4676 0.0000
# 4 0.0000 0.0000 0.0000 5.9471 0.0000 6.5900
# 5 6.4996 -1.2749 5.4676 0.0000 35.2834 0.0000
# 6 0.0000 0.0000 0.0000 6.5900 0.0000 11.7427
#
#
#
# Elastic Compliance Matrix: (Units=1/GPa)
#
#
# Indices 1 2 3 4 5 6 
#
# 1 0.013400 0.001320 -0.002169 0.000000 -0.002085 0.000000
# 2 0.001320 0.015729 0.001255 0.000000 0.000131 0.000000
# 3 -0.002169 0.001255 0.021397 0.000000 -0.002871 0.000000
# 4 0.000000 0.000000 0.000000 0.444692 0.000000 -0.249561
# 5 -0.002085 0.000131 -0.002871 0.000000 0.029176 0.000000
# 6 0.000000 0.000000 0.000000 -0.249561 0.000000 0.225213
#
#
# Mechanical properties :
#
#
# Convention : Reuss Voigt Hill
#
# Bulk Modulus (GPa) = 19.47875 20.60495 20.04185
# Shear Modulus (GPa) = 6.52821 23.52338 15.02580
#
# Velocity S-wave (km/s) = 1.63697 3.10737 2.48349
# Velocity P-wave (km/s) = 3.40124 4.61868 4.05590
#
# Compressibility (1/GPa) = 0.05133800
#
# Stress axis : x y z
#
# Youngs Moduli (GPa) = 74.62961 63.57743 46.73451
#
# Poissons Ratio (x) = -0.08392 0.10135
# Poissons Ratio (y) = -0.09851 -0.05864
# Poissons Ratio (z) = 0.16185 -0.07978
#
# Static dielectric constant tensor:
#      x y z
#    x 1.955690 0.000000 0.022160 
#    y 0.000000 1.914400 0.000000 
#    z 0.022160 0.000000 1.969580 
# 
# From -- ./inp_files/338688.got.cif
#   From: 2010.05.17/outbox.cif.g08.bks.cpg/sg12_170_cif.got.tgz:338688.got - 2010.06.03 13:09:07.
