data_PCOD9181598
_publ_section_title
;
Structure prediction by ZEFSAII (Michael W. Deem and Ramdas Pophale) SiO2 
 PCOD9181598
Probable space group: C 2/M
;
_chemical_formula_sum "Si O2"
_cell_formula_units_Z 64
_cell_length_a 25.892766
_cell_length_b 7.486495
_cell_length_c 29.746347
_cell_angle_alpha 90.000000
_cell_angle_beta 150.538409
_cell_angle_gamma 90.000000
_cell_volume 2836.053808
_symmetry_space_group_name_H-M "C 2/M"
_symmetry_group_IT_number 12
_symmetry_cell_setting 'monoclinic'
loop_
_space_group_symop_operation_xyz
x,y,z
-x,y,-z
-x,-y,-z
x,-y,z
1/2+x,1/2+y,z
1/2-x,1/2+y,-z
1/2-x,1/2-y,-z
1/2+x,1/2-y,z
loop_
_atom_site_type_symbol
_atom_site_label
_atom_site_fract_x
_atom_site_fract_y
_atom_site_fract_z
Si Si1 0.268769 0.711152 0.291631
Si Si2 0.920458 0.709471 0.726644
Si Si3 0.184218 0.283412 0.517009
Si Si4 0.426802 0.201579 0.481564
Si Si5 0.593549 0.290947 0.039709
Si Si6 0.980095 0.280935 0.677337
Si Si7 0.674304 0.214228 0.763559
Si Si8 0.042617 0.715814 0.144233
O O1 0.269867 0.500000 0.301329
O O2 0.318042 0.804752 0.371999
O O3 0.333090 0.747214 0.295141
O O4 0.148016 0.769518 0.196917
O O5 0.945347 0.500000 0.748624
O O6 0.798574 0.722586 0.619170
O O7 0.983043 0.782032 0.730971
O O8 0.944512 0.781408 0.794665
O O9 0.186282 0.500000 0.520031
O O10 0.100733 0.220318 0.491508
O O11 0.130823 0.227792 0.429819
O O12 0.500000 0.293065 0.500000
O O13 0.467961 0.000000 0.520348
O O14 0.601271 0.500000 0.057489
O O15 0.710172 0.215604 0.135196
O O16 0.500000 0.212833 0.000000
O O17 0.555479 0.276573 0.959488
O O18 0.980082 0.500000 0.677458
O O19 0.078183 0.221413 0.721331
O O20 0.673873 0.000000 0.768228
O O21 0.040117 0.500000 0.143081
#
# Coordination Sequence:
#
# PCOD9181598 Si02
#       8
#     8   8   8   8   8   8   8   8
#     4  11  21  33  51  78 110 143 176 215 270 324
#     4  10  20  37  57  78 107 145 184 218 262 318
#     4  10  19  32  53  81 106 137 184 227 264 305
#     4  10  20  33  50  74 108 147 183 220 265 319
#     4  10  20  34  56  84 107 134 176 224 271 315
#     4   9  19  36  58  79 104 142 184 222 263 319
#     4  10  20  37  58  80 108 140 179 225 271 323
#     4  10  21  35  53  78 109 142 175 213 266 326
#
# _framework density 22.566568
#
# number of rings (size 3 to 8) (size 9 to 14) (size 15 to 20)
#    0.000    2.000    2.500    1.500    0.000    4.000 
#    0.000    3.125    0.000    0.000    0.000    0.000 
#    0.000    0.000    0.000    0.000    0.000    0.000 
#
# Total GULP energy -178697.716873 kJ/mol
# GULP energy per Si atom -5584.303652 kJ/mol
# Density = 2.251521 g / cm^3
# Si number density = 22.566568 Si / 1000 Ang^3
#
#
#
# Elastic Constant Matrix: (Units=GPa)
#
#
# Indices 1 2 3 4 5 6 
#
# 1 145.3906 -0.0948 33.6601 0.0008 -14.7543 -0.0010
# 2 -0.0948 67.5061 -0.5970 0.0101 2.7302 -0.0027
# 3 33.6601 -0.5970 93.4794 -0.0012 -13.5553 0.0011
# 4 0.0008 0.0101 -0.0012 8.2425 -0.0004 6.6991
# 5 -14.7543 2.7302 -13.5553 -0.0004 31.4015 0.0008
# 6 -0.0010 -0.0027 0.0011 6.6991 0.0008 -7.1569
#
#
#
# Elastic Compliance Matrix: (Units=1/GPa)
#
#
# Indices 1 2 3 4 5 6 
#
# 1 0.007696 -0.000115 -0.002396 0.000000 0.002592 -0.000001
# 2 -0.000115 0.014868 -0.000063 -0.000008 -0.001374 -0.000013
# 3 -0.002396 -0.000063 0.012159 0.000000 0.004128 0.000003
# 4 0.000000 -0.000008 0.000000 0.068903 0.000000 0.064496
# 5 0.002592 -0.001374 0.004128 0.000000 0.034965 0.000005
# 6 -0.000001 -0.000013 0.000003 0.064496 0.000005 -0.079354
#
#
# Mechanical properties :
#
#
# Convention : Reuss Voigt Hill
#
# Bulk Modulus (GPa) = 33.81288 41.36810 37.59049
# Shear Modulus (GPa) = 67.34702 24.72459 46.03580
#
# Velocity S-wave (km/s) = 5.46887 3.31362 4.52154
# Velocity P-wave (km/s) = 7.40906 5.74556 6.62969
#
# Compressibility (1/GPa) = 0.02957453
#
# Stress axis : x y z
#
# Youngs Moduli (GPa) = 129.94350 67.25706 82.24687
#
# Poissons Ratio (x) = 0.00775 0.19706
# Poissons Ratio (y) = 0.01497 0.00517
# Poissons Ratio (z) = 0.31134 0.00422
#
# Static dielectric constant tensor:
#      x y z
#    x 1.853900 0.000000 0.019460 
#    y 0.000000 1.857740 0.000000 
#    z 0.019460 0.000000 1.848680 
# 
# From -- ./inp_files/244046.got.cif
#   From: 2010.05.17/outbox.cif.g08.bks.cpg/sg12_123_cif.got.tgz:244046.got - 2010.06.03 13:09:07.
