data_PCOD9181156
_publ_section_title
;
Structure prediction by ZEFSAII (Michael W. Deem and Ramdas Pophale) SiO2 
 PCOD9181156
Probable space group: C 2/M
;
_chemical_formula_sum "Si O2"
_cell_formula_units_Z 64
_cell_length_a 29.096682
_cell_length_b 8.658478
_cell_length_c 17.520401
_cell_angle_alpha 90.000000
_cell_angle_beta 126.996763
_cell_angle_gamma 90.000000
_cell_volume 3525.300739
_symmetry_space_group_name_H-M "C 2/M"
_symmetry_group_IT_number 12
_symmetry_cell_setting 'monoclinic'
loop_
_space_group_symop_operation_xyz
x,y,z
-x,y,-z
-x,-y,-z
x,-y,z
1/2+x,1/2+y,z
1/2-x,1/2+y,-z
1/2-x,1/2-y,-z
1/2+x,1/2-y,z
loop_
_atom_site_type_symbol
_atom_site_label
_atom_site_fract_x
_atom_site_fract_y
_atom_site_fract_z
Si Si1 0.543723 0.686211 0.109477
Si Si2 0.134103 0.684511 0.412479
Si Si3 0.788976 0.314428 0.970533
Si Si4 0.391847 0.185246 0.169510
Si Si5 0.206116 0.813353 0.624552
Si Si6 0.314502 0.686720 0.229288
Si Si7 0.663490 0.813973 0.268218
Si Si8 0.514592 0.684695 0.253587
O O1 0.545281 0.500000 0.108904
O O2 0.608980 0.746851 0.168543
O O3 0.521423 0.733474 0.171421
O O4 0.500000 0.739855 0.000000
O O5 0.133934 0.500000 0.415519
O O6 0.174085 0.749348 0.518842
O O7 0.156049 0.730902 0.349917
O O8 0.069235 0.747169 0.352523
O O9 0.789499 0.500000 0.973832
O O10 0.751761 0.271574 0.859451
O O11 0.750000 0.250000 0.000000
O O12 0.853217 0.264381 0.057069
O O13 0.357151 0.239601 0.210038
O O14 0.454511 0.256941 0.226162
O O15 0.395726 0.000000 0.173880
O O16 0.176106 0.767147 0.673999
O O17 0.272993 0.764651 0.693264
O O18 0.205640 0.000000 0.620294
O O19 0.319511 0.500000 0.228330
O O20 0.660419 0.000000 0.260071
O O21 0.516981 0.500000 0.258714
#
# Coordination Sequence:
#
# PCOD9181156 Si02
#       8
#     8   8   8   8   8   8   8   8
#     4   9  19  35  53  77 109 140 171 209 251 297
#     4  10  20  35  54  76 102 131 169 215 258 303
#     4   8  15  28  46  68  95 128 162 198 240 286
#     4  10  19  32  52  77 104 134 172 214 252 296
#     4  10  20  34  53  77 104 134 169 210 257 307
#     4   9  18  33  51  73 104 138 171 207 250 303
#     4   9  19  34  53  78 105 136 172 207 250 306
#     4  10  20  35  55  75 100 137 175 209 251 305
#
# _framework density 18.154481000000001
#
# number of rings (size 3 to 8) (size 9 to 14) (size 15 to 20)
#    0.000    2.625    0.000    1.500    0.000    3.750 
#    0.000    1.875    0.000    3.750    0.000    0.000 
#    0.000    0.000    0.000    0.000    0.000    0.000 
#
# Total GULP energy -178368.933347 kJ/mol
# GULP energy per Si atom -5574.029167 kJ/mol
# Density = 1.811316 g / cm^3
# Si number density = 18.154481 Si / 1000 Ang^3
#
#
#
# Elastic Constant Matrix: (Units=GPa)
#
#
# Indices 1 2 3 4 5 6 
#
# 1 76.4469 17.2491 51.3678 0.0000 21.0887 0.0000
# 2 17.2491 15.2286 23.7670 0.0000 1.4776 0.0000
# 3 51.3678 23.7670 132.7178 0.0000 8.9070 0.0000
# 4 0.0000 0.0000 0.0000 28.2487 0.0000 3.8722
# 5 21.0887 1.4776 8.9070 0.0000 25.4969 0.0000
# 6 0.0000 0.0000 0.0000 3.8722 0.0000 17.4964
#
#
#
# Elastic Compliance Matrix: (Units=1/GPa)
#
#
# Indices 1 2 3 4 5 6 
#
# 1 0.026290 -0.019489 -0.005429 0.000000 -0.018719 0.000000
# 2 -0.019489 0.105590 -0.012326 0.000000 0.014306 0.000000
# 3 -0.005429 -0.012326 0.011770 0.000000 0.001093 0.000000
# 4 0.000000 0.000000 0.000000 0.036507 0.000000 -0.008080
# 5 -0.018719 0.014306 0.001093 0.000000 0.053492 0.000000
# 6 0.000000 0.000000 0.000000 -0.008080 0.000000 0.058943
#
#
# Mechanical properties :
#
#
# Convention : Reuss Voigt Hill
#
# Bulk Modulus (GPa) = 14.45884 45.46234 29.96059
# Shear Modulus (GPa) = 12.81609 23.04901 17.93255
#
# Velocity S-wave (km/s) = 2.65985 3.56702 3.14630
# Velocity P-wave (km/s) = 4.17309 6.48545 5.45325
#
# Compressibility (1/GPa) = 0.06916183
#
# Stress axis : x y z
#
# Youngs Moduli (GPa) = 38.03693 9.47062 84.96113
#
# Poissons Ratio (x) = 0.18457 0.46127
# Poissons Ratio (y) = 0.74130 1.04723
# Poissons Ratio (z) = 0.20651 0.11673
#
# Static dielectric constant tensor:
#      x y z
#    x 1.608450 0.000000 -0.006360 
#    y 0.000000 1.612020 0.000000 
#    z -0.006360 0.000000 1.634220 
# 
# From -- ./inp_files/295673.got.cif
#   From: 2010.05.17/outbox.cif.g08.bks.cpg/sg12_148_cif.got.tgz:295673.got - 2010.06.03 13:09:07.
