data_PCOD9181021
_publ_section_title
;
Structure prediction by ZEFSAII (Michael W. Deem and Ramdas Pophale) SiO2 
 PCOD9181021
Probable space group: C 2/M
;
_chemical_formula_sum "Si O2"
_cell_formula_units_Z 48
_cell_length_a 24.242002
_cell_length_b 7.439808
_cell_length_c 12.743715
_cell_angle_alpha 90.000000
_cell_angle_beta 89.218656
_cell_angle_gamma 90.000000
_cell_volume 2298.189717
_symmetry_space_group_name_H-M "C 2/M"
_symmetry_group_IT_number 12
_symmetry_cell_setting 'monoclinic'
loop_
_space_group_symop_operation_xyz
x,y,z
-x,y,-z
-x,-y,-z
x,-y,z
1/2+x,1/2+y,z
1/2-x,1/2+y,-z
1/2-x,1/2-y,-z
1/2+x,1/2-y,z
loop_
_atom_site_type_symbol
_atom_site_label
_atom_site_fract_x
_atom_site_fract_y
_atom_site_fract_z
Si Si1 0.057093 0.207456 0.457301
Si Si2 0.450134 0.219178 0.142152
Si Si3 0.427061 0.784060 0.909116
Si Si4 0.246795 0.714897 0.624454
Si Si5 0.624470 0.781227 0.661479
Si Si6 0.860802 0.787624 0.714578
O O1 0.099277 0.215003 0.552900
O O2 0.089176 0.288814 0.357483
O O3 0.000000 0.290531 0.500000
O O4 0.043941 0.000000 0.430151
O O5 0.514088 0.277443 0.140313
O O6 0.414249 0.278258 0.241748
O O7 0.450277 0.000000 0.143942
O O8 0.425410 0.275312 0.030136
O O9 0.377419 0.732038 0.834734
O O10 0.428937 0.000000 0.911308
O O11 0.246131 0.500000 0.638819
O O12 0.250000 0.750000 0.500000
O O13 0.187777 0.779800 0.668075
O O14 0.301614 0.785711 0.680324
O O15 0.623580 0.000000 0.658519
O O16 0.859092 0.000000 0.690285
#
# Coordination Sequence:
#
# PCOD9181021 Si02
#       6
#     8   8   8   8   8   8
#     4  10  20  32  47  70 102 133 157 194 250 299
#     4   8  16  32  52  75 100 124 158 206 249 283
#     4   9  17  32  54  74  96 129 163 198 244 294
#     4  10  20  34  51  70  96 133 167 201 245 290
#     4  10  19  32  52  74  95 125 167 207 242 285
#     4  10  20  33  47  69 102 130 159 202 246 289
#
# _framework density 20.886005999999998
#
# number of rings (size 3 to 8) (size 9 to 14) (size 15 to 20)
#    0.000    2.500    1.667    2.000    0.000    1.667 
#    0.000    3.333    0.000    0.000    0.000    0.000 
#    0.000    0.000    0.000    0.000    0.000    0.000 
#
# Total GULP energy -133981.706867 kJ/mol
# GULP energy per Si atom -5582.571119 kJ/mol
# Density = 2.083847 g / cm^3
# Si number density = 20.886006 Si / 1000 Ang^3
#
#
#
# Elastic Constant Matrix: (Units=GPa)
#
#
# Indices 1 2 3 4 5 6 
#
# 1 43.7066 -4.5147 3.4170 0.0000 22.6072 0.0000
# 2 -4.5147 63.4720 -17.4909 0.0000 -4.5404 0.0000
# 3 3.4170 -17.4909 77.3663 0.0000 16.9155 0.0000
# 4 0.0000 0.0000 0.0000 10.5162 0.0000 12.0761
# 5 22.6072 -4.5404 16.9155 0.0000 40.5973 0.0000
# 6 0.0000 0.0000 0.0000 12.0761 0.0000 -0.1462
#
#
#
# Elastic Compliance Matrix: (Units=1/GPa)
#
#
# Indices 1 2 3 4 5 6 
#
# 1 0.032873 0.001833 0.003213 0.000000 -0.019440 0.000000
# 2 0.001833 0.016908 0.003907 0.000000 -0.000758 0.000000
# 3 0.003213 0.003907 0.015362 0.000000 -0.007753 0.000000
# 4 0.000000 0.000000 0.000000 0.000992 0.000000 0.081944
# 5 -0.019440 -0.000758 -0.007753 0.000000 0.038603 0.000000
# 6 0.000000 0.000000 0.000000 0.081944 0.000000 -0.071358
#
#
# Mechanical properties :
#
#
# Convention : Reuss Voigt Hill
#
# Bulk Modulus (GPa) = 12.04108 16.37421 14.20765
# Shear Modulus (GPa) = 115.85654 23.73569 69.79611
#
# Velocity S-wave (km/s) = 7.45596 3.37477 5.78707
# Velocity P-wave (km/s) = 8.93865 4.80023 7.17432
#
# Compressibility (1/GPa) = 0.08304901
#
# Stress axis : x y z
#
# Youngs Moduli (GPa) = 30.41999 59.14415 65.09533
#
# Poissons Ratio (x) = -0.10841 -0.20914
# Poissons Ratio (y) = -0.05576 -0.25434
# Poissons Ratio (z) = -0.09773 -0.23109
#
# Static dielectric constant tensor:
#      x y z
#    x 1.759410 0.000000 -0.002500 
#    y 0.000000 1.791530 0.000000 
#    z -0.002500 0.000000 1.708690 
# 
# From -- ./inp_files/164191.got.cif
#   From: 2010.05.17/outbox.cif.g08.bks.cpg/sg12_83_cif.got.tgz:164191.got - 2010.06.03 13:09:07.
