data_PCOD9181819
_publ_section_title
;
Structure prediction by ZEFSAII (Michael W. Deem and Ramdas Pophale) SiO2 
 PCOD9181819
Probable space group: C 2/M
;
_chemical_formula_sum "Si O2"
_cell_formula_units_Z 56
_cell_length_a 14.410060
_cell_length_b 11.716896
_cell_length_c 25.171288
_cell_angle_alpha 90.000000
_cell_angle_beta 42.553931
_cell_angle_gamma 90.000000
_cell_volume 2874.172592
_symmetry_space_group_name_H-M "C 2/M"
_symmetry_group_IT_number 12
_symmetry_cell_setting 'monoclinic'
loop_
_space_group_symop_operation_xyz
x,y,z
-x,y,-z
-x,-y,-z
x,-y,z
1/2+x,1/2+y,z
1/2-x,1/2+y,-z
1/2-x,1/2-y,-z
1/2+x,1/2-y,z
loop_
_atom_site_type_symbol
_atom_site_label
_atom_site_fract_x
_atom_site_fract_y
_atom_site_fract_z
Si Si1 0.233761 0.719390 0.340087
Si Si2 0.706337 0.866663 0.889273
Si Si3 0.374429 0.867831 0.190228
Si Si4 0.832028 0.634002 0.977067
Si Si5 0.693995 0.369353 0.461343
Si Si6 0.506496 0.371599 0.270051
Si Si7 0.026267 0.720392 0.613886
O O1 0.308674 0.801279 0.266262
O O2 0.189298 0.792186 0.410473
O O3 0.355213 0.637995 0.309257
O O4 0.101539 0.669738 0.365093
O O5 0.668145 0.813775 0.848770
O O6 0.871290 0.851099 0.823757
O O7 0.677494 0.000000 0.892484
O O8 0.633124 0.844002 0.975509
O O9 0.538611 0.867039 0.116645
O O10 0.330446 0.000000 0.213410
O O11 0.776400 0.500000 0.999152
O O12 0.750000 0.750000 0.000000
O O13 0.662442 0.500000 0.462763
O O14 0.847236 0.359383 0.422041
O O15 0.592331 0.315964 0.547563
O O16 0.526868 0.500000 0.282026
O O17 0.519787 0.283096 0.312660
#
# Coordination Sequence:
#
# PCOD9181819 Si02
#       7
#     8   8   8   8   8   8   8
#     4  11  21  34  55  82 108 138 179 226 273 321
#     4   9  17  32  54  78 105 141 185 226 265 316
#     4  10  19  32  54  81 107 141 184 227 270 318
#     4  10  20  34  54  81 112 145 184 232 278 328
#     4  10  22  37  55  78 105 138 178 221 269 325
#     4  10  20  34  54  79 108 143 182 222 269 325
#     4  10  21  37  54  77 108 140 175 221 274 325
#
# _framework density 19.483867
#
# number of rings (size 3 to 8) (size 9 to 14) (size 15 to 20)
#    0.000    2.000    1.429    2.571    0.000    4.571 
#    0.000    0.000    0.000    7.714    0.000    0.000 
#    0.000    0.000    0.000    0.000    0.000    0.000 
#
# Total GULP energy -155924.553008 kJ/mol
# GULP energy per Si atom -5568.734036 kJ/mol
# Density = 1.943952 g / cm^3
# Si number density = 19.483867 Si / 1000 Ang^3
#
#
#
# Elastic Constant Matrix: (Units=GPa)
#
#
# Indices 1 2 3 4 5 6 
#
# 1 85.8304 5.6220 -4.3835 0.0000 -8.3063 0.0000
# 2 5.6220 48.5014 -2.5030 0.0000 -1.7776 0.0000
# 3 -4.3835 -2.5030 65.6152 0.0000 10.8771 0.0000
# 4 0.0000 0.0000 0.0000 13.4423 0.0000 3.7469
# 5 -8.3063 -1.7776 10.8771 0.0000 34.6336 0.0000
# 6 0.0000 0.0000 0.0000 3.7469 0.0000 13.7567
#
#
#
# Elastic Compliance Matrix: (Units=1/GPa)
#
#
# Indices 1 2 3 4 5 6 
#
# 1 0.012013 -0.001277 0.000303 0.000000 0.002721 0.000000
# 2 -0.001277 0.020819 0.000614 0.000000 0.000569 0.000000
# 3 0.000303 0.000614 0.016105 0.000000 -0.004954 0.000000
# 4 0.000000 0.000000 0.000000 0.080504 0.000000 -0.021927
# 5 0.002721 0.000569 -0.004954 0.000000 0.031111 0.000000
# 6 0.000000 0.000000 0.000000 -0.021927 0.000000 0.078664
#
#
# Mechanical properties :
#
#
# Convention : Reuss Voigt Hill
#
# Bulk Modulus (GPa) = 20.73940 21.93535 21.33738
# Shear Modulus (GPa) = 19.53063 25.78063 22.65563
#
# Velocity S-wave (km/s) = 3.16951 3.64150 3.41367
# Velocity P-wave (km/s) = 4.90529 5.38176 5.14904
#
# Compressibility (1/GPa) = 0.04821739
#
# Stress axis : x y z
#
# Youngs Moduli (GPa) = 83.24119 48.03404 62.09160
#
# Poissons Ratio (x) = 0.06135 -0.01880
# Poissons Ratio (y) = 0.10631 -0.03815
# Poissons Ratio (z) = -0.02521 -0.02952
#
# Static dielectric constant tensor:
#      x y z
#    x 1.782840 0.000000 -0.040260 
#    y 0.000000 1.651640 0.000000 
#    z -0.040260 0.000000 1.689260 
# 
# From -- ./inp_files/213389.got.cif
#   From: 2010.05.17/outbox.cif.g08.bks.cpg/sg12_107_cif.got.tgz:213389.got - 2010.06.03 13:09:07.
