data_PCOD9181906
_publ_section_title
;
Structure prediction by ZEFSAII (Michael W. Deem and Ramdas Pophale) SiO2 
 PCOD9181906
Probable space group: C 2/M
;
_chemical_formula_sum "Si O2"
_cell_formula_units_Z 64
_cell_length_a 23.549946
_cell_length_b 8.655344
_cell_length_c 20.730306
_cell_angle_alpha 90.000000
_cell_angle_beta 53.196701
_cell_angle_gamma 90.000000
_cell_volume 3383.359117
_symmetry_space_group_name_H-M "C 2/M"
_symmetry_group_IT_number 12
_symmetry_cell_setting 'monoclinic'
loop_
_space_group_symop_operation_xyz
x,y,z
-x,y,-z
-x,-y,-z
x,-y,z
1/2+x,1/2+y,z
1/2-x,1/2+y,-z
1/2-x,1/2-y,-z
1/2+x,1/2-y,z
loop_
_atom_site_type_symbol
_atom_site_label
_atom_site_fract_x
_atom_site_fract_y
_atom_site_fract_z
Si Si1 0.507259 0.682494 0.322204
Si Si2 0.948196 0.186874 0.092702
Si Si3 0.343879 0.813450 0.754696
Si Si4 0.680529 0.815238 0.079963
Si Si5 0.218395 0.814200 0.616785
Si Si6 0.522815 0.185729 0.167936
Si Si7 0.705799 0.311934 0.772727
Si Si8 0.137369 0.682704 0.550000
O O1 0.510899 0.500000 0.311656
O O2 0.578533 0.743033 0.307834
O O3 0.503516 0.758094 0.253085
O O4 0.436374 0.730283 0.407854
O O5 0.866002 0.236231 0.141872
O O6 0.976089 0.244335 0.142828
O O7 0.949643 0.000000 0.091930
O O8 0.000000 0.240689 0.000000
O O9 0.322725 0.773410 0.842470
O O10 0.279836 0.759755 0.752966
O O11 0.349776 0.000000 0.746386
O O12 0.605146 0.765959 0.101347
O O13 0.683077 0.000000 0.074484
O O14 0.750000 0.750000 0.000000
O O15 0.200973 0.767065 0.701185
O O16 0.170308 0.731422 0.596533
O O17 0.300396 0.781178 0.543327
O O18 0.208224 0.000000 0.617390
O O19 0.518467 0.000000 0.169946
O O20 0.707522 0.500000 0.773277
O O21 0.124584 0.500000 0.557602
#
# Coordination Sequence:
#
# PCOD9181906 Si02
#       8
#     8   8   8   8   8   8   8   8
#     4  11  21  35  56  80 106 138 178 226 275 327
#     4  10  21  34  54  83 112 145 182 220 267 325
#     4   9  19  36  55  75 103 141 181 222 268 319
#     4   9  19  32  51  75  99 131 173 221 270 315
#     4   9  18  33  55  83 111 145 186 224 266 317
#     4  10  21  37  54  76 106 139 178 224 272 320
#     4   9  18  35  56  77 107 144 181 221 265 319
#     4  10  19  32  54  83 113 142 179 226 273 322
#
# _framework density 18.916111999999998
#
# number of rings (size 3 to 8) (size 9 to 14) (size 15 to 20)
#    0.000    2.375    0.000    3.375    1.750    4.250 
#    0.000    1.875    0.000    3.750    0.000    0.000 
#    0.000    0.000    0.000    0.000    0.000    0.000 
#
# Total GULP energy -178586.655153 kJ/mol
# GULP energy per Si atom -5580.832974 kJ/mol
# Density = 1.887306 g / cm^3
# Si number density = 18.916112 Si / 1000 Ang^3
#
#
#
# Elastic Constant Matrix: (Units=GPa)
#
#
# Indices 1 2 3 4 5 6 
#
# 1 78.6708 15.0673 37.0612 0.0000 -16.5649 0.0000
# 2 15.0673 19.4636 19.0867 0.0005 -8.6208 0.0001
# 3 37.0612 19.0867 80.3930 0.0001 -25.6282 -0.0001
# 4 0.0000 0.0005 0.0001 22.0766 -0.0001 -4.5818
# 5 -16.5649 -8.6208 -25.6282 -0.0001 27.4069 0.0001
# 6 0.0000 0.0001 -0.0001 -4.5818 0.0001 26.9224
#
#
#
# Elastic Compliance Matrix: (Units=1/GPa)
#
#
# Indices 1 2 3 4 5 6 
#
# 1 0.017173 -0.006637 -0.005268 0.000000 0.003365 0.000000
# 2 -0.006637 0.071069 -0.011349 -0.000002 0.007731 -0.000001
# 3 -0.005268 -0.011349 0.021953 0.000000 0.013774 0.000000
# 4 0.000000 -0.000002 0.000000 0.046955 0.000000 0.007991
# 5 0.003365 0.007731 0.013774 0.000000 0.053834 0.000000
# 6 0.000000 -0.000001 0.000000 0.007991 0.000000 0.038504
#
#
# Mechanical properties :
#
#
# Convention : Reuss Voigt Hill
#
# Bulk Modulus (GPa) = 15.70179 35.66198 25.68189
# Shear Modulus (GPa) = 15.76171 22.43533 19.09852
#
# Velocity S-wave (km/s) = 2.88973 3.44763 3.18093
# Velocity P-wave (km/s) = 4.41053 5.89422 5.20551
#
# Compressibility (1/GPa) = 0.06368699
#
# Stress axis : x y z
#
# Youngs Moduli (GPa) = 58.23191 14.07077 45.55199
#
# Poissons Ratio (x) = 0.09339 0.23997
# Poissons Ratio (y) = 0.38650 0.51696
# Poissons Ratio (z) = 0.30676 0.15969
#
# Static dielectric constant tensor:
#      x y z
#    x 1.655100 0.000000 -0.028440 
#    y 0.000000 1.644500 0.000000 
#    z -0.028440 0.000000 1.658550 
# 
# From -- ./inp_files/324098.got.cif
#   From: 2010.05.17/outbox.cif.g08.bks.cpg/sg12_163_cif.got.tgz:324098.got - 2010.06.03 13:09:07.
