data_PCOD9181184
_publ_section_title
;
Structure prediction by ZEFSAII (Michael W. Deem and Ramdas Pophale) SiO2 
 PCOD9181184
Probable space group: C 2/M
;
_chemical_formula_sum "Si O2"
_cell_formula_units_Z 48
_cell_length_a 23.297042
_cell_length_b 11.064606
_cell_length_c 7.901549
_cell_angle_alpha 90.000000
_cell_angle_beta 90.130371
_cell_angle_gamma 90.000000
_cell_volume 2036.797484
_symmetry_space_group_name_H-M "C 2/M"
_symmetry_group_IT_number 12
_symmetry_cell_setting 'monoclinic'
loop_
_space_group_symop_operation_xyz
x,y,z
-x,y,-z
-x,-y,-z
x,-y,z
1/2+x,1/2+y,z
1/2-x,1/2+y,-z
1/2-x,1/2-y,-z
1/2+x,1/2-y,z
loop_
_atom_site_type_symbol
_atom_site_label
_atom_site_fract_x
_atom_site_fract_y
_atom_site_fract_z
Si Si1 0.376421 0.782565 0.453440
Si Si2 0.699922 0.630769 0.354431
Si Si3 0.862021 0.867866 0.974534
Si Si4 0.467562 0.131158 0.681005
Si Si5 0.684043 0.131318 0.856611
Si Si6 0.537050 0.638298 0.768135
O O1 0.315717 0.728639 0.508393
O O2 0.403384 0.849518 0.613573
O O3 0.364175 0.864925 0.291397
O O4 0.418786 0.676874 0.383776
O O5 0.705145 0.500000 0.438595
O O6 0.754424 0.642737 0.233420
O O7 0.645137 0.629926 0.226648
O O8 0.828462 0.749833 0.035823
O O9 0.924251 0.860915 0.061893
O O10 0.838436 0.000000 0.032137
O O11 0.500000 0.125851 0.500000
O O12 0.492314 0.250734 0.769234
O O13 0.474869 0.000000 0.766319
O O14 0.681460 0.000000 0.943049
O O15 0.515840 0.500000 0.743913
#
# Coordination Sequence:
#
# PCOD9181184 Si02
#       6
#     8   8   8   8   8   8
#     4  10  19  32  52  77 107 135 169 214 263 305
#     4  10  20  34  53  79 109 139 173 216 262 307
#     4   9  19  36  55  77 106 139 176 215 257 308
#     4   9  18  32  51  74 101 132 167 210 258 307
#     4  10  20  35  55  78 105 140 179 214 255 309
#     4   9  18  32  53  77  99 130 173 214 254 306
#
# _framework density 23.566407999999999
#
# number of rings (size 3 to 8) (size 9 to 14) (size 15 to 20)
#    0.000    2.500    0.000    2.000    0.000    8.333 
#    0.000    4.167    0.000    4.000    0.000    0.000 
#    0.000    0.000    0.000    0.000    0.000    0.000 
#
# Total GULP energy -133859.291996 kJ/mol
# GULP energy per Si atom -5577.470500 kJ/mol
# Density = 2.351277 g / cm^3
# Si number density = 23.566408 Si / 1000 Ang^3
#
#
#
# Elastic Constant Matrix: (Units=GPa)
#
#
# Indices 1 2 3 4 5 6 
#
# 1 50.3129 36.9026 -1.0535 0.0000 11.5185 0.0000
# 2 36.9026 208.5273 38.1509 0.0000 -4.8864 0.0000
# 3 -1.0535 38.1509 25.9602 0.0000 4.1828 0.0000
# 4 0.0000 0.0000 0.0000 9.6094 0.0000 -0.5457
# 5 11.5185 -4.8864 4.1828 0.0000 33.5970 0.0000
# 6 0.0000 0.0000 0.0000 -0.5457 0.0000 12.1801
#
#
#
# Elastic Compliance Matrix: (Units=1/GPa)
#
#
# Indices 1 2 3 4 5 6 
#
# 1 0.029365 -0.008363 0.015613 0.000000 -0.013228 0.000000
# 2 -0.008363 0.009104 -0.014688 0.000000 0.006020 0.000000
# 3 0.015613 -0.014688 0.063215 0.000000 -0.015359 0.000000
# 4 0.000000 0.000000 0.000000 0.104330 0.000000 0.004674
# 5 -0.013228 0.006020 -0.015359 0.000000 0.037087 0.000000
# 6 0.000000 0.000000 0.000000 0.004674 0.000000 0.082310
#
#
# Mechanical properties :
#
#
# Convention : Reuss Voigt Hill
#
# Bulk Modulus (GPa) = 11.51978 48.08892 29.80435
# Shear Modulus (GPa) = 13.54195 25.13067 19.33631
#
# Velocity S-wave (km/s) = 2.39974 3.26909 2.86755
# Velocity P-wave (km/s) = 3.54643 5.89061 4.86191
#
# Compressibility (1/GPa) = 0.08680721
#
# Stress axis : x y z
#
# Youngs Moduli (GPa) = 34.05427 109.84310 15.81911
#
# Poissons Ratio (x) = 0.91863 -0.24699
# Poissons Ratio (y) = 0.28480 0.23236
# Poissons Ratio (z) = -0.53170 1.61341
#
# Static dielectric constant tensor:
#      x y z
#    x 1.967610 0.000000 0.019270 
#    y 0.000000 1.942400 0.000000 
#    z 0.019270 0.000000 1.855860 
# 
# From -- ./inp_files/94322.got.cif
#   From: 2010.05.17/outbox.cif.g08.bks.cpg/sg12_48_cif.got.tgz:94322.got - 2010.06.03 13:09:07.
