data_PCOD9181795
_publ_section_title
;
Structure prediction by ZEFSAII (Michael W. Deem and Ramdas Pophale) SiO2 
 PCOD9181795
Probable space group: C 2/M
;
_chemical_formula_sum "Si O2"
_cell_formula_units_Z 64
_cell_length_a 20.648636
_cell_length_b 7.745734
_cell_length_c 16.156942
_cell_angle_alpha 90.000000
_cell_angle_beta 71.995116
_cell_angle_gamma 90.000000
_cell_volume 2457.578553
_symmetry_space_group_name_H-M "C 2/M"
_symmetry_group_IT_number 12
_symmetry_cell_setting 'monoclinic'
loop_
_space_group_symop_operation_xyz
x,y,z
-x,y,-z
-x,-y,-z
x,-y,z
1/2+x,1/2+y,z
1/2-x,1/2+y,-z
1/2-x,1/2-y,-z
1/2+x,1/2-y,z
loop_
_atom_site_type_symbol
_atom_site_label
_atom_site_fract_x
_atom_site_fract_y
_atom_site_fract_z
Si Si1 0.665159 0.711677 0.702677
Si Si2 0.080326 0.792637 0.900712
Si Si3 0.292678 0.292028 0.064246
Si Si4 0.536021 0.795637 0.164279
Si Si5 0.664741 0.208131 0.204636
Si Si6 0.452390 0.700465 0.359186
Si Si7 0.793025 0.295963 0.563857
Si Si8 0.421339 0.700877 0.599376
O O1 0.665365 0.500000 0.701101
O O2 0.626022 0.756157 0.801848
O O3 0.618631 0.777607 0.644464
O O4 0.742217 0.769142 0.656715
O O5 0.130483 0.725746 0.953119
O O6 0.004404 0.737068 0.904801
O O7 0.075598 0.000000 0.909032
O O8 0.297155 0.500000 0.067902
O O9 0.240660 0.230207 0.156568
O O10 0.250000 0.250000 0.000000
O O11 0.613930 0.741260 0.149141
O O12 0.495403 0.704912 0.255573
O O13 0.532631 0.000000 0.181197
O O14 0.626653 0.262998 0.302553
O O15 0.668363 0.000000 0.206313
O O16 0.439276 0.500000 0.384489
O O17 0.504835 0.779981 0.405568
O O18 0.796295 0.500000 0.569767
O O19 0.750000 0.250000 0.500000
O O20 0.870966 0.238839 0.543309
O O21 0.435591 0.500000 0.589698
#
# Coordination Sequence:
#
# PCOD9181795 Si02
#       8
#     8   8   8   8   8   8   8   8
#     4   8  15  31  55  75  92 125 168 202 238 290
#     4   9  17  32  53  74  97 127 163 202 247 298
#     4  10  21  36  52  71  99 136 174 210 248 292
#     4   9  16  27  48  77 102 124 156 201 249 294
#     4   9  18  34  54  75 101 133 166 201 247 300
#     4   8  15  30  51  74  99 126 160 201 243 292
#     4  11  22  36  52  71 101 137 171 208 249 295
#     4  10  19  32  54  81 103 126 162 207 251 296
#
# _framework density 26.041893999999999
#
# number of rings (size 3 to 8) (size 9 to 14) (size 15 to 20)
#    0.000    2.750    0.000    2.625    0.000    4.000 
#    0.000    8.750    0.000    7.500    0.000    0.000 
#    0.000    0.000    0.000    0.000    0.000    0.000 
#
# Total GULP energy -178695.288914 kJ/mol
# GULP energy per Si atom -5584.227779 kJ/mol
# Density = 2.598262 g / cm^3
# Si number density = 26.041894 Si / 1000 Ang^3
#
#
#
# Elastic Constant Matrix: (Units=GPa)
#
#
# Indices 1 2 3 4 5 6 
#
# 1 240.1884 15.1804 38.2160 0.0000 23.2845 0.0000
# 2 15.1804 45.7346 -14.0358 0.0000 -0.1723 0.0000
# 3 38.2160 -14.0358 82.7094 0.0000 22.9096 0.0000
# 4 0.0000 0.0000 0.0000 14.1179 0.0000 8.7146
# 5 23.2845 -0.1723 22.9096 0.0000 51.0164 0.0000
# 6 0.0000 0.0000 0.0000 8.7146 0.0000 17.2873
#
#
#
# Elastic Compliance Matrix: (Units=1/GPa)
#
#
# Indices 1 2 3 4 5 6 
#
# 1 0.004783 -0.002290 -0.002275 0.000000 -0.001169 0.000000
# 2 -0.002290 0.024329 0.005567 0.000000 -0.001372 0.000000
# 3 -0.002275 0.005567 0.015753 0.000000 -0.006017 0.000000
# 4 0.000000 0.000000 0.000000 0.102829 0.000000 -0.051837
# 5 -0.001169 -0.001372 -0.006017 0.000000 0.022833 0.000000
# 6 0.000000 0.000000 0.000000 -0.051837 0.000000 0.083977
#
#
# Mechanical properties :
#
#
# Convention : Reuss Voigt Hill
#
# Bulk Modulus (GPa) = 21.33622 49.70597 35.52110
# Shear Modulus (GPa) = 18.64810 38.43576 28.54193
#
# Velocity S-wave (km/s) = 2.67887 3.84594 3.31418
# Velocity P-wave (km/s) = 4.21655 6.23298 5.32115
#
# Compressibility (1/GPa) = 0.04686866
#
# Stress axis : x y z
#
# Youngs Moduli (GPa) = 209.05262 41.10354 63.47981
#
# Poissons Ratio (x) = 0.09414 0.14442
# Poissons Ratio (y) = 0.47880 -0.35339
# Poissons Ratio (z) = 0.47559 -0.22882
#
# Static dielectric constant tensor:
#      x y z
#    x 2.293230 0.000000 0.017550 
#    y 0.000000 1.913370 0.000000 
#    z 0.017550 0.000000 2.166360 
# 
# From -- ./inp_files/319184.got.cif
#   From: 2010.05.17/outbox.cif.g08.bks.cpg/sg12_160_cif.got.tgz:319184.got - 2010.06.03 13:09:07.
