data_PCOD9181296
_publ_section_title
;
Structure prediction by ZEFSAII (Michael W. Deem and Ramdas Pophale) SiO2 
 PCOD9181296
Probable space group: C 2/M
;
_chemical_formula_sum "Si O2"
_cell_formula_units_Z 48
_cell_length_a 14.544281
_cell_length_b 15.348202
_cell_length_c 8.910909
_cell_angle_alpha 90.000000
_cell_angle_beta 87.555650
_cell_angle_gamma 90.000000
_cell_volume 1987.359497
_symmetry_space_group_name_H-M "C 2/M"
_symmetry_group_IT_number 12
_symmetry_cell_setting 'monoclinic'
loop_
_space_group_symop_operation_xyz
x,y,z
-x,y,-z
-x,-y,-z
x,-y,z
1/2+x,1/2+y,z
1/2-x,1/2+y,-z
1/2-x,1/2-y,-z
1/2+x,1/2-y,z
loop_
_atom_site_type_symbol
_atom_site_label
_atom_site_fract_x
_atom_site_fract_y
_atom_site_fract_z
Si Si1 0.893569 0.655332 0.799654
Si Si2 0.101247 0.099144 0.983211
Si Si3 0.902604 0.226359 0.536735
Si Si4 0.084086 0.594796 0.655977
Si Si5 0.705116 0.349060 0.706797
Si Si6 0.709649 0.163836 0.882263
O O1 0.898361 0.747408 0.709834
O O2 0.805103 0.610520 0.726026
O O3 0.989875 0.609408 0.758015
O O4 0.862604 0.664633 0.973552
O O5 0.129037 0.100200 0.805636
O O6 0.092846 0.000000 0.038942
O O7 0.190788 0.138269 0.060578
O O8 0.000000 0.141933 0.000000
O O9 0.907536 0.320786 0.451618
O O10 0.822983 0.172266 0.461093
O O11 0.000000 0.181717 0.500000
O O12 0.082524 0.500000 0.582627
O O13 0.168845 0.598571 0.764056
O O14 0.708190 0.256273 0.796445
#
# Coordination Sequence:
#
# PCOD9181296 Si02
#       6
#     8   8   8   8   8   8
#     4  10  19  32  52  80 111 142 177 217 265 319
#     4  10  21  36  55  80 110 144 183 229 275 317
#     4   9  20  35  54  79 109 147 183 221 269 320
#     4  10  21  36  54  82 118 148 175 214 271 333
#     4  10  21  37  57  83 110 141 183 227 272 322
#     4  10  21  36  58  85 111 141 181 227 271 321
#
# _framework density 24.152650000000001
#
# number of rings (size 3 to 8) (size 9 to 14) (size 15 to 20)
#    0.000    2.167    0.000    3.500    0.000   15.000 
#    0.000    0.000    0.000    0.500    0.000    1.167 
#    0.000    0.000    0.000    0.000    0.000    0.000 
#
# Total GULP energy -134019.244078 kJ/mol
# GULP energy per Si atom -5584.135170 kJ/mol
# Density = 2.409768 g / cm^3
# Si number density = 24.152650 Si / 1000 Ang^3
#
#
#
# Elastic Constant Matrix: (Units=GPa)
#
#
# Indices 1 2 3 4 5 6 
#
# 1 127.4335 12.5192 28.3206 0.0000 -0.7024 0.0000
# 2 12.5192 65.5202 5.8576 0.0000 14.3623 0.0000
# 3 28.3206 5.8576 74.7524 0.0000 12.6240 0.0000
# 4 0.0000 0.0000 0.0000 7.7283 0.0000 1.6428
# 5 -0.7024 14.3623 12.6240 0.0000 52.4324 0.0000
# 6 0.0000 0.0000 0.0000 1.6428 0.0000 6.2873
#
#
#
# Elastic Compliance Matrix: (Units=1/GPa)
#
#
# Indices 1 2 3 4 5 6 
#
# 1 0.008783 -0.001679 -0.003433 0.000000 0.001404 0.000000
# 2 -0.001679 0.016580 0.000112 0.000000 -0.004591 0.000000
# 3 -0.003433 0.000112 0.015305 0.000000 -0.003762 0.000000
# 4 0.000000 0.000000 0.000000 0.137004 0.000000 -0.035798
# 5 0.001404 -0.004591 -0.003762 0.000000 0.021254 0.000000
# 6 0.000000 0.000000 0.000000 -0.035798 0.000000 0.168405
#
#
# Mechanical properties :
#
#
# Convention : Reuss Voigt Hill
#
# Bulk Modulus (GPa) = 32.60788 40.12232 36.36510
# Shear Modulus (GPa) = 12.90147 28.02352 20.46249
#
# Velocity S-wave (km/s) = 2.31371 3.40996 2.91385
# Velocity P-wave (km/s) = 4.54617 5.67026 5.13904
#
# Compressibility (1/GPa) = 0.03066743
#
# Stress axis : x y z
#
# Youngs Moduli (GPa) = 113.85802 60.31505 65.33996
#
# Poissons Ratio (x) = 0.10127 0.22431
# Poissons Ratio (y) = 0.19117 -0.00734
# Poissons Ratio (z) = 0.39088 -0.00677
#
# Static dielectric constant tensor:
#      x y z
#    x 1.995090 0.000000 -0.032780 
#    y 0.000000 1.938700 0.000000 
#    z -0.032780 0.000000 1.964100 
# 
# From -- ./inp_files/74546.got.cif
#   From: 2010.05.17/outbox.cif.g08.bks.cpg/sg12_38_cif.got.tgz:74546.got - 2010.06.03 13:09:07.
