data_PCOD9181990
_publ_section_title
;
Structure prediction by ZEFSAII (Michael W. Deem and Ramdas Pophale) SiO2 
 PCOD9181990
Probable space group: C 2/M
;
_chemical_formula_sum "Si O2"
_cell_formula_units_Z 56
_cell_length_a 19.089473
_cell_length_b 14.594791
_cell_length_c 11.752949
_cell_angle_alpha 90.000000
_cell_angle_beta 55.450520
_cell_angle_gamma 90.000000
_cell_volume 2696.959231
_symmetry_space_group_name_H-M "C 2/M"
_symmetry_group_IT_number 12
_symmetry_cell_setting 'monoclinic'
loop_
_space_group_symop_operation_xyz
x,y,z
-x,y,-z
-x,-y,-z
x,-y,z
1/2+x,1/2+y,z
1/2-x,1/2+y,-z
1/2-x,1/2-y,-z
1/2+x,1/2-y,z
loop_
_atom_site_type_symbol
_atom_site_label
_atom_site_fract_x
_atom_site_fract_y
_atom_site_fract_z
Si Si1 0.556785 0.608667 0.838596
Si Si2 0.893690 0.604526 0.021659
Si Si3 0.234698 0.897041 0.793209
Si Si4 0.226791 0.854309 0.048893
Si Si5 0.048966 0.760682 0.631010
Si Si6 0.421537 0.109820 0.237599
Si Si7 0.372755 0.265725 0.674605
O O1 0.541439 0.500000 0.834367
O O2 0.655499 0.620251 0.783461
O O3 0.538824 0.667333 0.742693
O O4 0.500000 0.637644 0.000000
O O5 0.914034 0.500000 0.029898
O O6 0.815438 0.606003 0.010025
O O7 0.873524 0.642024 0.166202
O O8 0.980477 0.637091 0.884429
O O9 0.305834 0.817976 0.724811
O O10 0.268642 0.000000 0.741181
O O11 0.197681 0.895923 0.957039
O O12 0.164341 0.847156 0.212936
O O13 0.250000 0.750000 0.000000
O O14 0.097242 0.671949 0.637174
O O15 0.100704 0.797681 0.475082
O O16 0.957142 0.733318 0.664065
O O17 0.413752 0.000000 0.266161
#
# Coordination Sequence:
#
# PCOD9181990 Si02
#       7
#     8   8   8   8   8   8   8
#     4  10  23  42  65  92 117 157 212 258 301 351
#     4   9  18  33  52  83 118 145 187 242 295 355
#     4  10  21  39  64  91 122 155 197 256 307 356
#     4  10  19  32  55  81 113 148 194 238 287 344
#     4  11  23  40  63  84 123 166 201 244 305 362
#     4   9  19  33  55  87 120 153 190 236 296 364
#     4  10  24  40  56  90 120 158 203 243 302 370
#
# _framework density 20.764125
#
# number of rings (size 3 to 8) (size 9 to 14) (size 15 to 20)
#    0.000    2.143    0.000    3.857    6.000    2.857 
#    0.000    5.000    0.000    0.000    0.000    0.000 
#    0.000    0.000    0.000    0.000    0.000    0.000 
#
# Total GULP energy -156128.233431 kJ/mol
# GULP energy per Si atom -5576.008337 kJ/mol
# Density = 2.071687 g / cm^3
# Si number density = 20.764125 Si / 1000 Ang^3
#
#
#
# Elastic Constant Matrix: (Units=GPa)
#
#
# Indices 1 2 3 4 5 6 
#
# 1 69.1890 18.2241 20.2714 0.0000 17.5761 0.0000
# 2 18.2241 73.0674 24.6792 0.0000 10.4499 0.0000
# 3 20.2714 24.6792 103.8273 0.0000 23.1794 0.0000
# 4 0.0000 0.0000 0.0000 13.4865 0.0000 0.8765
# 5 17.5761 10.4499 23.1794 0.0000 32.7690 0.0000
# 6 0.0000 0.0000 0.0000 0.8765 0.0000 26.8850
#
#
#
# Elastic Compliance Matrix: (Units=1/GPa)
#
#
# Indices 1 2 3 4 5 6 
#
# 1 0.017479 -0.002917 -0.000990 0.000000 -0.007744 0.000000
# 2 -0.002917 0.015566 -0.002816 0.000000 -0.001407 0.000000
# 3 -0.000990 -0.002816 0.012083 0.000000 -0.007118 0.000000
# 4 0.000000 0.000000 0.000000 0.074306 0.000000 -0.002422
# 5 -0.007744 -0.001407 -0.007118 0.000000 0.040154 0.000000
# 6 0.000000 0.000000 0.000000 -0.002422 0.000000 0.037274
#
#
# Mechanical properties :
#
#
# Convention : Reuss Voigt Hill
#
# Bulk Modulus (GPa) = 31.56528 41.38144 36.47336
# Shear Modulus (GPa) = 22.63769 26.82203 24.72986
#
# Velocity S-wave (km/s) = 3.30545 3.59799 3.45482
# Velocity P-wave (km/s) = 5.45919 6.10191 5.78948
#
# Compressibility (1/GPa) = 0.03168037
#
# Stress axis : x y z
#
# Youngs Moduli (GPa) = 57.21144 64.24210 82.75958
#
# Poissons Ratio (x) = 0.18743 0.08195
# Poissons Ratio (y) = 0.16691 0.23307
# Poissons Ratio (z) = 0.05665 0.18092
#
# Static dielectric constant tensor:
#      x y z
#    x 1.719790 0.000000 0.013190 
#    y 0.000000 1.736120 0.000000 
#    z 0.013190 0.000000 1.812600 
# 
# From -- ./inp_files/156520.got.cif
#   From: 2010.05.17/outbox.cif.g08.bks.cpg/sg12_79_cif.got.tgz:156520.got - 2010.06.03 13:09:07.
