data_PCOD9181778
_publ_section_title
;
Structure prediction by ZEFSAII (Michael W. Deem and Ramdas Pophale) SiO2 
 PCOD9181778
Probable space group: C 2/M
;
_chemical_formula_sum "Si O2"
_cell_formula_units_Z 56
_cell_length_a 19.316682
_cell_length_b 8.347589
_cell_length_c 19.692356
_cell_angle_alpha 90.000000
_cell_angle_beta 59.420623
_cell_angle_gamma 90.000000
_cell_volume 2733.736709
_symmetry_space_group_name_H-M "C 2/M"
_symmetry_group_IT_number 12
_symmetry_cell_setting 'monoclinic'
loop_
_space_group_symop_operation_xyz
x,y,z
-x,y,-z
-x,-y,-z
x,-y,z
1/2+x,1/2+y,z
1/2-x,1/2+y,-z
1/2-x,1/2-y,-z
1/2+x,1/2-y,z
loop_
_atom_site_type_symbol
_atom_site_label
_atom_site_fract_x
_atom_site_fract_y
_atom_site_fract_z
Si Si1 0.321617 0.190184 0.759351
Si Si2 0.420463 0.308087 0.497764
Si Si3 0.497758 0.188605 0.828077
Si Si4 0.749522 0.313715 0.576994
Si Si5 0.491553 0.312618 0.681456
Si Si6 0.178169 0.307033 0.082883
Si Si7 0.827254 0.309408 0.253169
O O1 0.402546 0.280354 0.695873
O O2 0.308803 0.237751 0.844734
O O3 0.243708 0.231874 0.754805
O O4 0.336650 0.000000 0.749040
O O5 0.500000 0.266197 0.500000
O O6 0.406748 0.500000 0.511937
O O7 0.340433 0.215878 0.557773
O O8 0.442903 0.275100 0.408182
O O9 0.497914 0.210469 0.746428
O O10 0.410905 0.254396 0.894040
O O11 0.583565 0.254085 0.809652
O O12 0.498059 0.000000 0.843778
O O13 0.729140 0.500000 0.586998
O O14 0.750000 0.250000 0.500000
O O15 0.691139 0.225937 0.658664
O O16 0.498533 0.500000 0.695534
O O17 0.175650 0.500000 0.081910
O O18 0.250000 0.250000 0.000000
O O19 0.825087 0.500000 0.243800
#
# Coordination Sequence:
#
# PCOD9181778 Si02
#       7
#     8   8   8   8   8   8   8
#     4  10  21  37  57  83 116 149 183 227 277 330
#     4  10  21  36  53  76 107 141 183 235 283 329
#     4   9  20  37  56  79 109 143 179 223 272 325
#     4  12  25  39  56  79 111 150 191 236 284 333
#     4  10  19  32  54  80 105 140 187 232 274 327
#     4   9  19  37  60  86 114 144 180 221 268 325
#     4  11  22  38  59  82 111 147 188 232 279 331
#
# _framework density 20.484781999999999
#
# number of rings (size 3 to 8) (size 9 to 14) (size 15 to 20)
#    0.000    1.857    0.000    5.143    0.000    8.857 
#    0.000    0.714    0.000    4.286    0.000    0.000 
#    0.000    0.000    0.000    0.000    0.000    0.000 
#
# Total GULP energy -156434.727864 kJ/mol
# GULP energy per Si atom -5586.954567 kJ/mol
# Density = 2.043816 g / cm^3
# Si number density = 20.484782 Si / 1000 Ang^3
#
#
#
# Elastic Constant Matrix: (Units=GPa)
#
#
# Indices 1 2 3 4 5 6 
#
# 1 108.0740 -2.0027 21.4180 -0.0002 -23.4203 -0.0005
# 2 -2.0027 19.9560 6.0950 -0.0007 -4.9174 -0.0017
# 3 21.4180 6.0950 65.9525 0.0000 -27.1867 -0.0001
# 4 -0.0002 -0.0007 0.0000 27.0203 0.0000 1.6808
# 5 -23.4203 -4.9174 -27.1867 0.0000 34.0799 -0.0001
# 6 -0.0005 -0.0017 -0.0001 1.6808 -0.0001 27.3189
#
#
#
# Elastic Compliance Matrix: (Units=1/GPa)
#
#
# Indices 1 2 3 4 5 6 
#
# 1 0.011084 0.003194 -0.000842 0.000000 0.007407 0.000000
# 2 0.003194 0.053168 -0.002806 0.000001 0.007628 0.000003
# 3 -0.000842 -0.002806 0.022781 0.000000 0.017190 0.000000
# 4 0.000000 0.000001 0.000000 0.037151 0.000000 -0.002286
# 5 0.007407 0.007628 0.017190 0.000000 0.049247 0.000001
# 6 0.000000 0.000003 0.000000 -0.002286 0.000001 0.036745
#
#
# Mechanical properties :
#
#
# Convention : Reuss Voigt Hill
#
# Bulk Modulus (GPa) = 11.61095 27.22256 19.41676
# Shear Modulus (GPa) = 20.85143 28.91528 24.88335
#
# Velocity S-wave (km/s) = 3.19391 3.76114 3.48907
# Velocity P-wave (km/s) = 4.39111 5.67270 5.07254
#
# Compressibility (1/GPa) = 0.08612562
#
# Stress axis : x y z
#
# Youngs Moduli (GPa) = 90.22041 18.80844 43.89599
#
# Poissons Ratio (x) = -0.06008 0.03694
# Poissons Ratio (y) = -0.28821 0.12319
# Poissons Ratio (z) = 0.07593 0.05278
#
# Static dielectric constant tensor:
#      x y z
#    x 1.788960 0.000000 -0.000680 
#    y 0.000000 1.705940 0.000000 
#    z -0.000680 0.000000 1.710690 
# 
# From -- ./inp_files/275280.got.cif
#   From: 2010.05.17/outbox.cif.g08.bks.cpg/sg12_138_cif.got.tgz:275280.got - 2010.06.03 13:09:07.
