data_PCOD9181235
_publ_section_title
;
Structure prediction by ZEFSAII (Michael W. Deem and Ramdas Pophale) SiO2 
 PCOD9181235
Probable space group: C 2/M
;
_chemical_formula_sum "Si O2"
_cell_formula_units_Z 56
_cell_length_a 28.149775
_cell_length_b 7.386824
_cell_length_c 22.505481
_cell_angle_alpha 90.000000
_cell_angle_beta 147.599195
_cell_angle_gamma 90.000000
_cell_volume 2507.581292
_symmetry_space_group_name_H-M "C 2/M"
_symmetry_group_IT_number 12
_symmetry_cell_setting 'monoclinic'
loop_
_space_group_symop_operation_xyz
x,y,z
-x,y,-z
-x,-y,-z
x,-y,z
1/2+x,1/2+y,z
1/2-x,1/2+y,-z
1/2-x,1/2-y,-z
1/2+x,1/2-y,z
loop_
_atom_site_type_symbol
_atom_site_label
_atom_site_fract_x
_atom_site_fract_y
_atom_site_fract_z
Si Si1 0.075304 0.710727 0.536897
Si Si2 0.852151 0.215491 0.621044
Si Si3 0.913728 0.221084 0.815555
Si Si4 0.773998 0.221248 0.767735
Si Si5 0.514539 0.280598 0.340187
Si Si6 0.148251 0.215835 0.907751
Si Si7 0.611652 0.720654 0.002763
O O1 0.083935 0.500000 0.563298
O O2 0.174751 0.785271 0.648788
O O3 0.041524 0.719352 0.433875
O O4 0.000000 0.791399 0.500000
O O5 0.750000 0.250000 0.500000
O O6 0.879970 0.282328 0.715262
O O7 0.913677 0.282225 0.632663
O O8 0.866272 0.000000 0.637959
O O9 0.846086 0.280422 0.794975
O O10 0.016402 0.275067 0.928817
O O11 0.912870 0.000000 0.815870
O O12 0.774051 0.000000 0.765732
O O13 0.809794 0.275481 0.870221
O O14 0.515484 0.500000 0.343228
O O15 0.419377 0.219404 0.214436
O O16 0.123469 0.283775 0.947492
O O17 0.135609 0.000000 0.897025
O O18 0.250000 0.250000 0.000000
O O19 0.611590 0.500000 0.001290
#
# Coordination Sequence:
#
# PCOD9181235 Si02
#       7
#     8   8   8   8   8   8   8
#     4  10  22  37  54  80 109 139 180 228 275 322
#     4  10  19  32  52  78 109 144 179 219 264 318
#     4   9  15  27  47  73 103 133 170 213 262 316
#     4   9  17  28  47  76 106 135 171 217 268 316
#     4  10  21  38  56  78 110 146 185 223 269 331
#     4  10  21  36  56  81 108 141 182 224 270 322
#     4   9  16  29  50  75 103 135 170 216 267 313
#
# _framework density 22.332274999999999
#
# number of rings (size 3 to 8) (size 9 to 14) (size 15 to 20)
#    0.000    2.429    1.429    1.286    2.000    4.286 
#    0.000    0.000    0.000    0.000    0.000    0.000 
#    0.000    5.714    0.000    0.000    0.000    0.000 
#
# Total GULP energy -156470.305514 kJ/mol
# GULP energy per Si atom -5588.225197 kJ/mol
# Density = 2.228145 g / cm^3
# Si number density = 22.332275 Si / 1000 Ang^3
#
#
#
# Elastic Constant Matrix: (Units=GPa)
#
#
# Indices 1 2 3 4 5 6 
#
# 1 104.9711 -0.2577 86.5783 0.0000 11.6302 0.0000
# 2 -0.2577 74.0604 -7.8587 0.0000 1.7699 -0.0001
# 3 86.5783 -7.8587 211.1440 0.0000 10.2460 0.0000
# 4 0.0000 0.0000 0.0000 11.0191 0.0000 9.2938
# 5 11.6302 1.7699 10.2460 0.0000 42.6269 0.0000
# 6 0.0000 -0.0001 0.0000 9.2938 0.0000 -34.7913
#
#
#
# Elastic Compliance Matrix: (Units=1/GPa)
#
#
# Indices 1 2 3 4 5 6 
#
# 1 0.014691 -0.000516 -0.005919 0.000000 -0.002564 0.000000
# 2 -0.000516 0.013594 0.000747 0.000000 -0.000603 0.000000
# 3 -0.005919 0.000747 0.007198 0.000000 -0.000146 0.000000
# 4 0.000000 0.000000 0.000000 0.074065 0.000000 0.019785
# 5 -0.002564 -0.000603 -0.000146 0.000000 0.024219 0.000000
# 6 0.000000 0.000000 0.000000 0.019785 0.000000 -0.023458
#
#
# Mechanical properties :
#
#
# Convention : Reuss Voigt Hill
#
# Bulk Modulus (GPa) = 41.48019 60.78879 51.13449
# Shear Modulus (GPa) = 38.54437 24.55183 31.54810
#
# Velocity S-wave (km/s) = 4.15896 3.31930 3.76263
# Velocity P-wave (km/s) = 6.45578 6.47839 6.46709
#
# Compressibility (1/GPa) = 0.02410789
#
# Stress axis : x y z
#
# Youngs Moduli (GPa) = 68.06940 73.55998 138.92915
#
# Poissons Ratio (x) = 0.03793 0.82228
# Poissons Ratio (y) = 0.03510 -0.10374
# Poissons Ratio (z) = 0.40288 -0.05493
#
# Static dielectric constant tensor:
#      x y z
#    x 1.772530 0.000000 0.002700 
#    y 0.000000 1.879120 0.000000 
#    z 0.002700 0.000000 1.769060 
# 
# From -- ./inp_files/327609.got.cif
#   From: 2010.05.17/outbox.cif.g08.bks.cpg/sg12_164_cif.got.tgz:327609.got - 2010.06.03 13:09:07.
