data_PCOD9181531
_publ_section_title
;
Structure prediction by ZEFSAII (Michael W. Deem and Ramdas Pophale) SiO2 
 PCOD9181531
Probable space group: C 2/M
;
_chemical_formula_sum "Si O2"
_cell_formula_units_Z 56
_cell_length_a 19.604231
_cell_length_b 9.641273
_cell_length_c 20.284933
_cell_angle_alpha 90.000000
_cell_angle_beta 50.499139
_cell_angle_gamma 90.000000
_cell_volume 2958.410565
_symmetry_space_group_name_H-M "C 2/M"
_symmetry_group_IT_number 12
_symmetry_cell_setting 'monoclinic'
loop_
_space_group_symop_operation_xyz
x,y,z
-x,y,-z
-x,-y,-z
x,-y,z
1/2+x,1/2+y,z
1/2-x,1/2+y,-z
1/2-x,1/2-y,-z
1/2+x,1/2-y,z
loop_
_atom_site_type_symbol
_atom_site_label
_atom_site_fract_x
_atom_site_fract_y
_atom_site_fract_z
Si Si1 0.865277 0.664252 0.226417
Si Si2 0.218235 0.833531 0.955193
Si Si3 0.140304 0.345670 0.620127
Si Si4 0.397950 0.159296 0.583824
Si Si5 0.847667 0.847134 0.499283
Si Si6 0.225806 0.664136 0.224714
Si Si7 0.047022 0.343483 0.041727
O O1 0.840279 0.500000 0.240201
O O2 0.864547 0.710029 0.302833
O O3 0.800132 0.748890 0.218666
O O4 0.966239 0.675365 0.141228
O O5 0.272703 0.802125 0.854029
O O6 0.219652 0.000000 0.964588
O O7 0.250000 0.750000 0.000000
O O8 0.120481 0.773688 0.001634
O O9 0.099856 0.500000 0.641764
O O10 0.105495 0.244530 0.585292
O O11 0.245093 0.361729 0.542934
O O12 0.500000 0.173322 0.500000
O O13 0.348848 0.266618 0.567098
O O14 0.365774 0.184079 0.678450
O O15 0.372521 0.000000 0.583573
O O16 0.886604 0.000000 0.481797
O O17 0.247708 0.500000 0.215675
O O18 0.085180 0.500000 0.027154
O O19 0.000000 0.339992 0.000000
#
# Coordination Sequence:
#
# PCOD9181531 Si02
#       7
#     8   8   8   8   8   8   8
#     4  10  19  34  58  87 115 148 189 235 287 348
#     4  11  24  42  63  87 121 160 201 247 300 358
#     4   9  18  32  51  77 110 146 180 220 277 336
#     4  10  21  38  58  79 108 147 192 238 288 345
#     4  10  19  32  53  79 108 141 182 229 278 331
#     4  10  21  37  60  86 110 146 194 244 293 348
#     4  10  20  36  62  92 121 152 192 243 298 356
#
# _framework density 18.929082999999999
#
# number of rings (size 3 to 8) (size 9 to 14) (size 15 to 20)
#    0.000    2.000    2.857    0.857    0.000    2.857 
#    2.571    0.000    0.000    0.000    0.000    0.000 
#    0.000    0.000    0.000    0.000    0.000    0.000 
#
# Total GULP energy -156026.231206 kJ/mol
# GULP energy per Si atom -5572.365400 kJ/mol
# Density = 1.888600 g / cm^3
# Si number density = 18.929083 Si / 1000 Ang^3
#
#
#
# Elastic Constant Matrix: (Units=GPa)
#
#
# Indices 1 2 3 4 5 6 
#
# 1 40.0071 39.3905 41.9827 0.0000 14.7569 0.0000
# 2 39.3905 80.5341 57.1145 0.0000 15.5832 0.0000
# 3 41.9827 57.1145 128.7229 0.0000 32.3127 0.0000
# 4 0.0000 0.0000 0.0000 11.9882 0.0000 -6.8971
# 5 14.7569 15.5832 32.3127 0.0000 30.4456 0.0000
# 6 0.0000 0.0000 0.0000 -6.8971 0.0000 7.4655
#
#
#
# Elastic Compliance Matrix: (Units=1/GPa)
#
#
# Indices 1 2 3 4 5 6 
#
# 1 0.055948 -0.020835 -0.006642 0.000000 -0.009404 0.000000
# 2 -0.020835 0.025900 -0.005322 0.000000 0.002490 0.000000
# 3 -0.006642 -0.005322 0.014728 0.000000 -0.009688 0.000000
# 4 0.000000 0.000000 0.000000 0.178055 0.000000 0.164498
# 5 -0.009404 0.002490 -0.009688 0.000000 0.046411 0.000000
# 6 0.000000 0.000000 0.000000 0.164498 0.000000 0.285922
#
#
# Mechanical properties :
#
#
# Convention : Reuss Voigt Hill
#
# Bulk Modulus (GPa) = 32.27997 58.47103 45.37550
# Shear Modulus (GPa) = 7.32184 17.36497 12.34340
#
# Velocity S-wave (km/s) = 1.96887 3.03210 2.55637
# Velocity P-wave (km/s) = 4.71791 6.57379 5.72160
#
# Compressibility (1/GPa) = 0.03097897
#
# Stress axis : x y z
#
# Youngs Moduli (GPa) = 17.87367 38.61000 67.89712
#
# Poissons Ratio (x) = 0.80443 0.45099
# Poissons Ratio (y) = 0.37239 0.36133
# Poissons Ratio (z) = 0.11872 0.20547
#
# Static dielectric constant tensor:
#      x y z
#    x 1.649620 0.000000 0.000600 
#    y 0.000000 1.684930 0.000000 
#    z 0.000600 0.000000 1.681690 
# 
# From -- ./inp_files/319728.got.cif
#   From: 2010.05.17/outbox.cif.g08.bks.cpg/sg12_160_cif.got.tgz:319728.got - 2010.06.03 13:09:07.
