data_PCOD9181112
_publ_section_title
;
Structure prediction by ZEFSAII (Michael W. Deem and Ramdas Pophale) SiO2 
 PCOD9181112
Probable space group: C 2/M
;
_chemical_formula_sum "Si O2"
_cell_formula_units_Z 40
_cell_length_a 7.010992
_cell_length_b 20.556957
_cell_length_c 11.659947
_cell_angle_alpha 90.000000
_cell_angle_beta 97.344219
_cell_angle_gamma 90.000000
_cell_volume 1666.699342
_symmetry_space_group_name_H-M "C 2/M"
_symmetry_group_IT_number 12
_symmetry_cell_setting 'monoclinic'
loop_
_space_group_symop_operation_xyz
x,y,z
-x,y,-z
-x,-y,-z
x,-y,z
1/2+x,1/2+y,z
1/2-x,1/2+y,-z
1/2-x,1/2-y,-z
1/2+x,1/2-y,z
loop_
_atom_site_type_symbol
_atom_site_label
_atom_site_fract_x
_atom_site_fract_y
_atom_site_fract_z
Si Si1 0.445769 0.931083 0.630914
Si Si2 0.967046 0.699486 0.331627
Si Si3 0.659051 0.573098 0.187482
Si Si4 0.434745 0.653970 0.614106
Si Si5 0.172669 0.684279 0.934950
O O1 0.500000 0.934478 0.500000
O O2 0.372350 0.857438 0.649057
O O3 0.632289 0.932930 0.730950
O O4 0.339419 0.000000 0.645339
O O5 0.793310 0.670164 0.393035
O O6 0.906790 0.705344 0.194963
O O7 0.992298 0.772494 0.372316
O O8 0.599594 0.500000 0.152323
O O9 0.528335 0.608036 0.273748
O O10 0.687457 0.624661 0.087022
O O11 0.500000 0.622955 0.500000
O O12 0.250000 0.750000 0.000000
O O13 0.000000 0.658996 0.000000
#
# Coordination Sequence:
#
# PCOD9181112 Si02
#       5
#     8   8   8   8   8
#     4   8  14  27  47  70 100 134 162 198 251 303
#     4  10  20  32  50  78 108 134 175 221 256 310
#     4   9  20  35  51  77 107 137 178 220 258 310
#     4  10  19  32  52  76 105 141 172 211 262 316
#     4  10  19  34  56  79 103 138 176 219 269 312
#
# _framework density 23.99953
#
# number of rings (size 3 to 8) (size 9 to 14) (size 15 to 20)
#    0.000    3.000    0.000    3.600    0.000    2.400 
#    0.000    0.000    0.000    6.600    0.000    2.800 
#    0.000    0.000    0.000    0.000    0.000    0.000 
#
# Total GULP energy -111451.816996 kJ/mol
# GULP energy per Si atom -5572.590850 kJ/mol
# Density = 2.394491 g / cm^3
# Si number density = 23.999530 Si / 1000 Ang^3
#
#
#
# Elastic Constant Matrix: (Units=GPa)
#
#
# Indices 1 2 3 4 5 6 
#
# 1 46.1105 21.6538 44.2515 0.0000 -30.5434 0.0000
# 2 21.6538 248.3555 70.0620 0.0000 -23.0957 0.0000
# 3 44.2515 70.0620 136.9283 0.0000 -21.9244 0.0000
# 4 0.0000 0.0000 0.0000 4.8128 0.0000 9.1523
# 5 -30.5434 -23.0957 -21.9244 0.0000 43.6360 0.0000
# 6 0.0000 0.0000 0.0000 9.1523 0.0000 15.7147
#
#
#
# Elastic Compliance Matrix: (Units=1/GPa)
#
#
# Indices 1 2 3 4 5 6 
#
# 1 0.056197 0.002133 -0.013891 0.000000 0.033485 0.000000
# 2 0.002133 0.004866 -0.002749 0.000000 0.002687 0.000000
# 3 -0.013891 -0.002749 0.012407 0.000000 -0.004944 0.000000
# 4 0.000000 0.000000 0.000000 -1.931974 0.000000 1.125195
# 5 0.033485 0.002687 -0.004944 0.000000 0.045293 0.000000
# 6 0.000000 0.000000 0.000000 1.125195 0.000000 -0.591686
#
#
# Mechanical properties :
#
#
# Convention : Reuss Voigt Hill
#
# Bulk Modulus (GPa) = 22.49421 78.14763 50.32092
# Shear Modulus (GPa) = -2.11769 32.52785 15.20508
#
# Velocity S-wave (km/s) = -0.94037 3.68551 2.51979
# Velocity P-wave (km/s) = 2.86602 7.12344 5.42943
#
# Compressibility (1/GPa) = 0.04445588
#
# Stress axis : x y z
#
# Youngs Moduli (GPa) = 17.79461 205.51392 80.59898
#
# Poissons Ratio (x) = -0.43835 1.11961
# Poissons Ratio (y) = -0.03795 0.22154
# Poissons Ratio (z) = 0.24719 0.56490
#
# Static dielectric constant tensor:
#      x y z
#    x 2.089900 0.000000 0.054480 
#    y 0.000000 2.037130 0.000000 
#    z 0.054480 0.000000 1.922700 
# 
# From -- ./inp_files/120317.got.cif
#   From: 2010.05.17/outbox.cif.g08.bks.cpg/sg12_61_cif.got.tgz:120317.got - 2010.06.03 13:09:07.
