data_PCOD9181367
_publ_section_title
;
Structure prediction by ZEFSAII (Michael W. Deem and Ramdas Pophale) SiO2 
 PCOD9181367
Probable space group: C 2/M
;
_chemical_formula_sum "Si O2"
_cell_formula_units_Z 56
_cell_length_a 9.562900
_cell_length_b 27.632268
_cell_length_c 11.619346
_cell_angle_alpha 90.000000
_cell_angle_beta 65.230607
_cell_angle_gamma 90.000000
_cell_volume 2787.881805
_symmetry_space_group_name_H-M "C 2/M"
_symmetry_group_IT_number 12
_symmetry_cell_setting 'monoclinic'
loop_
_space_group_symop_operation_xyz
x,y,z
-x,y,-z
-x,-y,-z
x,-y,z
1/2+x,1/2+y,z
1/2-x,1/2+y,-z
1/2-x,1/2-y,-z
1/2+x,1/2-y,z
loop_
_atom_site_type_symbol
_atom_site_label
_atom_site_fract_x
_atom_site_fract_y
_atom_site_fract_z
Si Si1 0.828236 0.891186 0.106897
Si Si2 0.816081 0.444055 0.055012
Si Si3 0.067869 0.698832 0.691871
Si Si4 0.647747 0.132856 0.390104
Si Si5 0.279776 0.645301 0.783685
Si Si6 0.808515 0.697389 0.958569
Si Si7 0.581282 0.306592 0.598292
O O1 0.757064 0.895607 0.260397
O O2 0.799001 0.834858 0.086999
O O3 0.725915 0.922927 0.055482
O O4 0.000000 0.902136 0.000000
O O5 0.771202 0.500000 0.080173
O O6 0.734423 0.411213 0.181079
O O7 0.000000 0.440028 0.000000
O O8 0.199094 0.663087 0.694910
O O9 0.113207 0.751765 0.630290
O O10 0.949816 0.673422 0.645547
O O11 0.967965 0.705096 0.840835
O O12 0.500000 0.105607 0.500000
O O13 0.764852 0.161455 0.434475
O O14 0.451058 0.667187 0.721533
O O15 0.193465 0.668586 0.922248
O O16 0.750000 0.750000 0.000000
O O17 0.500000 0.304409 0.500000
#
# Coordination Sequence:
#
# PCOD9181367 Si02
#       7
#     8   8   8   8   8   8   8
#     4  10  22  38  61  92 122 154 206 260 313 365
#     4  10  21  40  65  92 123 159 201 254 318 379
#     4  11  22  35  55  82 120 165 209 253 296 361
#     4  11  23  39  56  80 118 166 209 252 300 361
#     4  11  21  38  58  88 122 158 208 253 307 365
#     4  10  19  32  52  84 117 159 196 246 299 363
#     4  12  25  38  54  80 121 170 213 249 300 365
#
# _framework density 20.086933999999999
#
# number of rings (size 3 to 8) (size 9 to 14) (size 15 to 20)
#    0.000    1.286    1.429    6.857    2.000    2.000 
#    0.000    0.000    0.000    0.857    0.000    4.000 
#    0.000    4.000    0.000    0.000    0.000    0.000 
#
# Total GULP energy -156072.166244 kJ/mol
# GULP energy per Si atom -5574.005937 kJ/mol
# Density = 2.004122 g / cm^3
# Si number density = 20.086934 Si / 1000 Ang^3
#
#
#
# Elastic Constant Matrix: (Units=GPa)
#
#
# Indices 1 2 3 4 5 6 
#
# 1 73.0497 14.4834 42.2158 0.0000 5.1664 0.0000
# 2 14.4834 100.4329 27.3393 0.0000 2.1321 0.0000
# 3 42.2158 27.3393 133.7954 0.0000 -9.0242 0.0000
# 4 0.0000 0.0000 0.0000 8.8506 0.0000 2.8546
# 5 5.1664 2.1321 -9.0242 0.0000 31.4271 0.0000
# 6 0.0000 0.0000 0.0000 2.8546 0.0000 7.2219
#
#
#
# Elastic Compliance Matrix: (Units=1/GPa)
#
#
# Indices 1 2 3 4 5 6 
#
# 1 0.017422 -0.000891 -0.005613 0.000000 -0.004415 0.000000
# 2 -0.000891 0.010646 -0.001971 0.000000 -0.001142 0.000000
# 3 -0.005613 -0.001971 0.009911 0.000000 0.003902 0.000000
# 4 0.000000 0.000000 0.000000 0.129497 0.000000 -0.051187
# 5 -0.004415 -0.001142 0.003902 0.000000 0.033744 0.000000
# 6 0.000000 0.000000 0.000000 -0.051187 0.000000 0.158701
#
#
# Mechanical properties :
#
#
# Convention : Reuss Voigt Hill
#
# Bulk Modulus (GPa) = 47.55275 52.81724 50.18499
# Shear Modulus (GPa) = 13.02491 24.38255 18.70373
#
# Velocity S-wave (km/s) = 2.54919 3.48782 3.05477
# Velocity P-wave (km/s) = 5.69116 6.52466 6.12211
#
# Compressibility (1/GPa) = 0.02102928
#
# Stress axis : x y z
#
# Youngs Moduli (GPa) = 57.39909 93.92995 100.89685
#
# Poissons Ratio (x) = 0.08367 0.56632
# Poissons Ratio (y) = 0.05113 0.19891
# Poissons Ratio (z) = 0.32217 0.18517
#
# Static dielectric constant tensor:
#      x y z
#    x 1.808420 0.000000 -0.048810 
#    y 0.000000 1.684550 0.000000 
#    z -0.048810 0.000000 1.833620 
# 
# From -- ./inp_files/125183.got.cif
#   From: 2010.05.17/outbox.cif.g08.bks.cpg/sg12_63_cif.got.tgz:125183.got - 2010.06.03 13:09:07.
