data_PCOD9181657
_publ_section_title
;
Structure prediction by ZEFSAII (Michael W. Deem and Ramdas Pophale) SiO2 
 PCOD9181657
Probable space group: C 2/M
;
_chemical_formula_sum "Si O2"
_cell_formula_units_Z 64
_cell_length_a 24.724533
_cell_length_b 12.000700
_cell_length_c 11.674308
_cell_angle_alpha 90.000000
_cell_angle_beta 83.579618
_cell_angle_gamma 90.000000
_cell_volume 3442.178909
_symmetry_space_group_name_H-M "C 2/M"
_symmetry_group_IT_number 12
_symmetry_cell_setting 'monoclinic'
loop_
_space_group_symop_operation_xyz
x,y,z
-x,y,-z
-x,-y,-z
x,-y,z
1/2+x,1/2+y,z
1/2-x,1/2+y,-z
1/2-x,1/2-y,-z
1/2+x,1/2-y,z
loop_
_atom_site_type_symbol
_atom_site_label
_atom_site_fract_x
_atom_site_fract_y
_atom_site_fract_z
Si Si1 0.163665 0.130979 0.980563
Si Si2 0.039186 0.780569 0.645542
Si Si3 0.823136 0.867129 0.761778
Si Si4 0.073492 0.870055 0.410066
Si Si5 0.765926 0.375408 0.541476
Si Si6 0.215842 0.764783 0.753297
Si Si7 0.544300 0.369299 0.900010
Si Si8 0.367489 0.874887 0.375074
O O1 0.201106 0.198330 0.884222
O O2 0.102930 0.138743 0.944769
O O3 0.179081 0.000000 0.975770
O O4 0.164775 0.170883 0.111354
O O5 0.072057 0.858971 0.547798
O O6 0.043596 0.813897 0.776379
O O7 0.071062 0.665024 0.621638
O O8 0.976520 0.795953 0.624214
O O9 0.870343 0.834315 0.661677
O O10 0.764177 0.824557 0.741431
O O11 0.823415 0.000000 0.762515
O O12 0.062861 0.000000 0.382472
O O13 0.747801 0.500000 0.499438
O O14 0.750000 0.250000 0.500000
O O15 0.740636 0.366498 0.673717
O O16 0.830324 0.375102 0.498704
O O17 0.163728 0.710466 0.702488
O O18 0.531563 0.500000 0.884097
O O19 0.500000 0.324129 0.000000
O O20 0.365566 0.000000 0.328504
#
# Coordination Sequence:
#
# PCOD9181657 Si02
#       8
#     8   8   8   8   8   8   8   8
#     4  10  20  33  51  81 112 144 189 234 286 346
#     4  11  19  35  56  82 110 144 182 226 281 338
#     4  10  21  36  54  79 115 153 190 234 290 349
#     4  10  21  36  56  85 115 143 179 229 286 350
#     4   9  19  34  53  80 117 155 192 240 291 345
#     4  11  19  35  55  81 110 152 194 240 285 337
#     4  10  19  32  53  82 113 143 175 224 287 346
#     4  10  21  36  54  80 113 150 194 237 285 342
#
# _framework density 18.592876
#
# number of rings (size 3 to 8) (size 9 to 14) (size 15 to 20)
#    0.000    1.875    1.250    4.125    0.000    2.500 
#    0.000    5.000    0.000    1.875    0.000    0.000 
#    0.000    0.000    0.000    0.000    0.000    0.000 
#
# Total GULP energy -178233.538665 kJ/mol
# GULP energy per Si atom -5569.798083 kJ/mol
# Density = 1.855056 g / cm^3
# Si number density = 18.592876 Si / 1000 Ang^3
#
#
#
# Elastic Constant Matrix: (Units=GPa)
#
#
# Indices 1 2 3 4 5 6 
#
# 1 63.9508 20.9740 34.9301 0.0000 -20.2913 0.0000
# 2 20.9740 61.0346 25.6781 0.0000 -9.1914 0.0000
# 3 34.9301 25.6781 108.6816 0.0000 -19.3967 0.0000
# 4 0.0000 0.0000 0.0000 21.7205 0.0000 -1.2945
# 5 -20.2913 -9.1914 -19.3967 0.0000 33.3705 0.0000
# 6 0.0000 0.0000 0.0000 -1.2945 0.0000 25.9300
#
#
#
# Elastic Compliance Matrix: (Units=1/GPa)
#
#
# Indices 1 2 3 4 5 6 
#
# 1 0.022694 -0.004415 -0.004469 0.000000 0.009986 0.000000
# 2 -0.004415 0.019289 -0.002978 0.000000 0.000897 0.000000
# 3 -0.004469 -0.002978 0.011949 0.000000 0.003408 0.000000
# 4 0.000000 0.000000 0.000000 0.046177 0.000000 0.002305
# 5 0.009986 0.000897 0.003408 0.000000 0.038267 0.000000
# 6 0.000000 0.000000 0.000000 0.002305 0.000000 0.038680
#
#
# Mechanical properties :
#
#
# Convention : Reuss Voigt Hill
#
# Bulk Modulus (GPa) = 33.10229 44.09237 38.59733
# Shear Modulus (GPa) = 23.71345 26.34318 25.02831
#
# Velocity S-wave (km/s) = 3.57516 3.76818 3.67294
# Velocity P-wave (km/s) = 5.90633 6.53440 6.22829
#
# Compressibility (1/GPa) = 0.03020939
#
# Stress axis : x y z
#
# Youngs Moduli (GPa) = 44.06395 51.84175 83.68665
#
# Poissons Ratio (x) = 0.22887 0.37396
# Poissons Ratio (y) = 0.19454 0.24926
# Poissons Ratio (z) = 0.19690 0.15441
#
# Static dielectric constant tensor:
#      x y z
#    x 1.643710 0.000000 0.008230 
#    y 0.000000 1.655540 0.000000 
#    z 0.008230 0.000000 1.685990 
# 
# From -- ./inp_files/174594.got.cif
#   From: 2010.05.17/outbox.cif.g08.bks.cpg/sg12_88_cif.got.tgz:174594.got - 2010.06.03 13:09:07.
