data_PCOD9181711
_publ_section_title
;
Structure prediction by ZEFSAII (Michael W. Deem and Ramdas Pophale) SiO2 
 PCOD9181711
Probable space group: C 2/M
;
_chemical_formula_sum "Si O2"
_cell_formula_units_Z 64
_cell_length_a 16.695197
_cell_length_b 20.273373
_cell_length_c 17.555877
_cell_angle_alpha 90.000000
_cell_angle_beta 144.716830
_cell_angle_gamma 90.000000
_cell_volume 3432.264177
_symmetry_space_group_name_H-M "C 2/M"
_symmetry_group_IT_number 12
_symmetry_cell_setting 'monoclinic'
loop_
_space_group_symop_operation_xyz
x,y,z
-x,y,-z
-x,-y,-z
x,-y,z
1/2+x,1/2+y,z
1/2-x,1/2+y,-z
1/2-x,1/2-y,-z
1/2+x,1/2-y,z
loop_
_atom_site_type_symbol
_atom_site_label
_atom_site_fract_x
_atom_site_fract_y
_atom_site_fract_z
Si Si1 0.122454 0.922378 0.286536
Si Si2 0.131767 0.822838 0.159839
Si Si3 0.417575 0.340926 0.367454
Si Si4 0.549538 0.811853 0.622114
Si Si5 0.796773 0.327034 0.534628
Si Si6 0.879148 0.927577 0.198834
Si Si7 0.949970 0.428008 0.048812
Si Si8 0.853197 0.681534 0.752227
O O1 0.135568 0.887613 0.215342
O O2 0.203155 0.876959 0.411551
O O3 0.960296 0.919397 0.183610
O O4 0.164571 0.000000 0.320650
O O5 0.284889 0.820897 0.239679
O O6 0.124832 0.759102 0.211949
O O7 0.000000 0.820466 0.000000
O O8 0.500000 0.374222 0.500000
O O9 0.471447 0.266803 0.400208
O O10 0.432283 0.375143 0.299414
O O11 0.259210 0.339217 0.271818
O O12 0.500000 0.838463 0.500000
O O13 0.447797 0.833545 0.610876
O O14 0.750000 0.250000 0.500000
O O15 0.799511 0.338567 0.627196
O O16 0.917740 0.000000 0.258582
O O17 0.714456 0.924835 0.068858
O O18 0.996640 0.500000 0.116486
O O19 0.012140 0.362398 0.132347
O O20 0.000000 0.427807 0.000000
#
# Coordination Sequence:
#
# PCOD9181711 Si02
#       8
#     8   8   8   8   8   8   8   8
#     4  11  24  43  65  93 127 166 216 270 321 379
#     4  11  24  42  64  95 130 169 216 269 318 378
#     4  10  19  32  53  86 119 158 198 250 305 377
#     4  10  20  39  63  89 122 162 212 261 320 377
#     4  12  21  41  66  92 124 164 206 263 325 370
#     4  10  21  36  57  83 122 168 204 246 315 382
#     4  10  20  37  56  80 124 172 202 240 302 370
#     4  11  22  35  61  93 127 156 208 259 308 378
#
# _framework density 18.646584000000001
#
# number of rings (size 3 to 8) (size 9 to 14) (size 15 to 20)
#    0.000    1.375    3.750    3.375    1.750    2.000 
#    0.000    2.500    0.000    0.000    0.000    0.000 
#    0.000    0.000    0.000    0.000    0.000    0.000 
#
# Total GULP energy -178243.840590 kJ/mol
# GULP energy per Si atom -5570.120018 kJ/mol
# Density = 1.860414 g / cm^3
# Si number density = 18.646584 Si / 1000 Ang^3
#
#
#
# Elastic Constant Matrix: (Units=GPa)
#
#
# Indices 1 2 3 4 5 6 
#
# 1 84.0287 18.5214 17.1776 -0.0001 15.4698 -0.0005
# 2 18.5214 84.9841 23.2261 -0.0002 1.3001 -0.0003
# 3 17.1776 23.2261 66.7114 -0.0008 8.8569 -0.0011
# 4 -0.0001 -0.0002 -0.0008 26.5793 -0.0004 -3.5880
# 5 15.4698 1.3001 8.8569 -0.0004 30.5303 -0.0005
# 6 -0.0005 -0.0003 -0.0011 -3.5880 -0.0005 25.9665
#
#
#
# Elastic Compliance Matrix: (Units=1/GPa)
#
#
# Indices 1 2 3 4 5 6 
#
# 1 0.014013 -0.002435 -0.001905 0.000000 -0.006444 0.000000
# 2 -0.002435 0.013446 -0.004308 0.000000 0.001911 0.000000
# 3 -0.001905 -0.004308 0.017502 0.000001 -0.003929 0.000001
# 4 0.000000 0.000000 0.000001 0.038338 0.000000 0.005297
# 5 -0.006444 0.001911 -0.003929 0.000000 0.037078 0.000001
# 6 0.000000 0.000000 0.000001 0.005297 0.000001 0.039243
#
#
# Mechanical properties :
#
#
# Convention : Reuss Voigt Hill
#
# Bulk Modulus (GPa) = 36.14653 39.28605 37.71629
# Shear Modulus (GPa) = 26.86186 28.40183 27.63185
#
# Velocity S-wave (km/s) = 3.79961 3.90701 3.85369
# Velocity P-wave (km/s) = 6.21905 6.43952 6.33025
#
# Compressibility (1/GPa) = 0.02766517
#
# Stress axis : x y z
#
# Youngs Moduli (GPa) = 71.36135 74.37335 57.13668
#
# Poissons Ratio (x) = 0.18109 0.10885
# Poissons Ratio (y) = 0.17375 0.24614
# Poissons Ratio (z) = 0.13594 0.32040
#
# Static dielectric constant tensor:
#      x y z
#    x 1.668870 0.000000 0.004120 
#    y 0.000000 1.669120 0.000000 
#    z 0.004120 0.000000 1.677080 
# 
# From -- ./inp_files/271735.got.cif
#   From: 2010.05.17/outbox.cif.g08.bks.cpg/sg12_136_cif.got.tgz:271735.got - 2010.06.03 13:09:07.
