data_PCOD9181633
_publ_section_title
;
Structure prediction by ZEFSAII (Michael W. Deem and Ramdas Pophale) SiO2 
 PCOD9181633
Probable space group: C 2/M
;
_chemical_formula_sum "Si O2"
_cell_formula_units_Z 64
_cell_length_a 15.530474
_cell_length_b 9.365510
_cell_length_c 26.257396
_cell_angle_alpha 90.000000
_cell_angle_beta 129.630712
_cell_angle_gamma 90.000000
_cell_volume 2941.407639
_symmetry_space_group_name_H-M "C 2/M"
_symmetry_group_IT_number 12
_symmetry_cell_setting 'monoclinic'
loop_
_space_group_symop_operation_xyz
x,y,z
-x,y,-z
-x,-y,-z
x,-y,z
1/2+x,1/2+y,z
1/2-x,1/2+y,-z
1/2-x,1/2-y,-z
1/2+x,1/2-y,z
loop_
_atom_site_type_symbol
_atom_site_label
_atom_site_fract_x
_atom_site_fract_y
_atom_site_fract_z
Si Si1 0.129229 0.672661 0.716495
Si Si2 0.421034 0.669062 0.587907
Si Si3 0.514077 0.839692 0.120048
Si Si4 0.213885 0.831286 0.559955
Si Si5 0.797658 0.344303 0.973304
Si Si6 0.228320 0.331712 0.307924
Si Si7 0.384764 0.659294 0.922712
Si Si8 0.034286 0.329992 0.786912
O O1 0.131090 0.500000 0.715680
O O2 0.023552 0.736875 0.645869
O O3 0.107700 0.721646 0.767033
O O4 0.233277 0.739584 0.725507
O O5 0.438287 0.500000 0.604654
O O6 0.311260 0.729634 0.575157
O O7 0.391851 0.684971 0.517000
O O8 0.424005 0.860266 0.041406
O O9 0.593030 0.723687 0.124187
O O10 0.455889 0.785804 0.150044
O O11 0.561726 0.000000 0.147676
O O12 0.200176 0.800232 0.614403
O O13 0.248533 0.000000 0.569348
O O14 0.745021 0.500000 0.950187
O O15 0.750000 0.250000 0.000000
O O16 0.803532 0.262155 0.922963
O O17 0.241774 0.500000 0.301790
O O18 0.098269 0.306117 0.273180
O O19 0.339242 0.500000 0.902799
O O20 0.500000 0.650871 0.000000
O O21 0.052775 0.500000 0.795010
#
# Coordination Sequence:
#
# PCOD9181633 Si02
#       8
#     8   8   8   8   8   8   8   8
#     4  11  22  38  58  82 113 150 189 233 284 338
#     4  10  19  32  55  84 111 143 187 235 284 342
#     4   9  18  35  58  80 103 142 185 220 267 327
#     4   9  18  34  56  81 111 147 185 230 290 346
#     4  10  19  32  53  81 114 145 180 224 273 326
#     4  10  20  38  60  81 108 146 188 230 282 341
#     4   9  17  31  52  77 105 136 172 214 263 316
#     4   9  19  39  62  78 109 153 190 229 281 337
#
# _framework density 21.758289000000001
#
# number of rings (size 3 to 8) (size 9 to 14) (size 15 to 20)
#    0.000    2.375    1.250    1.500    0.000    3.500 
#    2.250    4.375    0.000    0.000    0.000    0.000 
#    0.000    0.000    0.000    0.000    0.000    0.000 
#
# Total GULP energy -178521.309540 kJ/mol
# GULP energy per Si atom -5578.790923 kJ/mol
# Density = 2.170877 g / cm^3
# Si number density = 21.758289 Si / 1000 Ang^3
#
#
#
# Elastic Constant Matrix: (Units=GPa)
#
#
# Indices 1 2 3 4 5 6 
#
# 1 83.7506 44.2605 38.5165 0.0000 -40.6900 0.0000
# 2 44.2605 109.3180 32.6438 0.0000 -24.5629 0.0000
# 3 38.5165 32.6438 121.0880 0.0000 -28.1175 0.0000
# 4 0.0000 0.0000 0.0000 16.0994 0.0000 -12.1920
# 5 -40.6900 -24.5629 -28.1175 0.0000 40.1011 0.0000
# 6 0.0000 0.0000 0.0000 -12.1920 0.0000 28.5796
#
#
#
# Elastic Compliance Matrix: (Units=1/GPa)
#
#
# Indices 1 2 3 4 5 6 
#
# 1 0.026298 -0.005097 -0.001815 0.000000 0.022289 0.000000
# 2 -0.005097 0.011866 -0.001303 0.000000 0.001183 0.000000
# 3 -0.001815 -0.001303 0.010242 0.000000 0.004541 0.000000
# 4 0.000000 0.000000 0.000000 0.091758 0.000000 0.039144
# 5 0.022289 0.001183 0.004541 0.000000 0.051462 0.000000
# 6 0.000000 0.000000 0.000000 0.039144 0.000000 0.051689
#
#
# Mechanical properties :
#
#
# Convention : Reuss Voigt Hill
#
# Bulk Modulus (GPa) = 31.27441 60.55537 45.91489
# Shear Modulus (GPa) = 18.49090 30.20507 24.34799
#
# Velocity S-wave (km/s) = 2.91835 3.72991 3.34881
# Velocity P-wave (km/s) = 5.07548 6.81476 6.00839
#
# Compressibility (1/GPa) = 0.03197502
#
# Stress axis : x y z
#
# Youngs Moduli (GPa) = 38.02570 84.27295 97.64113
#
# Poissons Ratio (x) = 0.42956 0.17723
# Poissons Ratio (y) = 0.19383 0.12723
# Poissons Ratio (z) = 0.06902 0.10981
#
# Static dielectric constant tensor:
#      x y z
#    x 1.871300 0.000000 0.079020 
#    y 0.000000 1.775540 0.000000 
#    z 0.079020 0.000000 1.871670 
# 
# From -- ./inp_files/359985.got.cif
#   From: 2010.05.17/outbox.cif.g08.bks.cpg/sg12_180_cif.got.tgz:359985.got - 2010.06.03 13:09:07.
