data_PCOD9181877
_publ_section_title
;
Structure prediction by ZEFSAII (Michael W. Deem and Ramdas Pophale) SiO2 
 PCOD9181877
Probable space group: C 2/M
;
_chemical_formula_sum "Si O2"
_cell_formula_units_Z 56
_cell_length_a 23.884269
_cell_length_b 7.856870
_cell_length_c 32.177645
_cell_angle_alpha 90.000000
_cell_angle_beta 154.071362
_cell_angle_gamma 90.000000
_cell_volume 2640.261504
_symmetry_space_group_name_H-M "C 2/M"
_symmetry_group_IT_number 12
_symmetry_cell_setting 'monoclinic'
loop_
_space_group_symop_operation_xyz
x,y,z
-x,y,-z
-x,-y,-z
x,-y,z
1/2+x,1/2+y,z
1/2-x,1/2+y,-z
1/2-x,1/2-y,-z
1/2+x,1/2-y,z
loop_
_atom_site_type_symbol
_atom_site_label
_atom_site_fract_x
_atom_site_fract_y
_atom_site_fract_z
Si Si1 0.438526 0.201742 0.131598
Si Si2 0.827902 0.205908 0.661806
Si Si3 0.962562 0.294786 0.520542
Si Si4 0.887141 0.204954 0.610809
Si Si5 0.142291 0.700934 0.089132
Si Si6 0.888145 0.794982 0.298992
Si Si7 0.775123 0.198131 0.946908
O O1 0.583684 0.235631 0.241418
O O2 0.346234 0.266904 0.107541
O O3 0.416432 0.000000 0.113211
O O4 0.391813 0.282387 0.057421
O O5 0.681032 0.264989 0.564701
O O6 0.890025 0.266659 0.660071
O O7 0.827171 0.000000 0.661427
O O8 0.958109 0.500000 0.516622
O O9 0.000000 0.232671 0.500000
O O10 0.064542 0.245611 0.623428
O O11 0.750000 0.250000 0.500000
O O12 0.002065 0.270648 0.659137
O O13 0.895901 0.000000 0.617596
O O14 0.132476 0.500000 0.091903
O O15 0.250682 0.771556 0.192424
O O16 0.192797 0.718393 0.075629
O O17 0.000000 0.774844 0.000000
O O18 0.885773 0.000000 0.293518
O O19 0.751688 0.000000 0.922811
#
# Coordination Sequence:
#
# PCOD9181877 Si02
#       7
#     8   8   8   8   8   8   8
#     4  10  21  36  58  86 115 149 188 236 290 344
#     4  10  20  35  55  82 114 148 186 233 285 339
#     4  10  22  39  57  79 111 151 191 230 277 335
#     4  10  19  32  54  82 111 143 182 228 280 334
#     4  10  22  40  61  85 116 153 194 239 286 340
#     4  10  21  37  58  84 113 147 187 235 287 336
#     4  10  21  38  59  85 115 149 190 237 289 343
#
# _framework density 21.21002
#
# number of rings (size 3 to 8) (size 9 to 14) (size 15 to 20)
#    0.000    2.000    1.429    1.714    0.000    6.286 
#    0.000    2.857    0.000    0.000    0.000    0.000 
#    0.000    0.000    0.000    0.000    0.000    0.000 
#
# Total GULP energy -156417.681854 kJ/mol
# GULP energy per Si atom -5586.345781 kJ/mol
# Density = 2.116175 g / cm^3
# Si number density = 21.210020 Si / 1000 Ang^3
#
#
#
# Elastic Constant Matrix: (Units=GPa)
#
#
# Indices 1 2 3 4 5 6 
#
# 1 99.7771 0.0158 63.1997 0.0000 -8.8228 0.0001
# 2 0.0158 21.4304 -0.4661 -0.0010 9.0192 -0.0006
# 3 63.1997 -0.4661 183.1619 0.0001 -11.3930 0.0003
# 4 0.0000 -0.0010 0.0001 19.0349 0.0001 -1.8224
# 5 -8.8228 9.0192 -11.3930 0.0001 22.6256 -0.0001
# 6 0.0001 -0.0006 0.0003 -1.8224 -0.0001 11.2229
#
#
#
# Elastic Compliance Matrix: (Units=1/GPa)
#
#
# Indices 1 2 3 4 5 6 
#
# 1 0.013053 -0.001606 -0.004286 0.000000 0.003572 0.000000
# 2 -0.001606 0.056563 -0.000767 0.000003 -0.023560 0.000003
# 3 -0.004286 -0.000767 0.007073 0.000000 0.002196 0.000000
# 4 0.000000 0.000003 0.000000 0.053365 -0.000002 0.008665
# 5 0.003572 -0.023560 0.002196 -0.000002 0.056088 -0.000001
# 6 0.000000 0.000003 0.000000 0.008665 -0.000001 0.090511
#
#
# Mechanical properties :
#
#
# Convention : Reuss Voigt Hill
#
# Bulk Modulus (GPa) = 15.78025 47.76311 31.77168
# Shear Modulus (GPa) = 16.07223 26.68467 21.37845
#
# Velocity S-wave (km/s) = 2.75574 3.55084 3.17825
# Velocity P-wave (km/s) = 4.19305 6.27529 5.33671
#
# Compressibility (1/GPa) = 0.06337037
#
# Stress axis : x y z
#
# Youngs Moduli (GPa) = 76.60970 17.67944 141.37990
#
# Poissons Ratio (x) = 0.02840 0.60594
# Poissons Ratio (y) = 0.12305 0.10848
# Poissons Ratio (z) = 0.32834 0.01357
#
# Static dielectric constant tensor:
#      x y z
#    x 1.749800 0.000000 0.018550 
#    y 0.000000 1.783490 0.000000 
#    z 0.018550 0.000000 1.765960 
# 
# From -- ./inp_files/380821.got.cif
#   From: 2010.05.17/outbox.cif.g08.bks.cpg/sg12_191_cif.got.tgz:380821.got - 2010.06.03 13:09:07.
