data_PCOD9181424
_publ_section_title
;
Structure prediction by ZEFSAII (Michael W. Deem and Ramdas Pophale) SiO2 
 PCOD9181424
Probable space group: C 2/M
;
_chemical_formula_sum "Si O2"
_cell_formula_units_Z 56
_cell_length_a 29.124365
_cell_length_b 8.911885
_cell_length_c 19.661764
_cell_angle_alpha 90.000000
_cell_angle_beta 41.822031
_cell_angle_gamma 90.000000
_cell_volume 3402.957515
_symmetry_space_group_name_H-M "C 2/M"
_symmetry_group_IT_number 12
_symmetry_cell_setting 'monoclinic'
loop_
_space_group_symop_operation_xyz
x,y,z
-x,y,-z
-x,-y,-z
x,-y,z
1/2+x,1/2+y,z
1/2-x,1/2+y,-z
1/2-x,1/2-y,-z
1/2+x,1/2-y,z
loop_
_atom_site_type_symbol
_atom_site_label
_atom_site_fract_x
_atom_site_fract_y
_atom_site_fract_z
Si Si1 0.639359 0.321398 0.114060
Si Si2 0.991686 0.678710 0.802550
Si Si3 0.050216 0.819704 0.007158
Si Si4 0.638934 0.678714 0.613340
Si Si5 0.253183 0.321492 0.890268
Si Si6 0.290092 0.319714 0.197633
Si Si7 0.748743 0.820168 0.395868
O O1 0.631743 0.500000 0.114036
O O2 0.566965 0.241812 0.182858
O O3 0.677417 0.291363 0.143575
O O4 0.691643 0.260112 0.998901
O O5 0.991095 0.500000 0.803181
O O6 0.066135 0.740830 0.700009
O O7 0.972538 0.739561 0.898734
O O8 0.045909 0.000000 0.022468
O O9 0.129097 0.782750 0.901590
O O10 0.000000 0.781609 0.000000
O O11 0.629339 0.500000 0.620382
O O12 0.683969 0.736891 0.500362
O O13 0.685494 0.712232 0.628645
O O14 0.241056 0.500000 0.905011
O O15 0.251990 0.260369 0.815469
O O16 0.283845 0.500000 0.197539
O O17 0.265200 0.278093 0.300387
O O18 0.737422 0.000000 0.411446
#
# Coordination Sequence:
#
# PCOD9181424 Si02
#       7
#     8   8   8   8   8   8   8
#     4  10  20  35  53  74 104 141 177 215 266 321
#     4  12  23  34  52  79 108 139 177 223 266 311
#     4  10  20  34  51  74 107 146 178 207 256 320
#     4  10  20  36  57  78 104 142 182 222 265 310
#     4  10  20  33  52  78 106 136 175 221 263 314
#     4  10  19  32  53  77 107 144 174 211 263 318
#     4   9  19  36  56  80 106 139 182 220 258 311
#
# _framework density 16.456272999999999
#
# number of rings (size 3 to 8) (size 9 to 14) (size 15 to 20)
#    0.000    1.857    1.429    3.429    0.000    5.429 
#    0.000    1.429    0.000    0.857    0.000    6.000 
#    0.000    0.000    0.000    0.000    0.000    0.000 
#
# Total GULP energy -156362.584129 kJ/mol
# GULP energy per Si atom -5584.378005 kJ/mol
# Density = 1.641882 g / cm^3
# Si number density = 16.456273 Si / 1000 Ang^3
#
#
#
# Elastic Constant Matrix: (Units=GPa)
#
#
# Indices 1 2 3 4 5 6 
#
# 1 131.0353 68.9061 88.5447 -0.0040 1.9019 0.0012
# 2 68.9061 71.7767 66.9001 -0.0043 -5.0320 0.0052
# 3 88.5447 66.9001 124.5793 -0.0034 -1.6383 0.0031
# 4 -0.0040 -0.0043 -0.0034 27.1305 0.0001 -0.8025
# 5 1.9019 -5.0320 -1.6383 0.0001 21.0105 0.0014
# 6 0.0012 0.0052 0.0031 -0.8025 0.0014 26.2205
#
#
#
# Elastic Compliance Matrix: (Units=1/GPa)
#
#
# Indices 1 2 3 4 5 6 
#
# 1 0.018559 -0.011636 -0.007008 0.000000 -0.005013 0.000003
# 2 -0.011636 0.035843 -0.010862 0.000002 0.008791 -0.000006
# 3 -0.007008 -0.010862 0.018834 0.000000 -0.000499 0.000000
# 4 0.000000 0.000002 0.000000 0.036892 0.000000 0.001129
# 5 -0.005013 0.008791 -0.000499 0.000000 0.050116 -0.000004
# 6 0.000003 -0.000006 0.000000 0.001129 -0.000004 0.038173
#
#
# Mechanical properties :
#
#
# Convention : Reuss Voigt Hill
#
# Bulk Modulus (GPa) = 70.30325 86.23255 78.26790
# Shear Modulus (GPa) = 19.07155 21.74166 20.40660
#
# Velocity S-wave (km/s) = 3.40799 3.63874 3.52525
# Velocity P-wave (km/s) = 7.63543 8.37668 8.01463
#
# Compressibility (1/GPa) = 0.01422409
#
# Stress axis : x y z
#
# Youngs Moduli (GPa) = 53.88312 27.89909 53.09485
#
# Poissons Ratio (x) = 0.32464 0.37207
# Poissons Ratio (y) = 0.62700 0.57672
# Poissons Ratio (z) = 0.37760 0.30304
#
# Static dielectric constant tensor:
#      x y z
#    x 1.554310 0.000000 0.001290 
#    y 0.000000 1.549040 0.000000 
#    z 0.001290 0.000000 1.519630 
# 
# From -- ./inp_files/288189.got.cif
#   From: 2010.05.17/outbox.cif.g08.bks.cpg/sg12_145_cif.got.tgz:288189.got - 2010.06.03 13:09:07.
