data_PCOD9181590
_publ_section_title
;
Structure prediction by ZEFSAII (Michael W. Deem and Ramdas Pophale) SiO2 
 PCOD9181590
Probable space group: C 2/M
;
_chemical_formula_sum "Si O2"
_cell_formula_units_Z 56
_cell_length_a 9.036494
_cell_length_b 15.405216
_cell_length_c 30.448330
_cell_angle_alpha 90.000000
_cell_angle_beta 42.100344
_cell_angle_gamma 90.000000
_cell_volume 2841.746735
_symmetry_space_group_name_H-M "C 2/M"
_symmetry_group_IT_number 12
_symmetry_cell_setting 'monoclinic'
loop_
_space_group_symop_operation_xyz
x,y,z
-x,y,-z
-x,-y,-z
x,-y,z
1/2+x,1/2+y,z
1/2-x,1/2+y,-z
1/2-x,1/2-y,-z
1/2+x,1/2-y,z
loop_
_atom_site_type_symbol
_atom_site_label
_atom_site_fract_x
_atom_site_fract_y
_atom_site_fract_z
Si Si1 0.587129 0.393790 0.433297
Si Si2 0.866539 0.500000 0.925322
Si Si3 0.236050 0.839526 0.834568
Si Si4 0.080313 0.394666 0.299491
Si Si5 0.077754 0.894666 0.700508
Si Si6 0.246394 0.606210 0.433296
Si Si7 0.006820 0.000000 0.925328
Si Si8 0.908914 0.660478 0.165435
O O1 0.500000 0.365663 0.500000
O O2 0.586657 0.500000 0.433643
O O3 0.421607 0.365755 0.431358
O O4 0.837032 0.366772 0.368252
O O5 0.681825 0.500000 0.927267
O O6 0.013924 0.584135 0.883882
O O7 0.733395 0.500000 0.999995
O O8 0.357547 0.861016 0.762132
O O9 0.066626 0.915866 0.883889
O O10 0.109703 0.750002 0.856111
O O11 0.416704 0.834131 0.833312
O O12 0.080904 0.500000 0.297826
O O13 0.262910 0.367065 0.294839
O O14 0.178289 0.866773 0.631747
O O15 0.831778 0.861009 0.762128
O O16 0.070007 0.000000 0.702177
O O17 0.245134 0.500000 0.433641
O O18 0.000000 0.634337 0.500000
#
# Coordination Sequence:
#
# PCOD9181590 Si02
#       8
#     8   4   8   8   8   8   4   8
#     4   9  16  26  43  71 108 149 196 246 299 353
#     4   9  20  40  65  91 122 159 196 237 291 355
#     4  11  22  38  61  89 121 158 200 244 295 352
#     4  10  19  32  53  80 113 152 198 249 300 352
#     4  10  19  32  53  80 113 152 198 249 300 352
#     4   9  16  26  43  71 108 149 196 246 299 353
#     4   9  20  40  65  91 122 159 196 237 291 355
#     4  11  22  38  61  89 121 158 200 244 295 352
#
# _framework density 19.706188999999998
#
# number of rings (size 3 to 8) (size 9 to 14) (size 15 to 20)
#    0.000    2.143    1.429    2.571    0.000    5.143 
#    0.000    0.000    0.000    6.857    0.000    6.000 
#    0.000    0.000    0.000    0.000    0.000    0.000 
#
# Total GULP energy -156484.488222 kJ/mol
# GULP energy per Si atom -5588.731722 kJ/mol
# Density = 1.966134 g / cm^3
# Si number density = 19.706189 Si / 1000 Ang^3
#
#
#
# Elastic Constant Matrix: (Units=GPa)
#
#
# Indices 1 2 3 4 5 6 
#
# 1 122.9901 48.4225 66.7047 0.0002 0.7963 0.0000
# 2 48.4225 93.9788 73.7869 0.0005 -1.2175 -0.0001
# 3 66.7047 73.7869 184.9711 0.0004 -3.7653 -0.0007
# 4 0.0002 0.0005 0.0004 -13.1813 -0.0005 1.6767
# 5 0.7963 -1.2175 -3.7653 -0.0005 20.2242 0.0001
# 6 0.0000 -0.0001 -0.0007 1.6767 0.0001 21.4898
#
#
#
# Elastic Compliance Matrix: (Units=1/GPa)
#
#
# Indices 1 2 3 4 5 6 
#
# 1 0.010947 -0.003695 -0.002497 0.000000 -0.001118 0.000000
# 2 -0.003695 0.016741 -0.005343 0.000000 0.000159 0.000000
# 3 -0.002497 -0.005343 0.008465 0.000000 0.001353 0.000000
# 4 0.000000 0.000000 0.000000 -0.075120 -0.000002 0.005861
# 5 -0.001118 0.000159 0.001353 -0.000002 0.049751 0.000000
# 6 0.000000 0.000000 0.000000 0.005861 0.000000 0.046076
#
#
# Mechanical properties :
#
#
# Convention : Reuss Voigt Hill
#
# Bulk Modulus (GPa) = 76.42020 86.64091 81.53056
# Shear Modulus (GPa) = 59.31882 19.90827 39.61355
#
# Velocity S-wave (km/s) = 5.49245 3.18190 4.48840
# Velocity P-wave (km/s) = 8.89307 7.58690 8.26582
#
# Compressibility (1/GPa) = 0.01308554
#
# Stress axis : x y z
#
# Youngs Moduli (GPa) = 91.35273 59.73322 118.12884
#
# Poissons Ratio (x) = 0.22069 0.29491
# Poissons Ratio (y) = 0.33751 0.63112
# Poissons Ratio (z) = 0.22807 0.31913
#
# Static dielectric constant tensor:
#      x y z
#    x 1.661090 0.000000 0.000570 
#    y 0.000000 1.729620 0.000000 
#    z 0.000570 0.000000 1.649300 
# 
# From -- ./inp_files/356689.got.cif
#   From: 2010.05.17/outbox.cif.g08.bks.cpg/sg12_179_cif.got.tgz:356689.got - 2010.06.03 13:09:07.
