data_PCOD9181808
_publ_section_title
;
Structure prediction by ZEFSAII (Michael W. Deem and Ramdas Pophale) SiO2 
 PCOD9181808
Probable space group: C 2/M
;
_chemical_formula_sum "Si O2"
_cell_formula_units_Z 48
_cell_length_a 29.410844
_cell_length_b 8.938893
_cell_length_c 8.259553
_cell_angle_alpha 90.000000
_cell_angle_beta 102.184057
_cell_angle_gamma 90.000000
_cell_volume 2122.527266
_symmetry_space_group_name_H-M "C 2/M"
_symmetry_group_IT_number 12
_symmetry_cell_setting 'monoclinic'
loop_
_space_group_symop_operation_xyz
x,y,z
-x,y,-z
-x,-y,-z
x,-y,z
1/2+x,1/2+y,z
1/2-x,1/2+y,-z
1/2-x,1/2-y,-z
1/2+x,1/2-y,z
loop_
_atom_site_type_symbol
_atom_site_label
_atom_site_fract_x
_atom_site_fract_y
_atom_site_fract_z
Si Si1 0.030980 0.327671 0.689117
Si Si2 0.557885 0.177882 0.196517
Si Si3 0.895955 0.174074 0.460543
Si Si4 0.272560 0.322365 0.674387
Si Si5 0.362790 0.679581 0.922607
Si Si6 0.694203 0.323563 0.802134
O O1 0.045698 0.500000 0.730767
O O2 0.995160 0.276409 0.801557
O O3 0.000000 0.331223 0.500000
O O4 0.073310 0.221571 0.672336
O O5 0.586668 0.226639 0.378146
O O6 0.587642 0.246745 0.073666
O O7 0.556931 0.000000 0.180727
O O8 0.842308 0.191371 0.373263
O O9 0.904568 0.000000 0.505702
O O10 0.271271 0.500000 0.657606
O O11 0.250000 0.250000 0.500000
O O12 0.325552 0.279946 0.754311
O O13 0.239593 0.270889 0.797329
O O14 0.368387 0.500000 0.928129
O O15 0.335517 0.723012 0.064381
O O16 0.705828 0.500000 0.827131
#
# Coordination Sequence:
#
# PCOD9181808 Si02
#       6
#     8   8   8   8   8   8
#     4   8  16  31  50  75 107 139 175 221 265 306
#     4  10  20  34  54  80 108 140 179 221 264 312
#     4  10  19  32  54  81 106 138 179 220 265 314
#     4  11  23  38  59  84 107 137 177 218 263 314
#     4  10  22  39  56  77 108 143 177 216 263 315
#     4  10  22  39  56  78 110 142 175 218 264 313
#
# _framework density 22.614550000000001
#
# number of rings (size 3 to 8) (size 9 to 14) (size 15 to 20)
#    0.000    2.167    0.000    4.000    0.000   11.000 
#    0.000    0.833    0.000    5.000    0.000    0.000 
#    0.000    0.000    0.000    0.000    0.000    0.000 
#
# Total GULP energy -134201.448693 kJ/mol
# GULP energy per Si atom -5591.727029 kJ/mol
# Density = 2.256308 g / cm^3
# Si number density = 22.614550 Si / 1000 Ang^3
#
#
#
# Elastic Constant Matrix: (Units=GPa)
#
#
# Indices 1 2 3 4 5 6 
#
# 1 130.3683 32.1940 18.6940 0.0000 -22.2795 0.0000
# 2 32.1940 21.7169 1.6631 0.0000 -0.9211 0.0000
# 3 18.6940 1.6631 76.2937 0.0000 -14.1138 0.0000
# 4 0.0000 0.0000 0.0000 26.0275 0.0000 -16.9541
# 5 -22.2795 -0.9211 -14.1138 0.0000 38.5399 0.0000
# 6 0.0000 0.0000 0.0000 -16.9541 0.0000 23.5020
#
#
#
# Elastic Compliance Matrix: (Units=1/GPa)
#
#
# Indices 1 2 3 4 5 6 
#
# 1 0.014237 -0.020672 -0.001723 0.000000 0.007105 0.000000
# 2 -0.020672 0.076162 0.001642 0.000000 -0.009529 0.000000
# 3 -0.001723 0.001642 0.014284 0.000000 0.004274 0.000000
# 4 0.000000 0.000000 0.000000 0.072480 0.000000 0.052286
# 5 0.007105 -0.009529 0.004274 0.000000 0.031392 0.000000
# 6 0.000000 0.000000 0.000000 0.052286 0.000000 0.080268
#
#
# Mechanical properties :
#
#
# Convention : Reuss Voigt Hill
#
# Bulk Modulus (GPa) = 15.82859 37.05347 26.44103
# Shear Modulus (GPa) = 14.22930 29.33571 21.78250
#
# Velocity S-wave (km/s) = 2.51113 3.60558 3.10693
# Velocity P-wave (km/s) = 3.92711 5.80982 4.95864
#
# Compressibility (1/GPa) = 0.06317684
#
# Stress axis : x y z
#
# Youngs Moduli (GPa) = 70.24092 13.12998 70.00640
#
# Poissons Ratio (x) = 0.27142 0.12065
# Poissons Ratio (y) = 1.45200 -0.11496
# Poissons Ratio (z) = 0.12105 -0.02156
#
# Static dielectric constant tensor:
#      x y z
#    x 1.835320 0.000000 -0.014840 
#    y 0.000000 1.745740 0.000000 
#    z -0.014840 0.000000 1.955980 
# 
# From -- ./inp_files/108570.got.cif
#   From: 2010.05.17/outbox.cif.g08.bks.cpg/sg12_55_cif.got.tgz:108570.got - 2010.06.03 13:09:07.
