data_PCOD9181965
_publ_section_title
;
Structure prediction by ZEFSAII (Michael W. Deem and Ramdas Pophale) SiO2 
 PCOD9181965
Probable space group: C 2/M
;
_chemical_formula_sum "Si O2"
_cell_formula_units_Z 64
_cell_length_a 30.187294
_cell_length_b 18.623457
_cell_length_c 9.287819
_cell_angle_alpha 90.000000
_cell_angle_beta 37.779741
_cell_angle_gamma 90.000000
_cell_volume 3198.856855
_symmetry_space_group_name_H-M "C 2/M"
_symmetry_group_IT_number 12
_symmetry_cell_setting 'monoclinic'
loop_
_space_group_symop_operation_xyz
x,y,z
-x,y,-z
-x,-y,-z
x,-y,z
1/2+x,1/2+y,z
1/2-x,1/2+y,-z
1/2-x,1/2-y,-z
1/2+x,1/2-y,z
loop_
_atom_site_type_symbol
_atom_site_label
_atom_site_fract_x
_atom_site_fract_y
_atom_site_fract_z
Si Si1 0.398700 0.184158 0.503498
Si Si2 0.256943 0.914084 0.901850
Si Si3 0.514846 0.922400 0.294003
Si Si4 0.196618 0.079083 0.377288
Si Si5 0.316133 0.270380 0.939944
Si Si6 0.083975 0.194760 0.775469
Si Si7 0.666681 0.923890 0.769327
Si Si8 0.172974 0.730451 0.760527
O O1 0.334255 0.124138 0.670824
O O2 0.473559 0.141891 0.325340
O O3 0.383208 0.238590 0.677244
O O4 0.403581 0.234973 0.353849
O O5 0.253884 0.000000 0.869676
O O6 0.239375 0.910888 0.117845
O O7 0.197645 0.855657 0.994841
O O8 0.500000 0.917167 0.500000
O O9 0.486829 0.000000 0.312995
O O10 0.600279 0.923789 0.051287
O O11 0.135575 0.136176 0.569132
O O12 0.257057 0.079480 0.346062
O O13 0.163208 0.000000 0.457231
O O14 0.250000 0.250000 0.000000
O O15 0.318339 0.231416 0.089060
O O16 0.114309 0.213301 0.855723
O O17 0.000000 0.175567 0.000000
O O18 0.656719 0.846430 0.728896
O O19 0.662477 0.000000 0.698477
O O20 0.250000 0.750000 0.500000
#
# Coordination Sequence:
#
# PCOD9181965 Si02
#       8
#     8   8   8   8   8   8   8   8
#     4  11  21  37  61  86 127 166 207 254 312 382
#     4  10  19  34  61  92 119 156 207 262 318 374
#     4  10  19  32  54  89 127 160 200 251 308 378
#     4  10  20  39  65  91 119 162 214 268 322 379
#     4  10  20  36  61  90 121 160 212 262 314 373
#     4  12  26  42  61  92 131 172 216 265 320 380
#     4  10  20  35  56  85 119 158 204 251 305 371
#     4  12  22  38  63  90 125 165 205 263 319 381
#
# _framework density 20.007147
#
# number of rings (size 3 to 8) (size 9 to 14) (size 15 to 20)
#    0.000    1.375    2.500    5.625    0.000    2.250 
#    0.000    3.750    0.000    3.375    0.000    1.750 
#    0.000    0.000    0.000    0.000    0.000    0.000 
#
# Total GULP energy -178349.729109 kJ/mol
# GULP energy per Si atom -5573.429035 kJ/mol
# Density = 1.996161 g / cm^3
# Si number density = 20.007147 Si / 1000 Ang^3
#
#
#
# Elastic Constant Matrix: (Units=GPa)
#
#
# Indices 1 2 3 4 5 6 
#
# 1 62.1068 24.3824 29.2490 0.0000 -4.2950 0.0000
# 2 24.3824 139.1685 27.3939 0.0000 -13.3391 0.0000
# 3 29.2490 27.3939 79.6357 0.0000 -13.3259 0.0000
# 4 0.0000 0.0000 0.0000 31.9482 0.0000 -6.8669
# 5 -4.2950 -13.3391 -13.3259 0.0000 30.9224 0.0000
# 6 0.0000 0.0000 0.0000 -6.8669 0.0000 17.0119
#
#
#
# Elastic Compliance Matrix: (Units=1/GPa)
#
#
# Indices 1 2 3 4 5 6 
#
# 1 0.020122 -0.002297 -0.006788 0.000000 -0.001121 0.000000
# 2 -0.002297 0.008132 -0.001530 0.000000 0.002529 0.000000
# 3 -0.006788 -0.001530 0.016498 0.000000 0.005507 0.000000
# 4 0.000000 0.000000 0.000000 0.034274 0.000000 0.013835
# 5 -0.001121 0.002529 0.005507 0.000000 0.035648 0.000000
# 6 0.000000 0.000000 0.000000 0.013835 0.000000 0.064367
#
#
# Mechanical properties :
#
#
# Convention : Reuss Voigt Hill
#
# Bulk Modulus (GPa) = 42.51412 49.21795 45.86604
# Shear Modulus (GPa) = 24.02551 29.30221 26.66386
#
# Velocity S-wave (km/s) = 3.46908 3.83114 3.65460
# Velocity P-wave (km/s) = 6.11078 6.65010 6.38614
#
# Compressibility (1/GPa) = 0.02352159
#
# Stress axis : x y z
#
# Youngs Moduli (GPa) = 49.69616 122.97723 60.61225
#
# Poissons Ratio (x) = 0.28244 0.41145
# Poissons Ratio (y) = 0.11414 0.09276
# Poissons Ratio (z) = 0.33735 0.18821
#
# Static dielectric constant tensor:
#      x y z
#    x 1.744300 0.000000 0.052190 
#    y 0.000000 1.825510 0.000000 
#    z 0.052190 0.000000 1.744980 
# 
# From -- ./inp_files/112800.got.cif
#   From: 2010.05.17/outbox.cif.g08.bks.cpg/sg12_57_cif.got.tgz:112800.got - 2010.06.03 13:09:07.
