data_PCOD9181299
_publ_section_title
;
Structure prediction by ZEFSAII (Michael W. Deem and Ramdas Pophale) SiO2 
 PCOD9181299
Probable space group: C 2/M
;
_chemical_formula_sum "Si O2"
_cell_formula_units_Z 64
_cell_length_a 19.012881
_cell_length_b 9.110518
_cell_length_c 21.456276
_cell_angle_alpha 90.000000
_cell_angle_beta 89.864985
_cell_angle_gamma 90.000000
_cell_volume 3716.585616
_symmetry_space_group_name_H-M "C 2/M"
_symmetry_group_IT_number 12
_symmetry_cell_setting 'monoclinic'
loop_
_space_group_symop_operation_xyz
x,y,z
-x,y,-z
-x,-y,-z
x,-y,z
1/2+x,1/2+y,z
1/2-x,1/2+y,-z
1/2-x,1/2-y,-z
1/2+x,1/2-y,z
loop_
_atom_site_type_symbol
_atom_site_label
_atom_site_fract_x
_atom_site_fract_y
_atom_site_fract_z
Si Si1 0.079609 0.675032 0.875507
Si Si2 0.114540 0.324721 0.734785
Si Si3 0.047032 0.169715 0.063107
Si Si4 0.372558 0.826084 0.603368
Si Si5 0.326869 0.176544 0.003227
Si Si6 0.896220 0.328576 0.458491
Si Si7 0.490494 0.674085 0.359925
Si Si8 0.731285 0.170921 0.637831
O O1 0.066878 0.500000 0.879121
O O2 0.110285 0.709981 0.807566
O O3 0.005679 0.756228 0.887516
O O4 0.135163 0.709816 0.930376
O O5 0.102603 0.500000 0.726691
O O6 0.055844 0.239193 0.695973
O O7 0.188579 0.293613 0.700915
O O8 0.118527 0.257248 0.047686
O O9 0.062208 0.000000 0.077968
O O10 0.000000 0.172989 0.000000
O O11 0.382203 0.790533 0.529937
O O12 0.432114 0.740903 0.640828
O O13 0.296509 0.774253 0.625331
O O14 0.381290 0.000000 0.610333
O O15 0.321653 0.000000 0.996951
O O16 0.250000 0.250000 0.000000
O O17 0.918423 0.500000 0.454994
O O18 0.953768 0.231230 0.423620
O O19 0.825234 0.314677 0.418007
O O20 0.491164 0.500000 0.358148
O O21 0.753441 0.000000 0.639727
#
# Coordination Sequence:
#
# PCOD9181299 Si02
#       8
#     8   8   8   8   8   8   8   8
#     4   9  18  34  57  79 100 134 176 212 249 298
#     4   9  19  38  58  74  98 133 171 211 256 304
#     4   9  17  30  50  77 107 137 169 206 247 292
#     4  11  21  33  51  74 101 133 168 209 259 310
#     4  10  19  32  52  80 112 142 172 209 255 301
#     4   9  19  35  53  73  99 132 167 206 258 314
#     4  11  22  34  51  75 101 130 167 212 257 304
#     4   9  18  33  52  74 101 131 165 209 258 307
#
# _framework density 17.220106000000001
#
# number of rings (size 3 to 8) (size 9 to 14) (size 15 to 20)
#    0.000    2.375    0.000    3.750    0.000    7.000 
#    0.000    1.250    0.000    4.500    0.000    0.000 
#    0.000    0.000    0.000    0.000    0.000    0.000 
#
# Total GULP energy -178538.003484 kJ/mol
# GULP energy per Si atom -5579.312609 kJ/mol
# Density = 1.718091 g / cm^3
# Si number density = 17.220106 Si / 1000 Ang^3
#
#
#
# Elastic Constant Matrix: (Units=GPa)
#
#
# Indices 1 2 3 4 5 6 
#
# 1 109.3519 62.0178 39.1189 0.0000 -5.5059 0.0000
# 2 62.0178 71.6619 42.3026 0.0000 -3.2528 0.0000
# 3 39.1189 42.3026 84.0349 0.0000 -9.8185 0.0000
# 4 0.0000 0.0000 0.0000 16.2080 0.0000 -8.1089
# 5 -5.5059 -3.2528 -9.8185 0.0000 6.1720 0.0000
# 6 0.0000 0.0000 0.0000 -8.1089 0.0000 32.4275
#
#
#
# Elastic Compliance Matrix: (Units=1/GPa)
#
#
# Indices 1 2 3 4 5 6 
#
# 1 0.018363 -0.015723 0.000384 0.000000 0.008706 0.000000
# 2 -0.015723 0.033544 -0.011226 0.000000 -0.014207 0.000000
# 3 0.000384 -0.011226 0.020539 0.000000 0.027099 0.000000
# 4 0.000000 0.000000 0.000000 0.070520 0.000000 0.017634
# 5 0.008706 -0.014207 0.027099 0.000000 0.205410 0.000000
# 6 0.000000 0.000000 0.000000 0.017634 0.000000 0.035248
#
#
# Mechanical properties :
#
#
# Convention : Reuss Voigt Hill
#
# Bulk Modulus (GPa) = 51.77550 61.32524 56.55037
# Shear Modulus (GPa) = 11.28177 19.06880 15.17529
#
# Velocity S-wave (km/s) = 2.56237 3.33131 2.97181
# Velocity P-wave (km/s) = 6.23590 7.10540 6.68480
#
# Compressibility (1/GPa) = 0.01931415
#
# Stress axis : x y z
#
# Youngs Moduli (GPa) = 54.45711 29.81170 48.68899
#
# Poissons Ratio (x) = 0.46874 -0.01870
# Poissons Ratio (y) = 0.85625 0.54660
# Poissons Ratio (z) = -0.02091 0.33468
#
# Static dielectric constant tensor:
#      x y z
#    x 1.567830 0.000000 -0.002520 
#    y 0.000000 1.574730 0.000000 
#    z -0.002520 0.000000 1.578920 
# 
# From -- ./inp_files/313974.got.cif
#   From: 2010.05.17/outbox.cif.g08.bks.cpg/sg12_157_cif.got.tgz:313974.got - 2010.06.03 13:09:07.
