data_PCOD9181801
_publ_section_title
;
Structure prediction by ZEFSAII (Michael W. Deem and Ramdas Pophale) SiO2 
 PCOD9181801
Probable space group: C 2/M
;
_chemical_formula_sum "Si O2"
_cell_formula_units_Z 64
_cell_length_a 17.006570
_cell_length_b 22.616895
_cell_length_c 16.279061
_cell_angle_alpha 90.000000
_cell_angle_beta 147.078802
_cell_angle_gamma 90.000000
_cell_volume 3403.036963
_symmetry_space_group_name_H-M "C 2/M"
_symmetry_group_IT_number 12
_symmetry_cell_setting 'monoclinic'
loop_
_space_group_symop_operation_xyz
x,y,z
-x,y,-z
-x,-y,-z
x,-y,z
1/2+x,1/2+y,z
1/2-x,1/2+y,-z
1/2-x,1/2-y,-z
1/2+x,1/2-y,z
loop_
_atom_site_type_symbol
_atom_site_label
_atom_site_fract_x
_atom_site_fract_y
_atom_site_fract_z
Si Si1 0.071323 0.174702 0.146950
Si Si2 0.492675 0.070552 0.625991
Si Si3 0.659556 0.240527 0.662785
Si Si4 0.738826 0.930613 0.723728
Si Si5 0.113881 0.375503 0.026218
Si Si6 0.833753 0.881881 0.351374
Si Si7 0.104625 0.569845 0.282065
Si Si8 0.182095 0.756404 0.028550
O O1 0.220342 0.209434 0.288157
O O2 0.121259 0.108012 0.174974
O O3 0.943615 0.194280 0.093710
O O4 0.000000 0.197974 0.000000
O O5 0.372665 0.076131 0.449763
O O6 0.646503 0.091283 0.722402
O O7 0.427803 0.094083 0.654585
O O8 0.514328 0.000000 0.657126
O O9 0.500000 0.218981 0.500000
O O10 0.666031 0.310414 0.651127
O O11 0.707105 0.229483 0.799214
O O12 0.771351 0.000000 0.761693
O O13 0.124698 0.309002 0.001680
O O14 0.043382 0.417665 0.897171
O O15 0.257823 0.398237 0.198044
O O16 0.000000 0.372319 0.000000
O O17 0.734700 0.902446 0.341423
O O18 0.000000 0.902301 0.500000
O O19 0.133791 0.500000 0.312845
O O20 0.250000 0.750000 0.000000
#
# Coordination Sequence:
#
# PCOD9181801 Si02
#       8
#     8   8   8   8   8   8   8   8
#     4  10  20  34  54  80 105 142 181 219 271 330
#     4   8  17  34  54  77 106 143 180 226 273 323
#     4   9  19  37  57  75 107 144 182 218 271 334
#     4   9  18  35  56  77 108 144 182 224 281 331
#     4   9  18  35  57  74 103 144 176 213 265 324
#     4   9  18  34  53  76 106 146 172 218 279 320
#     4  10  19  32  54  81 105 136 185 224 258 323
#     4  10  20  37  55  79 112 143 179 225 276 322
#
# _framework density 18.806730999999999
#
# number of rings (size 3 to 8) (size 9 to 14) (size 15 to 20)
#    0.000    2.750    0.000    3.375    1.750    4.750 
#    6.750    0.625    0.000    0.750    0.000    0.000 
#    0.000    0.000    0.000    0.000    0.000    0.000 
#
# Total GULP energy -178144.593230 kJ/mol
# GULP energy per Si atom -5567.018538 kJ/mol
# Density = 1.876393 g / cm^3
# Si number density = 18.806731 Si / 1000 Ang^3
#
#
#
# Elastic Constant Matrix: (Units=GPa)
#
#
# Indices 1 2 3 4 5 6 
#
# 1 117.9325 45.5560 57.6593 0.0000 2.8030 0.0000
# 2 45.5560 51.3280 26.4119 0.0000 10.5496 0.0000
# 3 57.6593 26.4119 96.4789 0.0000 23.1649 0.0000
# 4 0.0000 0.0000 0.0000 26.2833 0.0000 3.6416
# 5 2.8030 10.5496 23.1649 0.0000 26.3828 0.0000
# 6 0.0000 0.0000 0.0000 3.6416 0.0000 -0.7918
#
#
#
# Elastic Compliance Matrix: (Units=1/GPa)
#
#
# Indices 1 2 3 4 5 6 
#
# 1 0.018540 -0.013720 -0.010351 0.000000 0.012605 0.000000
# 2 -0.013720 0.033276 0.002452 0.000000 -0.014001 0.000000
# 3 -0.010351 0.002452 0.020086 0.000000 -0.017516 0.000000
# 4 0.000000 0.000000 0.000000 0.023239 0.000000 0.106876
# 5 0.012605 -0.014001 -0.017516 0.000000 0.057543 0.000000
# 6 0.000000 0.000000 0.000000 0.106876 0.000000 -0.771372
#
#
# Mechanical properties :
#
#
# Convention : Reuss Voigt Hill
#
# Bulk Modulus (GPa) = 34.88775 58.33266 46.61021
# Shear Modulus (GPa) = -8.83555 19.44901 5.30673
#
# Velocity S-wave (km/s) = -2.16986 3.21931 1.68162
# Velocity P-wave (km/s) = 3.50902 6.70096 5.34865
#
# Compressibility (1/GPa) = 0.02866335
#
# Stress axis : x y z
#
# Youngs Moduli (GPa) = 53.93618 30.05200 49.78685
#
# Poissons Ratio (x) = 0.41231 0.51534
# Poissons Ratio (y) = 0.74000 -0.12206
# Poissons Ratio (z) = 0.55829 -0.07368
#
# Static dielectric constant tensor:
#      x y z
#    x 1.716500 0.000000 0.023880 
#    y 0.000000 1.657290 0.000000 
#    z 0.023880 0.000000 1.693290 
# 
# From -- ./inp_files/218536.got.cif
#   From: 2010.05.17/outbox.cif.g08.bks.cpg/sg12_110_cif.got.tgz:218536.got - 2010.06.03 13:09:07.
