data_PCOD9181403
_publ_section_title
;
Structure prediction by ZEFSAII (Michael W. Deem and Ramdas Pophale) SiO2 
 PCOD9181403
Probable space group: C 2/M
;
_chemical_formula_sum "Si O2"
_cell_formula_units_Z 48
_cell_length_a 8.749906
_cell_length_b 20.329777
_cell_length_c 18.077745
_cell_angle_alpha 90.000000
_cell_angle_beta 60.961895
_cell_angle_gamma 90.000000
_cell_volume 2811.507782
_symmetry_space_group_name_H-M "C 2/M"
_symmetry_group_IT_number 12
_symmetry_cell_setting 'monoclinic'
loop_
_space_group_symop_operation_xyz
x,y,z
-x,y,-z
-x,-y,-z
x,-y,z
1/2+x,1/2+y,z
1/2-x,1/2+y,-z
1/2-x,1/2-y,-z
1/2+x,1/2-y,z
loop_
_atom_site_type_symbol
_atom_site_label
_atom_site_fract_x
_atom_site_fract_y
_atom_site_fract_z
Si Si1 0.635028 0.159714 0.910187
Si Si2 0.884024 0.682792 0.745899
Si Si3 0.894362 0.305957 0.450294
Si Si4 0.196904 0.073362 0.426204
Si Si5 0.875756 0.577693 0.237370
Si Si6 0.494886 0.719847 0.850909
O O1 0.657101 0.115104 0.831860
O O2 0.543680 0.227761 0.903410
O O3 0.822139 0.176170 0.903141
O O4 0.500000 0.129066 0.000000
O O5 0.674519 0.681386 0.793019
O O6 0.944784 0.736682 0.791405
O O7 0.969086 0.705805 0.648699
O O8 0.966024 0.614642 0.756793
O O9 0.750000 0.250000 0.500000
O O10 0.797333 0.371623 0.447501
O O11 0.000000 0.315481 0.500000
O O12 0.217810 0.086318 0.333504
O O13 0.000000 0.074200 0.500000
O O14 0.270258 0.000000 0.421194
O O15 0.905299 0.500000 0.219363
#
# Coordination Sequence:
#
# PCOD9181403 Si02
#       6
#     8   8   8   8   8   8
#     4  10  19  32  53  77 101 128 162 207 252 299
#     4   9  18  33  50  70  99 133 164 202 248 296
#     4  11  21  30  47  75 104 131 166 211 254 294
#     4   9  19  36  54  71  97 135 173 206 247 301
#     4   9  19  35  52  71  99 135 168 201 246 296
#     4   9  18  32  51  73  98 128 164 201 248 300
#
# _framework density 17.072689
#
# number of rings (size 3 to 8) (size 9 to 14) (size 15 to 20)
#    0.000    2.500    0.000    2.000    0.000    7.333 
#    0.000    0.833    0.000    1.000    0.000    0.000 
#    0.000    0.000    0.000    0.000    0.000    0.000 
#
# Total GULP energy -133713.843622 kJ/mol
# GULP energy per Si atom -5571.410151 kJ/mol
# Density = 1.703383 g / cm^3
# Si number density = 17.072689 Si / 1000 Ang^3
#
#
#
# Elastic Constant Matrix: (Units=GPa)
#
#
# Indices 1 2 3 4 5 6 
#
# 1 80.3019 23.2865 38.8197 0.0000 -16.3056 0.0000
# 2 23.2865 70.8810 34.5526 0.0000 -7.1838 0.0000
# 3 38.8197 34.5526 99.5702 0.0000 -10.7562 0.0000
# 4 0.0000 0.0000 0.0000 16.7683 0.0000 -1.5217
# 5 -16.3056 -7.1838 -10.7562 0.0000 26.8629 0.0000
# 6 0.0000 0.0000 0.0000 -1.5217 0.0000 10.9575
#
#
#
# Elastic Compliance Matrix: (Units=1/GPa)
#
#
# Indices 1 2 3 4 5 6 
#
# 1 0.017149 -0.002404 -0.005014 0.000000 0.007759 0.000000
# 2 -0.002404 0.017452 -0.004988 0.000000 0.001211 0.000000
# 3 -0.005014 -0.004988 0.013855 0.000000 0.001171 0.000000
# 4 0.000000 0.000000 0.000000 0.060397 0.000000 0.008387
# 5 0.007759 0.001211 0.001171 0.000000 0.042728 0.000000
# 6 0.000000 0.000000 0.000000 0.008387 0.000000 0.092426
#
#
# Mechanical properties :
#
#
# Convention : Reuss Voigt Hill
#
# Bulk Modulus (GPa) = 42.29131 49.34119 45.81625
# Shear Modulus (GPa) = 18.06996 21.19069 19.63032
#
# Velocity S-wave (km/s) = 3.25686 3.52689 3.39456
# Velocity P-wave (km/s) = 6.24243 6.74898 6.50064
#
# Compressibility (1/GPa) = 0.02364552
#
# Stress axis : x y z
#
# Youngs Moduli (GPa) = 58.31146 57.29940 72.17415
#
# Poissons Ratio (x) = 0.13772 0.36186
# Poissons Ratio (y) = 0.14016 0.36003
# Poissons Ratio (z) = 0.29236 0.28583
#
# Static dielectric constant tensor:
#      x y z
#    x 1.563920 0.000000 -0.024710 
#    y 0.000000 1.677140 0.000000 
#    z -0.024710 0.000000 1.613720 
# 
# From -- ./inp_files/196481.got.cif
#   From: 2010.05.17/outbox.cif.g08.bks.cpg/sg12_99_cif.got.tgz:196481.got - 2010.06.03 13:09:07.
