data_PCOD9181099
_publ_section_title
;
Structure prediction by ZEFSAII (Michael W. Deem and Ramdas Pophale) SiO2 
 PCOD9181099
Probable space group: C 2/M
;
_chemical_formula_sum "Si O2"
_cell_formula_units_Z 64
_cell_length_a 16.540037
_cell_length_b 7.540701
_cell_length_c 19.848230
_cell_angle_alpha 90.000000
_cell_angle_beta 79.724597
_cell_angle_gamma 90.000000
_cell_volume 2435.836750
_symmetry_space_group_name_H-M "C 2/M"
_symmetry_group_IT_number 12
_symmetry_cell_setting 'monoclinic'
loop_
_space_group_symop_operation_xyz
x,y,z
-x,y,-z
-x,-y,-z
x,-y,z
1/2+x,1/2+y,z
1/2-x,1/2+y,-z
1/2-x,1/2-y,-z
1/2+x,1/2-y,z
loop_
_atom_site_type_symbol
_atom_site_label
_atom_site_fract_x
_atom_site_fract_y
_atom_site_fract_z
Si Si1 0.144656 0.702253 0.207688
Si Si2 0.233902 0.204865 0.701592
Si Si3 0.978115 0.795568 0.669305
Si Si4 0.939240 0.282349 0.908581
Si Si5 0.881717 0.714635 0.169509
Si Si6 0.347490 0.285968 0.415798
Si Si7 0.824951 0.288428 0.038529
Si Si8 0.413685 0.209281 0.543004
O O1 0.171564 0.500000 0.193205
O O2 0.206279 0.790195 0.251787
O O3 0.058376 0.699442 0.260945
O O4 0.125839 0.781272 0.138069
O O5 0.147964 0.207493 0.755427
O O6 0.217968 0.279264 0.629604
O O7 0.261203 0.000000 0.688007
O O8 0.911500 0.784480 0.618224
O O9 0.063384 0.724837 0.626061
O O10 0.989922 0.000000 0.685094
O O11 0.939167 0.500000 0.908324
O O12 0.028666 0.230479 0.869792
O O13 0.906026 0.226105 0.986059
O O14 0.880405 0.500000 0.176623
O O15 0.822925 0.773449 0.115922
O O16 0.346042 0.500000 0.413580
O O17 0.346858 0.237149 0.494511
O O18 0.831840 0.500000 0.042874
O O19 0.750000 0.250000 0.000000
O O20 0.500000 0.282319 0.500000
O O21 0.421597 0.000000 0.550724
#
# Coordination Sequence:
#
# PCOD9181099 Si02
#       8
#     8   8   8   8   8   8   8   8
#     4  10  20  34  52  73 100 136 174 210 253 308
#     4  10  21  36  53  75 106 140 170 208 261 312
#     4  10  19  32  52  76 103 134 168 211 259 305
#     4   9  18  34  55  77 103 137 175 214 256 302
#     4  10  20  34  55  80 103 133 176 219 254 299
#     4   9  18  33  52  75 103 135 170 208 255 308
#     4  10  20  35  55  79 108 140 173 211 258 309
#     4   9  17  30  51  78 104 131 168 213 256 302
#
# _framework density 26.274339000000001
#
# number of rings (size 3 to 8) (size 9 to 14) (size 15 to 20)
#    0.000    2.375    0.000    2.625    0.000    6.000 
#    0.000    1.875    0.000    1.500    0.000    0.000 
#    0.000    0.000    0.000    0.000    0.000    0.000 
#
# Total GULP energy -178955.302252 kJ/mol
# GULP energy per Si atom -5592.353195 kJ/mol
# Density = 2.621454 g / cm^3
# Si number density = 26.274339 Si / 1000 Ang^3
#
#
#
# Elastic Constant Matrix: (Units=GPa)
#
#
# Indices 1 2 3 4 5 6 
#
# 1 77.2778 -2.2272 19.3540 0.0000 13.4261 0.0000
# 2 -2.2272 83.0597 -0.4913 0.0000 1.0118 0.0000
# 3 19.3540 -0.4913 161.1909 0.0000 11.9597 0.0000
# 4 0.0000 0.0000 0.0000 17.3064 0.0000 -1.9729
# 5 13.4261 1.0118 11.9597 0.0000 53.6316 0.0000
# 6 0.0000 0.0000 0.0000 -1.9729 0.0000 10.8837
#
#
#
# Elastic Compliance Matrix: (Units=1/GPa)
#
#
# Indices 1 2 3 4 5 6 
#
# 1 0.013858 0.000402 -0.001428 0.000000 -0.003158 0.000000
# 2 0.000402 0.012054 0.000013 0.000000 -0.000331 0.000000
# 3 -0.001428 0.000013 0.006456 0.000000 -0.001082 0.000000
# 4 0.000000 0.000000 0.000000 0.059002 0.000000 0.010695
# 5 -0.003158 -0.000331 -0.001082 0.000000 0.019684 0.000000
# 6 0.000000 0.000000 0.000000 0.010695 0.000000 0.093819
#
#
# Mechanical properties :
#
#
# Convention : Reuss Voigt Hill
#
# Bulk Modulus (GPa) = 32.95866 39.42216 36.19041
# Shear Modulus (GPa) = 23.03997 36.69052 29.86524
#
# Velocity S-wave (km/s) = 2.96446 3.74095 3.37511
# Velocity P-wave (km/s) = 4.92835 5.80485 5.38446
#
# Compressibility (1/GPa) = 0.03034104
#
# Stress axis : x y z
#
# Youngs Moduli (GPa) = 72.15856 82.95719 154.90265
#
# Poissons Ratio (x) = -0.03332 0.22126
# Poissons Ratio (y) = -0.02898 -0.00202
# Poissons Ratio (z) = 0.10307 -0.00108
#
# Static dielectric constant tensor:
#      x y z
#    x 2.176910 0.000000 0.027550 
#    y 0.000000 1.966160 0.000000 
#    z 0.027550 0.000000 2.041170 
# 
# From -- ./inp_files/314036.got.cif
#   From: 2010.05.17/outbox.cif.g08.bks.cpg/sg12_158_cif.got.tgz:314036.got - 2010.06.03 13:09:07.
