data_PCOD9181251
_publ_section_title
;
Structure prediction by ZEFSAII (Michael W. Deem and Ramdas Pophale) SiO2 
 PCOD9181251
Probable space group: C 2/M
;
_chemical_formula_sum "Si O2"
_cell_formula_units_Z 56
_cell_length_a 17.009316
_cell_length_b 10.177102
_cell_length_c 21.854099
_cell_angle_alpha 90.000000
_cell_angle_beta 43.348797
_cell_angle_gamma 90.000000
_cell_volume 2596.839765
_symmetry_space_group_name_H-M "C 2/M"
_symmetry_group_IT_number 12
_symmetry_cell_setting 'monoclinic'
loop_
_space_group_symop_operation_xyz
x,y,z
-x,y,-z
-x,-y,-z
x,-y,z
1/2+x,1/2+y,z
1/2-x,1/2+y,-z
1/2-x,1/2-y,-z
1/2+x,1/2-y,z
loop_
_atom_site_type_symbol
_atom_site_label
_atom_site_fract_x
_atom_site_fract_y
_atom_site_fract_z
Si Si1 0.190322 0.212934 0.282778
Si Si2 0.165529 0.849235 0.963262
Si Si3 0.588286 0.649079 0.863593
Si Si4 0.524933 0.858335 0.579474
Si Si5 0.634505 0.346716 0.173968
Si Si6 0.428336 0.848265 0.304094
Si Si7 0.165082 0.143200 0.428681
O O1 0.323478 0.247675 0.213616
O O2 0.162375 0.156045 0.231717
O O3 0.150109 0.134326 0.364405
O O4 0.111409 0.341873 0.334884
O O5 0.126929 0.852290 0.913444
O O6 0.262700 0.738834 0.914356
O O7 0.202175 0.000000 0.957164
O O8 0.046096 0.819212 0.065006
O O9 0.604297 0.500000 0.831590
O O10 0.568588 0.846846 0.623984
O O11 0.584608 0.748915 0.505219
O O12 0.554191 0.000000 0.537397
O O13 0.627857 0.500000 0.158751
O O14 0.519026 0.261006 0.230856
O O15 0.297662 0.820011 0.361903
O O16 0.456988 0.000000 0.268763
O O17 0.145574 0.000000 0.467927
#
# Coordination Sequence:
#
# PCOD9181251 Si02
#       7
#     8   8   8   8   8   8   8
#     4  10  20  33  51  77 108 136 166 206 255 305
#     4   8  14  27  49  75 102 134 170 206 245 294
#     4   8  14  27  48  74 103 135 170 206 246 294
#     4  10  21  36  55  77 100 131 173 217 256 296
#     4  10  19  32  52  79 107 134 166 207 254 302
#     4   9  20  38  56  73  97 134 176 214 251 297
#     4  11  23  37  53  74 103 137 171 209 257 308
#
# _framework density 21.564672999999999
#
# number of rings (size 3 to 8) (size 9 to 14) (size 15 to 20)
#    0.000    2.571    0.000    3.000    0.000    9.143 
#    0.000    6.429    0.000    0.857    0.000    0.000 
#    0.000    0.000    0.000    0.000    0.000    0.000 
#
# Total GULP energy -156210.411243 kJ/mol
# GULP energy per Si atom -5578.943259 kJ/mol
# Density = 2.151559 g / cm^3
# Si number density = 21.564673 Si / 1000 Ang^3
#
#
#
# Elastic Constant Matrix: (Units=GPa)
#
#
# Indices 1 2 3 4 5 6 
#
# 1 42.9909 18.4628 26.4495 0.0000 -19.3388 0.0000
# 2 18.4628 153.6076 84.9293 0.0000 -32.1528 0.0000
# 3 26.4495 84.9293 101.4076 0.0000 -22.8608 0.0000
# 4 0.0000 0.0000 0.0000 16.9290 0.0000 -2.3937
# 5 -19.3388 -32.1528 -22.8608 0.0000 33.4701 0.0000
# 6 0.0000 0.0000 0.0000 -2.3937 0.0000 1.2864
#
#
#
# Elastic Compliance Matrix: (Units=1/GPa)
#
#
# Indices 1 2 3 4 5 6 
#
# 1 0.035076 0.004508 -0.008722 0.000000 0.018640 0.000000
# 2 0.004508 0.013651 -0.010715 0.000000 0.008400 0.000000
# 3 -0.008722 -0.010715 0.020866 0.000000 -0.001081 0.000000
# 4 0.000000 0.000000 0.000000 0.080161 0.000000 0.149159
# 5 0.018640 0.008400 -0.001081 0.000000 0.047979 0.000000
# 6 0.000000 0.000000 0.000000 0.149159 0.000000 1.054886
#
#
# Mechanical properties :
#
#
# Convention : Reuss Voigt Hill
#
# Bulk Modulus (GPa) = 25.16662 61.96548 43.56605
# Shear Modulus (GPa) = 3.85886 21.54806 12.70346
#
# Velocity S-wave (km/s) = 1.33915 3.16449 2.42974
# Velocity P-wave (km/s) = 3.75323 6.49223 5.30263
#
# Compressibility (1/GPa) = 0.03973518
#
# Stress axis : x y z
#
# Youngs Moduli (GPa) = 28.50975 73.25704 47.92460
#
# Poissons Ratio (x) = -0.33026 0.41801
# Poissons Ratio (y) = -0.12853 0.51350
# Poissons Ratio (z) = 0.24867 0.78492
#
# Static dielectric constant tensor:
#      x y z
#    x 1.810810 0.000000 0.019770 
#    y 0.000000 1.775330 0.000000 
#    z 0.019770 0.000000 1.766570 
# 
# From -- ./inp_files/365826.got.cif
#   From: 2010.05.17/outbox.cif.g08.bks.cpg/sg12_183_cif.got.tgz:365826.got - 2010.06.03 13:09:07.
