data_PCOD9181915
_publ_section_title
;
Structure prediction by ZEFSAII (Michael W. Deem and Ramdas Pophale) SiO2 
 PCOD9181915
Probable space group: C 2/M
;
_chemical_formula_sum "Si O2"
_cell_formula_units_Z 56
_cell_length_a 19.967144
_cell_length_b 9.001486
_cell_length_c 25.754106
_cell_angle_alpha 90.000000
_cell_angle_beta 139.469753
_cell_angle_gamma 90.000000
_cell_volume 3008.079781
_symmetry_space_group_name_H-M "C 2/M"
_symmetry_group_IT_number 12
_symmetry_cell_setting 'monoclinic'
loop_
_space_group_symop_operation_xyz
x,y,z
-x,y,-z
-x,-y,-z
x,-y,z
1/2+x,1/2+y,z
1/2-x,1/2+y,-z
1/2-x,1/2-y,-z
1/2+x,1/2-y,z
loop_
_atom_site_type_symbol
_atom_site_label
_atom_site_fract_x
_atom_site_fract_y
_atom_site_fract_z
Si Si1 0.308594 0.174418 0.172277
Si Si2 0.855513 0.325049 0.081130
Si Si3 0.755960 0.824133 0.336619
Si Si4 0.420695 0.171413 0.502144
Si Si5 0.087029 0.823972 0.667784
Si Si6 0.611406 0.172111 0.092147
Si Si7 0.432402 0.676950 0.825614
O O1 0.359194 0.188646 0.145722
O O2 0.374753 0.245014 0.257598
O O3 0.199678 0.259854 0.108163
O O4 0.291396 0.000000 0.172452
O O5 0.856034 0.500000 0.067796
O O6 0.954729 0.245005 0.116041
O O7 0.750000 0.250000 0.000000
O O8 0.820273 0.755778 0.422088
O O9 0.826914 0.801930 0.326781
O O10 0.648363 0.742748 0.263342
O O11 0.741215 0.000000 0.334352
O O12 0.500000 0.172311 0.500000
O O13 0.481799 0.254014 0.583785
O O14 0.399166 0.000000 0.502310
O O15 0.076349 0.000000 0.669347
O O16 0.607427 0.266887 0.142125
O O17 0.635692 0.000000 0.118751
O O18 0.500000 0.178023 0.000000
O O19 0.434957 0.500000 0.824880
#
# Coordination Sequence:
#
# PCOD9181915 Si02
#       7
#     8   8   8   8   8   8   8
#     4  11  23  38  59  85 115 150 192 241 290 346
#     4  11  25  44  63  85 115 153 197 243 294 351
#     4  10  19  33  54  83 118 153 193 237 286 341
#     4   9  17  29  49  79 117 154 190 234 283 338
#     4  10  19  32  54  83 117 154 192 235 286 342
#     4  11  23  38  58  84 114 148 187 238 295 347
#     4  12  24  38  60  86 116 153 195 241 290 346
#
# _framework density 18.616527000000001
#
# number of rings (size 3 to 8) (size 9 to 14) (size 15 to 20)
#    0.000    1.429    1.429    4.714    0.000    8.571 
#    0.000    0.000    0.000    0.857    0.000    0.000 
#    0.000    0.000    0.000    0.000    0.000    0.000 
#
# Total GULP energy -156511.192794 kJ/mol
# GULP energy per Si atom -5589.685457 kJ/mol
# Density = 1.857415 g / cm^3
# Si number density = 18.616527 Si / 1000 Ang^3
#
#
#
# Elastic Constant Matrix: (Units=GPa)
#
#
# Indices 1 2 3 4 5 6 
#
# 1 19.9289 17.4168 -8.4251 0.0000 5.4380 0.0000
# 2 17.4168 136.2382 45.1063 0.0000 1.4257 0.0000
# 3 -8.4251 45.1063 88.2259 0.0000 0.6040 0.0000
# 4 0.0000 0.0000 0.0000 38.4516 0.0000 1.0817
# 5 5.4380 1.4257 0.6040 0.0000 24.3711 0.0000
# 6 0.0000 0.0000 0.0000 1.0817 0.0000 23.0053
#
#
#
# Elastic Compliance Matrix: (Units=1/GPa)
#
#
# Indices 1 2 3 4 5 6 
#
# 1 0.072415 -0.013745 0.014050 0.000000 -0.015702 0.000000
# 2 -0.013745 0.011449 -0.007183 0.000000 0.002575 0.000000
# 3 0.014050 -0.007183 0.016370 0.000000 -0.003120 0.000000
# 4 0.000000 0.000000 0.000000 0.026041 0.000000 -0.001224
# 5 -0.015702 0.002575 -0.003120 0.000000 0.044463 0.000000
# 6 0.000000 0.000000 0.000000 -0.001224 0.000000 0.043526
#
#
# Mechanical properties :
#
#
# Convention : Reuss Voigt Hill
#
# Bulk Modulus (GPa) = 11.56376 39.17655 25.37015
# Shear Modulus (GPa) = 19.46692 29.85194 24.65943
#
# Velocity S-wave (km/s) = 3.23721 4.00874 3.64345
# Velocity P-wave (km/s) = 4.49419 6.52045 5.59973
#
# Compressibility (1/GPa) = 0.08647708
#
# Stress axis : x y z
#
# Youngs Moduli (GPa) = 13.80928 87.34673 61.08660
#
# Poissons Ratio (x) = 1.20058 -0.85827
# Poissons Ratio (y) = 0.18981 0.43881
# Poissons Ratio (z) = -0.19402 0.62745
#
# Static dielectric constant tensor:
#      x y z
#    x 1.620650 0.000000 -0.005320 
#    y 0.000000 1.619390 0.000000 
#    z -0.005320 0.000000 1.638690 
# 
# From -- ./inp_files/363142.got.cif
#   From: 2010.05.17/outbox.cif.g08.bks.cpg/sg12_182_cif.got.tgz:363142.got - 2010.06.03 13:09:07.
