data_PCOD9181621
_publ_section_title
;
Structure prediction by ZEFSAII (Michael W. Deem and Ramdas Pophale) SiO2 
 PCOD9181621
Probable space group: C 2/M
;
_chemical_formula_sum "Si O2"
_cell_formula_units_Z 64
_cell_length_a 18.106794
_cell_length_b 24.246360
_cell_length_c 12.215497
_cell_angle_alpha 90.000000
_cell_angle_beta 136.060658
_cell_angle_gamma 90.000000
_cell_volume 3721.293324
_symmetry_space_group_name_H-M "C 2/M"
_symmetry_group_IT_number 12
_symmetry_cell_setting 'monoclinic'
loop_
_space_group_symop_operation_xyz
x,y,z
-x,y,-z
-x,-y,-z
x,-y,z
1/2+x,1/2+y,z
1/2-x,1/2+y,-z
1/2-x,1/2-y,-z
1/2+x,1/2-y,z
loop_
_atom_site_type_symbol
_atom_site_label
_atom_site_fract_x
_atom_site_fract_y
_atom_site_fract_z
Si Si1 0.120165 0.344687 0.608720
Si Si2 0.110507 0.064578 0.850776
Si Si3 0.883202 0.852615 0.329793
Si Si4 0.867557 0.063393 0.653727
Si Si5 0.361613 0.239821 0.178072
Si Si6 0.592617 0.226814 0.359437
Si Si7 0.295314 0.435666 0.811404
Si Si8 0.725844 0.333462 0.559646
O O1 0.151010 0.308754 0.747407
O O2 0.118744 0.304839 0.501468
O O3 0.198870 0.395391 0.681332
O O4 0.000000 0.364150 0.500000
O O5 0.151439 0.102651 0.796842
O O6 0.983235 0.071642 0.724541
O O7 0.132177 0.000000 0.853608
O O8 0.156903 0.079075 0.019546
O O9 0.892909 0.794333 0.279131
O O10 0.804069 0.845115 0.346942
O O11 0.000000 0.867877 0.500000
O O12 0.874644 0.069226 0.792826
O O13 0.790270 0.109645 0.522900
O O14 0.833737 0.000000 0.595887
O O15 0.464945 0.227800 0.212935
O O16 0.250000 0.250000 0.000000
O O17 0.641294 0.288193 0.423139
O O18 0.659597 0.194151 0.339489
O O19 0.263559 0.500000 0.782654
#
# Coordination Sequence:
#
# PCOD9181621 Si02
#       8
#     8   8   8   8   8   8   8   8
#     4  10  19  34  56  79 104 139 182 227 278 329
#     4  10  21  34  52  80 114 150 185 230 284 334
#     4  12  20  35  55  81 111 148 187 229 274 330
#     4  10  19  32  53  81 111 147 185 231 281 332
#     4  11  21  36  56  81 111 142 183 227 281 335
#     4  10  20  36  55  78 109 147 182 224 277 332
#     4  10  20  35  52  77 112 144 184 233 284 331
#     4  11  20  34  58  78 113 147 187 228 273 333
#
# _framework density 17.198322000000001
#
# number of rings (size 3 to 8) (size 9 to 14) (size 15 to 20)
#    0.000    1.500    5.000    1.500    0.000    2.500 
#    0.000    0.625    0.000    0.000    0.000    0.000 
#    0.000    6.500    0.000    0.000    0.000    0.000 
#
# Total GULP energy -178529.802687 kJ/mol
# GULP energy per Si atom -5579.056334 kJ/mol
# Density = 1.715918 g / cm^3
# Si number density = 17.198322 Si / 1000 Ang^3
#
#
#
# Elastic Constant Matrix: (Units=GPa)
#
#
# Indices 1 2 3 4 5 6 
#
# 1 125.4262 40.4323 37.2480 0.0000 -7.5424 0.0000
# 2 40.4323 77.4609 27.6056 0.0000 -6.2648 0.0000
# 3 37.2480 27.6056 59.3364 0.0000 3.1372 0.0000
# 4 0.0000 0.0000 0.0000 24.4942 0.0000 -6.1864
# 5 -7.5424 -6.2648 3.1372 0.0000 24.6001 0.0000
# 6 0.0000 0.0000 0.0000 -6.1864 0.0000 28.0578
#
#
#
# Elastic Compliance Matrix: (Units=1/GPa)
#
#
# Indices 1 2 3 4 5 6 
#
# 1 0.010888 -0.003519 -0.005363 0.000000 0.003126 0.000000
# 2 -0.003519 0.017221 -0.006018 0.000000 0.004074 0.000000
# 3 -0.005363 -0.006018 0.023345 0.000000 -0.006154 0.000000
# 4 0.000000 0.000000 0.000000 0.043234 0.000000 0.009533
# 5 0.003126 0.004074 -0.006154 0.000000 0.043431 0.000000
# 6 0.000000 0.000000 0.000000 0.009533 0.000000 0.037742
#
#
# Mechanical properties :
#
#
# Convention : Reuss Voigt Hill
#
# Bulk Modulus (GPa) = 46.18218 52.53283 49.35750
# Shear Modulus (GPa) = 23.48762 25.89295 24.69028
#
# Velocity S-wave (km/s) = 3.69954 3.88435 3.79307
# Velocity P-wave (km/s) = 6.72010 7.12244 6.92420
#
# Compressibility (1/GPa) = 0.02165337
#
# Stress axis : x y z
#
# Youngs Moduli (GPa) = 91.84593 58.06912 42.83621
#
# Poissons Ratio (x) = 0.20435 0.22972
# Poissons Ratio (y) = 0.32322 0.25779
# Poissons Ratio (z) = 0.49255 0.34947
#
# Static dielectric constant tensor:
#      x y z
#    x 1.599430 0.000000 -0.008580 
#    y 0.000000 1.578050 0.000000 
#    z -0.008580 0.000000 1.571160 
# 
# From -- ./inp_files/169693.got.cif
#   From: 2010.05.17/outbox.cif.g08.bks.cpg/sg12_85_cif.got.tgz:169693.got - 2010.06.03 13:09:07.
