data_PCOD9181771
_publ_section_title
;
Structure prediction by ZEFSAII (Michael W. Deem and Ramdas Pophale) SiO2 
 PCOD9181771
Probable space group: C 2/M
;
_chemical_formula_sum "Si O2"
_cell_formula_units_Z 56
_cell_length_a 16.850988
_cell_length_b 13.991441
_cell_length_c 13.521131
_cell_angle_alpha 90.000000
_cell_angle_beta 123.109691
_cell_angle_gamma 90.000000
_cell_volume 2670.245301
_symmetry_space_group_name_H-M "C 2/M"
_symmetry_group_IT_number 12
_symmetry_cell_setting 'monoclinic'
loop_
_space_group_symop_operation_xyz
x,y,z
-x,y,-z
-x,-y,-z
x,-y,z
1/2+x,1/2+y,z
1/2-x,1/2+y,-z
1/2-x,1/2-y,-z
1/2+x,1/2-y,z
loop_
_atom_site_type_symbol
_atom_site_label
_atom_site_fract_x
_atom_site_fract_y
_atom_site_fract_z
Si Si1 0.389293 0.104576 0.393873
Si Si2 0.680963 0.389478 0.774130
Si Si3 0.686382 0.299239 0.579358
Si Si4 0.109302 0.235050 0.322486
Si Si5 0.455440 0.612921 0.127052
Si Si6 0.447829 0.110209 0.216938
Si Si7 0.333550 0.776441 0.981672
O O1 0.500000 0.106302 0.500000
O O2 0.339662 0.190117 0.414122
O O3 0.382724 0.116844 0.270709
O O4 0.351833 0.000000 0.395095
O O5 0.708007 0.500000 0.798279
O O6 0.646547 0.362224 0.641620
O O7 0.602762 0.374687 0.807618
O O8 0.774291 0.324637 0.854475
O O9 0.799563 0.294921 0.649706
O O10 0.641086 0.320876 0.442654
O O11 0.057889 0.160676 0.214168
O O12 0.031026 0.315138 0.292151
O O13 0.456950 0.500000 0.104593
O O14 0.396964 0.681484 0.012174
O O15 0.396172 0.145348 0.082613
O O16 0.478275 0.000000 0.230619
O O17 0.250000 0.750000 0.000000
#
# Coordination Sequence:
#
# PCOD9181771 Si02
#       7
#     8   8   8   8   8   8   8
#     4  10  19  32  54  80 104 134 178 229 271 313
#     4  10  21  36  57  85 111 141 184 229 273 325
#     4  11  22  36  54  77 113 149 182 223 272 325
#     4  10  22  36  53  78 109 151 184 219 274 327
#     4   9  19  36  58  82 109 142 182 227 273 328
#     4  10  19  34  57  81 107 140 182 228 275 323
#     4   9  17  33  57  83 111 141 176 226 278 327
#
# _framework density 20.971855999999999
#
# number of rings (size 3 to 8) (size 9 to 14) (size 15 to 20)
#    0.000    2.143    1.429    3.000    0.000    2.286 
#    0.000    7.857    0.000    5.143    0.000    0.000 
#    0.000    0.000    0.000    0.000    0.000    0.000 
#
# Total GULP energy -156219.783102 kJ/mol
# GULP energy per Si atom -5579.277968 kJ/mol
# Density = 2.092412 g / cm^3
# Si number density = 20.971856 Si / 1000 Ang^3
#
#
#
# Elastic Constant Matrix: (Units=GPa)
#
#
# Indices 1 2 3 4 5 6 
#
# 1 14.8629 1.5746 7.2373 0.0000 3.7446 0.0000
# 2 1.5746 88.2754 6.1867 0.0000 11.2734 0.0000
# 3 7.2373 6.1867 53.6015 0.0000 3.0357 0.0000
# 4 0.0000 0.0000 0.0000 8.5471 0.0000 2.8546
# 5 3.7446 11.2734 3.0357 0.0000 28.7239 0.0000
# 6 0.0000 0.0000 0.0000 2.8546 0.0000 3.3438
#
#
#
# Elastic Compliance Matrix: (Units=1/GPa)
#
#
# Indices 1 2 3 4 5 6 
#
# 1 0.074113 0.000477 -0.009561 0.000000 -0.008838 0.000000
# 2 0.000477 0.011996 -0.001186 0.000000 -0.004645 0.000000
# 3 -0.009561 -0.001186 0.020107 0.000000 -0.000413 0.000000
# 4 0.000000 0.000000 0.000000 0.163662 0.000000 -0.139718
# 5 -0.008838 -0.004645 -0.000413 0.000000 0.037833 0.000000
# 6 0.000000 0.000000 0.000000 -0.139718 0.000000 0.418335
#
#
# Mechanical properties :
#
#
# Convention : Reuss Voigt Hill
#
# Bulk Modulus (GPa) = 11.67186 20.74855 16.21021
# Shear Modulus (GPa) = 6.45039 17.57240 12.01140
#
# Velocity S-wave (km/s) = 1.75568 2.89780 2.39579
# Velocity P-wave (km/s) = 3.11247 4.59470 3.92420
#
# Compressibility (1/GPa) = 0.08567613
#
# Stress axis : x y z
#
# Youngs Moduli (GPa) = 13.49283 83.36129 49.73279
#
# Poissons Ratio (x) = -0.03975 0.47551
# Poissons Ratio (y) = -0.00643 0.05898
# Poissons Ratio (z) = 0.12901 0.09886
#
# Static dielectric constant tensor:
#      x y z
#    x 1.776660 0.000000 -0.007970 
#    y 0.000000 1.736650 0.000000 
#    z -0.007970 0.000000 1.782150 
# 
# From -- ./inp_files/225379.got.cif
#   From: 2010.05.17/outbox.cif.g08.bks.cpg/sg12_113_cif.got.tgz:225379.got - 2010.06.03 13:09:07.
