data_PCOD9181784
_publ_section_title
;
Structure prediction by ZEFSAII (Michael W. Deem and Ramdas Pophale) SiO2 
 PCOD9181784
Probable space group: C 2/M
;
_chemical_formula_sum "Si O2"
_cell_formula_units_Z 36
_cell_length_a 7.664696
_cell_length_b 17.674662
_cell_length_c 11.820650
_cell_angle_alpha 90.000000
_cell_angle_beta 120.361665
_cell_angle_gamma 90.000000
_cell_volume 1381.731775
_symmetry_space_group_name_H-M "C 2/M"
_symmetry_group_IT_number 12
_symmetry_cell_setting 'monoclinic'
loop_
_space_group_symop_operation_xyz
x,y,z
-x,y,-z
-x,-y,-z
x,-y,z
1/2+x,1/2+y,z
1/2-x,1/2+y,-z
1/2-x,1/2-y,-z
1/2+x,1/2-y,z
loop_
_atom_site_type_symbol
_atom_site_label
_atom_site_fract_x
_atom_site_fract_y
_atom_site_fract_z
Si Si1 0.738924 0.852783 0.156066
Si Si2 0.243224 0.083627 0.592725
Si Si3 0.816496 0.202059 0.758799
Si Si4 0.750000 0.250000 0.500000
Si Si5 0.754580 0.085400 0.915549
O O1 0.710039 0.903678 0.257743
O O2 0.634312 0.772299 0.143966
O O3 0.979073 0.831618 0.226867
O O4 0.691053 0.888351 0.018955
O O5 0.296230 0.158245 0.538572
O O6 0.000000 0.080845 0.500000
O O7 0.319476 0.000000 0.581758
O O8 0.696103 0.240139 0.617812
O O9 0.701762 0.141042 0.796283
O O10 0.695524 0.000000 0.874491
O O11 0.000000 0.088350 0.000000
#
# Coordination Sequence:
#
# PCOD9181784 Si02
#       5
#     8   8   8   4   8
#     4  10  19  34  53  80 106 142 181 231 278 337
#     4  10  19  32  54  80 107 144 192 234 273 330
#     4  10  20  32  53  76 108 142 180 223 282 330
#     4  10  20  34  50  82 114 144 182 238 284 332
#     4   9  18  32  52  79 106 134 180 237 278 320
#
# _framework density 26.054261
#
# number of rings (size 3 to 8) (size 9 to 14) (size 15 to 20)
#    0.000    2.222    2.222    1.333    0.000    1.778 
#    0.000    0.000    0.000    8.667    0.000    0.000 
#    0.000    0.000    0.000    0.000    0.000    0.000 
#
# Total GULP energy -100374.395711 kJ/mol
# GULP energy per Si atom -5576.355317 kJ/mol
# Density = 2.599496 g / cm^3
# Si number density = 26.054261 Si / 1000 Ang^3
#
#
#
# Elastic Constant Matrix: (Units=GPa)
#
#
# Indices 1 2 3 4 5 6 
#
# 1 101.3305 17.5963 12.4549 0.0000 -10.7228 0.0000
# 2 17.5963 234.3382 75.6906 0.0000 -32.5204 0.0000
# 3 12.4549 75.6906 174.2246 0.0000 -24.8757 0.0000
# 4 0.0000 0.0000 0.0000 32.8737 0.0000 -19.7221
# 5 -10.7228 -32.5204 -24.8757 0.0000 44.9837 0.0000
# 6 0.0000 0.0000 0.0000 -19.7221 0.0000 21.1107
#
#
#
# Elastic Compliance Matrix: (Units=1/GPa)
#
#
# Indices 1 2 3 4 5 6 
#
# 1 0.010182 -0.000402 -0.000270 0.000000 0.001988 0.000000
# 2 -0.000402 0.005277 -0.001881 0.000000 0.002679 0.000000
# 3 -0.000270 -0.001881 0.006919 0.000000 0.002402 0.000000
# 4 0.000000 0.000000 0.000000 0.069209 0.000000 0.064657
# 5 0.001988 0.002679 0.002402 0.000000 0.025969 0.000000
# 6 0.000000 0.000000 0.000000 0.064657 0.000000 0.107773
#
#
# Mechanical properties :
#
#
# Convention : Reuss Voigt Hill
#
# Bulk Modulus (GPa) = 57.89397 80.15300 69.02349
# Shear Modulus (GPa) = 21.16919 46.73706 33.95313
#
# Velocity S-wave (km/s) = 2.85354 4.23996 3.61386
# Velocity P-wave (km/s) = 5.75549 7.40273 6.63046
#
# Compressibility (1/GPa) = 0.01727295
#
# Stress axis : x y z
#
# Youngs Moduli (GPa) = 98.21338 189.50500 144.52396
#
# Poissons Ratio (x) = 0.07611 0.03896
# Poissons Ratio (y) = 0.03945 0.27190
# Poissons Ratio (z) = 0.02648 0.35652
#
# Static dielectric constant tensor:
#      x y z
#    x 2.072290 0.000000 0.166710 
#    y 0.000000 1.973680 0.000000 
#    z 0.166710 0.000000 2.016730 
# 
# From -- ./inp_files/118589.got.cif
#   From: 2010.05.17/outbox.cif.g08.bks.cpg/sg12_60_cif.got.tgz:118589.got - 2010.06.03 13:09:07.
