data_PCOD9181456
_publ_section_title
;
Structure prediction by ZEFSAII (Michael W. Deem and Ramdas Pophale) SiO2 
 PCOD9181456
Probable space group: C 2/M
;
_chemical_formula_sum "Si O2"
_cell_formula_units_Z 64
_cell_length_a 20.268294
_cell_length_b 7.415915
_cell_length_c 24.451999
_cell_angle_alpha 90.000000
_cell_angle_beta 52.216168
_cell_angle_gamma 90.000000
_cell_volume 2904.715755
_symmetry_space_group_name_H-M "C 2/M"
_symmetry_group_IT_number 12
_symmetry_cell_setting 'monoclinic'
loop_
_space_group_symop_operation_xyz
x,y,z
-x,y,-z
-x,-y,-z
x,-y,z
1/2+x,1/2+y,z
1/2-x,1/2+y,-z
1/2-x,1/2-y,-z
1/2+x,1/2-y,z
loop_
_atom_site_type_symbol
_atom_site_label
_atom_site_fract_x
_atom_site_fract_y
_atom_site_fract_z
Si Si1 0.828823 0.215660 0.499052
Si Si2 0.552798 0.289975 0.023622
Si Si3 0.014445 0.779840 0.379666
Si Si4 0.401113 0.279399 0.776550
Si Si5 0.161824 0.779764 0.381365
Si Si6 0.209507 0.282320 0.877753
Si Si7 0.997490 0.211482 0.833337
Si Si8 0.180776 0.717276 0.769967
O O1 0.750000 0.250000 0.500000
O O2 0.820551 0.280994 0.565836
O O3 0.918665 0.281002 0.431513
O O4 0.835270 0.000000 0.499119
O O5 0.527814 0.500000 0.039764
O O6 0.648545 0.279788 0.956545
O O7 0.500000 0.209264 0.000000
O O8 0.533548 0.210922 0.092859
O O9 0.059685 0.721956 0.300929
O O10 0.072704 0.725834 0.401204
O O11 0.013664 0.000000 0.380048
O O12 0.401634 0.500000 0.774624
O O13 0.305277 0.224708 0.832680
O O14 0.454870 0.215228 0.800668
O O15 0.235769 0.721877 0.303086
O O16 0.162311 0.000000 0.381314
O O17 0.207831 0.500000 0.879281
O O18 0.176642 0.220854 0.834965
O O19 0.096989 0.228720 0.781717
O O20 0.975261 0.000000 0.845018
O O21 0.183945 0.500000 0.769851
#
# Coordination Sequence:
#
# PCOD9181456 Si02
#       8
#     8   8   8   8   8   8   8   8
#     4  10  21  34  53  82 111 139 171 210 256 304
#     4  10  20  34  50  72 105 141 171 205 257 316
#     4   9  16  31  55  78 101 135 178 215 249 299
#     4   9  18  33  52  77 104 131 171 220 260 296
#     4   9  17  32  53  78 106 136 173 217 257 297
#     4  10  19  33  55  78  99 128 173 223 261 297
#     4  10  21  35  52  74 104 140 173 209 257 314
#     4  10  19  32  53  78 103 132 170 218 263 301
#
# _framework density 22.033138999999998
#
# number of rings (size 3 to 8) (size 9 to 14) (size 15 to 20)
#    0.000    2.375    2.500    0.375    1.750    2.750 
#    0.000    0.625    0.000    3.000    0.000    0.000 
#    0.000    0.000    0.000    0.000    0.000    0.000 
#
# Total GULP energy -178765.959896 kJ/mol
# GULP energy per Si atom -5586.436247 kJ/mol
# Density = 2.198299 g / cm^3
# Si number density = 22.033139 Si / 1000 Ang^3
#
#
#
# Elastic Constant Matrix: (Units=GPa)
#
#
# Indices 1 2 3 4 5 6 
#
# 1 176.7663 -4.7519 68.4688 -0.0024 5.2842 -0.0016
# 2 -4.7519 69.2956 -0.6456 0.0006 8.7944 -0.0119
# 3 68.4688 -0.6456 123.4867 0.0003 -8.8947 -0.0003
# 4 -0.0024 0.0006 0.0003 32.5768 0.0005 -13.1924
# 5 5.2842 8.7944 -8.8947 0.0005 33.5030 -0.0005
# 6 -0.0016 -0.0119 -0.0003 -13.1924 -0.0005 14.0025
#
#
#
# Elastic Compliance Matrix: (Units=1/GPa)
#
#
# Indices 1 2 3 4 5 6 
#
# 1 0.007414 0.000788 -0.004288 0.000002 -0.002515 0.000003
# 2 0.000788 0.015017 -0.000664 0.000008 -0.004242 0.000020
# 3 -0.004288 -0.000664 0.010739 -0.000001 0.003702 -0.000002
# 4 0.000002 0.000008 -0.000001 0.049633 -0.000003 0.046762
# 5 -0.002515 -0.004242 0.003702 -0.000003 0.032341 -0.000005
# 6 0.000003 0.000020 -0.000002 0.046762 -0.000005 0.115472
#
#
# Mechanical properties :
#
#
# Convention : Reuss Voigt Hill
#
# Bulk Modulus (GPa) = 40.25442 55.07679 47.66560
# Shear Modulus (GPa) = 20.22445 36.44828 28.33636
#
# Velocity S-wave (km/s) = 3.03299 4.07166 3.59009
# Velocity P-wave (km/s) = 5.52946 6.86703 6.23422
#
# Compressibility (1/GPa) = 0.02484199
#
# Stress axis : x y z
#
# Youngs Moduli (GPa) = 134.87136 66.59040 93.12058
#
# Poissons Ratio (x) = -0.05245 0.39931
# Poissons Ratio (y) = -0.10623 0.06181
# Poissons Ratio (z) = 0.57834 0.04420
#
# Static dielectric constant tensor:
#      x y z
#    x 1.778800 0.000000 0.010050 
#    y 0.000000 1.872470 0.000000 
#    z 0.010050 0.000000 1.778240 
# 
# From -- ./inp_files/315705.got.cif
#   From: 2010.05.17/outbox.cif.g08.bks.cpg/sg12_158_cif.got.tgz:315705.got - 2010.06.03 13:09:07.
