data_PCOD9181278
_publ_section_title
;
Structure prediction by ZEFSAII (Michael W. Deem and Ramdas Pophale) SiO2 
 PCOD9181278
Probable space group: C 2/M
;
_chemical_formula_sum "Si O2"
_cell_formula_units_Z 64
_cell_length_a 22.256009
_cell_length_b 9.134502
_cell_length_c 21.023126
_cell_angle_alpha 90.000000
_cell_angle_beta 53.747274
_cell_angle_gamma 90.000000
_cell_volume 3446.583828
_symmetry_space_group_name_H-M "C 2/M"
_symmetry_group_IT_number 12
_symmetry_cell_setting 'monoclinic'
loop_
_space_group_symop_operation_xyz
x,y,z
-x,y,-z
-x,-y,-z
x,-y,z
1/2+x,1/2+y,z
1/2-x,1/2+y,-z
1/2-x,1/2-y,-z
1/2+x,1/2-y,z
loop_
_atom_site_type_symbol
_atom_site_label
_atom_site_fract_x
_atom_site_fract_y
_atom_site_fract_z
Si Si1 0.505209 0.673590 0.733846
Si Si2 0.277377 0.327082 0.125069
Si Si3 0.264233 0.171825 0.260949
Si Si4 0.239991 0.673237 0.405724
Si Si5 0.363045 0.829575 0.865863
Si Si6 0.133256 0.327035 0.588674
Si Si7 0.412435 0.829821 0.981872
Si Si8 0.559916 0.172129 0.826935
O O1 0.509457 0.500000 0.726306
O O2 0.420779 0.729754 0.791301
O O3 0.554221 0.751056 0.649019
O O4 0.541282 0.729867 0.777665
O O5 0.280746 0.500000 0.133869
O O6 0.244153 0.247079 0.207345
O O7 0.221274 0.297445 0.101601
O O8 0.359088 0.266378 0.058344
O O9 0.231161 0.253280 0.342836
O O10 0.354241 0.186900 0.209561
O O11 0.246368 0.000000 0.273013
O O12 0.255604 0.500000 0.390192
O O13 0.169147 0.691415 0.496561
O O14 0.308437 0.752179 0.399082
O O15 0.380613 0.814324 0.929593
O O16 0.377548 0.000000 0.840784
O O17 0.128822 0.500000 0.605648
O O18 0.499759 0.792496 0.919484
O O19 0.406078 0.000000 0.005510
O O20 0.546161 0.000000 0.819400
#
# Coordination Sequence:
#
# PCOD9181278 Si02
#       8
#     8   8   8   8   8   8   8   8
#     4  11  20  30  53  84 110 136 174 225 266 308
#     4  11  23  37  54  77 105 140 182 225 268 317
#     4  11  22  36  55  75 107 150 181 215 265 321
#     4  10  20  33  52  80 110 141 179 219 255 305
#     4   9  20  38  57  76 104 141 177 221 275 322
#     4  10  19  32  52  79 113 145 172 209 264 319
#     4   9  18  35  57  78 102 133 177 226 271 322
#     4   9  19  35  53  75 106 144 178 212 267 325
#
# _framework density 18.569112000000001
#
# number of rings (size 3 to 8) (size 9 to 14) (size 15 to 20)
#    0.000    2.000    1.250    3.750    0.000    5.500 
#    0.000    2.500    0.000    0.750    0.000    5.250 
#    0.000    0.000    0.000    0.000    0.000    0.000 
#
# Total GULP energy -178687.744071 kJ/mol
# GULP energy per Si atom -5583.992002 kJ/mol
# Density = 1.852685 g / cm^3
# Si number density = 18.569112 Si / 1000 Ang^3
#
#
#
# Elastic Constant Matrix: (Units=GPa)
#
#
# Indices 1 2 3 4 5 6 
#
# 1 17.3983 14.0274 -0.8589 0.0000 -1.1922 0.0001
# 2 14.0274 105.4827 60.8272 -0.0001 -3.8946 0.0002
# 3 -0.8589 60.8272 89.1556 0.0000 -2.0088 0.0000
# 4 0.0000 -0.0001 0.0000 35.6664 0.0001 -0.6798
# 5 -1.1922 -3.8946 -2.0088 0.0001 23.8315 -0.0001
# 6 0.0001 0.0002 0.0000 -0.6798 -0.0001 18.5932
#
#
#
# Elastic Compliance Matrix: (Units=1/GPa)
#
#
# Indices 1 2 3 4 5 6 
#
# 1 0.071249 -0.016198 0.011780 0.000000 0.001910 0.000000
# 2 -0.016198 0.019377 -0.013349 0.000000 0.001231 0.000000
# 3 0.011780 -0.013349 0.020440 0.000000 0.000131 0.000000
# 4 0.000000 0.000000 0.000000 0.028057 0.000000 0.001026
# 5 0.001910 0.001231 0.000131 0.000000 0.042269 0.000000
# 6 0.000000 0.000000 0.000000 0.001026 0.000000 0.053821
#
#
# Mechanical properties :
#
#
# Convention : Reuss Voigt Hill
#
# Bulk Modulus (GPa) = 13.23903 40.00311 26.62107
# Shear Modulus (GPa) = 16.89634 24.82096 20.85865
#
# Velocity S-wave (km/s) = 3.01975 3.66003 3.35520
# Velocity P-wave (km/s) = 4.39359 6.28098 5.42007
#
# Compressibility (1/GPa) = 0.07553422
#
# Stress axis : x y z
#
# Youngs Moduli (GPa) = 14.03538 51.60704 48.92374
#
# Poissons Ratio (x) = 0.83591 -0.57634
# Poissons Ratio (y) = 0.22734 0.65306
# Poissons Ratio (z) = -0.16534 0.68888
#
# Static dielectric constant tensor:
#      x y z
#    x 1.649480 0.000000 -0.001080 
#    y 0.000000 1.618390 0.000000 
#    z -0.001080 0.000000 1.656440 
# 
# From -- ./inp_files/324148.got.cif
#   From: 2010.05.17/outbox.cif.g08.bks.cpg/sg12_163_cif.got.tgz:324148.got - 2010.06.03 13:09:07.
