data_PCOD9181502
_publ_section_title
;
Structure prediction by ZEFSAII (Michael W. Deem and Ramdas Pophale) SiO2 
 PCOD9181502
Probable space group: C 2/M
;
_chemical_formula_sum "Si O2"
_cell_formula_units_Z 48
_cell_length_a 15.399647
_cell_length_b 8.006575
_cell_length_c 16.308413
_cell_angle_alpha 90.000000
_cell_angle_beta 60.894847
_cell_angle_gamma 90.000000
_cell_volume 1756.894711
_symmetry_space_group_name_H-M "C 2/M"
_symmetry_group_IT_number 12
_symmetry_cell_setting 'monoclinic'
loop_
_space_group_symop_operation_xyz
x,y,z
-x,y,-z
-x,-y,-z
x,-y,z
1/2+x,1/2+y,z
1/2-x,1/2+y,-z
1/2-x,1/2-y,-z
1/2+x,1/2-y,z
loop_
_atom_site_type_symbol
_atom_site_label
_atom_site_fract_x
_atom_site_fract_y
_atom_site_fract_z
Si Si1 0.855481 0.306123 0.400140
Si Si2 0.353274 0.802356 0.223483
Si Si3 0.447601 0.300923 0.935560
Si Si4 0.880729 0.301824 0.567082
Si Si5 0.751721 0.805495 0.104256
Si Si6 0.572584 0.687472 0.283230
O O1 0.828292 0.500000 0.414637
O O2 0.976485 0.302302 0.335313
O O3 0.822802 0.233179 0.327093
O O4 0.837362 0.234937 0.500023
O O5 0.472776 0.782081 0.160579
O O6 0.307889 0.707424 0.167038
O O7 0.331221 0.000000 0.227226
O O8 0.443203 0.500000 0.922958
O O9 0.500000 0.277478 0.000000
O O10 0.335232 0.236215 0.002862
O O11 0.861099 0.500000 0.583784
O O12 0.865620 0.210532 0.660447
O O13 0.000000 0.284296 0.500000
O O14 0.648182 0.716990 0.173661
O O15 0.734998 0.000000 0.096074
O O16 0.533651 0.500000 0.297095
#
# Coordination Sequence:
#
# PCOD9181502 Si02
#       6
#     8   8   8   8   8   8
#     4   9  19  35  53  74 102 135 165 197 245 301
#     4  10  19  32  53  79 103 127 163 208 247 289
#     4   8  16  31  50  71  96 131 169 200 239 296
#     4   8  15  31  52  70  95 133 168 196 239 299
#     4  10  20  35  53  72 100 136 169 201 245 299
#     4  11  21  32  51  78 102 126 166 213 249 287
#
# _framework density 27.320933
#
# number of rings (size 3 to 8) (size 9 to 14) (size 15 to 20)
#    0.000    2.667    0.000    4.500    0.000    8.000 
#    0.000    1.667    0.000    0.000    0.000    0.000 
#    0.000    0.000    0.000    0.000    0.000    0.000 
#
# Total GULP energy -134346.321626 kJ/mol
# GULP energy per Si atom -5597.763401 kJ/mol
# Density = 2.725875 g / cm^3
# Si number density = 27.320933 Si / 1000 Ang^3
#
#
#
# Elastic Constant Matrix: (Units=GPa)
#
#
# Indices 1 2 3 4 5 6 
#
# 1 66.4201 4.9658 -23.4623 0.0000 3.1435 0.0000
# 2 4.9658 80.5611 21.5786 0.0000 -11.4460 0.0001
# 3 -23.4623 21.5786 207.5272 0.0000 5.1738 0.0000
# 4 0.0000 0.0000 0.0000 36.1972 0.0000 -4.5862
# 5 3.1435 -11.4460 5.1738 0.0000 51.0742 0.0000
# 6 0.0000 0.0001 0.0000 -4.5862 0.0000 39.0570
#
#
#
# Elastic Compliance Matrix: (Units=1/GPa)
#
#
# Indices 1 2 3 4 5 6 
#
# 1 0.015978 -0.001753 0.002028 0.000000 -0.001582 0.000000
# 2 -0.001753 0.013438 -0.001677 0.000000 0.003289 0.000000
# 3 0.002028 -0.001677 0.005248 0.000000 -0.001032 0.000000
# 4 0.000000 0.000000 0.000000 0.028044 0.000000 0.003293
# 5 -0.001582 0.003289 -0.001032 0.000000 0.020518 0.000000
# 6 0.000000 0.000000 0.000000 0.003293 0.000000 0.025990
#
#
# Mechanical properties :
#
#
# Convention : Reuss Voigt Hill
#
# Bulk Modulus (GPa) = 31.38791 40.07475 35.73133
# Shear Modulus (GPa) = 40.76967 48.69410 44.73189
#
# Velocity S-wave (km/s) = 3.86716 4.22631 4.05072
# Velocity P-wave (km/s) = 5.60833 6.20609 5.91477
#
# Compressibility (1/GPa) = 0.03185940
#
# Stress axis : x y z
#
# Youngs Moduli (GPa) = 62.58608 74.41797 190.54549
#
# Poissons Ratio (x) = 0.13044 -0.38645
# Poissons Ratio (y) = 0.10970 0.31962
# Poissons Ratio (z) = -0.12693 0.12483
#
# Static dielectric constant tensor:
#      x y z
#    x 2.386180 0.000000 -0.001880 
#    y 0.000000 1.905690 0.000000 
#    z -0.001880 0.000000 2.190620 
# 
# From -- ./inp_files/274002.got.cif
#   From: 2010.05.17/outbox.cif.g08.bks.cpg/sg12_138_cif.got.tgz:274002.got - 2010.06.03 13:09:07.
