data_PCOD9181146
_publ_section_title
;
Structure prediction by ZEFSAII (Michael W. Deem and Ramdas Pophale) SiO2 
 PCOD9181146
Probable space group: C 2/M
;
_chemical_formula_sum "Si O2"
_cell_formula_units_Z 40
_cell_length_a 24.640826
_cell_length_b 17.978176
_cell_length_c 11.884148
_cell_angle_alpha 90.000000
_cell_angle_beta 161.398727
_cell_angle_gamma 90.000000
_cell_volume 1679.317812
_symmetry_space_group_name_H-M "C 2/M"
_symmetry_group_IT_number 12
_symmetry_cell_setting 'monoclinic'
loop_
_space_group_symop_operation_xyz
x,y,z
-x,y,-z
-x,-y,-z
x,-y,z
1/2+x,1/2+y,z
1/2-x,1/2+y,-z
1/2-x,1/2-y,-z
1/2+x,1/2-y,z
loop_
_atom_site_type_symbol
_atom_site_label
_atom_site_fract_x
_atom_site_fract_y
_atom_site_fract_z
Si Si1 0.683744 0.828901 0.417939
Si Si2 0.821007 0.085212 0.503102
Si Si3 0.945942 0.148571 0.207948
Si Si4 0.034152 0.323409 0.803927
Si Si5 0.762258 0.661424 0.000649
O O1 0.750000 0.750000 0.500000
O O2 0.806017 0.889407 0.602542
O O3 0.637515 0.833055 0.459450
O O4 0.500000 0.839627 0.000000
O O5 0.998075 0.100229 0.788169
O O6 0.771780 0.000000 0.394418
O O7 0.684038 0.137368 0.169257
O O8 0.105995 0.143891 0.609260
O O9 0.941385 0.234482 0.158130
O O10 0.788082 0.127069 0.977701
O O11 0.070891 0.351155 0.748529
O O12 0.750000 0.750000 0.000000
#
# Coordination Sequence:
#
# PCOD9181146 Si02
#       5
#     8   8   8   8   8
#     4  10  19  32  52  77 103 140 180 219 261 320
#     4  10  20  32  50  78 107 135 173 223 269 312
#     4   9  15  29  48  70 100 133 171 212 261 309
#     4   9  17  29  47  71  99 133 175 212 258 307
#     4   8  15  26  45  74  99 127 169 221 253 301
#
# _framework density 23.819195000000001
#
# number of rings (size 3 to 8) (size 9 to 14) (size 15 to 20)
#    0.000    2.800    2.000    0.000    0.000    3.600 
#    0.000    8.000    0.000    0.600    0.000   43.400 
#    0.000    0.000    0.000    0.000    0.000    0.000 
#
# Total GULP energy -111545.381534 kJ/mol
# GULP energy per Si atom -5577.269077 kJ/mol
# Density = 2.376498 g / cm^3
# Si number density = 23.819195 Si / 1000 Ang^3
#
#
#
# Elastic Constant Matrix: (Units=GPa)
#
#
# Indices 1 2 3 4 5 6 
#
# 1 263.1009 33.8176 69.5671 0.0000 59.9326 0.0000
# 2 33.8176 45.5430 4.6962 0.0000 8.6528 0.0000
# 3 69.5671 4.6962 102.6603 0.0000 37.0785 0.0000
# 4 0.0000 0.0000 0.0000 -1.8108 0.0000 23.2787
# 5 59.9326 8.6528 37.0785 0.0000 63.8486 0.0000
# 6 0.0000 0.0000 0.0000 23.2787 0.0000 -14.1589
#
#
#
# Elastic Compliance Matrix: (Units=1/GPa)
#
#
# Indices 1 2 3 4 5 6 
#
# 1 0.005653 -0.003292 -0.002436 0.000000 -0.003446 0.000000
# 2 -0.003292 0.024455 0.001510 0.000000 -0.001101 0.000000
# 3 -0.002436 0.001510 0.013376 0.000000 -0.005686 0.000000
# 4 0.000000 0.000000 0.000000 0.027426 0.000000 0.045091
# 5 -0.003446 -0.001101 -0.005686 0.000000 0.022348 0.000000
# 6 0.000000 0.000000 0.000000 0.045091 0.000000 0.003507
#
#
# Mechanical properties :
#
#
# Convention : Reuss Voigt Hill
#
# Bulk Modulus (GPa) = 28.53194 69.71843 49.12519
# Shear Modulus (GPa) = 42.77786 29.79067 36.28427
#
# Velocity S-wave (km/s) = 4.24245 3.54036 3.90721
# Velocity P-wave (km/s) = 6.00020 6.78569 6.40500
#
# Compressibility (1/GPa) = 0.03504844
#
# Stress axis : x y z
#
# Youngs Moduli (GPa) = 176.90396 40.89148 74.76114
#
# Poissons Ratio (x) = 0.13460 0.18208
# Poissons Ratio (y) = 0.58231 -0.11285
# Poissons Ratio (z) = 0.43085 -0.06173
#
# Static dielectric constant tensor:
#      x y z
#    x 2.043250 0.000000 0.007810 
#    y 0.000000 1.764960 0.000000 
#    z 0.007810 0.000000 2.026020 
# 
# From -- ./inp_files/203637.got.cif
#   From: 2010.05.17/outbox.cif.g08.bks.cpg/sg12_102_cif.got.tgz:203637.got - 2010.06.03 13:09:07.
