data_PCOD9181437
_publ_section_title
;
Structure prediction by ZEFSAII (Michael W. Deem and Ramdas Pophale) SiO2 
 PCOD9181437
Probable space group: C 2/M
;
_chemical_formula_sum "Si O2"
_cell_formula_units_Z 56
_cell_length_a 18.576372
_cell_length_b 9.058369
_cell_length_c 23.149537
_cell_angle_alpha 90.000000
_cell_angle_beta 125.952250
_cell_angle_gamma 90.000000
_cell_volume 3153.360295
_symmetry_space_group_name_H-M "C 2/M"
_symmetry_group_IT_number 12
_symmetry_cell_setting 'monoclinic'
loop_
_space_group_symop_operation_xyz
x,y,z
-x,y,-z
-x,-y,-z
x,-y,z
1/2+x,1/2+y,z
1/2-x,1/2+y,-z
1/2-x,1/2-y,-z
1/2+x,1/2-y,z
loop_
_atom_site_type_symbol
_atom_site_label
_atom_site_fract_x
_atom_site_fract_y
_atom_site_fract_z
Si Si1 0.090323 0.176888 0.007456
Si Si2 0.841860 0.678413 0.562650
Si Si3 0.123954 0.328760 0.712478
Si Si4 0.497609 0.326587 0.430090
Si Si5 0.265422 0.323246 0.140568
Si Si6 0.930394 0.176521 0.134769
Si Si7 0.545226 0.829939 0.279399
O O1 0.172551 0.258984 0.075433
O O2 0.107756 0.000000 0.015745
O O3 0.077957 0.225837 0.935210
O O4 0.000000 0.202794 0.000000
O O5 0.839233 0.500000 0.558873
O O6 0.750000 0.750000 0.500000
O O7 0.918955 0.740131 0.557463
O O8 0.872106 0.720344 0.642291
O O9 0.143789 0.500000 0.710178
O O10 0.202174 0.249319 0.784325
O O11 0.090275 0.243510 0.640085
O O12 0.038702 0.324286 0.715797
O O13 0.500000 0.313480 0.500000
O O14 0.502903 0.500000 0.416980
O O15 0.262814 0.500000 0.144627
O O16 0.341156 0.284719 0.128491
O O17 0.014101 0.240531 0.209123
O O18 0.937718 0.000000 0.138382
O O19 0.559119 0.000000 0.269732
#
# Coordination Sequence:
#
# PCOD9181437 Si02
#       7
#     8   8   8   8   8   8   8
#     4  10  21  36  51  70 101 136 166 200 246 301
#     4  10  20  34  53  77 105 139 177 216 261 312
#     4   9  17  31  52  76 102 132 168 210 254 301
#     4  10  20  34  53  78 108 139 172 214 261 308
#     4  10  19  32  53  78 100 125 164 211 254 298
#     4   9  18  32  52  76  97 124 165 208 249 295
#     4   8  16  30  49  74 100 127 162 207 255 297
#
# _framework density 17.758832999999999
#
# number of rings (size 3 to 8) (size 9 to 14) (size 15 to 20)
#    0.000    2.571    0.000    3.000    0.000    6.571 
#    0.000    1.429    0.000    3.429    0.000    0.000 
#    0.000    0.000    0.000    0.000    0.000    0.000 
#
# Total GULP energy -156136.688915 kJ/mol
# GULP energy per Si atom -5576.310318 kJ/mol
# Density = 1.771841 g / cm^3
# Si number density = 17.758833 Si / 1000 Ang^3
#
#
#
# Elastic Constant Matrix: (Units=GPa)
#
#
# Indices 1 2 3 4 5 6 
#
# 1 34.0564 37.4387 53.2003 0.0000 4.1887 0.0000
# 2 37.4387 78.3096 82.3832 0.0000 1.9457 0.0000
# 3 53.2003 82.3832 197.3652 0.0000 11.7573 0.0000
# 4 0.0000 0.0000 0.0000 40.0040 0.0000 3.2876
# 5 4.1887 1.9457 11.7573 0.0000 21.6502 0.0000
# 6 0.0000 0.0000 0.0000 3.2876 0.0000 17.2641
#
#
#
# Elastic Compliance Matrix: (Units=1/GPa)
#
#
# Indices 1 2 3 4 5 6 
#
# 1 0.070266 -0.024836 -0.008161 0.000000 -0.006931 0.000000
# 2 -0.024836 0.031765 -0.006904 0.000000 0.005700 0.000000
# 3 -0.008161 -0.006904 0.010352 0.000000 -0.003423 0.000000
# 4 0.000000 0.000000 0.000000 0.025395 0.000000 -0.004836
# 5 -0.006931 0.005700 -0.003423 0.000000 0.048876 0.000000
# 6 0.000000 0.000000 0.000000 -0.004836 0.000000 0.058845
#
#
# Mechanical properties :
#
#
# Convention : Reuss Voigt Hill
#
# Bulk Modulus (GPa) = 30.69176 72.86395 51.77786
# Shear Modulus (GPa) = 14.87381 24.89760 19.88571
#
# Velocity S-wave (km/s) = 2.89718 3.74837 3.34992
# Velocity P-wave (km/s) = 5.33962 7.73644 6.64696
#
# Compressibility (1/GPa) = 0.03258204
#
# Stress axis : x y z
#
# Youngs Moduli (GPa) = 14.23166 31.48089 96.59686
#
# Poissons Ratio (x) = 0.78185 0.78829
# Poissons Ratio (y) = 0.35345 0.66693
# Poissons Ratio (z) = 0.11614 0.21735
#
# Static dielectric constant tensor:
#      x y z
#    x 1.595100 0.000000 -0.005040 
#    y 0.000000 1.596630 0.000000 
#    z -0.005040 0.000000 1.608320 
# 
# From -- ./inp_files/342497.got.cif
#   From: 2010.05.17/outbox.cif.g08.bks.cpg/sg12_172_cif.got.tgz:342497.got - 2010.06.03 13:09:07.
