data_PCOD9181366
_publ_section_title
;
Structure prediction by ZEFSAII (Michael W. Deem and Ramdas Pophale) SiO2 
 PCOD9181366
Probable space group: C 2/M
;
_chemical_formula_sum "Si O2"
_cell_formula_units_Z 48
_cell_length_a 22.664072
_cell_length_b 9.953030
_cell_length_c 20.186330
_cell_angle_alpha 90.000000
_cell_angle_beta 29.493488
_cell_angle_gamma 90.000000
_cell_volume 2241.827496
_symmetry_space_group_name_H-M "C 2/M"
_symmetry_group_IT_number 12
_symmetry_cell_setting 'monoclinic'
loop_
_space_group_symop_operation_xyz
x,y,z
-x,y,-z
-x,-y,-z
x,-y,z
1/2+x,1/2+y,z
1/2-x,1/2+y,-z
1/2-x,1/2-y,-z
1/2+x,1/2-y,z
loop_
_atom_site_type_symbol
_atom_site_label
_atom_site_fract_x
_atom_site_fract_y
_atom_site_fract_z
Si Si1 0.517654 0.148424 0.807827
Si Si2 0.253546 0.778840 0.074350
Si Si3 0.979607 0.853227 0.626428
Si Si4 0.129810 0.654521 0.839378
Si Si5 0.135548 0.159241 0.595922
Si Si6 0.686653 0.151758 0.267025
O O1 0.379949 0.151440 0.965429
O O2 0.604080 0.165013 0.786301
O O3 0.536672 0.270208 0.739024
O O4 0.541249 0.000000 0.754892
O O5 0.250000 0.750000 0.000000
O O6 0.135332 0.859353 0.211461
O O7 0.243526 0.656524 0.136687
O O8 0.937531 0.731500 0.622062
O O9 0.093456 0.825990 0.561164
O O10 0.993114 0.000000 0.582172
O O11 0.166066 0.500000 0.818827
O O12 0.227002 0.757753 0.771927
O O13 0.000000 0.677699 0.000000
O O14 0.250000 0.250000 0.500000
O O15 0.150150 0.000000 0.594593
O O16 0.674800 0.000000 0.301470
#
# Coordination Sequence:
#
# PCOD9181366 Si02
#       6
#     8   8   8   8   8   8
#     4  11  21  36  59  84 115 155 193 232 277 337
#     4  10  19  32  52  84 117 146 184 223 283 339
#     4   9  19  35  55  79 109 146 185 224 277 342
#     4  10  19  34  54  78 114 159 194 223 274 341
#     4  11  24  41  60  84 113 149 192 240 287 336
#     4  10  21  32  49  80 115 148 183 227 277 328
#
# _framework density 21.411104000000002
#
# number of rings (size 3 to 8) (size 9 to 14) (size 15 to 20)
#    1.000    0.833    3.333    1.500    0.000    5.667 
#    0.000    0.000    0.000    1.000    0.000    7.000 
#    0.000    0.000    0.000    0.000    0.000    0.000 
#
# Total GULP energy -133818.579446 kJ/mol
# GULP energy per Si atom -5575.774144 kJ/mol
# Density = 2.136237 g / cm^3
# Si number density = 21.411104 Si / 1000 Ang^3
#
#
#
# Elastic Constant Matrix: (Units=GPa)
#
#
# Indices 1 2 3 4 5 6 
#
# 1 127.0845 85.6908 28.2347 0.0000 -19.4833 0.0000
# 2 85.6908 192.6041 23.2416 -0.0001 -25.5210 0.0001
# 3 28.2347 23.2416 55.2956 0.0000 -4.8615 0.0000
# 4 0.0000 -0.0001 0.0000 8.9497 0.0000 -2.8471
# 5 -19.4833 -25.5210 -4.8615 0.0000 36.4889 0.0000
# 6 0.0000 0.0001 0.0000 -2.8471 0.0000 23.8234
#
#
#
# Elastic Compliance Matrix: (Units=1/GPa)
#
#
# Indices 1 2 3 4 5 6 
#
# 1 0.012323 -0.004616 -0.004106 0.000000 0.002805 0.000000
# 2 -0.004616 0.007697 -0.000629 0.000000 0.002835 0.000000
# 3 -0.004106 -0.000629 0.020454 0.000000 0.000093 0.000000
# 4 0.000000 0.000000 0.000000 0.116152 0.000000 0.013881
# 5 0.002805 0.002835 0.000093 0.000000 0.030899 0.000000
# 6 0.000000 0.000000 0.000000 0.013881 0.000000 0.043634
#
#
# Mechanical properties :
#
#
# Convention : Reuss Voigt Hill
#
# Bulk Modulus (GPa) = 45.92867 72.14649 59.03758
# Shear Modulus (GPa) = 19.44635 29.70686 24.57660
#
# Velocity S-wave (km/s) = 3.01697 3.72889 3.39166
# Velocity P-wave (km/s) = 5.79944 7.23246 6.55523
#
# Compressibility (1/GPa) = 0.02177289
#
# Stress axis : x y z
#
# Youngs Moduli (GPa) = 81.14790 129.91921 48.89091
#
# Poissons Ratio (x) = 0.59965 0.20074
# Poissons Ratio (y) = 0.37454 0.03076
# Poissons Ratio (z) = 0.33318 0.08174
#
# Static dielectric constant tensor:
#      x y z
#    x 1.773120 0.000000 0.011150 
#    y 0.000000 1.752070 0.000000 
#    z 0.011150 0.000000 1.867100 
# 
# From -- ./inp_files/319563.got.cif
#   From: 2010.05.17/outbox.cif.g08.bks.cpg/sg12_160_cif.got.tgz:319563.got - 2010.06.03 13:09:07.
