data_PCOD9181886
_publ_section_title
;
Structure prediction by ZEFSAII (Michael W. Deem and Ramdas Pophale) SiO2 
 PCOD9181886
Probable space group: C 2/M
;
_chemical_formula_sum "Si O2"
_cell_formula_units_Z 56
_cell_length_a 25.346598
_cell_length_b 8.841977
_cell_length_c 22.402863
_cell_angle_alpha 90.000000
_cell_angle_beta 138.595850
_cell_angle_gamma 90.000000
_cell_volume 3320.584784
_symmetry_space_group_name_H-M "C 2/M"
_symmetry_group_IT_number 12
_symmetry_cell_setting 'monoclinic'
loop_
_space_group_symop_operation_xyz
x,y,z
-x,y,-z
-x,-y,-z
x,-y,z
1/2+x,1/2+y,z
1/2-x,1/2+y,-z
1/2-x,1/2-y,-z
1/2+x,1/2-y,z
loop_
_atom_site_type_symbol
_atom_site_label
_atom_site_fract_x
_atom_site_fract_y
_atom_site_fract_z
Si Si1 0.372130 0.319172 0.590172
Si Si2 0.961326 0.818912 0.214712
Si Si3 0.335817 0.819428 0.782395
Si Si4 0.017059 0.319418 0.897727
Si Si5 0.718927 0.319183 0.911531
Si Si6 0.754100 0.820239 0.600227
Si Si7 0.666554 0.680377 0.090462
O O1 0.367137 0.500000 0.576319
O O2 0.463324 0.276771 0.680489
O O3 0.328141 0.235616 0.498954
O O4 0.321766 0.284897 0.607649
O O5 0.967636 0.736236 0.156602
O O6 0.875709 0.788986 0.171276
O O7 0.966761 0.000000 0.208013
O O8 0.426682 0.782408 0.839813
O O9 0.278005 0.762252 0.681115
O O10 0.318965 0.740456 0.830824
O O11 0.330138 0.000000 0.784015
O O12 0.027507 0.500000 0.910148
O O13 0.081123 0.240833 0.994899
O O14 0.731319 0.500000 0.922424
O O15 0.768080 0.246247 0.899595
O O16 0.750000 0.250000 0.000000
O O17 0.753370 0.000000 0.608458
O O18 0.667367 0.500000 0.089244
#
# Coordination Sequence:
#
# PCOD9181886 Si02
#       7
#     8   8   8   8   8   8   8
#     4   9  18  33  53  80 113 146 181 223 271 328
#     4  10  20  35  57  82 112 147 184 226 275 327
#     4  11  23  38  56  81 113 148 185 229 280 333
#     4  11  22  35  55  82 113 146 183 228 277 329
#     4  11  22  37  58  83 110 146 189 233 277 322
#     4  10  19  32  54  82 113 146 181 223 272 331
#     4  12  25  39  56  78 110 152 191 229 275 330
#
# _framework density 16.864498999999999
#
# number of rings (size 3 to 8) (size 9 to 14) (size 15 to 20)
#    0.000    1.429    2.857    3.429    0.000    5.143 
#    0.000    0.000    0.000    0.857    0.000    6.000 
#    0.000    0.000    0.000    0.000    0.000    0.000 
#
# Total GULP energy -156459.229418 kJ/mol
# GULP energy per Si atom -5587.829622 kJ/mol
# Density = 1.682611 g / cm^3
# Si number density = 16.864499 Si / 1000 Ang^3
#
#
#
# Elastic Constant Matrix: (Units=GPa)
#
#
# Indices 1 2 3 4 5 6 
#
# 1 66.7475 42.5992 60.6248 0.0000 -10.8424 0.0000
# 2 42.5992 65.4366 58.8741 0.0000 -5.5024 0.0000
# 3 60.6248 58.8741 145.0641 0.0000 1.6163 0.0000
# 4 0.0000 0.0000 0.0000 32.4528 0.0000 -4.1089
# 5 -10.8424 -5.5024 1.6163 0.0000 27.5683 0.0000
# 6 0.0000 0.0000 0.0000 -4.1089 0.0000 22.9720
#
#
#
# Elastic Compliance Matrix: (Units=1/GPa)
#
#
# Indices 1 2 3 4 5 6 
#
# 1 0.032599 -0.012515 -0.008665 0.000000 0.010831 0.000000
# 2 -0.012515 0.029701 -0.006840 0.000000 0.001407 0.000000
# 3 -0.008665 -0.006840 0.013353 0.000000 -0.005556 0.000000
# 4 0.000000 0.000000 0.000000 0.031528 0.000000 0.005639
# 5 0.010831 0.001407 -0.005556 0.000000 0.041140 0.000000
# 6 0.000000 0.000000 0.000000 0.005639 0.000000 0.044540
#
#
# Mechanical properties :
#
#
# Convention : Reuss Voigt Hill
#
# Bulk Modulus (GPa) = 50.98623 66.82715 58.90669
# Shear Modulus (GPa) = 19.57430 24.27530 21.92480
#
# Velocity S-wave (km/s) = 3.41057 3.79810 3.60954
# Velocity P-wave (km/s) = 6.76815 7.67763 7.23719
#
# Compressibility (1/GPa) = 0.01961314
#
# Stress axis : x y z
#
# Youngs Moduli (GPa) = 30.67620 33.66871 74.89200
#
# Poissons Ratio (x) = 0.42136 0.64894
# Poissons Ratio (y) = 0.38391 0.51224
# Poissons Ratio (z) = 0.26581 0.23028
#
# Static dielectric constant tensor:
#      x y z
#    x 1.550130 0.000000 0.017130 
#    y 0.000000 1.561100 0.000000 
#    z 0.017130 0.000000 1.550370 
# 
# From -- ./inp_files/288461.got.cif
#   From: 2010.05.17/outbox.cif.g08.bks.cpg/sg12_145_cif.got.tgz:288461.got - 2010.06.03 13:09:07.
