data_PCOD9181241
_publ_section_title
;
Structure prediction by ZEFSAII (Michael W. Deem and Ramdas Pophale) SiO2 
 PCOD9181241
Probable space group: C 2/M
;
_chemical_formula_sum "Si O2"
_cell_formula_units_Z 56
_cell_length_a 13.363711
_cell_length_b 14.882641
_cell_length_c 18.457854
_cell_angle_alpha 90.000000
_cell_angle_beta 136.057566
_cell_angle_gamma 90.000000
_cell_volume 2547.459334
_symmetry_space_group_name_H-M "C 2/M"
_symmetry_group_IT_number 12
_symmetry_cell_setting 'monoclinic'
loop_
_space_group_symop_operation_xyz
x,y,z
-x,y,-z
-x,-y,-z
x,-y,z
1/2+x,1/2+y,z
1/2-x,1/2+y,-z
1/2-x,1/2-y,-z
1/2+x,1/2-y,z
loop_
_atom_site_type_symbol
_atom_site_label
_atom_site_fract_x
_atom_site_fract_y
_atom_site_fract_z
Si Si1 0.509713 0.894590 0.091795
Si Si2 0.881519 0.896906 0.582270
Si Si3 0.878023 0.899136 0.741264
Si Si4 0.861801 0.396903 0.638000
Si Si5 0.063183 0.265338 0.835215
Si Si6 0.930001 0.640126 0.384981
Si Si7 0.824743 0.814631 0.253201
O O1 0.397246 0.830995 0.077254
O O2 0.669728 0.854521 0.188841
O O3 0.495155 0.000000 0.103958
O O4 0.500000 0.889029 0.000000
O O5 0.839049 0.863680 0.639874
O O6 0.793236 0.857972 0.468853
O O7 0.052631 0.889736 0.674463
O O8 0.836759 0.000000 0.556454
O O9 0.987344 0.824427 0.826941
O O10 0.726674 0.904777 0.702325
O O11 0.940197 0.000000 0.768388
O O12 0.852275 0.500000 0.661082
O O13 0.947235 0.329450 0.733850
O O14 0.957687 0.396177 0.614958
O O15 0.164618 0.230261 0.822081
O O16 0.886285 0.741144 0.340827
O O17 0.000000 0.630087 0.500000
#
# Coordination Sequence:
#
# PCOD9181241 Si02
#       7
#     8   8   8   8   8   8   8
#     4  11  24  44  69  92 114 147 195 251 313 373
#     4   9  18  31  49  78 116 155 194 232 273 333
#     4  10  19  32  52  78 113 157 196 233 272 328
#     4  10  20  32  51  81 119 160 195 235 283 334
#     4  10  22  39  60  87 121 153 194 248 294 351
#     4  11  20  30  52  81 119 160 201 233 274 335
#     4  10  22  36  59  87 116 157 197 241 293 353
#
# _framework density 21.982686999999999
#
# number of rings (size 3 to 8) (size 9 to 14) (size 15 to 20)
#    0.000    1.857    2.857    1.286    2.000    3.429 
#    0.000    0.000    0.000    3.857    0.000    0.000 
#    0.000    0.000    0.000    0.000    0.000    0.000 
#
# Total GULP energy -156085.583339 kJ/mol
# GULP energy per Si atom -5574.485119 kJ/mol
# Density = 2.193265 g / cm^3
# Si number density = 21.982687 Si / 1000 Ang^3
#
#
#
# Elastic Constant Matrix: (Units=GPa)
#
#
# Indices 1 2 3 4 5 6 
#
# 1 66.4939 10.5682 1.8882 0.0000 -5.7530 0.0000
# 2 10.5682 120.7077 1.5243 0.0000 -10.9632 0.0000
# 3 1.8882 1.5243 22.4452 0.0000 -15.1498 0.0000
# 4 0.0000 0.0000 0.0000 25.8419 0.0000 -6.3270
# 5 -5.7530 -10.9632 -15.1498 0.0000 30.0257 0.0000
# 6 0.0000 0.0000 0.0000 -6.3270 0.0000 21.5545
#
#
#
# Elastic Compliance Matrix: (Units=1/GPa)
#
#
# Indices 1 2 3 4 5 6 
#
# 1 0.015446 -0.001095 0.000762 0.000000 0.002945 0.000000
# 2 -0.001095 0.008727 0.002288 0.000000 0.004131 0.000000
# 3 0.000762 0.002288 0.068234 0.000000 0.035410 0.000000
# 4 0.000000 0.000000 0.000000 0.041693 0.000000 0.012238
# 5 0.002945 0.004131 0.035410 0.000000 0.053244 0.000000
# 6 0.000000 0.000000 0.000000 0.012238 0.000000 0.049986
#
#
# Mechanical properties :
#
#
# Convention : Reuss Voigt Hill
#
# Bulk Modulus (GPa) = 10.38229 26.40091 18.39160
# Shear Modulus (GPa) = 18.83064 28.52882 23.67973
#
# Velocity S-wave (km/s) = 2.92997 3.60639 3.28563
# Velocity P-wave (km/s) = 4.02237 5.42008 4.77267
#
# Compressibility (1/GPa) = 0.09631784
#
# Stress axis : x y z
#
# Youngs Moduli (GPa) = 64.74147 114.59221 14.65545
#
# Poissons Ratio (x) = 0.12542 -0.01117
# Poissons Ratio (y) = 0.07086 -0.03353
# Poissons Ratio (z) = -0.04936 -0.26215
#
# Static dielectric constant tensor:
#      x y z
#    x 1.858880 0.000000 -0.020310 
#    y 0.000000 1.904580 0.000000 
#    z -0.020310 0.000000 1.885670 
# 
# From -- ./inp_files/310846.got.cif
#   From: 2010.05.17/outbox.cif.g08.bks.cpg/sg12_156_cif.got.tgz:310846.got - 2010.06.03 13:09:07.
