data_PCOD9181178
_publ_section_title
;
Structure prediction by ZEFSAII (Michael W. Deem and Ramdas Pophale) SiO2 
 PCOD9181178
Probable space group: C 2/M
;
_chemical_formula_sum "Si O2"
_cell_formula_units_Z 56
_cell_length_a 20.367169
_cell_length_b 8.891079
_cell_length_c 19.468447
_cell_angle_alpha 90.000000
_cell_angle_beta 57.606285
_cell_angle_gamma 90.000000
_cell_volume 2976.856008
_symmetry_space_group_name_H-M "C 2/M"
_symmetry_group_IT_number 12
_symmetry_cell_setting 'monoclinic'
loop_
_space_group_symop_operation_xyz
x,y,z
-x,y,-z
-x,-y,-z
x,-y,z
1/2+x,1/2+y,z
1/2-x,1/2+y,-z
1/2-x,1/2-y,-z
1/2+x,1/2-y,z
loop_
_atom_site_type_symbol
_atom_site_label
_atom_site_fract_x
_atom_site_fract_y
_atom_site_fract_z
Si Si1 0.347533 0.670401 0.876421
Si Si2 0.161003 0.668699 0.983455
Si Si3 0.237598 0.179632 0.432537
Si Si4 0.832052 0.677793 0.740899
Si Si5 0.076002 0.822910 0.915630
Si Si6 0.818628 0.680464 0.248203
Si Si7 0.088136 0.823400 0.426603
O O1 0.378661 0.500000 0.860887
O O2 0.253969 0.659691 0.937360
O O3 0.358635 0.749942 0.797538
O O4 0.374332 0.769335 0.925920
O O5 0.133083 0.500000 0.982267
O O6 0.142172 0.785511 0.934296
O O7 0.250000 0.250000 0.500000
O O8 0.298804 0.225119 0.338017
O O9 0.152212 0.213710 0.448889
O O10 0.243253 0.000000 0.436066
O O11 0.820013 0.500000 0.754653
O O12 0.753384 0.755510 0.756272
O O13 0.894518 0.718861 0.647769
O O14 0.103125 0.742742 0.830645
O O15 0.068332 0.000000 0.907517
O O16 0.000000 0.769080 0.000000
O O17 0.817705 0.500000 0.244369
O O18 0.000000 0.808919 0.500000
O O19 0.102029 0.000000 0.400054
#
# Coordination Sequence:
#
# PCOD9181178 Si02
#       7
#     8   8   8   8   8   8   8
#     4  10  19  32  52  77 106 137 173 220 266 318
#     4  10  20  33  52  76 104 138 175 220 269 316
#     4   9  19  35  58  86 112 141 183 230 280 337
#     4  11  20  31  53  82 111 141 178 226 274 328
#     4  11  23  37  54  78 109 146 187 231 278 330
#     4  10  20  36  56  79 106 143 190 232 273 328
#     4   9  19  37  58  80 110 148 187 228 278 336
#
# _framework density 18.811793999999999
#
# number of rings (size 3 to 8) (size 9 to 14) (size 15 to 20)
#    0.000    2.000    1.429    3.857    0.000    5.429 
#    0.000    1.429    0.000    5.143    0.000    0.000 
#    0.000    0.000    0.000    0.000    0.000    0.000 
#
# Total GULP energy -156160.604989 kJ/mol
# GULP energy per Si atom -5577.164464 kJ/mol
# Density = 1.876898 g / cm^3
# Si number density = 18.811794 Si / 1000 Ang^3
#
#
#
# Elastic Constant Matrix: (Units=GPa)
#
#
# Indices 1 2 3 4 5 6 
#
# 1 21.3676 9.6492 42.1794 0.0000 1.7177 -0.0001
# 2 9.6492 59.9831 46.7732 0.0001 -4.2604 -0.0005
# 3 42.1794 46.7732 153.6280 0.0000 13.0500 0.0000
# 4 0.0000 0.0001 0.0000 29.5317 0.0000 -2.7927
# 5 1.7177 -4.2604 13.0500 0.0000 32.4223 0.0000
# 6 -0.0001 -0.0005 0.0000 -2.7927 0.0000 13.3830
#
#
#
# Elastic Compliance Matrix: (Units=1/GPa)
#
#
# Indices 1 2 3 4 5 6 
#
# 1 0.106785 0.009025 -0.032808 0.000000 0.008734 0.000001
# 2 0.009025 0.023710 -0.010272 0.000000 0.006772 0.000001
# 3 -0.032808 -0.010272 0.019270 0.000000 -0.007368 -0.000001
# 4 0.000000 0.000000 0.000000 0.034544 0.000000 0.007208
# 5 0.008734 0.006772 -0.007368 0.000000 0.034236 0.000000
# 6 0.000001 0.000001 -0.000001 0.007208 0.000000 0.076226
#
#
# Mechanical properties :
#
#
# Convention : Reuss Voigt Hill
#
# Bulk Modulus (GPa) = 12.24649 48.02025 30.13337
# Shear Modulus (GPa) = 12.81724 24.15919 18.48822
#
# Velocity S-wave (km/s) = 2.61308 3.58754 3.13836
# Velocity P-wave (km/s) = 3.95328 6.53779 5.40237
#
# Compressibility (1/GPa) = 0.08165605
#
# Stress axis : x y z
#
# Youngs Moduli (GPa) = 9.36459 42.17570 51.89371
#
# Poissons Ratio (x) = -0.38065 1.70254
# Poissons Ratio (y) = -0.08452 0.53305
# Poissons Ratio (z) = 0.30724 0.43323
#
# Static dielectric constant tensor:
#      x y z
#    x 1.673860 0.000000 -0.024070 
#    y 0.000000 1.649870 0.000000 
#    z -0.024070 0.000000 1.677710 
# 
# From -- ./inp_files/280860.got.cif
#   From: 2010.05.17/outbox.cif.g08.bks.cpg/sg12_141_cif.got.tgz:280860.got - 2010.06.03 13:09:07.
