data_PCOD9181750
_publ_section_title
;
Structure prediction by ZEFSAII (Michael W. Deem and Ramdas Pophale) SiO2 
 PCOD9181750
Probable space group: C 2/M
;
_chemical_formula_sum "Si O2"
_cell_formula_units_Z 48
_cell_length_a 19.083925
_cell_length_b 7.752177
_cell_length_c 16.105908
_cell_angle_alpha 90.000000
_cell_angle_beta 89.527082
_cell_angle_gamma 90.000000
_cell_volume 2382.658504
_symmetry_space_group_name_H-M "C 2/M"
_symmetry_group_IT_number 12
_symmetry_cell_setting 'monoclinic'
loop_
_space_group_symop_operation_xyz
x,y,z
-x,y,-z
-x,-y,-z
x,-y,z
1/2+x,1/2+y,z
1/2-x,1/2+y,-z
1/2-x,1/2-y,-z
1/2+x,1/2-y,z
loop_
_atom_site_type_symbol
_atom_site_label
_atom_site_fract_x
_atom_site_fract_y
_atom_site_fract_z
Si Si1 0.710947 0.704275 0.260843
Si Si2 0.796032 0.792569 0.920534
Si Si3 0.955328 0.791749 0.922534
Si Si4 0.952133 0.705060 0.736838
Si Si5 0.456009 0.211162 0.419558
Si Si6 0.204861 0.708063 0.581458
O O1 0.725115 0.500000 0.259498
O O2 0.729749 0.773479 0.168982
O O3 0.627108 0.725333 0.271705
O O4 0.754646 0.776155 0.337447
O O5 0.875421 0.729367 0.931164
O O6 0.799294 0.000000 0.914381
O O7 0.750000 0.750000 0.000000
O O8 0.979042 0.744587 0.829399
O O9 0.955057 0.000000 0.926184
O O10 0.000000 0.727672 0.000000
O O11 0.946579 0.500000 0.728517
O O12 0.003545 0.768190 0.663967
O O13 0.500000 0.264520 0.500000
O O14 0.375393 0.269567 0.423392
O O15 0.455191 0.000000 0.419242
O O16 0.201817 0.500000 0.586890
O O17 0.250000 0.750000 0.500000
#
# Coordination Sequence:
#
# PCOD9181750 Si02
#       6
#     8   8   8   8   8   8
#     4   9  19  35  52  71 101 138 168 201 253 307
#     4   9  18  32  50  72  98 131 168 206 251 298
#     4   9  19  36  54  72 101 139 170 202 252 304
#     4  10  19  32  54  79 100 129 170 212 250 292
#     4   9  18  32  50  74 104 134 163 202 254 302
#     4  10  20  35  54  75 101 134 170 207 249 299
#
# _framework density 20.145565000000001
#
# number of rings (size 3 to 8) (size 9 to 14) (size 15 to 20)
#    0.000    2.667    0.000    2.500    0.000    6.333 
#    0.000    3.333    0.000    4.500    0.000    0.000 
#    0.000    0.000    0.000    0.000    0.000    0.000 
#
# Total GULP energy -133903.330848 kJ/mol
# GULP energy per Si atom -5579.305452 kJ/mol
# Density = 2.009971 g / cm^3
# Si number density = 20.145565 Si / 1000 Ang^3
#
#
#
# Elastic Constant Matrix: (Units=GPa)
#
#
# Indices 1 2 3 4 5 6 
#
# 1 122.8997 -1.8345 132.6457 0.0000 1.4660 0.0000
# 2 -1.8345 25.2542 3.3799 0.0000 4.5651 0.0000
# 3 132.6457 3.3799 245.2530 0.0000 2.9777 0.0000
# 4 0.0000 0.0000 0.0000 22.2796 0.0000 -7.1675
# 5 1.4660 4.5651 2.9777 0.0000 44.3547 0.0000
# 6 0.0000 0.0000 0.0000 -7.1675 0.0000 -0.6976
#
#
#
# Elastic Compliance Matrix: (Units=1/GPa)
#
#
# Indices 1 2 3 4 5 6 
#
# 1 0.019755 0.002912 -0.010722 0.000000 -0.000233 0.000000
# 2 0.002912 0.040840 -0.002087 0.000000 -0.004160 0.000000
# 3 -0.010722 -0.002087 0.009906 0.000000 -0.000096 0.000000
# 4 0.000000 0.000000 0.000000 0.010426 0.000000 -0.107112
# 5 -0.000233 -0.004160 -0.000096 0.000000 0.022988 0.000000
# 6 0.000000 0.000000 0.000000 -0.107112 0.000000 -0.332948
#
#
# Mechanical properties :
#
#
# Convention : Reuss Voigt Hill
#
# Bulk Modulus (GPa) = 19.72103 73.53213 46.62658
# Shear Modulus (GPa) = -25.99620 30.46836 2.23608
#
# Velocity S-wave (km/s) = -3.59614 3.89319 1.05469
# Velocity P-wave (km/s) = 2.72624 7.53584 4.96772
#
# Compressibility (1/GPa) = 0.05070729
#
# Stress axis : x y z
#
# Youngs Moduli (GPa) = 50.61969 24.48570 100.94545
#
# Poissons Ratio (x) = -0.07130 1.08233
# Poissons Ratio (y) = -0.14741 0.21071
# Poissons Ratio (z) = 0.54274 0.05111
#
# Static dielectric constant tensor:
#      x y z
#    x 1.683900 0.000000 0.014040 
#    y 0.000000 1.732060 0.000000 
#    z 0.014040 0.000000 1.717500 
# 
# From -- ./inp_files/229281.got.cif
#   From: 2010.05.17/outbox.cif.g08.bks.cpg/sg12_115_cif.got.tgz:229281.got - 2010.06.03 13:09:07.
