data_PCOD9181362
_publ_section_title
;
Structure prediction by ZEFSAII (Michael W. Deem and Ramdas Pophale) SiO2 
 PCOD9181362
Probable space group: C 2/M
;
_chemical_formula_sum "Si O2"
_cell_formula_units_Z 64
_cell_length_a 16.999324
_cell_length_b 16.877343
_cell_length_c 15.413331
_cell_angle_alpha 90.000000
_cell_angle_beta 40.880810
_cell_angle_gamma 90.000000
_cell_volume 2894.234187
_symmetry_space_group_name_H-M "C 2/M"
_symmetry_group_IT_number 12
_symmetry_cell_setting 'monoclinic'
loop_
_space_group_symop_operation_xyz
x,y,z
-x,y,-z
-x,-y,-z
x,-y,z
1/2+x,1/2+y,z
1/2-x,1/2+y,-z
1/2-x,1/2-y,-z
1/2+x,1/2-y,z
loop_
_atom_site_type_symbol
_atom_site_label
_atom_site_fract_x
_atom_site_fract_y
_atom_site_fract_z
Si Si1 0.712310 0.095956 0.655442
Si Si2 0.749839 0.373473 0.863423
Si Si3 0.375532 0.313280 0.642793
Si Si4 0.683027 0.405864 0.608786
Si Si5 0.134537 0.372347 0.401413
Si Si6 0.500249 0.409403 0.901025
Si Si7 0.065475 0.594511 0.144549
Si Si8 0.742459 0.207006 0.912302
O O1 0.764520 0.137897 0.696367
O O2 0.796335 0.124411 0.505268
O O3 0.573826 0.116444 0.750106
O O4 0.718584 0.000000 0.657017
O O5 0.778582 0.406985 0.745398
O O6 0.872638 0.379850 0.815881
O O7 0.705356 0.283315 0.887709
O O8 0.640310 0.411217 0.006688
O O9 0.500000 0.345830 0.500000
O O10 0.369273 0.222328 0.613609
O O11 0.361269 0.317726 0.759566
O O12 0.660580 0.500000 0.618537
O O13 0.808193 0.392947 0.555001
O O14 0.581109 0.371319 0.758271
O O15 0.000000 0.401941 0.500000
O O16 0.542316 0.500000 0.874231
O O17 0.500000 0.377346 0.000000
O O18 0.075268 0.500000 0.130389
O O19 0.147127 0.638099 0.004671
O O20 0.750000 0.250000 0.000000
#
# Coordination Sequence:
#
# PCOD9181362 Si02
#       8
#     8   8   8   8   8   8   8   8
#     4  10  23  41  59  86 121 157 204 251 295 358
#     4  10  19  35  58  84 119 156 196 247 305 358
#     4  10  23  42  63  87 118 154 196 248 306 364
#     4  10  21  36  54  83 123 161 199 247 299 353
#     4  10  20  35  57  85 116 152 198 244 298 364
#     4  10  19  32  52  83 120 156 203 252 298 361
#     4  10  21  38  60  86 118 157 201 249 302 354
#     4   9  21  40  62  89 119 150 195 253 296 356
#
# _framework density 22.112929999999999
#
# number of rings (size 3 to 8) (size 9 to 14) (size 15 to 20)
#    0.000    2.125    1.250    1.125    0.000    6.500 
#    0.000    2.500    0.000    0.000    0.000    0.000 
#    0.000    0.000    0.000    0.000    0.000    0.000 
#
# Total GULP energy -178318.173503 kJ/mol
# GULP energy per Si atom -5572.442922 kJ/mol
# Density = 2.206260 g / cm^3
# Si number density = 22.112930 Si / 1000 Ang^3
#
#
#
# Elastic Constant Matrix: (Units=GPa)
#
#
# Indices 1 2 3 4 5 6 
#
# 1 69.7905 -0.9373 22.3597 0.0000 -7.3212 0.0000
# 2 -0.9373 36.8580 10.0917 0.0000 -3.0770 0.0000
# 3 22.3597 10.0917 125.6529 0.0000 2.9655 0.0000
# 4 0.0000 0.0000 0.0000 13.0754 0.0000 -7.1325
# 5 -7.3212 -3.0770 2.9655 0.0000 34.6182 0.0000
# 6 0.0000 0.0000 0.0000 -7.1325 0.0000 19.8351
#
#
#
# Elastic Compliance Matrix: (Units=1/GPa)
#
#
# Indices 1 2 3 4 5 6 
#
# 1 0.015701 0.001532 -0.003005 0.000000 0.003714 0.000000
# 2 0.001532 0.028138 -0.002604 0.000000 0.003048 0.000000
# 3 -0.003005 -0.002604 0.008740 0.000000 -0.001616 0.000000
# 4 0.000000 0.000000 0.000000 0.095141 0.000000 0.034212
# 5 0.003714 0.003048 -0.001616 0.000000 0.030081 0.000000
# 6 0.000000 0.000000 0.000000 0.034212 0.000000 0.062718
#
#
# Mechanical properties :
#
#
# Convention : Reuss Voigt Hill
#
# Bulk Modulus (GPa) = 22.50970 32.81442 27.66206
# Shear Modulus (GPa) = 18.97658 26.89157 22.93407
#
# Velocity S-wave (km/s) = 2.93263 3.49105 3.22395
# Velocity P-wave (km/s) = 4.65495 5.57867 5.13761
#
# Compressibility (1/GPa) = 0.04442529
#
# Stress axis : x y z
#
# Youngs Moduli (GPa) = 63.68830 35.53960 114.41098
#
# Poissons Ratio (x) = -0.05445 0.34378
# Poissons Ratio (y) = -0.09757 0.29797
# Poissons Ratio (z) = 0.19137 0.09256
#
# Static dielectric constant tensor:
#      x y z
#    x 1.849360 0.000000 0.007670 
#    y 0.000000 1.840040 0.000000 
#    z 0.007670 0.000000 1.921380 
# 
# From -- ./inp_files/226827.got.cif
#   From: 2010.05.17/outbox.cif.g08.bks.cpg/sg12_114_cif.got.tgz:226827.got - 2010.06.03 13:09:07.
