data_PCOD9181954
_publ_section_title
;
Structure prediction by ZEFSAII (Michael W. Deem and Ramdas Pophale) SiO2 
 PCOD9181954
Probable space group: C 2/M
;
_chemical_formula_sum "Si O2"
_cell_formula_units_Z 52
_cell_length_a 20.142470
_cell_length_b 7.274403
_cell_length_c 13.352102
_cell_angle_alpha 90.000000
_cell_angle_beta 71.496635
_cell_angle_gamma 90.000000
_cell_volume 1855.272780
_symmetry_space_group_name_H-M "C 2/M"
_symmetry_group_IT_number 12
_symmetry_cell_setting 'monoclinic'
loop_
_space_group_symop_operation_xyz
x,y,z
-x,y,-z
-x,-y,-z
x,-y,z
1/2+x,1/2+y,z
1/2-x,1/2+y,-z
1/2-x,1/2-y,-z
1/2+x,1/2-y,z
loop_
_atom_site_type_symbol
_atom_site_label
_atom_site_fract_x
_atom_site_fract_y
_atom_site_fract_z
Si Si1 0.956615 0.221439 0.427603
Si Si2 0.925334 0.284512 0.128078
Si Si3 0.297878 0.788705 0.675681
Si Si4 0.086656 0.287565 0.243000
Si Si5 0.553345 0.500000 0.104365
Si Si6 0.331240 0.721602 0.370609
Si Si7 0.707716 0.217860 0.917786
O O1 0.877891 0.283456 0.442195
O O2 0.000000 0.295563 0.500000
O O3 0.005495 0.273052 0.310905
O O4 0.955069 0.000000 0.433482
O O5 0.942155 0.500000 0.105376
O O6 0.878187 0.268606 0.250985
O O7 0.871142 0.208395 0.068404
O O8 0.993313 0.159730 0.105093
O O9 0.371765 0.713911 0.678440
O O10 0.246175 0.705782 0.617242
O O11 0.254249 0.782938 0.801400
O O12 0.309220 0.000000 0.644671
O O13 0.104760 0.500000 0.215657
O O14 0.099093 0.158336 0.144431
O O15 0.326912 0.500000 0.375961
O O16 0.699666 0.000000 0.911712
O O17 0.750000 0.250000 0.000000
#
# Coordination Sequence:
#
# PCOD9181954 Si02
#       7
#     8   8   8   8   4   8   8
#     4  10  19  33  56  85 115 151 192 237 286 338
#     4  10  19  32  54  86 109 145 195 233 277 328
#     4   9  20  35  57  82 113 150 192 236 284 340
#     4  11  22  37  57  85 115 150 191 237 287 341
#     4  12  20  34  59  81 116 148 187 243 274 342
#     4   9  15  32  54  79 110 149 188 232 279 331
#     4  10  21  34  58  88 119 150 189 239 282 338
#
# _framework density 28.028224999999999
#
# number of rings (size 3 to 8) (size 9 to 14) (size 15 to 20)
#    0.000    2.000    3.077    0.923    3.231    0.308 
#    0.000    0.769    0.000    1.846    0.000    4.308 
#    0.000    0.000    0.000    0.000    0.000    0.000 
#
# Total GULP energy -145143.242741 kJ/mol
# GULP energy per Si atom -5582.432413 kJ/mol
# Density = 2.796443 g / cm^3
# Si number density = 28.028225 Si / 1000 Ang^3
#
#
#
# Elastic Constant Matrix: (Units=GPa)
#
#
# Indices 1 2 3 4 5 6 
#
# 1 234.7691 21.0392 41.9045 0.0000 53.3316 0.0000
# 2 21.0392 176.5798 14.1482 0.0000 38.7152 0.0000
# 3 41.9045 14.1482 103.4291 0.0000 33.0376 0.0000
# 4 0.0000 0.0000 0.0000 39.9425 0.0000 0.1163
# 5 53.3316 38.7152 33.0376 0.0000 62.8729 0.0000
# 6 0.0000 0.0000 0.0000 0.1163 0.0000 50.9246
#
#
#
# Elastic Compliance Matrix: (Units=1/GPa)
#
#
# Indices 1 2 3 4 5 6 
#
# 1 0.005361 0.000380 -0.000837 0.000000 -0.004342 0.000000
# 2 0.000380 0.006593 0.000413 0.000000 -0.004600 0.000000
# 3 -0.000837 0.000413 0.011783 0.000000 -0.005736 0.000000
# 4 0.000000 0.000000 0.000000 0.025036 0.000000 -0.000057
# 5 -0.004342 -0.004600 -0.005736 0.000000 0.025434 0.000000
# 6 0.000000 0.000000 0.000000 -0.000057 0.000000 0.019637
#
#
# Mechanical properties :
#
#
# Convention : Reuss Voigt Hill
#
# Bulk Modulus (GPa) = 42.28276 74.32910 58.30593
# Shear Modulus (GPa) = 49.10810 59.92708 54.51759
#
# Velocity S-wave (km/s) = 4.19034 4.62897 4.41511
# Velocity P-wave (km/s) = 6.20729 7.42609 6.84388
#
# Compressibility (1/GPa) = 0.02365030
#
# Stress axis : x y z
#
# Youngs Moduli (GPa) = 186.52617 151.67132 84.86538
#
# Poissons Ratio (x) = -0.05767 0.07105
# Poissons Ratio (y) = -0.07093 -0.03507
# Poissons Ratio (z) = 0.15617 -0.06268
#
# Static dielectric constant tensor:
#      x y z
#    x 2.227280 0.000000 0.009930 
#    y 0.000000 2.031890 0.000000 
#    z 0.009930 0.000000 2.325580 
# 
# From -- ./inp_files/230207.got.cif
#   From: 2010.05.17/outbox.cif.g08.bks.cpg/sg12_116_cif.got.tgz:230207.got - 2010.06.03 13:09:07.
