data_PCOD9181162
_publ_section_title
;
Structure prediction by ZEFSAII (Michael W. Deem and Ramdas Pophale) SiO2 
 PCOD9181162
Probable space group: C 2/M
;
_chemical_formula_sum "Si O2"
_cell_formula_units_Z 64
_cell_length_a 25.303505
_cell_length_b 8.451910
_cell_length_c 20.767573
_cell_angle_alpha 90.000000
_cell_angle_beta 126.103843
_cell_angle_gamma 90.000000
_cell_volume 3588.442346
_symmetry_space_group_name_H-M "C 2/M"
_symmetry_group_IT_number 12
_symmetry_cell_setting 'monoclinic'
loop_
_space_group_symop_operation_xyz
x,y,z
-x,y,-z
-x,-y,-z
x,-y,z
1/2+x,1/2+y,z
1/2-x,1/2+y,-z
1/2-x,1/2-y,-z
1/2+x,1/2-y,z
loop_
_atom_site_type_symbol
_atom_site_label
_atom_site_fract_x
_atom_site_fract_y
_atom_site_fract_z
Si Si1 0.073044 0.808836 0.030540
Si Si2 0.588439 0.808545 0.261856
Si Si3 0.408655 0.810913 0.236121
Si Si4 0.176285 0.309094 0.208745
Si Si5 0.943958 0.690624 0.621071
Si Si6 0.556138 0.310502 0.874298
Si Si7 0.928045 0.809388 0.470215
Si Si8 0.323447 0.691270 0.289149
O O1 0.127078 0.742049 0.117209
O O2 0.075257 0.000000 0.035301
O O3 0.082446 0.760204 0.962982
O O4 0.000000 0.760054 0.000000
O O5 0.645163 0.755271 0.254332
O O6 0.592901 0.760042 0.339856
O O7 0.518731 0.747534 0.186071
O O8 0.585931 0.000000 0.259181
O O9 0.480065 0.758868 0.314675
O O10 0.405998 0.754586 0.160529
O O11 0.352990 0.745129 0.242473
O O12 0.407691 0.000000 0.236571
O O13 0.178101 0.500000 0.211648
O O14 0.249818 0.252165 0.248913
O O15 0.943148 0.500000 0.617157
O O16 0.916934 0.757853 0.535436
O O17 0.556357 0.500000 0.872056
O O18 0.873061 0.753557 0.380797
O O19 0.000000 0.751984 0.500000
O O20 0.928906 0.000000 0.468543
O O21 0.323161 0.500000 0.289964
#
# Coordination Sequence:
#
# PCOD9181162 Si02
#       8
#     8   8   8   8   8   8   8   8
#     4  10  20  35  54  81 111 137 174 221 265 311
#     4   9  18  33  51  77 108 139 174 214 264 313
#     4  10  20  34  53  79 108 139 175 219 266 315
#     4  10  21  36  56  78 107 145 179 218 263 315
#     4   9  18  31  50  76 105 133 170 218 263 311
#     4  10  19  32  54  80 107 138 171 217 266 310
#     4  10  19  32  52  77 104 137 176 220 264 311
#     4  10  21  37  54  77 108 142 181 219 264 318
#
# _framework density 17.835037
#
# number of rings (size 3 to 8) (size 9 to 14) (size 15 to 20)
#    0.000    2.250    2.500    1.500    0.000    4.500 
#    0.000    1.250    0.000    0.000    0.000    0.000 
#    0.000    0.000    0.000    0.000    0.000    0.000 
#
# Total GULP energy -178520.521640 kJ/mol
# GULP energy per Si atom -5578.766301 kJ/mol
# Density = 1.779444 g / cm^3
# Si number density = 17.835037 Si / 1000 Ang^3
#
#
#
# Elastic Constant Matrix: (Units=GPa)
#
#
# Indices 1 2 3 4 5 6 
#
# 1 179.1436 22.4332 95.7429 0.0000 -13.2843 0.0000
# 2 22.4332 5.6273 14.5119 0.0001 -0.3576 0.0002
# 3 95.7429 14.5119 116.1989 0.0000 -11.5620 0.0000
# 4 0.0000 0.0001 0.0000 66.1016 0.0000 47.9941
# 5 -13.2843 -0.3576 -11.5620 0.0000 29.8626 0.0000
# 6 0.0000 0.0002 0.0000 47.9941 0.0000 93.8596
#
#
#
# Elastic Compliance Matrix: (Units=1/GPa)
#
#
# Indices 1 2 3 4 5 6 
#
# 1 0.014308 -0.040258 -0.006424 0.000000 0.003396 0.000000
# 2 -0.040258 0.378252 -0.016017 0.000000 -0.019581 0.000000
# 3 -0.006424 -0.016017 0.016221 0.000000 0.003231 0.000000
# 4 0.000000 0.000000 0.000000 0.024061 0.000000 -0.012304
# 5 0.003396 -0.019581 0.003231 0.000000 0.036014 0.000000
# 6 0.000000 0.000000 0.000000 -0.012304 0.000000 0.016945
#
#
# Mechanical properties :
#
#
# Convention : Reuss Voigt Hill
#
# Bulk Modulus (GPa) = 3.52879 62.92732 33.22805
# Shear Modulus (GPa) = 7.08556 49.18357 28.13457
#
# Velocity S-wave (km/s) = 1.99536 5.25707 3.97607
# Velocity P-wave (km/s) = 2.70027 8.49757 6.30476
#
# Compressibility (1/GPa) = 0.28338329
#
# Stress axis : x y z
#
# Youngs Moduli (GPa) = 69.88859 2.64374 61.64978
#
# Poissons Ratio (x) = 0.10643 0.39603
# Poissons Ratio (y) = 2.81361 0.98742
# Poissons Ratio (z) = 0.44895 0.04234
#
# Static dielectric constant tensor:
#      x y z
#    x 1.615530 0.000000 -0.013950 
#    y 0.000000 1.613100 0.000000 
#    z -0.013950 0.000000 1.590590 
# 
# From -- ./inp_files/324345.got.cif
#   From: 2010.05.17/outbox.cif.g08.bks.cpg/sg12_163_cif.got.tgz:324345.got - 2010.06.03 13:09:07.
