data_PCOD9181730
_publ_section_title
;
Structure prediction by ZEFSAII (Michael W. Deem and Ramdas Pophale) SiO2 
 PCOD9181730
Probable space group: C 2/M
;
_chemical_formula_sum "Si O2"
_cell_formula_units_Z 60
_cell_length_a 12.199687
_cell_length_b 18.880316
_cell_length_c 13.258548
_cell_angle_alpha 90.000000
_cell_angle_beta 92.417000
_cell_angle_gamma 90.000000
_cell_volume 3051.176813
_symmetry_space_group_name_H-M "C 2/M"
_symmetry_group_IT_number 12
_symmetry_cell_setting 'monoclinic'
loop_
_space_group_symop_operation_xyz
x,y,z
-x,y,-z
-x,-y,-z
x,-y,z
1/2+x,1/2+y,z
1/2-x,1/2+y,-z
1/2-x,1/2-y,-z
1/2+x,1/2-y,z
loop_
_atom_site_type_symbol
_atom_site_label
_atom_site_fract_x
_atom_site_fract_y
_atom_site_fract_z
Si Si1 0.937203 0.351861 0.319038
Si Si2 0.107090 0.881681 0.418269
Si Si3 0.442300 0.582413 0.889786
Si Si4 0.000000 0.247368 0.500000
Si Si5 0.170377 0.663961 0.306629
Si Si6 0.710851 0.678231 0.225772
Si Si7 0.171090 0.576246 0.499804
Si Si8 0.896165 0.081419 0.292006
O O1 0.841351 0.330885 0.238585
O O2 0.892862 0.409744 0.397975
O O3 0.959677 0.286693 0.397567
O O4 0.052019 0.367025 0.268057
O O5 0.163734 0.870945 0.312834
O O6 0.198491 0.925994 0.478486
O O7 0.096691 0.805053 0.468563
O O8 0.984298 0.906695 0.386434
O O9 0.402843 0.500000 0.875231
O O10 0.348916 0.642504 0.871830
O O11 0.534213 0.594599 0.807003
O O12 0.500000 0.587284 0.000000
O O13 0.178723 0.742520 0.260055
O O14 0.155606 0.643589 0.425767
O O15 0.286647 0.627633 0.288596
O O16 0.136124 0.500000 0.455778
O O17 0.862646 0.000000 0.292689
#
# Coordination Sequence:
#
# PCOD9181730 Si02
#       8
#     8   8   8   4   8   8   8   8
#     4  11  22  35  51  78 114 165 206 236 275 324
#     4  10  19  32  54  77 107 146 201 262 288 318
#     4   9  20  43  72  95 111 134 177 235 299 360
#     4  12  18  34  50  74 110 160 208 244 278 322
#     4  12  22  35  53  79 119 160 194 238 283 336
#     4  10  21  35  59  85 116 144 190 236 292 342
#     4  11  22  35  51  76 115 165 215 249 276 317
#     4  10  21  36  56  84 114 148 189 239 301 346
#
# _framework density 19.664542999999998
#
# number of rings (size 3 to 8) (size 9 to 14) (size 15 to 20)
#    0.000    1.467    2.667    3.200    1.867    6.933 
#    0.000    2.667    0.000    0.000    0.000    2.800 
#    0.000    0.000    0.000    0.000    0.000    0.000 
#
# Total GULP energy -167073.996929 kJ/mol
# GULP energy per Si atom -5569.133231 kJ/mol
# Density = 1.961979 g / cm^3
# Si number density = 19.664543 Si / 1000 Ang^3
#
#
#
# Elastic Constant Matrix: (Units=GPa)
#
#
# Indices 1 2 3 4 5 6 
#
# 1 159.6117 53.0728 28.6029 0.0000 15.1461 0.0000
# 2 53.0728 97.1947 29.5296 0.0000 20.5076 0.0000
# 3 28.6029 29.5296 53.5576 0.0000 15.0819 0.0000
# 4 0.0000 0.0000 0.0000 14.4087 0.0000 7.2707
# 5 15.1461 20.5076 15.0819 0.0000 19.0554 0.0000
# 6 0.0000 0.0000 0.0000 7.2707 0.0000 23.5464
#
#
#
# Elastic Compliance Matrix: (Units=1/GPa)
#
#
# Indices 1 2 3 4 5 6 
#
# 1 0.007876 -0.003496 -0.002027 0.000000 -0.000893 0.000000
# 2 -0.003496 0.015661 -0.003608 0.000000 -0.011220 0.000000
# 3 -0.002027 -0.003608 0.025989 0.000000 -0.015075 0.000000
# 4 0.000000 0.000000 0.000000 0.082213 0.000000 -0.025386
# 5 -0.000893 -0.011220 -0.015075 0.000000 0.077195 0.000000
# 6 0.000000 0.000000 0.000000 -0.025386 0.000000 0.050308
#
#
# Mechanical properties :
#
#
# Convention : Reuss Voigt Hill
#
# Bulk Modulus (GPa) = 31.98699 59.19719 45.59209
# Shear Modulus (GPa) = 17.36562 24.67934 21.02248
#
# Velocity S-wave (km/s) = 2.97491 3.54647 3.27319
# Velocity P-wave (km/s) = 5.30111 6.85119 6.12538
#
# Compressibility (1/GPa) = 0.03126271
#
# Stress axis : x y z
#
# Youngs Moduli (GPa) = 126.97237 63.85129 38.47843
#
# Poissons Ratio (x) = 0.22324 0.07799
# Poissons Ratio (y) = 0.44393 0.13884
# Poissons Ratio (z) = 0.25736 0.23040
#
# Static dielectric constant tensor:
#      x y z
#    x 1.778480 0.000000 0.006210 
#    y 0.000000 1.742600 0.000000 
#    z 0.006210 0.000000 1.724220 
# 
# From -- ./inp_files/206192.got.cif
#   From: 2010.05.17/outbox.cif.g08.bks.cpg/sg12_104_cif.got.tgz:206192.got - 2010.06.03 13:09:07.
