data_PCOD9181602
_publ_section_title
;
Structure prediction by ZEFSAII (Michael W. Deem and Ramdas Pophale) SiO2 
 PCOD9181602
Probable space group: C 2/M
;
_chemical_formula_sum "Si O2"
_cell_formula_units_Z 64
_cell_length_a 10.418238
_cell_length_b 26.396992
_cell_length_c 15.106111
_cell_angle_alpha 90.000000
_cell_angle_beta 63.734636
_cell_angle_gamma 90.000000
_cell_volume 3725.415884
_symmetry_space_group_name_H-M "C 2/M"
_symmetry_group_IT_number 12
_symmetry_cell_setting 'monoclinic'
loop_
_space_group_symop_operation_xyz
x,y,z
-x,y,-z
-x,-y,-z
x,-y,z
1/2+x,1/2+y,z
1/2-x,1/2+y,-z
1/2-x,1/2-y,-z
1/2+x,1/2-y,z
loop_
_atom_site_type_symbol
_atom_site_label
_atom_site_fract_x
_atom_site_fract_y
_atom_site_fract_z
Si Si1 0.807884 0.274301 0.392314
Si Si2 0.364941 0.698178 0.212746
Si Si3 0.077048 0.300855 0.885632
Si Si4 0.557363 0.159650 0.256879
Si Si5 0.596117 0.941442 0.707405
Si Si6 0.633994 0.638515 0.193280
Si Si7 0.865640 0.125077 0.603339
Si Si8 0.356040 0.942115 0.094806
O O1 0.750000 0.250000 0.500000
O O2 0.826976 0.230280 0.313403
O O3 0.700824 0.319098 0.394148
O O4 0.960068 0.304051 0.349536
O O5 0.421666 0.741013 0.129155
O O6 0.221542 0.672678 0.220753
O O7 0.492662 0.659460 0.191724
O O8 0.241563 0.319031 0.836929
O O9 0.999554 0.326081 0.824432
O O10 0.000000 0.313854 0.000000
O O11 0.521905 0.100504 0.282074
O O12 0.743027 0.917016 0.625877
O O13 0.612217 0.940055 0.809595
O O14 0.572980 0.000000 0.688827
O O15 0.595699 0.622811 0.305074
O O16 0.719655 0.593146 0.120098
O O17 0.000000 0.117276 0.500000
O O18 0.325957 0.000000 0.079264
O O19 0.500000 0.926535 0.000000
#
# Coordination Sequence:
#
# PCOD9181602 Si02
#       8
#     8   8   8   8   8   8   8   8
#     4  10  20  33  55  78 107 148 186 226 264 314
#     4  11  23  34  50  78 119 146 178 220 272 329
#     4  11  21  37  57  75 107 153 190 222 264 323
#     4  10  21  37  52  82 110 142 188 223 269 335
#     4   9  18  35  56  77 103 137 179 225 270 327
#     4  11  20  36  52  80 110 141 180 228 264 321
#     4  10  19  32  53  81 108 135 178 229 268 311
#     4   9  17  33  59  83  99 132 184 235 279 318
#
# _framework density 17.179289000000001
#
# number of rings (size 3 to 8) (size 9 to 14) (size 15 to 20)
#    0.000    1.875    5.000    2.625    1.750    2.250 
#    0.000    0.625    0.000    0.000    0.000   14.000 
#    0.000    0.000    0.000    0.000    0.000    0.000 
#
# Total GULP energy -178467.264218 kJ/mol
# GULP energy per Si atom -5577.102007 kJ/mol
# Density = 1.714019 g / cm^3
# Si number density = 17.179289 Si / 1000 Ang^3
#
#
#
# Elastic Constant Matrix: (Units=GPa)
#
#
# Indices 1 2 3 4 5 6 
#
# 1 115.4682 63.8289 27.9422 0.0000 -19.3203 0.0000
# 2 63.8289 139.2549 33.3737 0.0000 -16.1102 0.0000
# 3 27.9422 33.3737 103.4476 0.0000 -25.6426 0.0000
# 4 0.0000 0.0000 0.0000 -7.0373 0.0000 -53.7351
# 5 -19.3203 -16.1102 -25.6426 0.0000 15.9703 0.0000
# 6 0.0000 0.0000 0.0000 -53.7351 0.0000 -76.7106
#
#
#
# Elastic Compliance Matrix: (Units=1/GPa)
#
#
# Indices 1 2 3 4 5 6 
#
# 1 0.013233 -0.004846 0.001238 0.000000 0.013109 0.000000
# 2 -0.004846 0.009964 -0.001441 0.000000 0.001876 0.000000
# 3 0.001238 -0.001441 0.016293 0.000000 0.026205 0.000000
# 4 0.000000 0.000000 0.000000 0.032676 0.000000 -0.022889
# 5 0.013109 0.001876 0.026205 0.000000 0.122444 0.000000
# 6 0.000000 0.000000 0.000000 -0.022889 0.000000 0.002998
#
#
# Mechanical properties :
#
#
# Convention : Reuss Voigt Hill
#
# Bulk Modulus (GPa) = 34.02036 67.60669 50.81353
# Shear Modulus (GPa) = 22.98836 1.97954 12.48395
#
# Velocity S-wave (km/s) = 3.66203 1.07461 2.69864
# Velocity P-wave (km/s) = 6.14221 6.40146 6.27318
#
# Compressibility (1/GPa) = 0.02939416
#
# Stress axis : x y z
#
# Youngs Moduli (GPa) = 75.57061 100.35664 61.37684
#
# Poissons Ratio (x) = 0.48629 -0.07601
# Poissons Ratio (y) = 0.36618 0.08843
# Poissons Ratio (z) = -0.09359 0.14458
#
# Static dielectric constant tensor:
#      x y z
#    x 1.561220 0.000000 0.002850 
#    y 0.000000 1.609240 0.000000 
#    z 0.002850 0.000000 1.589790 
# 
# From -- ./inp_files/199765.got.cif
#   From: 2010.05.17/outbox.cif.g08.bks.cpg/sg12_100_cif.got.tgz:199765.got - 2010.06.03 13:09:07.
