data_PCOD9181386
_publ_section_title
;
Structure prediction by ZEFSAII (Michael W. Deem and Ramdas Pophale) SiO2 
 PCOD9181386
Probable space group: C 2/M
;
_chemical_formula_sum "Si O2"
_cell_formula_units_Z 56
_cell_length_a 27.978590
_cell_length_b 8.617485
_cell_length_c 14.541903
_cell_angle_alpha 90.000000
_cell_angle_beta 49.894224
_cell_angle_gamma 90.000000
_cell_volume 2681.683651
_symmetry_space_group_name_H-M "C 2/M"
_symmetry_group_IT_number 12
_symmetry_cell_setting 'monoclinic'
loop_
_space_group_symop_operation_xyz
x,y,z
-x,y,-z
-x,-y,-z
x,-y,z
1/2+x,1/2+y,z
1/2-x,1/2+y,-z
1/2-x,1/2-y,-z
1/2+x,1/2-y,z
loop_
_atom_site_type_symbol
_atom_site_label
_atom_site_fract_x
_atom_site_fract_y
_atom_site_fract_z
Si Si1 0.322928 0.821524 0.830810
Si Si2 0.455029 0.500000 0.688968
Si Si3 0.962490 0.812918 0.187452
Si Si4 0.603962 0.168051 0.434335
Si Si5 0.803637 0.683412 0.061287
Si Si6 0.403373 0.684214 0.075351
Si Si7 0.489100 0.173372 0.699368
Si Si8 0.900763 0.000000 0.557335
O O1 0.383729 0.827054 0.690555
O O2 0.325181 0.762430 0.932357
O O3 0.301462 0.000000 0.864607
O O4 0.268667 0.731437 0.844577
O O5 0.450760 0.335676 0.746888
O O6 0.409249 0.500000 0.657963
O O7 0.527422 0.500000 0.566237
O O8 0.961920 0.708482 0.278683
O O9 0.031420 0.786201 0.058584
O O10 0.956516 0.000000 0.213526
O O11 0.914056 0.766241 0.167701
O O12 0.532075 0.166694 0.555175
O O13 0.628280 0.336392 0.437107
O O14 0.630503 0.000000 0.431811
O O15 0.809339 0.500000 0.057158
O O16 0.846615 0.748802 0.088111
O O17 0.396316 0.500000 0.086968
O O18 0.460348 0.000000 0.749097
#
# Coordination Sequence:
#
# PCOD9181386 Si02
#       8
#     8   4   8   8   8   8   8   4
#     4   9  19  36  53  73 107 141 174 219 266 318
#     4   9  18  32  44  69 104 136 178 217 254 313
#     4   9  18  35  55  77 106 140 180 218 261 324
#     4   9  19  34  51  75 104 139 181 215 261 320
#     4  10  20  33  53  80 105 133 177 223 266 317
#     4   9  19  35  55  76 105 142 173 215 271 317
#     4  10  19  32  53  76 103 141 177 218 265 310
#     4   9  18  30  48  68  98 140 178 217 258 299
#
# _framework density 20.882401999999999
#
# number of rings (size 3 to 8) (size 9 to 14) (size 15 to 20)
#    0.000    2.714    0.714    1.286    1.000    3.429 
#    0.000    5.714    0.000    0.857    0.000    0.000 
#    0.000    0.000    0.000    0.000    0.000    0.000 
#
# Total GULP energy -156011.084462 kJ/mol
# GULP energy per Si atom -5571.824445 kJ/mol
# Density = 2.083487 g / cm^3
# Si number density = 20.882402 Si / 1000 Ang^3
#
#
#
# Elastic Constant Matrix: (Units=GPa)
#
#
# Indices 1 2 3 4 5 6 
#
# 1 121.1041 35.7137 37.9465 0.0000 22.4331 0.0000
# 2 35.7137 129.9689 19.9744 0.0000 9.1835 0.0000
# 3 37.9465 19.9744 65.2413 0.0000 2.8201 0.0000
# 4 0.0000 0.0000 0.0000 16.9560 0.0000 6.0413
# 5 22.4331 9.1835 2.8201 0.0000 20.8847 0.0000
# 6 0.0000 0.0000 0.0000 6.0413 0.0000 28.0705
#
#
#
# Elastic Compliance Matrix: (Units=1/GPa)
#
#
# Indices 1 2 3 4 5 6 
#
# 1 0.013132 -0.001718 -0.006574 0.000000 -0.012463 0.000000
# 2 -0.001718 0.008522 -0.001537 0.000000 -0.001695 0.000000
# 3 -0.006574 -0.001537 0.019400 0.000000 0.005117 0.000000
# 4 0.000000 0.000000 0.000000 0.063874 0.000000 -0.013747
# 5 -0.012463 -0.001695 0.005117 0.000000 0.061323 0.000000
# 6 0.000000 0.000000 0.000000 -0.013747 0.000000 0.038583
#
#
# Mechanical properties :
#
#
# Convention : Reuss Voigt Hill
#
# Bulk Modulus (GPa) = 46.73183 55.95371 51.34277
# Shear Modulus (GPa) = 21.58669 28.02757 24.80713
#
# Velocity S-wave (km/s) = 3.21865 3.66753 3.45040
# Velocity P-wave (km/s) = 6.01997 6.69232 6.36503
#
# Compressibility (1/GPa) = 0.02139869
#
# Stress axis : x y z
#
# Youngs Moduli (GPa) = 76.14831 117.34220 51.54531
#
# Poissons Ratio (x) = 0.20156 0.33883
# Poissons Ratio (y) = 0.13080 0.07922
# Poissons Ratio (z) = 0.50056 0.18033
#
# Static dielectric constant tensor:
#      x y z
#    x 1.761660 0.000000 0.021690 
#    y 0.000000 1.815040 0.000000 
#    z 0.021690 0.000000 1.827480 
# 
# From -- ./inp_files/248179.got.cif
#   From: 2010.05.17/outbox.cif.g08.bks.cpg/sg12_125_cif.got.tgz:248179.got - 2010.06.03 13:09:07.
