data_PCOD9181034
_publ_section_title
;
Structure prediction by ZEFSAII (Michael W. Deem and Ramdas Pophale) SiO2 
 PCOD9181034
Probable space group: C 2/M
;
_chemical_formula_sum "Si O2"
_cell_formula_units_Z 64
_cell_length_a 11.310079
_cell_length_b 14.404786
_cell_length_c 32.829586
_cell_angle_alpha 90.000000
_cell_angle_beta 30.572618
_cell_angle_gamma 90.000000
_cell_volume 2720.444252
_symmetry_space_group_name_H-M "C 2/M"
_symmetry_group_IT_number 12
_symmetry_cell_setting 'monoclinic'
loop_
_space_group_symop_operation_xyz
x,y,z
-x,y,-z
-x,-y,-z
x,-y,z
1/2+x,1/2+y,z
1/2-x,1/2+y,-z
1/2-x,1/2-y,-z
1/2+x,1/2-y,z
loop_
_atom_site_type_symbol
_atom_site_label
_atom_site_fract_x
_atom_site_fract_y
_atom_site_fract_z
Si Si1 0.154147 0.887509 0.338056
Si Si2 0.729860 0.887571 0.407996
Si Si3 0.540806 0.635436 0.083802
Si Si4 0.512695 0.142310 0.894702
Si Si5 0.615951 0.145384 0.157047
Si Si6 0.343534 0.112472 0.662402
Si Si7 0.899021 0.145474 0.843425
Si Si8 0.860216 0.106142 0.500283
O O1 0.405129 0.851447 0.251674
O O2 0.967854 0.862275 0.358961
O O3 0.030135 0.853269 0.415994
O O4 0.177583 0.000000 0.333298
O O5 0.500000 0.852172 0.500000
O O6 0.736672 0.862200 0.359057
O O7 0.714483 0.000000 0.414133
O O8 0.478376 0.744901 0.108868
O O9 0.330812 0.600737 0.117414
O O10 0.585434 0.600823 0.116573
O O11 0.777198 0.621472 0.988924
O O12 0.483218 0.107966 0.856734
O O13 0.731709 0.108038 0.856891
O O14 0.692810 0.249865 0.123113
O O15 0.609059 0.146648 0.584747
O O16 0.161707 0.148535 0.748902
O O17 0.342645 0.000000 0.667314
O O18 0.000000 0.101072 0.500000
O O19 0.809236 0.000000 0.500352
#
# Coordination Sequence:
#
# PCOD9181034 Si02
#       8
#     8   8   8   8   8   8   8   8
#     4  10  19  32  52  74  99 131 169 208 246 291
#     4   9  15  28  50  72  90 121 171 212 237 273
#     4   9  18  32  55  78  98 132 170 204 242 295
#     4   9  17  34  55  76 100 130 170 205 242 298
#     4  10  20  33  52  78 105 129 162 209 253 295
#     4  10  19  32  52  74  99 131 169 208 246 291
#     4  10  20  33  52  78 105 129 162 209 253 295
#     4   9  18  31  48  69  95 134 176 206 233 284
#
# _framework density 23.525570999999999
#
# number of rings (size 3 to 8) (size 9 to 14) (size 15 to 20)
#    0.000    2.500    1.250    1.500    1.750    3.000 
#    0.000    0.625    0.000    4.500    0.000    0.000 
#    0.000    0.000    0.000    0.000    0.000    0.000 
#
# Total GULP energy -178665.627236 kJ/mol
# GULP energy per Si atom -5583.300851 kJ/mol
# Density = 2.347203 g / cm^3
# Si number density = 23.525571 Si / 1000 Ang^3
#
#
#
# Elastic Constant Matrix: (Units=GPa)
#
#
# Indices 1 2 3 4 5 6 
#
# 1 166.0374 4.2834 61.7948 -0.0006 6.2216 -0.0002
# 2 4.2834 88.3891 -7.9621 0.0013 1.1800 -0.0001
# 3 61.7948 -7.9621 113.8386 -0.0060 -3.5005 0.0027
# 4 -0.0006 0.0013 -0.0060 21.7663 0.0059 -4.5039
# 5 6.2216 1.1800 -3.5005 0.0059 19.9894 0.0029
# 6 -0.0002 -0.0001 0.0027 -4.5039 0.0029 -14.2984
#
#
#
# Elastic Compliance Matrix: (Units=1/GPa)
#
#
# Indices 1 2 3 4 5 6 
#
# 1 0.007788 -0.000730 -0.004375 0.000000 -0.003147 -0.000001
# 2 -0.000730 0.011459 0.001190 0.000000 -0.000241 0.000000
# 3 -0.004375 0.001190 0.011343 0.000002 0.003278 0.000002
# 4 0.000000 0.000000 0.000002 0.043131 -0.000010 -0.013586
# 5 -0.003147 -0.000241 0.003278 -0.000010 0.051594 0.000014
# 6 -0.000001 0.000000 0.000002 -0.013586 0.000014 -0.065659
#
#
# Mechanical properties :
#
#
# Convention : Reuss Voigt Hill
#
# Bulk Modulus (GPa) = 43.93429 53.83303 48.88366
# Shear Modulus (GPa) = 66.60084 26.16808 46.38446
#
# Velocity S-wave (km/s) = 5.32648 3.33877 4.44516
# Velocity P-wave (km/s) = 7.51959 6.14782 6.86804
#
# Compressibility (1/GPa) = 0.02276126
#
# Stress axis : x y z
#
# Youngs Moduli (GPa) = 128.40537 87.26477 88.15689
#
# Poissons Ratio (x) = 0.06366 0.38571
# Poissons Ratio (y) = 0.09367 -0.10491
# Poissons Ratio (z) = 0.56181 -0.10385
#
# Static dielectric constant tensor:
#      x y z
#    x 1.864330 0.000000 0.003880 
#    y 0.000000 1.972460 0.000000 
#    z 0.003880 0.000000 1.835280 
# 
# From -- ./inp_files/374419.got.cif
#   From: 2010.05.17/outbox.cif.g08.bks.cpg/sg12_188_cif.got.tgz:374419.got - 2010.06.03 13:09:07.
