data_PCOD9181096
_publ_section_title
;
Structure prediction by ZEFSAII (Michael W. Deem and Ramdas Pophale) SiO2 
 PCOD9181096
Probable space group: C 2/M
;
_chemical_formula_sum "Si O2"
_cell_formula_units_Z 56
_cell_length_a 16.414287
_cell_length_b 8.883558
_cell_length_c 17.055393
_cell_angle_alpha 90.000000
_cell_angle_beta 102.252700
_cell_angle_gamma 90.000000
_cell_volume 2430.320412
_symmetry_space_group_name_H-M "C 2/M"
_symmetry_group_IT_number 12
_symmetry_cell_setting 'monoclinic'
loop_
_space_group_symop_operation_xyz
x,y,z
-x,y,-z
-x,-y,-z
x,-y,z
1/2+x,1/2+y,z
1/2-x,1/2+y,-z
1/2-x,1/2-y,-z
1/2+x,1/2-y,z
loop_
_atom_site_type_symbol
_atom_site_label
_atom_site_fract_x
_atom_site_fract_y
_atom_site_fract_z
Si Si1 0.240168 0.330314 0.618373
Si Si2 0.811710 0.177746 0.893337
Si Si3 0.493718 0.824557 0.347039
Si Si4 0.861678 0.671401 0.755271
Si Si5 0.615528 0.329611 0.486856
Si Si6 0.873996 0.682985 0.194974
Si Si7 0.924098 0.681411 0.038136
O O1 0.232635 0.500000 0.648771
O O2 0.279613 0.220153 0.690200
O O3 0.310621 0.333618 0.564090
O O4 0.154559 0.276395 0.561467
O O5 0.869788 0.222142 0.831688
O O6 0.720089 0.223934 0.845184
O O7 0.812050 0.000000 0.907349
O O8 0.842160 0.263002 0.976500
O O9 0.563181 0.820401 0.291457
O O10 0.534270 0.732198 0.425966
O O11 0.412336 0.764785 0.284995
O O12 0.484353 0.000000 0.368153
O O13 0.856376 0.500000 0.782591
O O14 0.604454 0.500000 0.512516
O O15 0.878394 0.500000 0.199966
O O16 0.925696 0.730608 0.128620
O O17 0.925188 0.500000 0.038704
O O18 0.000000 0.736039 0.000000
#
# Coordination Sequence:
#
# PCOD9181096 Si02
#       7
#     8   8   8   8   8   8   8
#     4   9  16  27  45  71 103 137 172 212 258 306
#     4  11  22  35  52  76 107 138 168 207 255 307
#     4   9  17  32  53  74  98 133 176 216 254 301
#     4  10  19  32  52  76 102 135 175 217 258 302
#     4   9  16  26  43  72 106 135 167 211 261 308
#     4   9  19  35  54  76 103 136 172 208 251 305
#     4  10  20  37  60  81 102 132 171 212 253 300
#
# _framework density 23.042228999999999
#
# number of rings (size 3 to 8) (size 9 to 14) (size 15 to 20)
#    0.000    2.429    0.000    3.000    0.000    6.571 
#    0.000    2.857    0.000    0.857    0.000    6.000 
#    0.000    0.000    0.000    0.000    0.000    0.000 
#
# Total GULP energy -156590.936881 kJ/mol
# GULP energy per Si atom -5592.533460 kJ/mol
# Density = 2.298978 g / cm^3
# Si number density = 23.042229 Si / 1000 Ang^3
#
#
#
# Elastic Constant Matrix: (Units=GPa)
#
#
# Indices 1 2 3 4 5 6 
#
# 1 83.9443 9.4912 31.1988 0.0000 12.4251 0.0000
# 2 9.4912 26.2429 6.2094 0.0000 5.5793 0.0000
# 3 31.1988 6.2094 114.1796 0.0000 15.1772 0.0000
# 4 0.0000 0.0000 0.0000 27.3874 0.0000 8.5824
# 5 12.4251 5.5793 15.1772 0.0000 49.2197 0.0000
# 6 0.0000 0.0000 0.0000 8.5824 0.0000 17.8419
#
#
#
# Elastic Compliance Matrix: (Units=1/GPa)
#
#
# Indices 1 2 3 4 5 6 
#
# 1 0.013877 -0.003799 -0.003313 0.000000 -0.002051 0.000000
# 2 -0.003799 0.040369 -0.000705 0.000000 -0.003399 0.000000
# 3 -0.003313 -0.000705 0.009989 0.000000 -0.002164 0.000000
# 4 0.000000 0.000000 0.000000 0.042994 0.000000 -0.020681
# 5 -0.002051 -0.003399 -0.002164 0.000000 0.021887 0.000000
# 6 0.000000 0.000000 0.000000 -0.020681 0.000000 0.065996
#
#
# Mechanical properties :
#
#
# Convention : Reuss Voigt Hill
#
# Bulk Modulus (GPa) = 20.57553 35.35172 27.96362
# Shear Modulus (GPa) = 22.03153 30.72096 26.37625
#
# Velocity S-wave (km/s) = 3.09550 3.65533 3.38700
# Velocity P-wave (km/s) = 4.66101 5.76113 5.24002
#
# Compressibility (1/GPa) = 0.04860143
#
# Stress axis : x y z
#
# Youngs Moduli (GPa) = 72.06211 24.77136 100.10729
#
# Poissons Ratio (x) = 0.09411 0.33161
# Poissons Ratio (y) = 0.27376 0.07062
# Poissons Ratio (z) = 0.23871 0.01748
#
# Static dielectric constant tensor:
#      x y z
#    x 1.971540 0.000000 -0.033390 
#    y 0.000000 1.772490 0.000000 
#    z -0.033390 0.000000 1.838340 
# 
# From -- ./inp_files/275351.got.cif
#   From: 2010.05.17/outbox.cif.g08.bks.cpg/sg12_138_cif.got.tgz:275351.got - 2010.06.03 13:09:07.
