data_PCOD9181293
_publ_section_title
;
Structure prediction by ZEFSAII (Michael W. Deem and Ramdas Pophale) SiO2 
 PCOD9181293
Probable space group: C 2/M
;
_chemical_formula_sum "Si O2"
_cell_formula_units_Z 64
_cell_length_a 20.303166
_cell_length_b 8.672508
_cell_length_c 24.341408
_cell_angle_alpha 90.000000
_cell_angle_beta 131.644650
_cell_angle_gamma 90.000000
_cell_volume 3202.858884
_symmetry_space_group_name_H-M "C 2/M"
_symmetry_group_IT_number 12
_symmetry_cell_setting 'monoclinic'
loop_
_space_group_symop_operation_xyz
x,y,z
-x,y,-z
-x,-y,-z
x,-y,z
1/2+x,1/2+y,z
1/2-x,1/2+y,-z
1/2-x,1/2-y,-z
1/2+x,1/2-y,z
loop_
_atom_site_type_symbol
_atom_site_label
_atom_site_fract_x
_atom_site_fract_y
_atom_site_fract_z
Si Si1 0.807347 0.313965 0.196041
Si Si2 0.512640 0.317774 0.182609
Si Si3 0.078995 0.322132 0.328365
Si Si4 0.675048 0.815448 0.919163
Si Si5 0.197689 0.187073 0.234749
Si Si6 0.778100 0.176412 0.458583
Si Si7 0.359238 0.314956 0.397038
Si Si8 0.529492 0.183962 0.632852
O O1 0.806631 0.500000 0.192455
O O2 0.811511 0.256684 0.136230
O O3 0.724191 0.267968 0.187354
O O4 0.892955 0.275750 0.280237
O O5 0.503181 0.500000 0.169370
O O6 0.531803 0.280581 0.257125
O O7 0.422361 0.235668 0.116597
O O8 0.600537 0.264044 0.199412
O O9 0.047255 0.500000 0.304828
O O10 0.182872 0.321903 0.375289
O O11 0.056614 0.276514 0.378899
O O12 0.679817 0.000000 0.921425
O O13 0.750000 0.750000 0.000000
O O14 0.275095 0.253019 0.316141
O O15 0.201774 0.000000 0.241405
O O16 0.750000 0.250000 0.500000
O O17 0.846491 0.245249 0.452435
O O18 0.803494 0.000000 0.483773
O O19 0.356122 0.500000 0.397626
O O20 0.444225 0.264853 0.409137
O O21 0.530800 0.000000 0.623807
#
# Coordination Sequence:
#
# PCOD9181293 Si02
#       8
#     8   8   8   8   8   8   8   8
#     4   8  15  31  54  76 101 139 179 215 261 316
#     4  11  21  33  55  86 112 137 179 230 273 320
#     4  10  19  36  57  79 108 144 184 224 267 322
#     4  11  22  38  57  78 110 148 184 226 273 329
#     4   9  18  33  54  80 107 139 180 221 265 323
#     4  10  22  37  55  78 109 147 185 222 273 327
#     4  10  19  32  52  80 110 139 174 224 278 319
#     4   9  17  32  55  79 104 138 179 220 266 323
#
# _framework density 19.982147999999999
#
# number of rings (size 3 to 8) (size 9 to 14) (size 15 to 20)
#    0.000    2.250    2.500    1.875    0.000    2.500 
#    0.000    1.875    0.000    7.500    0.000    0.000 
#    0.000    0.000    0.000    0.000    0.000    0.000 
#
# Total GULP energy -178503.447797 kJ/mol
# GULP energy per Si atom -5578.232744 kJ/mol
# Density = 1.993667 g / cm^3
# Si number density = 19.982148 Si / 1000 Ang^3
#
#
#
# Elastic Constant Matrix: (Units=GPa)
#
#
# Indices 1 2 3 4 5 6 
#
# 1 165.8795 17.6201 26.7532 0.0000 -8.6076 0.0000
# 2 17.6201 26.4515 5.9055 0.0000 -0.0540 0.0000
# 3 26.7532 5.9055 49.8074 0.0000 -1.5653 0.0000
# 4 0.0000 0.0000 0.0000 21.4459 0.0000 -3.5017
# 5 -8.6076 -0.0540 -1.5653 0.0000 27.9121 0.0000
# 6 0.0000 0.0000 0.0000 -3.5017 0.0000 27.2863
#
#
#
# Elastic Compliance Matrix: (Units=1/GPa)
#
#
# Indices 1 2 3 4 5 6 
#
# 1 0.007082 -0.003984 -0.003269 0.000000 0.001993 0.000000
# 2 -0.003984 0.041075 -0.002771 0.000000 -0.001304 0.000000
# 3 -0.003269 -0.002771 0.022169 0.000000 0.000230 0.000000
# 4 0.000000 0.000000 0.000000 0.047627 0.000000 0.006112
# 5 0.001993 -0.001304 0.000230 0.000000 0.036452 0.000000
# 6 0.000000 0.000000 0.000000 0.006112 0.000000 0.037433
#
#
# Mechanical properties :
#
#
# Convention : Reuss Voigt Hill
#
# Bulk Modulus (GPa) = 19.88951 38.07732 28.98341
# Shear Modulus (GPa) = 21.86794 28.11951 24.99372
#
# Velocity S-wave (km/s) = 3.31172 3.75538 3.54051
# Velocity P-wave (km/s) = 4.95969 6.15637 5.59014
#
# Compressibility (1/GPa) = 0.05027777
#
# Stress axis : x y z
#
# Youngs Moduli (GPa) = 141.19683 24.34586 45.10776
#
# Poissons Ratio (x) = 0.09699 0.14746
# Poissons Ratio (y) = 0.56250 0.12501
# Poissons Ratio (z) = 0.46160 0.06747
#
# Static dielectric constant tensor:
#      x y z
#    x 1.763200 0.000000 -0.007820 
#    y 0.000000 1.689200 0.000000 
#    z -0.007820 0.000000 1.700580 
# 
# From -- ./inp_files/346201.got.cif
#   From: 2010.05.17/outbox.cif.g08.bks.cpg/sg12_174_cif.got.tgz:346201.got - 2010.06.03 13:09:07.
