data_PCOD9181499
_publ_section_title
;
Structure prediction by ZEFSAII (Michael W. Deem and Ramdas Pophale) SiO2 
 PCOD9181499
Probable space group: C 2/M
;
_chemical_formula_sum "Si O2"
_cell_formula_units_Z 56
_cell_length_a 9.500923
_cell_length_b 18.545180
_cell_length_c 16.774566
_cell_angle_alpha 90.000000
_cell_angle_beta 66.437424
_cell_angle_gamma 90.000000
_cell_volume 2709.189494
_symmetry_space_group_name_H-M "C 2/M"
_symmetry_group_IT_number 12
_symmetry_cell_setting 'monoclinic'
loop_
_space_group_symop_operation_xyz
x,y,z
-x,y,-z
-x,-y,-z
x,-y,z
1/2+x,1/2+y,z
1/2-x,1/2+y,-z
1/2-x,1/2-y,-z
1/2+x,1/2-y,z
loop_
_atom_site_type_symbol
_atom_site_label
_atom_site_fract_x
_atom_site_fract_y
_atom_site_fract_z
Si Si1 0.371961 0.352009 0.931150
Si Si2 0.012795 0.920875 0.663521
Si Si3 0.179296 0.221331 0.596880
Si Si4 0.072919 0.682556 0.072859
Si Si5 0.167082 0.918434 0.806615
Si Si6 0.371972 0.209013 0.709357
Si Si7 0.769528 0.640503 0.203887
O O1 0.411031 0.267111 0.910417
O O2 0.532300 0.393276 0.897016
O O3 0.286828 0.380697 0.871622
O O4 0.241306 0.351850 0.028228
O O5 0.088428 0.853361 0.602517
O O6 0.085646 0.917220 0.736687
O O7 0.830245 0.907524 0.713798
O O8 0.045263 0.000000 0.623367
O O9 0.250000 0.250000 0.500000
O O10 0.310271 0.207883 0.632601
O O11 0.053054 0.275410 0.664147
O O12 0.952053 0.643971 0.157679
O O13 0.000000 0.681967 0.000000
O O14 0.303721 0.861082 0.767583
O O15 0.215814 0.000000 0.812048
O O16 0.291566 0.278377 0.767529
#
# Coordination Sequence:
#
# PCOD9181499 Si02
#       7
#     8   8   8   8   8   8   8
#     4   9  16  27  42  69  98 128 166 205 255 287
#     4   8  16  30  49  72  97 128 163 201 245 293
#     4  10  20  34  54  78 103 127 160 206 248 299
#     4   9  16  25  42  69  95 124 165 213 251 282
#     4   9  16  29  48  70  99 130 165 204 242 291
#     4  10  19  32  53  78  99 128 168 204 248 290
#     4   9  16  27  47  70  94 124 168 212 241 288
#
# _framework density 20.670390000000001
#
# number of rings (size 3 to 8) (size 9 to 14) (size 15 to 20)
#    0.000    2.857    1.429    1.286    0.000    0.000 
#    0.000    1.429    0.000   18.429    0.000    0.000 
#    0.000    0.000    0.000    0.000    0.000    0.000 
#
# Total GULP energy -156207.983478 kJ/mol
# GULP energy per Si atom -5578.856553 kJ/mol
# Density = 2.062334 g / cm^3
# Si number density = 20.670390 Si / 1000 Ang^3
#
#
#
# Elastic Constant Matrix: (Units=GPa)
#
#
# Indices 1 2 3 4 5 6 
#
# 1 68.8992 11.2953 27.7425 0.0000 -8.6905 0.0000
# 2 11.2953 102.3726 38.1190 0.0000 -20.3949 0.0000
# 3 27.7425 38.1190 88.7157 0.0000 -15.0053 0.0000
# 4 0.0000 0.0000 0.0000 19.4329 0.0000 -4.0514
# 5 -8.6905 -20.3949 -15.0053 0.0000 25.7835 0.0000
# 6 0.0000 0.0000 0.0000 -4.0514 0.0000 17.0724
#
#
#
# Elastic Compliance Matrix: (Units=1/GPa)
#
#
# Indices 1 2 3 4 5 6 
#
# 1 0.016830 0.000656 -0.004988 0.000000 0.003288 0.000000
# 2 0.000656 0.012908 -0.004422 0.000000 0.007858 0.000000
# 3 -0.004988 -0.004422 0.015369 0.000000 0.003765 0.000000
# 4 0.000000 0.000000 0.000000 0.054137 0.000000 0.012847
# 5 0.003288 0.007858 0.003765 0.000000 0.048299 0.000000
# 6 0.000000 0.000000 0.000000 0.012847 0.000000 0.061623
#
#
# Mechanical properties :
#
#
# Convention : Reuss Voigt Hill
#
# Bulk Modulus (GPa) = 36.23657 46.03347 41.13502
# Shear Modulus (GPa) = 21.19767 24.64648 22.92207
#
# Velocity S-wave (km/s) = 3.20583 3.45680 3.33368
# Velocity P-wave (km/s) = 5.59212 6.18476 5.89589
#
# Compressibility (1/GPa) = 0.02759643
#
# Stress axis : x y z
#
# Youngs Moduli (GPa) = 59.41827 77.47155 65.06680
#
# Poissons Ratio (x) = -0.05079 0.32458
# Poissons Ratio (y) = -0.03895 0.28774
# Poissons Ratio (z) = 0.29641 0.34260
#
# Static dielectric constant tensor:
#      x y z
#    x 1.795390 0.000000 0.029050 
#    y 0.000000 1.712270 0.000000 
#    z 0.029050 0.000000 1.746120 
# 
# From -- ./inp_files/263659.got.cif
#   From: 2010.05.17/outbox.cif.g08.bks.cpg/sg12_132_cif.got.tgz:263659.got - 2010.06.03 13:09:07.
