data_PCOD9181195
_publ_section_title
;
Structure prediction by ZEFSAII (Michael W. Deem and Ramdas Pophale) SiO2 
 PCOD9181195
Probable space group: C 2/M
;
_chemical_formula_sum "Si O2"
_cell_formula_units_Z 64
_cell_length_a 29.108333
_cell_length_b 7.584465
_cell_length_c 19.550204
_cell_angle_alpha 90.000000
_cell_angle_beta 41.446404
_cell_angle_gamma 90.000000
_cell_volume 2856.923001
_symmetry_space_group_name_H-M "C 2/M"
_symmetry_group_IT_number 12
_symmetry_cell_setting 'monoclinic'
loop_
_space_group_symop_operation_xyz
x,y,z
-x,y,-z
-x,-y,-z
x,-y,z
1/2+x,1/2+y,z
1/2-x,1/2+y,-z
1/2-x,1/2-y,-z
1/2+x,1/2-y,z
loop_
_atom_site_type_symbol
_atom_site_label
_atom_site_fract_x
_atom_site_fract_y
_atom_site_fract_z
Si Si1 0.099065 0.796871 0.604930
Si Si2 0.630420 0.284802 0.955846
Si Si3 0.539815 0.295833 0.174911
Si Si4 0.706349 0.712524 0.379912
Si Si5 0.782204 0.711315 0.793123
Si Si6 0.570750 0.287820 0.884388
Si Si7 0.327414 0.210733 0.884755
Si Si8 0.830541 0.297392 0.338864
O O1 0.138004 0.720407 0.495789
O O2 0.154010 0.792984 0.606332
O O3 0.026935 0.716451 0.712789
O O4 0.083508 0.000000 0.604847
O O5 0.628126 0.500000 0.961677
O O6 0.704831 0.222683 0.897545
O O7 0.625593 0.239190 0.881966
O O8 0.567042 0.219366 0.072614
O O9 0.520723 0.500000 0.181696
O O10 0.609338 0.291615 0.143171
O O11 0.708987 0.500000 0.382012
O O12 0.704535 0.751637 0.301302
O O13 0.772076 0.776878 0.352376
O O14 0.780184 0.500000 0.800861
O O15 0.830039 0.771564 0.802325
O O16 0.567351 0.500000 0.879930
O O17 0.597706 0.212189 0.783932
O O18 0.500000 0.232549 0.000000
O O19 0.336713 0.000000 0.877682
O O20 0.250000 0.250000 0.000000
O O21 0.813861 0.500000 0.372622
#
# Coordination Sequence:
#
# PCOD9181195 Si02
#       8
#     8   8   8   8   8   8   8   8
#     4  10  22  40  61  82 111 152 196 238 282 338
#     4   9  16  30  52  78 108 140 182 227 271 332
#     4  10  20  38  61  85 113 147 190 240 287 337
#     4  10  22  39  58  85 115 148 194 241 282 329
#     4  10  20  36  58  83 111 146 186 228 276 337
#     4  10  19  32  52  77 108 150 193 229 275 337
#     4  11  22  37  59  88 120 151 188 232 283 345
#     4  11  22  35  54  83 118 149 188 239 286 337
#
# _framework density 22.401724999999999
#
# number of rings (size 3 to 8) (size 9 to 14) (size 15 to 20)
#    0.000    1.875    2.500    1.875    0.000    4.750 
#    0.000    1.250    0.000    3.750    0.000    0.000 
#    0.000    0.000    0.000    0.000    0.000    0.000 
#
# Total GULP energy -178620.670918 kJ/mol
# GULP energy per Si atom -5581.895966 kJ/mol
# Density = 2.235074 g / cm^3
# Si number density = 22.401725 Si / 1000 Ang^3
#
#
#
# Elastic Constant Matrix: (Units=GPa)
#
#
# Indices 1 2 3 4 5 6 
#
# 1 74.0308 -11.2208 34.4403 -0.0060 13.6400 0.0101
# 2 -11.2208 53.5650 -6.2057 -0.0097 -3.5588 0.0057
# 3 34.4403 -6.2057 156.7967 0.0107 12.9952 -0.0144
# 4 -0.0060 -0.0097 0.0107 14.7015 -0.0007 6.0139
# 5 13.6400 -3.5588 12.9952 -0.0007 27.7823 0.0021
# 6 0.0101 0.0057 -0.0144 6.0139 0.0021 18.3885
#
#
#
# Elastic Compliance Matrix: (Units=1/GPa)
#
#
# Indices 1 2 3 4 5 6 
#
# 1 0.016473 0.002683 -0.002986 0.000017 -0.006347 -0.000017
# 2 0.002683 0.019315 0.000082 0.000020 0.001118 -0.000014
# 3 -0.002986 0.000082 0.007193 -0.000011 -0.001888 0.000011
# 4 0.000017 0.000020 -0.000011 0.078525 0.000003 -0.025681
# 5 -0.006347 0.001118 -0.001888 0.000003 0.040137 -0.000004
# 6 -0.000017 -0.000014 0.000011 -0.025681 -0.000004 0.062781
#
#
# Mechanical properties :
#
#
# Convention : Reuss Voigt Hill
#
# Bulk Modulus (GPa) = 23.50712 35.38003 29.44357
# Shear Modulus (GPa) = 20.91652 29.99972 25.45812
#
# Velocity S-wave (km/s) = 3.05897 3.66344 3.37476
# Velocity P-wave (km/s) = 4.79506 5.80707 5.32516
#
# Compressibility (1/GPa) = 0.04254031
#
# Stress axis : x y z
#
# Youngs Moduli (GPa) = 60.70461 51.77370 139.01784
#
# Poissons Ratio (x) = -0.13892 0.41512
# Poissons Ratio (y) = -0.16288 -0.01145
# Poissons Ratio (z) = 0.18127 -0.00427
#
# Static dielectric constant tensor:
#      x y z
#    x 1.859030 -0.000030 -0.019120 
#    y -0.000030 1.924900 0.000020 
#    z -0.019120 0.000020 1.848960 
# 
# From -- ./inp_files/295520.got.cif
#   From: 2010.05.17/outbox.cif.g08.bks.cpg/sg12_148_cif.got.tgz:295520.got - 2010.06.03 13:09:07.
