data_PCOD9181662
_publ_section_title
;
Structure prediction by ZEFSAII (Michael W. Deem and Ramdas Pophale) SiO2 
 PCOD9181662
Probable space group: C 2/M
;
_chemical_formula_sum "Si O2"
_cell_formula_units_Z 48
_cell_length_a 23.998517
_cell_length_b 7.429222
_cell_length_c 12.018382
_cell_angle_alpha 90.000000
_cell_angle_beta 114.663553
_cell_angle_gamma 90.000000
_cell_volume 1947.285125
_symmetry_space_group_name_H-M "C 2/M"
_symmetry_group_IT_number 12
_symmetry_cell_setting 'monoclinic'
loop_
_space_group_symop_operation_xyz
x,y,z
-x,y,-z
-x,-y,-z
x,-y,z
1/2+x,1/2+y,z
1/2-x,1/2+y,-z
1/2-x,1/2-y,-z
1/2+x,1/2-y,z
loop_
_atom_site_type_symbol
_atom_site_label
_atom_site_fract_x
_atom_site_fract_y
_atom_site_fract_z
Si Si1 0.116449 0.706640 0.079593
Si Si2 0.757166 0.720122 0.216933
Si Si3 0.147473 0.293449 0.869399
Si Si4 0.467028 0.290820 0.361287
Si Si5 0.187091 0.286037 0.511119
Si Si6 0.071435 0.281110 0.273318
O O1 0.094807 0.500000 0.048882
O O2 0.188201 0.711790 0.174771
O O3 0.078351 0.782992 0.151681
O O4 0.119674 0.789892 0.958810
O O5 0.754365 0.500000 0.214224
O O6 0.791075 0.783627 0.133572
O O7 0.799940 0.780525 0.354369
O O8 0.161617 0.500000 0.910604
O O9 0.096168 0.294733 0.730962
O O10 0.500000 0.217056 0.500000
O O11 0.454178 0.500000 0.372254
O O12 0.512601 0.272450 0.294785
O O13 0.177811 0.500000 0.511519
O O14 0.250000 0.250000 0.500000
O O15 0.129812 0.215834 0.393808
O O16 0.072968 0.500000 0.270237
#
# Coordination Sequence:
#
# PCOD9181662 Si02
#       6
#     8   8   8   8   8   8
#     4  10  21  37  59  88 119 154 195 235 283 343
#     4  10  20  34  56  86 119 156 196 237 286 340
#     4  10  22  40  61  85 116 156 197 236 283 344
#     4  11  25  43  62  86 113 146 192 244 295 344
#     4  10  19  32  53  82 114 149 189 231 281 335
#     4  10  21  38  60  86 118 156 194 234 285 344
#
# _framework density 24.649702000000001
#
# number of rings (size 3 to 8) (size 9 to 14) (size 15 to 20)
#    0.000    1.833    1.667    2.000    0.000    6.000 
#    0.000    3.333    0.000    0.000    0.000    0.000 
#    0.000    0.000    0.000    0.000    0.000    0.000 
#
# Total GULP energy -134176.330518 kJ/mol
# GULP energy per Si atom -5590.680438 kJ/mol
# Density = 2.459360 g / cm^3
# Si number density = 24.649702 Si / 1000 Ang^3
#
#
#
# Elastic Constant Matrix: (Units=GPa)
#
#
# Indices 1 2 3 4 5 6 
#
# 1 98.2915 -19.6928 14.9456 0.0000 -33.3337 0.0000
# 2 -19.6928 87.1830 -0.8903 0.0000 -2.3880 0.0000
# 3 14.9456 -0.8903 112.9660 0.0000 -38.9701 0.0000
# 4 0.0000 0.0000 0.0000 3.6506 0.0000 6.4840
# 5 -33.3337 -2.3880 -38.9701 0.0000 40.8360 0.0000
# 6 0.0000 0.0000 0.0000 6.4840 0.0000 -40.7463
#
#
#
# Elastic Compliance Matrix: (Units=1/GPa)
#
#
# Indices 1 2 3 4 5 6 
#
# 1 0.016239 0.004175 0.003789 0.000000 0.017115 0.000000
# 2 0.004175 0.012580 0.001455 0.000000 0.005533 0.000000
# 3 0.003789 0.001455 0.014101 0.000000 0.016634 0.000000
# 4 0.000000 0.000000 0.000000 0.213564 0.000000 0.033985
# 5 0.017115 0.005533 0.016634 0.000000 0.054657 0.000000
# 6 0.000000 0.000000 0.000000 0.033985 0.000000 -0.019134
#
#
# Mechanical properties :
#
#
# Convention : Reuss Voigt Hill
#
# Bulk Modulus (GPa) = 16.19223 31.90728 24.04976
# Shear Modulus (GPa) = 17.02115 21.01992 19.02054
#
# Velocity S-wave (km/s) = 2.63063 2.92335 2.78084
# Velocity P-wave (km/s) = 3.97620 4.93630 4.48203
#
# Compressibility (1/GPa) = 0.06175800
#
# Stress axis : x y z
#
# Youngs Moduli (GPa) = 61.58202 79.49337 70.91800
#
# Poissons Ratio (x) = -0.33192 -0.26869
# Poissons Ratio (y) = -0.25713 -0.10321
# Poissons Ratio (z) = -0.23332 -0.11569
#
# Static dielectric constant tensor:
#      x y z
#    x 1.906260 0.000000 -0.026870 
#    y 0.000000 1.952970 0.000000 
#    z -0.026870 0.000000 1.989670 
# 
# From -- ./inp_files/173083.got.cif
#   From: 2010.05.17/outbox.cif.g08.bks.cpg/sg12_87_cif.got.tgz:173083.got - 2010.06.03 13:09:07.
