data_PCOD9181188
_publ_section_title
;
Structure prediction by ZEFSAII (Michael W. Deem and Ramdas Pophale) SiO2 
 PCOD9181188
Probable space group: C 2/M
;
_chemical_formula_sum "Si O2"
_cell_formula_units_Z 56
_cell_length_a 30.264317
_cell_length_b 7.518379
_cell_length_c 22.240375
_cell_angle_alpha 90.000000
_cell_angle_beta 151.219590
_cell_angle_gamma 90.000000
_cell_volume 2436.419249
_symmetry_space_group_name_H-M "C 2/M"
_symmetry_group_IT_number 12
_symmetry_cell_setting 'monoclinic'
loop_
_space_group_symop_operation_xyz
x,y,z
-x,y,-z
-x,-y,-z
x,-y,z
1/2+x,1/2+y,z
1/2-x,1/2+y,-z
1/2-x,1/2-y,-z
1/2+x,1/2-y,z
loop_
_atom_site_type_symbol
_atom_site_label
_atom_site_fract_x
_atom_site_fract_y
_atom_site_fract_z
Si Si1 0.796697 0.714875 0.752177
Si Si2 0.164163 0.714906 0.074673
Si Si3 0.467093 0.218397 0.394068
Si Si4 0.216007 0.299057 0.892212
Si Si5 0.889509 0.708589 0.533818
Si Si6 0.040443 0.717235 0.134766
Si Si7 0.357254 0.786869 0.624404
O O1 0.798376 0.500000 0.753773
O O2 0.776083 0.770512 0.796002
O O3 0.715639 0.773342 0.612120
O O4 0.896293 0.773477 0.845886
O O5 0.164959 0.500000 0.070778
O O6 0.199943 0.785292 0.054336
O O7 0.062990 0.771595 0.974827
O O8 0.500000 0.276489 0.500000
O O9 0.370217 0.282050 0.248702
O O10 0.544345 0.278674 0.438726
O O11 0.464448 0.000000 0.394253
O O12 0.185862 0.500000 0.864585
O O13 0.250000 0.250000 0.000000
O O14 0.911226 0.500000 0.564050
O O15 0.897914 0.785195 0.610662
O O16 0.037248 0.500000 0.127021
O O17 0.095687 0.776979 0.259284
O O18 0.250000 0.750000 0.500000
O O19 0.369418 0.000000 0.638622
#
# Coordination Sequence:
#
# PCOD9181188 Si02
#       7
#     8   8   8   8   8   8   8
#     4  10  19  34  56  85 116 149 185 228 283 340
#     4  10  21  37  60  84 111 148 192 235 278 335
#     4   9  19  37  61  85 110 147 194 238 284 345
#     4  11  24  42  64  88 118 153 194 244 295 347
#     4  10  20  33  55  83 108 142 188 234 283 338
#     4   9  18  33  55  80 110 149 190 227 271 335
#     4  10  19  32  52  77 107 143 185 230 277 331
#
# _framework density 22.984549999999999
#
# number of rings (size 3 to 8) (size 9 to 14) (size 15 to 20)
#    0.000    2.143    1.429    1.714    2.000    3.429 
#    0.000    2.857    0.000    5.571    0.000    0.000 
#    0.000    0.000    0.000    0.000    0.000    0.000 
#
# Total GULP energy -156228.215428 kJ/mol
# GULP energy per Si atom -5579.579122 kJ/mol
# Density = 2.293224 g / cm^3
# Si number density = 22.984550 Si / 1000 Ang^3
#
#
#
# Elastic Constant Matrix: (Units=GPa)
#
#
# Indices 1 2 3 4 5 6 
#
# 1 194.7932 -0.6812 65.4272 0.0000 -30.8397 0.0000
# 2 -0.6812 54.3236 0.0195 0.0000 -7.9123 0.0000
# 3 65.4272 0.0195 110.4127 0.0000 -18.0516 0.0000
# 4 0.0000 0.0000 0.0000 16.3452 0.0000 -3.4046
# 5 -30.8397 -7.9123 -18.0516 0.0000 45.1898 0.0000
# 6 0.0000 0.0000 0.0000 -3.4046 0.0000 23.4952
#
#
#
# Elastic Compliance Matrix: (Units=1/GPa)
#
#
# Indices 1 2 3 4 5 6 
#
# 1 0.006847 0.000579 -0.003506 0.000000 0.003374 0.000000
# 2 0.000579 0.018973 0.000280 0.000000 0.003829 0.000000
# 3 -0.003506 0.000280 0.011503 0.000000 0.002251 0.000000
# 4 0.000000 0.000000 0.000000 0.063084 0.000000 0.009141
# 5 0.003374 0.003829 0.002251 0.000000 0.026001 0.000000
# 6 0.000000 0.000000 0.000000 0.009141 0.000000 0.043887
#
#
# Mechanical properties :
#
#
# Convention : Reuss Voigt Hill
#
# Bulk Modulus (GPa) = 31.22334 54.34005 42.78169
# Shear Modulus (GPa) = 26.84336 36.65698 31.75017
#
# Velocity S-wave (km/s) = 3.42114 3.99789 3.72071
# Velocity P-wave (km/s) = 5.40552 6.70852 6.09195
#
# Compressibility (1/GPa) = 0.03202732
#
# Stress axis : x y z
#
# Youngs Moduli (GPa) = 146.04018 52.70652 86.93748
#
# Poissons Ratio (x) = -0.03049 0.30481
# Poissons Ratio (y) = -0.08449 -0.02432
# Poissons Ratio (z) = 0.51203 -0.01475
#
# Static dielectric constant tensor:
#      x y z
#    x 1.834610 0.000000 -0.006360 
#    y 0.000000 1.889850 0.000000 
#    z -0.006360 0.000000 1.866020 
# 
# From -- ./inp_files/329731.got.cif
#   From: 2010.05.17/outbox.cif.g08.bks.cpg/sg12_165_cif.got.tgz:329731.got - 2010.06.03 13:09:07.
