data_PCOD9181909
_publ_section_title
;
Structure prediction by ZEFSAII (Michael W. Deem and Ramdas Pophale) SiO2 
 PCOD9181909
Probable space group: C 2/M
;
_chemical_formula_sum "Si O2"
_cell_formula_units_Z 56
_cell_length_a 35.407482
_cell_length_b 8.821533
_cell_length_c 22.817749
_cell_angle_alpha 90.000000
_cell_angle_beta 26.246498
_cell_angle_gamma 90.000000
_cell_volume 3151.838145
_symmetry_space_group_name_H-M "C 2/M"
_symmetry_group_IT_number 12
_symmetry_cell_setting 'monoclinic'
loop_
_space_group_symop_operation_xyz
x,y,z
-x,y,-z
-x,-y,-z
x,-y,z
1/2+x,1/2+y,z
1/2-x,1/2+y,-z
1/2-x,1/2-y,-z
1/2+x,1/2-y,z
loop_
_atom_site_type_symbol
_atom_site_label
_atom_site_fract_x
_atom_site_fract_y
_atom_site_fract_z
Si Si1 0.118014 0.181781 0.690985
Si Si2 0.176508 0.682510 0.393252
Si Si3 0.246208 0.319313 0.599212
Si Si4 0.749723 0.317727 0.835248
Si Si5 0.818364 0.819128 0.859200
Si Si6 0.053314 0.818068 0.132055
Si Si7 0.481496 0.181703 0.692016
O O1 0.160391 0.258569 0.688239
O O2 0.177133 0.223563 0.552623
O O3 0.021301 0.223575 0.809630
O O4 0.123116 0.000000 0.690845
O O5 0.181492 0.500000 0.389916
O O6 0.232579 0.750544 0.367491
O O7 0.209695 0.727943 0.283099
O O8 0.077753 0.725855 0.540636
O O9 0.244062 0.500000 0.605757
O O10 0.760148 0.500000 0.827633
O O11 0.793058 0.236521 0.829911
O O12 0.648508 0.285401 0.977678
O O13 0.910856 0.758221 0.749309
O O14 0.815560 0.000000 0.867142
O O15 0.750000 0.750000 0.000000
O O16 0.036651 0.735522 0.216591
O O17 0.046822 0.000000 0.151138
O O18 0.473676 0.000000 0.699125
#
# Coordination Sequence:
#
# PCOD9181909 Si02
#       7
#     8   8   8   8   8   8   8
#     4   9  18  32  53  83 113 144 189 240 288 336
#     4  10  22  39  58  84 118 155 190 231 286 346
#     4  10  19  32  54  83 114 149 189 237 288 338
#     4  10  22  40  61  84 115 153 191 233 287 342
#     4  12  24  39  60  87 116 148 190 237 286 337
#     4  10  19  35  59  85 111 146 193 241 284 335
#     4  11  22  36  59  86 115 150 190 235 284 337
#
# _framework density 17.767410000000002
#
# number of rings (size 3 to 8) (size 9 to 14) (size 15 to 20)
#    0.000    1.714    2.857    2.143    0.000    2.857 
#    0.000    3.571    0.000    4.286    0.000    0.000 
#    0.000    0.000    0.000    0.000    0.000    0.000 
#
# Total GULP energy -156396.082460 kJ/mol
# GULP energy per Si atom -5585.574374 kJ/mol
# Density = 1.772697 g / cm^3
# Si number density = 17.767410 Si / 1000 Ang^3
#
#
#
# Elastic Constant Matrix: (Units=GPa)
#
#
# Indices 1 2 3 4 5 6 
#
# 1 177.6207 58.8441 85.3458 0.0005 -10.4948 -0.0001
# 2 58.8441 44.6589 47.6747 0.0006 -3.0817 -0.0015
# 3 85.3458 47.6747 113.9002 -0.0001 -1.3243 -0.0003
# 4 0.0005 0.0006 -0.0001 19.4432 0.0002 -1.2585
# 5 -10.4948 -3.0817 -1.3243 0.0002 35.2107 0.0000
# 6 -0.0001 -0.0015 -0.0003 -1.2585 0.0000 36.7965
#
#
#
# Elastic Compliance Matrix: (Units=1/GPa)
#
#
# Indices 1 2 3 4 5 6 
#
# 1 0.011041 -0.010103 -0.004018 0.000000 0.002255 0.000000
# 2 -0.010103 0.050024 -0.013358 -0.000001 0.000864 0.000002
# 3 -0.004018 -0.013358 0.017362 0.000001 -0.001714 0.000000
# 4 0.000000 -0.000001 0.000001 0.051546 0.000000 0.001763
# 5 0.002255 0.000864 -0.001714 0.000000 0.029084 0.000000
# 6 0.000000 0.000002 0.000000 0.001763 0.000000 0.027237
#
#
# Mechanical properties :
#
#
# Convention : Reuss Voigt Hill
#
# Bulk Modulus (GPa) = 42.61068 79.98988 61.30028
# Shear Modulus (GPa) = 20.07443 27.91109 23.99276
#
# Velocity S-wave (km/s) = 3.36496 3.96778 3.67874
# Velocity P-wave (km/s) = 6.25555 8.13076 7.25400
#
# Compressibility (1/GPa) = 0.02346830
#
# Stress axis : x y z
#
# Youngs Moduli (GPa) = 90.57273 19.99060 57.59830
#
# Poissons Ratio (x) = 0.20196 0.23143
# Poissons Ratio (y) = 0.91504 0.76940
# Poissons Ratio (z) = 0.36392 0.26703
#
# Static dielectric constant tensor:
#      x y z
#    x 1.578300 0.000000 -0.011220 
#    y 0.000000 1.595860 0.000000 
#    z -0.011220 0.000000 1.599200 
# 
# From -- ./inp_files/329568.got.cif
#   From: 2010.05.17/outbox.cif.g08.bks.cpg/sg12_165_cif.got.tgz:329568.got - 2010.06.03 13:09:07.
