data_PCOD9181397
_publ_section_title
;
Structure prediction by ZEFSAII (Michael W. Deem and Ramdas Pophale) SiO2 
 PCOD9181397
Probable space group: C 2/M
;
_chemical_formula_sum "Si O2"
_cell_formula_units_Z 40
_cell_length_a 17.860397
_cell_length_b 13.979406
_cell_length_c 21.338904
_cell_angle_alpha 90.000000
_cell_angle_beta 159.186640
_cell_angle_gamma 90.000000
_cell_volume 1893.117705
_symmetry_space_group_name_H-M "C 2/M"
_symmetry_group_IT_number 12
_symmetry_cell_setting 'monoclinic'
loop_
_space_group_symop_operation_xyz
x,y,z
-x,y,-z
-x,-y,-z
x,-y,z
1/2+x,1/2+y,z
1/2-x,1/2+y,-z
1/2-x,1/2-y,-z
1/2+x,1/2-y,z
loop_
_atom_site_type_symbol
_atom_site_label
_atom_site_fract_x
_atom_site_fract_y
_atom_site_fract_z
Si Si1 0.304608 0.296760 0.704362
Si Si2 0.672426 0.108669 0.346186
Si Si3 0.253138 0.109590 0.211431
Si Si4 0.920075 0.891181 0.671640
Si Si5 0.696911 0.794096 0.877937
O O1 0.245555 0.189502 0.637238
O O2 0.208901 0.338117 0.693106
O O3 0.284520 0.363030 0.627052
O O4 0.556557 0.295978 0.915363
O O5 0.792497 0.116265 0.506792
O O6 0.433760 0.137771 0.177611
O O7 0.687938 0.000000 0.335678
O O8 0.341055 0.167146 0.221463
O O9 0.326876 0.000000 0.270503
O O10 0.000000 0.106516 0.000000
O O11 0.100439 0.811266 0.808513
O O12 0.994961 0.000000 0.736950
#
# Coordination Sequence:
#
# PCOD9181397 Si02
#       5
#     8   8   8   8   8
#     4  10  19  32  53  77 100 128 164 206 247 291
#     4  10  20  34  51  72 101 134 166 203 245 290
#     4   9  18  32  50  75 104 128 155 199 252 297
#     4  10  20  34  51  72 101 134 166 203 245 290
#     4  10  19  32  53  77 100 128 164 206 247 291
#
# _framework density 21.129166999999999
#
# number of rings (size 3 to 8) (size 9 to 14) (size 15 to 20)
#    0.000    2.200    0.000    6.000    0.000    4.800 
#    0.000    5.000    0.000   13.200    0.000    0.000 
#    0.000    0.000    0.000    0.000    0.000    0.000 
#
# Total GULP energy -111799.110276 kJ/mol
# GULP energy per Si atom -5589.955514 kJ/mol
# Density = 2.108108 g / cm^3
# Si number density = 21.129167 Si / 1000 Ang^3
#
#
#
# Elastic Constant Matrix: (Units=GPa)
#
#
# Indices 1 2 3 4 5 6 
#
# 1 139.0597 81.6639 5.2714 -0.0148 -36.3488 -0.0060
# 2 81.6639 187.2432 18.9428 -0.0261 -30.9263 0.0019
# 3 5.2714 18.9428 69.1316 -0.0069 -19.3761 0.0041
# 4 -0.0148 -0.0261 -0.0069 23.1010 -0.0076 -9.1191
# 5 -36.3488 -30.9263 -19.3761 -0.0076 27.0709 -0.0046
# 6 -0.0060 0.0019 0.0041 -9.1191 -0.0046 19.4996
#
#
#
# Elastic Compliance Matrix: (Units=1/GPa)
#
#
# Indices 1 2 3 4 5 6 
#
# 1 0.013798 -0.003541 0.004975 0.000019 0.018043 0.000017
# 2 -0.003541 0.007500 -0.000896 0.000008 0.003171 0.000003
# 3 0.004975 -0.000896 0.019911 0.000019 0.019908 0.000011
# 4 0.000019 0.000008 0.000019 0.053089 0.000067 0.024827
# 5 0.018043 0.003171 0.019908 0.000067 0.079039 0.000051
# 6 0.000017 0.000003 0.000011 0.024827 0.000051 0.062894
#
#
# Mechanical properties :
#
#
# Convention : Reuss Voigt Hill
#
# Bulk Modulus (GPa) = 23.64903 67.46564 45.55733
# Shear Modulus (GPa) = 20.06018 33.23806 26.64912
#
# Velocity S-wave (km/s) = 3.08459 3.97052 3.55526
# Velocity P-wave (km/s) = 4.88908 7.28145 6.20172
#
# Compressibility (1/GPa) = 0.04228503
#
# Stress axis : x y z
#
# Youngs Moduli (GPa) = 72.47182 133.34071 50.22308
#
# Poissons Ratio (x) = 0.47220 -0.24987
# Poissons Ratio (y) = 0.25664 0.04500
# Poissons Ratio (z) = -0.36057 0.11948
#
# Static dielectric constant tensor:
#      x y z
#    x 1.749880 0.000000 0.000430 
#    y 0.000000 1.728550 -0.000010 
#    z 0.000430 -0.000010 1.825950 
# 
# From -- ./inp_files/72472.got.cif
#   From: 2010.05.17/outbox.cif.g08.bks.cpg/sg12_37_cif.got.tgz:72472.got - 2010.06.03 13:09:07.
