data_PCOD9181139
_publ_section_title
;
Structure prediction by ZEFSAII (Michael W. Deem and Ramdas Pophale) SiO2 
 PCOD9181139
Probable space group: C 2/M
;
_chemical_formula_sum "Si O2"
_cell_formula_units_Z 60
_cell_length_a 17.498551
_cell_length_b 17.753342
_cell_length_c 11.870823
_cell_angle_alpha 90.000000
_cell_angle_beta 114.092475
_cell_angle_gamma 90.000000
_cell_volume 3366.514106
_symmetry_space_group_name_H-M "C 2/M"
_symmetry_group_IT_number 12
_symmetry_cell_setting 'monoclinic'
loop_
_space_group_symop_operation_xyz
x,y,z
-x,y,-z
-x,-y,-z
x,-y,z
1/2+x,1/2+y,z
1/2-x,1/2+y,-z
1/2-x,1/2-y,-z
1/2+x,1/2-y,z
loop_
_atom_site_type_symbol
_atom_site_label
_atom_site_fract_x
_atom_site_fract_y
_atom_site_fract_z
Si Si1 0.678628 0.689638 0.313100
Si Si2 0.133926 0.800062 0.912719
Si Si3 0.477392 0.775863 0.718382
Si Si4 0.825892 0.584488 0.484352
Si Si5 0.789536 0.689567 0.861574
Si Si6 0.599199 0.585895 0.081782
Si Si7 0.604125 0.085899 0.221918
Si Si8 0.000000 0.353514 0.500000
O O1 0.612377 0.734779 0.350212
O O2 0.756520 0.646912 0.414796
O O3 0.708417 0.750833 0.239389
O O4 0.625888 0.628359 0.210783
O O5 0.195354 0.818581 0.847338
O O6 0.041928 0.780819 0.814286
O O7 0.163857 0.727560 0.003487
O O8 0.138195 0.868616 0.001852
O O9 0.463586 0.848455 0.792032
O O10 0.511237 0.804538 0.619504
O O11 0.797456 0.500000 0.436369
O O12 0.845069 0.585305 0.629335
O O13 0.914649 0.600710 0.475293
O O14 0.837588 0.616709 0.843395
O O15 0.626762 0.500000 0.101692
O O16 0.500000 0.588584 0.000000
O O17 0.574145 0.000000 0.185037
#
# Coordination Sequence:
#
# PCOD9181139 Si02
#       8
#     8   8   8   8   8   8   8   4
#     4  10  19  33  54  79 102 138 171 216 256 307
#     4  10  19  35  52  78 104 137 169 215 261 299
#     4  10  20  34  54  77 107 135 172 216 257 310
#     4  10  20  35  54  77 106 137 175 216 261 308
#     4   9  20  33  54  75 105 136 175 212 254 310
#     4  10  19  32  52  77 102 132 170 209 256 309
#     4   9  20  36  53  74 102 139 173 209 259 309
#     4  10  21  34  54  78 103 138 174 218 263 304
#
# _framework density 17.822589000000001
#
# number of rings (size 3 to 8) (size 9 to 14) (size 15 to 20)
#    0.000    2.267    1.333    1.400    0.000    6.933 
#    0.000    1.333    0.000    0.800    0.000    3.267 
#    0.000    0.000    0.000    0.000    0.000    0.000 
#
# Total GULP energy -167214.298326 kJ/mol
# GULP energy per Si atom -5573.809944 kJ/mol
# Density = 1.778202 g / cm^3
# Si number density = 17.822589 Si / 1000 Ang^3
#
#
#
# Elastic Constant Matrix: (Units=GPa)
#
#
# Indices 1 2 3 4 5 6 
#
# 1 85.4378 24.2840 15.9945 0.0000 -13.7734 0.0000
# 2 24.2840 84.2564 0.2242 0.0000 -10.2919 0.0000
# 3 15.9945 0.2242 21.5261 0.0000 -11.2968 0.0000
# 4 0.0000 0.0000 0.0000 9.7466 0.0000 4.4891
# 5 -13.7734 -10.2919 -11.2968 0.0000 25.0754 0.0000
# 6 0.0000 0.0000 0.0000 4.4891 0.0000 15.2574
#
#
#
# Elastic Compliance Matrix: (Units=1/GPa)
#
#
# Indices 1 2 3 4 5 6 
#
# 1 0.015081 -0.004066 -0.010073 0.000000 0.002077 0.000000
# 2 -0.004066 0.013779 0.006121 0.000000 0.006179 0.000000
# 3 -0.010073 0.006121 0.068482 0.000000 0.027831 0.000000
# 4 0.000000 0.000000 0.000000 0.118684 0.000000 -0.034920
# 5 0.002077 0.006179 0.027831 0.000000 0.056095 0.000000
# 6 0.000000 0.000000 0.000000 -0.034920 0.000000 0.075816
#
#
# Mechanical properties :
#
#
# Convention : Reuss Voigt Hill
#
# Bulk Modulus (GPa) = 12.29958 30.24732 21.27345
# Shear Modulus (GPa) = 12.78530 20.06372 16.42451
#
# Velocity S-wave (km/s) = 2.68127 3.35885 3.03901
# Velocity P-wave (km/s) = 4.06223 5.66134 4.92709
#
# Compressibility (1/GPa) = 0.08130362
#
# Stress axis : x y z
#
# Youngs Moduli (GPa) = 66.31021 72.57455 14.60248
#
# Poissons Ratio (x) = 0.29509 0.14709
# Poissons Ratio (y) = 0.26962 -0.08937
# Poissons Ratio (z) = 0.66796 -0.44419
#
# Static dielectric constant tensor:
#      x y z
#    x 1.608460 0.000000 0.013950 
#    y 0.000000 1.620620 0.000000 
#    z 0.013950 0.000000 1.600400 
# 
# From -- ./inp_files/146184.got.cif
#   From: 2010.05.17/outbox.cif.g08.bks.cpg/sg12_74_cif.got.tgz:146184.got - 2010.06.03 13:09:07.
