data_PCOD9181301
_publ_section_title
;
Structure prediction by ZEFSAII (Michael W. Deem and Ramdas Pophale) SiO2 
 PCOD9181301
Probable space group: C 2/M
;
_chemical_formula_sum "Si O2"
_cell_formula_units_Z 64
_cell_length_a 24.753142
_cell_length_b 14.934573
_cell_length_c 17.761904
_cell_angle_alpha 90.000000
_cell_angle_beta 149.284902
_cell_angle_gamma 90.000000
_cell_volume 3353.803398
_symmetry_space_group_name_H-M "C 2/M"
_symmetry_group_IT_number 12
_symmetry_cell_setting 'monoclinic'
loop_
_space_group_symop_operation_xyz
x,y,z
-x,y,-z
-x,-y,-z
x,-y,z
1/2+x,1/2+y,z
1/2-x,1/2+y,-z
1/2-x,1/2-y,-z
1/2+x,1/2-y,z
loop_
_atom_site_type_symbol
_atom_site_label
_atom_site_fract_x
_atom_site_fract_y
_atom_site_fract_z
Si Si1 0.824498 0.893003 0.166047
Si Si2 0.891822 0.259384 0.831711
Si Si3 0.613612 0.107666 0.844856
Si Si4 0.760469 0.600637 0.767057
Si Si5 0.541296 0.854164 0.471259
Si Si6 0.544132 0.647589 0.474075
Si Si7 0.232555 0.600882 0.595541
Si Si8 0.425437 0.894212 0.733479
O O1 0.780432 0.877085 0.197883
O O2 0.943419 0.857899 0.299199
O O3 0.831861 0.000000 0.167135
O O4 0.732188 0.859705 0.000941
O O5 0.835252 0.323284 0.825106
O O6 0.816833 0.177810 0.715535
O O7 0.912827 0.326028 0.786697
O O8 0.000000 0.226812 0.000000
O O9 0.556189 0.144645 0.703077
O O10 0.535802 0.124060 0.822279
O O11 0.616452 0.000000 0.840119
O O12 0.806276 0.500000 0.822899
O O13 0.654174 0.600994 0.588198
O O14 0.500000 0.893037 0.500000
O O15 0.571829 0.750900 0.520821
O O16 0.640908 0.898069 0.549719
O O17 0.500000 0.608324 0.500000
O O18 0.277380 0.500000 0.645486
O O19 0.167877 0.618314 0.440383
O O20 0.424219 0.000000 0.754209
#
# Coordination Sequence:
#
# PCOD9181301 Si02
#       8
#     8   8   8   8   8   8   8   8
#     4   9  17  30  49  74 111 150 175 206 266 336
#     4  12  23  35  57  87 113 143 181 234 285 328
#     4   9  18  32  51  78 108 141 180 219 267 321
#     4  10  19  32  52  80 112 144 178 217 267 328
#     4  10  19  34  57  81 102 133 186 234 267 311
#     4   9  17  30  49  74 107 141 177 213 258 324
#     4  10  22  41  61  79 107 149 192 229 271 328
#     4   9  19  37  59  84 112 145 186 227 273 330
#
# _framework density 19.082812000000001
#
# number of rings (size 3 to 8) (size 9 to 14) (size 15 to 20)
#    0.000    2.250    1.250    3.000    0.000    5.250 
#    0.000    0.000    0.000    0.000    0.000    0.000 
#    0.000    0.000    0.000    0.000    0.000    0.000 
#
# Total GULP energy -178439.268417 kJ/mol
# GULP energy per Si atom -5576.227138 kJ/mol
# Density = 1.903938 g / cm^3
# Si number density = 19.082812 Si / 1000 Ang^3
#
#
#
# Elastic Constant Matrix: (Units=GPa)
#
#
# Indices 1 2 3 4 5 6 
#
# 1 39.7182 7.5052 12.3210 0.0000 -11.4549 0.0000
# 2 7.5052 67.2633 23.6426 0.0000 -5.4475 0.0000
# 3 12.3210 23.6426 111.2284 0.0000 7.5839 0.0000
# 4 0.0000 0.0000 0.0000 22.8359 0.0000 -0.7855
# 5 -11.4549 -5.4475 7.5839 0.0000 13.8958 0.0000
# 6 0.0000 0.0000 0.0000 -0.7855 0.0000 16.3475
#
#
#
# Elastic Compliance Matrix: (Units=1/GPa)
#
#
# Indices 1 2 3 4 5 6 
#
# 1 0.037023 0.001013 -0.006673 0.000000 0.034558 0.000000
# 2 0.001013 0.017118 -0.004430 0.000000 0.009964 0.000000
# 3 -0.006673 -0.004430 0.011596 0.000000 -0.013566 0.000000
# 4 0.000000 0.000000 0.000000 0.043863 0.000000 0.002108
# 5 0.034558 0.009964 -0.013566 0.000000 0.111762 0.000000
# 6 0.000000 0.000000 0.000000 0.002108 0.000000 0.061273
#
#
# Mechanical properties :
#
#
# Convention : Reuss Voigt Hill
#
# Bulk Modulus (GPa) = 21.95019 33.90529 27.92774
# Shear Modulus (GPa) = 15.72326 22.26527 18.99427
#
# Velocity S-wave (km/s) = 2.87356 3.41951 3.15836
# Velocity P-wave (km/s) = 4.74736 5.77899 5.28839
#
# Compressibility (1/GPa) = 0.04555768
#
# Stress axis : x y z
#
# Youngs Moduli (GPa) = 27.01050 58.41796 86.23417
#
# Poissons Ratio (x) = -0.05920 0.57542
# Poissons Ratio (y) = -0.02737 0.38203
# Poissons Ratio (z) = 0.18023 0.25880
#
# Static dielectric constant tensor:
#      x y z
#    x 1.660340 0.000000 -0.005490 
#    y 0.000000 1.667100 0.000000 
#    z -0.005490 0.000000 1.713200 
# 
# From -- ./inp_files/290128.got.cif
#   From: 2010.05.17/outbox.cif.g08.bks.cpg/sg12_146_cif.got.tgz:290128.got - 2010.06.03 13:09:07.
