data_PCOD9181018
_publ_section_title
;
Structure prediction by ZEFSAII (Michael W. Deem and Ramdas Pophale) SiO2 
 PCOD9181018
Probable space group: C 2/M
;
_chemical_formula_sum "Si O2"
_cell_formula_units_Z 40
_cell_length_a 21.309226
_cell_length_b 18.996621
_cell_length_c 14.343445
_cell_angle_alpha 90.000000
_cell_angle_beta 24.744994
_cell_angle_gamma 90.000000
_cell_volume 2430.392324
_symmetry_space_group_name_H-M "C 2/M"
_symmetry_group_IT_number 12
_symmetry_cell_setting 'monoclinic'
loop_
_space_group_symop_operation_xyz
x,y,z
-x,y,-z
-x,-y,-z
x,-y,z
1/2+x,1/2+y,z
1/2-x,1/2+y,-z
1/2-x,1/2-y,-z
1/2+x,1/2-y,z
loop_
_atom_site_type_symbol
_atom_site_label
_atom_site_fract_x
_atom_site_fract_y
_atom_site_fract_z
Si Si1 0.645859 0.676458 0.870806
Si Si2 0.102181 0.915489 0.448355
Si Si3 0.205825 0.327571 0.516498
Si Si4 0.588451 0.833994 0.978928
Si Si5 0.521874 0.415851 0.765867
O O1 0.777586 0.671027 0.617583
O O2 0.644506 0.754038 0.915255
O O3 0.500000 0.672794 0.000000
O O4 0.614507 0.619150 0.992471
O O5 0.267751 0.883320 0.217869
O O6 0.027280 0.897755 0.649012
O O7 0.000000 0.891873 0.500000
O O8 0.114486 0.000000 0.428371
O O9 0.250000 0.250000 0.500000
O O10 0.326209 0.381852 0.396962
O O11 0.039578 0.347190 0.772448
O O12 0.500000 0.838147 0.000000
O O13 0.521524 0.500000 0.777393
#
# Coordination Sequence:
#
# PCOD9181018 Si02
#       5
#     8   8   8   8   8
#     4   9  18  29  50  77 110 138 166 209 265 311
#     4  10  22  38  54  75 107 142 175 218 268 311
#     4  11  17  30  50  81 111 137 165 215 269 306
#     4  11  18  31  57  79 104 136 174 218 261 310
#     4  10  19  32  52  74 104 141 177 210 256 318
#
# _framework density 16.458248000000001
#
# number of rings (size 3 to 8) (size 9 to 14) (size 15 to 20)
#    0.000    1.800    8.000    0.000    0.000    4.800 
#    0.000    1.000    0.000    0.000    0.000    4.200 
#    0.000    0.000    0.000    0.000    0.000    0.000 
#
# Total GULP energy -111418.505318 kJ/mol
# GULP energy per Si atom -5570.925266 kJ/mol
# Density = 1.642079 g / cm^3
# Si number density = 16.458248 Si / 1000 Ang^3
#
#
#
# Elastic Constant Matrix: (Units=GPa)
#
#
# Indices 1 2 3 4 5 6 
#
# 1 63.5540 36.9409 50.7153 -0.0002 15.3485 0.0001
# 2 36.9409 50.3568 41.1790 -0.0002 13.1100 0.0001
# 3 50.7153 41.1790 144.0056 -0.0005 39.6766 0.0004
# 4 -0.0002 -0.0002 -0.0005 22.9749 0.0004 8.4388
# 5 15.3485 13.1100 39.6766 0.0004 27.4871 -0.0003
# 6 0.0001 0.0001 0.0004 8.4388 -0.0003 13.5686
#
#
#
# Elastic Compliance Matrix: (Units=1/GPa)
#
#
# Indices 1 2 3 4 5 6 
#
# 1 0.030641 -0.017791 -0.005525 0.000000 -0.000650 0.000000
# 2 -0.017791 0.036376 -0.003475 0.000000 -0.002399 0.000000
# 3 -0.005525 -0.003475 0.014240 0.000001 -0.015813 -0.000001
# 4 0.000000 0.000000 0.000001 0.056413 -0.000003 -0.035085
# 5 -0.000650 -0.002399 -0.015813 -0.000003 0.060713 0.000003
# 6 0.000000 0.000000 -0.000001 -0.035085 0.000003 0.095521
#
#
# Mechanical properties :
#
#
# Convention : Reuss Voigt Hill
#
# Bulk Modulus (GPa) = 36.13326 57.28743 46.71035
# Shear Modulus (GPa) = 14.01693 21.41152 17.71422
#
# Velocity S-wave (km/s) = 2.92150 3.61080 3.28428
# Velocity P-wave (km/s) = 5.77775 7.22960 6.54406
#
# Compressibility (1/GPa) = 0.02767533
#
# Stress axis : x y z
#
# Youngs Moduli (GPa) = 32.63570 27.49067 70.22235
#
# Poissons Ratio (x) = 0.48909 0.38796
# Poissons Ratio (y) = 0.58062 0.24405
# Poissons Ratio (z) = 0.18030 0.09554
#
# Static dielectric constant tensor:
#      x y z
#    x 1.547140 0.000000 0.044610 
#    y 0.000000 1.556280 0.000000 
#    z 0.044610 0.000000 1.589820 
# 
# From -- ./inp_files/47085.got.cif
#   From: 2010.05.17/outbox.cif.g08.bks.cpg/sg12_24_cif.got.tgz:47085.got - 2010.06.03 13:09:07.
