data_PCOD9181428
_publ_section_title
;
Structure prediction by ZEFSAII (Michael W. Deem and Ramdas Pophale) SiO2 
 PCOD9181428
Probable space group: C 2/M
;
_chemical_formula_sum "Si O2"
_cell_formula_units_Z 64
_cell_length_a 24.990115
_cell_length_b 7.485204
_cell_length_c 14.502884
_cell_angle_alpha 90.000000
_cell_angle_beta 74.970102
_cell_angle_gamma 90.000000
_cell_volume 2620.048075
_symmetry_space_group_name_H-M "C 2/M"
_symmetry_group_IT_number 12
_symmetry_cell_setting 'monoclinic'
loop_
_space_group_symop_operation_xyz
x,y,z
-x,y,-z
-x,-y,-z
x,-y,z
1/2+x,1/2+y,z
1/2-x,1/2+y,-z
1/2-x,1/2-y,-z
1/2+x,1/2-y,z
loop_
_atom_site_type_symbol
_atom_site_label
_atom_site_fract_x
_atom_site_fract_y
_atom_site_fract_z
Si Si1 0.755436 0.212292 0.780629
Si Si2 0.918735 0.207930 0.216193
Si Si3 0.462030 0.287970 0.380711
Si Si4 0.650140 0.204790 0.466970
Si Si5 0.697493 0.782599 0.629232
Si Si6 0.085021 0.713070 0.330624
Si Si7 0.647899 0.292460 0.133538
Si Si8 0.861440 0.784163 0.068043
O O1 0.745277 0.276065 0.679518
O O2 0.803300 0.288974 0.824871
O O3 0.698077 0.242760 0.860670
O O4 0.763822 0.000000 0.769220
O O5 0.959609 0.281262 0.275806
O O6 0.859007 0.222898 0.294127
O O7 0.907532 0.284680 0.119823
O O8 0.933354 0.000000 0.197558
O O9 0.450839 0.500000 0.386070
O O10 0.410886 0.202599 0.457172
O O11 0.523497 0.259531 0.390058
O O12 0.690580 0.285309 0.527086
O O13 0.633015 0.288205 0.376817
O O14 0.666494 0.000000 0.446564
O O15 0.697288 0.000000 0.626387
O O16 0.089977 0.500000 0.328654
O O17 0.095273 0.782663 0.223563
O O18 0.663064 0.500000 0.111817
O O19 0.637912 0.216249 0.036783
O O20 0.867375 0.000000 0.063776
#
# Coordination Sequence:
#
# PCOD9181428 Si02
#       8
#     8   8   8   8   8   8   8   8
#     4   9  17  30  51  77 100 124 157 197 239 282
#     4   8  15  28  47  73  99 121 151 191 235 284
#     4  10  19  32  53  77  98 122 155 197 243 288
#     4   9  18  33  52  73  97 126 160 196 236 285
#     4   8  14  27  48  72  97 123 152 191 237 281
#     4  11  23  36  49  67  95 131 167 201 238 282
#     4  10  21  35  49  69  99 132 164 198 237 280
#     4   9  17  31  52  75  99 127 158 194 236 284
#
# _framework density 24.427033999999999
#
# number of rings (size 3 to 8) (size 9 to 14) (size 15 to 20)
#    0.000    2.750    0.000    1.500    0.000    4.000 
#    0.000    1.250    0.000    3.750    0.000    0.000 
#    0.000    0.000    0.000    0.000    0.000    0.000 
#
# Total GULP energy -178643.887154 kJ/mol
# GULP energy per Si atom -5582.621474 kJ/mol
# Density = 2.437144 g / cm^3
# Si number density = 24.427034 Si / 1000 Ang^3
#
#
#
# Elastic Constant Matrix: (Units=GPa)
#
#
# Indices 1 2 3 4 5 6 
#
# 1 91.8979 0.0577 31.2999 0.0000 23.0114 0.0000
# 2 0.0577 91.0345 9.6931 0.0000 9.9761 0.0000
# 3 31.2999 9.6931 174.3407 0.0000 37.1459 0.0000
# 4 0.0000 0.0000 0.0000 15.8607 0.0000 -3.4993
# 5 23.0114 9.9761 37.1459 0.0000 35.0168 0.0000
# 6 0.0000 0.0000 0.0000 -3.4993 0.0000 28.9941
#
#
#
# Elastic Compliance Matrix: (Units=1/GPa)
#
#
# Indices 1 2 3 4 5 6 
#
# 1 0.013166 0.000963 -0.000666 0.000000 -0.008220 0.000000
# 2 0.000963 0.011410 0.000026 0.000000 -0.003911 0.000000
# 3 -0.000666 0.000026 0.007445 0.000000 -0.007468 0.000000
# 4 0.000000 0.000000 0.000000 0.064774 0.000000 0.007817
# 5 -0.008220 -0.003911 -0.007468 0.000000 0.042996 0.000000
# 6 0.000000 0.000000 0.000000 0.007817 0.000000 0.035433
#
#
# Mechanical properties :
#
#
# Convention : Reuss Voigt Hill
#
# Bulk Modulus (GPa) = 30.61051 48.81940 39.71495
# Shear Modulus (GPa) = 26.95906 37.05581 32.00744
#
# Velocity S-wave (km/s) = 3.32574 3.89909 3.62377
# Velocity P-wave (km/s) = 5.22551 6.34821 5.81402
#
# Compressibility (1/GPa) = 0.03266852
#
# Stress axis : x y z
#
# Youngs Moduli (GPa) = 75.95201 87.64163 134.31693
#
# Poissons Ratio (x) = -0.08443 0.08944
# Poissons Ratio (y) = -0.07317 -0.00350
# Poissons Ratio (z) = 0.05057 -0.00228
#
# Static dielectric constant tensor:
#      x y z
#    x 1.953900 0.000000 0.058310 
#    y 0.000000 1.774520 0.000000 
#    z 0.058310 0.000000 1.995780 
# 
# From -- ./inp_files/243945.got.cif
#   From: 2010.05.17/outbox.cif.g08.bks.cpg/sg12_122_cif.got.tgz:243945.got - 2010.06.03 13:09:07.
