data_PCOD9181671
_publ_section_title
;
Structure prediction by ZEFSAII (Michael W. Deem and Ramdas Pophale) SiO2 
 PCOD9181671
Probable space group: C 2/M
;
_chemical_formula_sum "Si O2"
_cell_formula_units_Z 50
_cell_length_a 24.982235
_cell_length_b 7.327826
_cell_length_c 15.243002
_cell_angle_alpha 90.000000
_cell_angle_beta 126.828155
_cell_angle_gamma 90.000000
_cell_volume 2233.593073
_symmetry_space_group_name_H-M "C 2/M"
_symmetry_group_IT_number 12
_symmetry_cell_setting 'monoclinic'
loop_
_space_group_symop_operation_xyz
x,y,z
-x,y,-z
-x,-y,-z
x,-y,z
1/2+x,1/2+y,z
1/2-x,1/2+y,-z
1/2-x,1/2-y,-z
1/2+x,1/2-y,z
loop_
_atom_site_type_symbol
_atom_site_label
_atom_site_fract_x
_atom_site_fract_y
_atom_site_fract_z
Si Si1 0.500000 0.000000 0.000000
Si Si2 0.061143 0.218518 0.345439
Si Si3 0.581619 0.289022 0.862154
Si Si4 0.821359 0.278794 0.201109
Si Si5 0.173969 0.220892 0.101906
Si Si6 0.903642 0.218708 0.808575
Si Si7 0.926759 0.289847 0.445537
O O1 0.463703 0.160168 0.903999
O O2 0.104841 0.259233 0.302557
O O3 0.085497 0.286911 0.462948
O O4 0.985851 0.286271 0.247838
O O5 0.057761 0.000000 0.352062
O O6 0.565524 0.500000 0.865795
O O7 0.641131 0.280395 0.849998
O O8 0.612918 0.208172 0.981663
O O9 0.818770 0.500000 0.197261
O O10 0.745495 0.214464 0.138203
O O11 0.867531 0.214973 0.327489
O O12 0.157802 0.261759 0.186854
O O13 0.173992 0.000000 0.093412
O O14 0.917311 0.000000 0.829633
O O15 0.931915 0.500000 0.421515
O O16 0.000000 0.206358 0.500000
#
# Coordination Sequence:
#
# PCOD9181671 Si02
#       7
#     2   8   8   8   8   8   8
#     4  12  22  36  64  94 118 164 200 236 296 346
#     4  10  21  36  59  83 113 151 192 239 302 353
#     4  10  19  32  53  83 111 146 185 238 294 353
#     4  10  20  36  56  81 110 155 195 235 297 353
#     4   9  19  38  59  77 116 159 192 231 293 360
#     4  10  22  41  59  87 125 158 198 247 293 351
#     4  10  20  35  55  82 114 147 191 250 299 343
#
# _framework density 22.385458
#
# number of rings (size 3 to 8) (size 9 to 14) (size 15 to 20)
#    0.000    2.080    1.600    1.680    1.120    3.520 
#    5.760    0.800    0.000    0.000    0.000    0.000 
#    0.000    0.000    0.000    0.000    0.000    0.000 
#
# Total GULP energy -139400.798162 kJ/mol
# GULP energy per Si atom -5576.031926 kJ/mol
# Density = 2.233451 g / cm^3
# Si number density = 22.385458 Si / 1000 Ang^3
#
#
#
# Elastic Constant Matrix: (Units=GPa)
#
#
# Indices 1 2 3 4 5 6 
#
# 1 94.3028 -18.0265 14.2369 0.0000 -16.2526 0.0000
# 2 -18.0265 92.6071 -11.0145 0.0000 3.3316 0.0000
# 3 14.2369 -11.0145 72.6367 0.0000 -15.2390 0.0000
# 4 0.0000 0.0000 0.0000 11.3944 0.0000 -10.7704
# 5 -16.2526 3.3316 -15.2390 0.0000 37.3536 0.0000
# 6 0.0000 0.0000 0.0000 -10.7704 0.0000 13.1927
#
#
#
# Elastic Compliance Matrix: (Units=1/GPa)
#
#
# Indices 1 2 3 4 5 6 
#
# 1 0.011944 0.002033 -0.001072 0.000000 0.004578 0.000000
# 2 0.002033 0.011346 0.001417 0.000000 0.000450 0.000000
# 3 -0.001072 0.001417 0.015384 0.000000 0.005683 0.000000
# 4 0.000000 0.000000 0.000000 0.384379 0.000000 0.313804
# 5 0.004578 0.000450 0.005683 0.000000 0.031042 0.000000
# 6 0.000000 0.000000 0.000000 0.313804 0.000000 0.331986
#
#
# Mechanical properties :
#
#
# Convention : Reuss Voigt Hill
#
# Bulk Modulus (GPa) = 23.02649 25.54871 24.28760
# Shear Modulus (GPa) = 6.28296 30.67819 18.48058
#
# Velocity S-wave (km/s) = 1.67714 3.70598 2.87638
# Velocity P-wave (km/s) = 3.74955 5.45438 4.68024
#
# Compressibility (1/GPa) = 0.04342825
#
# Stress axis : x y z
#
# Youngs Moduli (GPa) = 83.72715 88.13475 65.00053
#
# Poissons Ratio (x) = -0.17915 0.06970
# Poissons Ratio (y) = -0.17019 -0.09208
# Poissons Ratio (z) = 0.08978 -0.12485
#
# Static dielectric constant tensor:
#      x y z
#    x 1.849240 0.000000 -0.003680 
#    y 0.000000 1.860040 0.000000 
#    z -0.003680 0.000000 1.798820 
# 
# From -- ./inp_files/237261.got.cif
#   From: 2010.05.17/outbox.cif.g08.bks.cpg/sg12_119_cif.got.tgz:237261.got - 2010.06.03 13:09:07.
