data_PCOD9181143
_publ_section_title
;
Structure prediction by ZEFSAII (Michael W. Deem and Ramdas Pophale) SiO2 
 PCOD9181143
Probable space group: C 2/M
;
_chemical_formula_sum "Si O2"
_cell_formula_units_Z 48
_cell_length_a 30.003810
_cell_length_b 7.372969
_cell_length_c 15.239792
_cell_angle_alpha 90.000000
_cell_angle_beta 145.493077
_cell_angle_gamma 90.000000
_cell_volume 1909.863036
_symmetry_space_group_name_H-M "C 2/M"
_symmetry_group_IT_number 12
_symmetry_cell_setting 'monoclinic'
loop_
_space_group_symop_operation_xyz
x,y,z
-x,y,-z
-x,-y,-z
x,-y,z
1/2+x,1/2+y,z
1/2-x,1/2+y,-z
1/2-x,1/2-y,-z
1/2+x,1/2-y,z
loop_
_atom_site_type_symbol
_atom_site_label
_atom_site_fract_x
_atom_site_fract_y
_atom_site_fract_z
Si Si1 0.331088 0.716043 0.696084
Si Si2 0.607749 0.283810 0.914935
Si Si3 0.916893 0.778692 0.323255
Si Si4 0.710191 0.718281 0.740590
Si Si5 0.967182 0.783628 0.038743
Si Si6 0.841498 0.798607 0.530271
O O1 0.321864 0.500000 0.671156
O O2 0.376540 0.734268 0.860234
O O3 0.248270 0.807366 0.579879
O O4 0.376349 0.778251 0.679261
O O5 0.595512 0.500000 0.894648
O O6 0.594116 0.216212 0.794369
O O7 0.801238 0.242173 0.909158
O O8 0.541692 0.213956 0.876720
O O9 0.844838 0.722567 0.268448
O O10 0.000000 0.723797 0.500000
O O11 0.916219 0.000000 0.320792
O O12 0.705719 0.500000 0.725232
O O13 0.671515 0.788062 0.585969
O O14 0.988378 0.000000 0.073947
O O15 0.000000 0.707494 0.000000
O O16 0.875456 0.000000 0.572491
#
# Coordination Sequence:
#
# PCOD9181143 Si02
#       6
#     8   8   8   8   8   8
#     4   9  16  28  44  65  94 124 156 193 232 279
#     4  10  19  33  54  76  99 132 171 210 251 297
#     4   9  19  34  52  76 103 130 166 211 256 301
#     4  10  19  32  52  77 103 132 167 208 252 299
#     4   9  17  28  45  71  98 124 159 202 243 284
#     4   9  17  27  44  68  93 123 155 191 237 283
#
# _framework density 25.132694000000001
#
# number of rings (size 3 to 8) (size 9 to 14) (size 15 to 20)
#    0.000    2.667    1.667    0.500    0.000    1.333 
#    0.000    6.667    0.000    4.000    0.000    2.333 
#    0.000    0.000    0.000    0.000    0.000    0.000 
#
# Total GULP energy -133702.479279 kJ/mol
# GULP energy per Si atom -5570.936637 kJ/mol
# Density = 2.507549 g / cm^3
# Si number density = 25.132694 Si / 1000 Ang^3
#
#
#
# Elastic Constant Matrix: (Units=GPa)
#
#
# Indices 1 2 3 4 5 6 
#
# 1 213.7704 16.6478 63.5160 0.0000 -50.8581 0.0000
# 2 16.6478 67.3718 12.3597 0.0000 -13.5583 0.0000
# 3 63.5160 12.3597 111.6395 0.0000 -50.5742 0.0000
# 4 0.0000 0.0000 0.0000 8.8079 0.0000 19.2389
# 5 -50.8581 -13.5583 -50.5742 0.0000 54.5600 0.0000
# 6 0.0000 0.0000 0.0000 19.2389 0.0000 21.9431
#
#
#
# Elastic Compliance Matrix: (Units=1/GPa)
#
#
# Indices 1 2 3 4 5 6 
#
# 1 0.006174 -0.000392 -0.001562 0.000000 0.004210 0.000000
# 2 -0.000392 0.015649 0.000149 0.000000 0.003662 0.000000
# 3 -0.001562 0.000149 0.015837 0.000000 0.013261 0.000000
# 4 0.000000 0.000000 0.000000 -0.124067 0.000000 0.108778
# 5 0.004210 0.003662 0.013261 0.000000 0.035455 0.000000
# 6 0.000000 0.000000 0.000000 0.108778 0.000000 -0.049800
#
#
# Mechanical properties :
#
#
# Convention : Reuss Voigt Hill
#
# Bulk Modulus (GPa) = 29.36754 64.20318 46.78536
# Shear Modulus (GPa) = -58.28042 37.07940 -10.60051
#
# Velocity S-wave (km/s) = -4.82073 3.84519 -2.05596
# Velocity P-wave (km/s) = 4.39039 6.73165 3.60829
#
# Compressibility (1/GPa) = 0.03405120
#
# Stress axis : x y z
#
# Youngs Moduli (GPa) = 161.96557 63.90009 63.14278
#
# Poissons Ratio (x) = 0.02504 0.09865
# Poissons Ratio (y) = 0.06347 -0.00943
# Poissons Ratio (z) = 0.25303 -0.00955
#
# Static dielectric constant tensor:
#      x y z
#    x 2.022640 0.000000 0.039750 
#    y 0.000000 1.892310 0.000000 
#    z 0.039750 0.000000 2.196790 
# 
# From -- ./inp_files/182258.got.cif
#   From: 2010.05.17/outbox.cif.g08.bks.cpg/sg12_92_cif.got.tgz:182258.got - 2010.06.03 13:09:07.
