data_PCOD9181615
_publ_section_title
;
Structure prediction by ZEFSAII (Michael W. Deem and Ramdas Pophale) SiO2 
 PCOD9181615
Probable space group: C 2/M
;
_chemical_formula_sum "Si O2"
_cell_formula_units_Z 64
_cell_length_a 14.487271
_cell_length_b 16.879452
_cell_length_c 23.811120
_cell_angle_alpha 90.000000
_cell_angle_beta 148.702978
_cell_angle_gamma 90.000000
_cell_volume 3024.747676
_symmetry_space_group_name_H-M "C 2/M"
_symmetry_group_IT_number 12
_symmetry_cell_setting 'monoclinic'
loop_
_space_group_symop_operation_xyz
x,y,z
-x,y,-z
-x,-y,-z
x,-y,z
1/2+x,1/2+y,z
1/2-x,1/2+y,-z
1/2-x,1/2-y,-z
1/2+x,1/2-y,z
loop_
_atom_site_type_symbol
_atom_site_label
_atom_site_fract_x
_atom_site_fract_y
_atom_site_fract_z
Si Si1 0.391115 0.906300 0.999069
Si Si2 0.576477 0.162439 0.805569
Si Si3 0.753632 0.590227 0.755558
Si Si4 0.563912 0.592309 0.969725
Si Si5 0.592251 0.700879 0.888828
Si Si6 0.621579 0.757852 0.511337
Si Si7 0.772188 0.912751 0.391533
Si Si8 0.019723 0.227717 0.681406
O O1 0.538221 0.892216 0.124240
O O2 0.354516 0.000000 0.978252
O O3 0.500000 0.883140 0.000000
O O4 0.207309 0.859939 0.910944
O O5 0.729829 0.116295 0.917250
O O6 0.492111 0.231991 0.801209
O O7 0.437373 0.099480 0.710545
O O8 0.630513 0.214702 0.779809
O O9 0.726682 0.500000 0.761018
O O10 0.710098 0.593084 0.666796
O O11 0.630673 0.649858 0.725415
O O12 0.540952 0.500000 0.943213
O O13 0.500000 0.605009 0.000000
O O14 0.491247 0.650843 0.883783
O O15 0.750000 0.750000 0.000000
O O16 0.500000 0.787503 0.500000
O O17 0.646275 0.663097 0.535476
O O18 0.824596 0.788018 0.607961
O O19 0.523580 0.767919 0.401052
O O20 0.828820 0.000000 0.440270
#
# Coordination Sequence:
#
# PCOD9181615 Si02
#       8
#     8   8   8   8   8   8   8   8
#     4  10  20  33  51  75 107 146 183 224 276 325
#     4  10  21  35  54  83 111 146 189 231 278 333
#     4  10  19  32  53  81 110 140 180 232 278 327
#     4  10  21  37  55  77 110 153 196 233 263 307
#     4  10  20  33  52  78 112 147 184 226 276 329
#     4  10  20  38  56  82 114 145 179 227 287 344
#     4  10  20  34  57  83 108 140 179 234 292 334
#     4  10  21  35  56  83 113 145 182 225 284 341
#
# _framework density 21.158788999999999
#
# number of rings (size 3 to 8) (size 9 to 14) (size 15 to 20)
#    0.000    2.000    1.250    3.000    0.000    6.750 
#    0.000    0.625    0.000    0.375    0.000    0.000 
#    0.000    0.000    0.000    0.000    0.000    0.000 
#
# Total GULP energy -178519.064292 kJ/mol
# GULP energy per Si atom -5578.720759 kJ/mol
# Density = 2.111063 g / cm^3
# Si number density = 21.158789 Si / 1000 Ang^3
#
#
#
# Elastic Constant Matrix: (Units=GPa)
#
#
# Indices 1 2 3 4 5 6 
#
# 1 105.5673 38.6242 -15.4782 0.0000 -2.9767 0.0000
# 2 38.6242 88.0723 -4.0554 0.0001 -0.8403 0.0000
# 3 -15.4782 -4.0554 19.0921 0.0001 -7.9061 0.0000
# 4 0.0000 0.0001 0.0001 23.1592 0.0000 3.7371
# 5 -2.9767 -0.8403 -7.9061 0.0000 34.1585 0.0000
# 6 0.0000 0.0000 0.0000 3.7371 0.0000 29.7005
#
#
#
# Elastic Compliance Matrix: (Units=1/GPa)
#
#
# Indices 1 2 3 4 5 6 
#
# 1 0.013084 -0.005199 0.010974 0.000000 0.003552 0.000000
# 2 -0.005199 0.013559 -0.001531 0.000000 -0.000474 0.000000
# 3 0.010974 -0.001531 0.067831 0.000000 0.016619 0.000000
# 4 0.000000 0.000000 0.000000 0.044074 0.000000 -0.005546
# 5 0.003552 -0.000474 0.016619 0.000000 0.033420 0.000000
# 6 0.000000 0.000000 0.000000 -0.005546 0.000000 0.034367
#
#
# Mechanical properties :
#
#
# Convention : Reuss Voigt Hill
#
# Bulk Modulus (GPa) = 9.71219 27.87923 18.79571
# Shear Modulus (GPa) = 21.53618 30.31305 25.92462
#
# Velocity S-wave (km/s) = 3.19382 3.78914 3.50414
# Velocity P-wave (km/s) = 4.26623 5.68755 5.02737
#
# Compressibility (1/GPa) = 0.10296336
#
# Stress axis : x y z
#
# Youngs Moduli (GPa) = 76.43000 73.75059 14.74248
#
# Poissons Ratio (x) = 0.38341 -0.16178
# Poissons Ratio (y) = 0.39734 0.02257
# Poissons Ratio (z) = -0.83874 0.11289
#
# Static dielectric constant tensor:
#      x y z
#    x 1.852710 0.000000 -0.015960 
#    y 0.000000 1.758570 0.000000 
#    z -0.015960 0.000000 1.816930 
# 
# From -- ./inp_files/340191.got.cif
#   From: 2010.05.17/outbox.cif.g08.bks.cpg/sg12_171_cif.got.tgz:340191.got - 2010.06.03 13:09:07.
