data_PCOD9181586
_publ_section_title
;
Structure prediction by ZEFSAII (Michael W. Deem and Ramdas Pophale) SiO2 
 PCOD9181586
Probable space group: C 2/M
;
_chemical_formula_sum "Si O2"
_cell_formula_units_Z 42
_cell_length_a 21.550691
_cell_length_b 13.042639
_cell_length_c 10.463613
_cell_angle_alpha 90.000000
_cell_angle_beta 38.777358
_cell_angle_gamma 90.000000
_cell_volume 1841.992391
_symmetry_space_group_name_H-M "C 2/M"
_symmetry_group_IT_number 12
_symmetry_cell_setting 'monoclinic'
loop_
_space_group_symop_operation_xyz
x,y,z
-x,y,-z
-x,-y,-z
x,-y,z
1/2+x,1/2+y,z
1/2-x,1/2+y,-z
1/2-x,1/2-y,-z
1/2+x,1/2-y,z
loop_
_atom_site_type_symbol
_atom_site_label
_atom_site_fract_x
_atom_site_fract_y
_atom_site_fract_z
Si Si1 0.400851 0.382964 0.593846
Si Si2 0.119427 0.611415 0.795778
Si Si3 0.231061 0.615257 0.083174
Si Si4 0.577387 0.307409 0.710696
Si Si5 0.500000 0.500000 0.000000
Si Si6 0.361190 0.779697 0.985896
O O1 0.500000 0.339602 0.500000
O O2 0.426212 0.500000 0.516906
O O3 0.316066 0.386346 0.836437
O O4 0.376063 0.330124 0.501194
O O5 0.155701 0.500000 0.691018
O O6 0.132898 0.713005 0.689728
O O7 0.157655 0.635352 0.876220
O O8 0.000000 0.604453 0.000000
O O9 0.212469 0.500000 0.157014
O O10 0.278926 0.690027 0.110364
O O11 0.141320 0.665983 0.149060
O O12 0.465308 0.270750 0.855833
O O13 0.562493 0.407893 0.822015
#
# Coordination Sequence:
#
# PCOD9181586 Si02
#       6
#     8   8   8   8   2   8
#     4  10  19  32  53  80 112 145 178 226 284 337
#     4   9  18  33  53  75 102 143 186 222 265 325
#     4  10  21  33  52  80 115 147 182 227 281 334
#     4  11  20  33  58  83 112 141 186 236 276 326
#     4  12  20  32  56  92 112 132 190 246 278 314
#     4  10  19  33  52  79 105 142 184 230 268 321
#
# _framework density 22.801399
#
# number of rings (size 3 to 8) (size 9 to 14) (size 15 to 20)
#    0.000    1.905    5.714    0.571    1.333    0.762 
#    0.000    0.952    0.000    6.286    0.000    0.000 
#    0.000    0.000    0.000    0.000    0.000    0.000 
#
# Total GULP energy -116971.194024 kJ/mol
# GULP energy per Si atom -5570.056858 kJ/mol
# Density = 2.274950 g / cm^3
# Si number density = 22.801399 Si / 1000 Ang^3
#
#
#
# Elastic Constant Matrix: (Units=GPa)
#
#
# Indices 1 2 3 4 5 6 
#
# 1 84.6716 46.3538 6.5685 0.0000 -1.0335 0.0000
# 2 46.3538 193.0644 15.0447 0.0000 8.8950 0.0000
# 3 6.5685 15.0447 51.1193 0.0000 5.2788 0.0000
# 4 0.0000 0.0000 0.0000 15.8780 0.0000 6.9526
# 5 -1.0335 8.8950 5.2788 0.0000 27.6580 0.0000
# 6 0.0000 0.0000 0.0000 6.9526 0.0000 20.8839
#
#
#
# Elastic Compliance Matrix: (Units=1/GPa)
#
#
# Indices 1 2 3 4 5 6 
#
# 1 0.013713 -0.003298 -0.000973 0.000000 0.001759 0.000000
# 2 -0.003298 0.006151 -0.001193 0.000000 -0.001874 0.000000
# 3 -0.000973 -0.001193 0.020405 0.000000 -0.003547 0.000000
# 4 0.000000 0.000000 0.000000 0.073728 0.000000 -0.024545
# 5 0.001759 -0.001874 -0.003547 0.000000 0.037501 0.000000
# 6 0.000000 0.000000 0.000000 -0.024545 0.000000 0.056055
#
#
# Mechanical properties :
#
#
# Convention : Reuss Voigt Hill
#
# Bulk Modulus (GPa) = 34.08259 51.64326 42.86293
# Shear Modulus (GPa) = 21.90490 30.27652 26.09071
#
# Velocity S-wave (km/s) = 3.10285 3.64790 3.38636
# Velocity P-wave (km/s) = 5.27418 6.35934 5.84201
#
# Compressibility (1/GPa) = 0.02934049
#
# Stress axis : x y z
#
# Youngs Moduli (GPa) = 72.92603 162.58521 49.00877
#
# Poissons Ratio (x) = 0.53613 0.04769
# Poissons Ratio (y) = 0.24047 0.05847
# Poissons Ratio (z) = 0.07096 0.19396
#
# Static dielectric constant tensor:
#      x y z
#    x 1.882240 0.000000 -0.026720 
#    y 0.000000 1.892870 0.000000 
#    z -0.026720 0.000000 1.881780 
# 
# From -- ./inp_files/163938.got.cif
#   From: 2010.05.17/outbox.cif.g08.bks.cpg/sg12_82_cif.got.tgz:163938.got - 2010.06.03 13:09:07.
