data_PCOD9181049
_publ_section_title
;
Structure prediction by ZEFSAII (Michael W. Deem and Ramdas Pophale) SiO2 
 PCOD9181049
Probable space group: C 2/M
;
_chemical_formula_sum "Si O2"
_cell_formula_units_Z 64
_cell_length_a 21.568740
_cell_length_b 8.042155
_cell_length_c 17.261570
_cell_angle_alpha 90.000000
_cell_angle_beta 90.492993
_cell_angle_gamma 90.000000
_cell_volume 2994.066428
_symmetry_space_group_name_H-M "C 2/M"
_symmetry_group_IT_number 12
_symmetry_cell_setting 'monoclinic'
loop_
_space_group_symop_operation_xyz
x,y,z
-x,y,-z
-x,-y,-z
x,-y,z
1/2+x,1/2+y,z
1/2-x,1/2+y,-z
1/2-x,1/2-y,-z
1/2+x,1/2-y,z
loop_
_atom_site_type_symbol
_atom_site_label
_atom_site_fract_x
_atom_site_fract_y
_atom_site_fract_z
Si Si1 0.621972 0.807120 0.324198
Si Si2 0.830831 0.198303 0.929582
Si Si3 0.197754 0.799018 0.895589
Si Si4 0.080103 0.199937 0.794168
Si Si5 0.069423 0.189851 0.472277
Si Si6 0.377243 0.297586 0.368748
Si Si7 0.556327 0.197610 0.170944
Si Si8 0.743622 0.800315 0.409750
O O1 0.574589 0.793048 0.394641
O O2 0.590800 0.731168 0.248022
O O3 0.684062 0.733431 0.363286
O O4 0.635383 0.000000 0.305800
O O5 0.768909 0.246946 0.880725
O O6 0.895609 0.263610 0.897011
O O7 0.834335 0.000000 0.931223
O O8 0.818715 0.258691 0.017271
O O9 0.142038 0.740890 0.839439
O O10 0.197378 0.000000 0.894441
O O11 0.084249 0.260563 0.705007
O O12 0.014388 0.240215 0.832785
O O13 0.084462 0.000000 0.791623
O O14 0.104966 0.265120 0.545966
O O15 0.000000 0.178842 0.500000
O O16 0.091359 0.000000 0.457125
O O17 0.384611 0.500000 0.373085
O O18 0.304830 0.258935 0.361591
O O19 0.551334 0.000000 0.178658
O O20 0.750000 0.750000 0.500000
O O21 0.738580 0.000000 0.411824
#
# Coordination Sequence:
#
# PCOD9181049 Si02
#       8
#     8   8   8   8   8   8   8   8
#     4  10  22  36  53  77 108 145 186 233 284 340
#     4  10  21  39  63  92 122 154 194 235 281 346
#     4   9  20  39  65  93 121 154 191 234 287 345
#     4  10  21  39  63  87 115 154 195 239 290 348
#     4  10  19  32  52  75 102 140 184 227 275 333
#     4   9  18  32  53  79 107 142 183 229 281 340
#     4  11  24  40  58  84 119 157 197 244 293 343
#     4  10  19  34  54  78 104 139 186 234 286 344
#
# _framework density 21.375610999999999
#
# number of rings (size 3 to 8) (size 9 to 14) (size 15 to 20)
#    0.000    2.125    1.250    1.500    1.750    3.750 
#    0.000    3.750    0.000    0.000    0.000    0.000 
#    0.000    0.000    0.000    0.000    0.000    0.000 
#
# Total GULP energy -178503.395238 kJ/mol
# GULP energy per Si atom -5578.231101 kJ/mol
# Density = 2.132696 g / cm^3
# Si number density = 21.375611 Si / 1000 Ang^3
#
#
#
# Elastic Constant Matrix: (Units=GPa)
#
#
# Indices 1 2 3 4 5 6 
#
# 1 73.5210 4.1735 -1.1532 0.0000 -11.3880 0.0000
# 2 4.1735 15.3621 -0.1421 0.0000 6.0153 0.0000
# 3 -1.1532 -0.1421 36.3381 0.0000 -5.2640 0.0000
# 4 0.0000 0.0000 0.0000********** 0.000076818.2601
# 5 -11.3880 6.0153 -5.2640 0.0000 34.3333 0.0000
# 6 0.0000 0.0000 0.000076818.2601 0.0000**********
#
#
#
# Elastic Compliance Matrix: (Units=1/GPa)
#
#
# Indices 1 2 3 4 5 6 
#
# 1 0.014973 -0.006530 0.001365 0.000000 0.006320 0.000000
# 2 -0.006530 0.072821 -0.002132 0.000000 -0.015251 0.000000
# 3 0.001365 -0.002132 0.028303 0.000000 0.005166 0.000000
# 4 0.000000 0.000000 0.000000 0.040996 0.000000 0.031110
# 5 0.006320 -0.015251 0.005166 0.000000 0.034686 0.000000
# 6 0.000000 0.000000 0.000000 0.031110 0.000000 0.023597
#
#
# Mechanical properties :
#
#
# Convention : Reuss Voigt Hill
#
# Bulk Modulus (GPa) = 9.85184 14.55307 12.20246
# Shear Modulus (GPa) = 18.95352 -31884.84465 -15932.94557
#
# Velocity S-wave (km/s) = 2.98096 -122.26546 -86.42903
# Velocity P-wave (km/s) = 4.05797 141.15582 99.77099
#
# Compressibility (1/GPa) = 0.10150387
#
# Stress axis : x y z
#
# Youngs Moduli (GPa) = 66.78911 13.73227 35.33239
#
# Poissons Ratio (x) = 0.08967 -0.04823
# Poissons Ratio (y) = 0.43610 0.07532
# Poissons Ratio (z) = -0.09117 0.02927
#
# Static dielectric constant tensor:
#      x y z
#    x 1.819840 0.000000 0.023670 
#    y 0.000000 1.794870 0.000000 
#    z 0.023670 0.000000 1.800870 
# 
# From -- ./inp_files/281237.got.cif
#   From: 2010.05.17/outbox.cif.g08.bks.cpg/sg12_141_cif.got.tgz:281237.got - 2010.06.03 13:09:07.
