data_PCOD9181487
_publ_section_title
;
Structure prediction by ZEFSAII (Michael W. Deem and Ramdas Pophale) SiO2 
 PCOD9181487
Probable space group: C 2/M
;
_chemical_formula_sum "Si O2"
_cell_formula_units_Z 60
_cell_length_a 29.742948
_cell_length_b 9.393984
_cell_length_c 19.132002
_cell_angle_alpha 90.000000
_cell_angle_beta 39.696790
_cell_angle_gamma 90.000000
_cell_volume 3414.349418
_symmetry_space_group_name_H-M "C 2/M"
_symmetry_group_IT_number 12
_symmetry_cell_setting 'monoclinic'
loop_
_space_group_symop_operation_xyz
x,y,z
-x,y,-z
-x,-y,-z
x,-y,z
1/2+x,1/2+y,z
1/2-x,1/2+y,-z
1/2-x,1/2-y,-z
1/2+x,1/2-y,z
loop_
_atom_site_type_symbol
_atom_site_label
_atom_site_fract_x
_atom_site_fract_y
_atom_site_fract_z
Si Si1 0.381527 0.836208 0.747629
Si Si2 0.600387 0.672598 0.130973
Si Si3 0.605554 0.662827 0.491564
Si Si4 0.750971 0.671132 0.699286
Si Si5 0.226534 0.172366 0.881051
Si Si6 0.306684 0.327586 0.383058
Si Si7 0.000000 0.751050 0.500000
Si Si8 0.946588 0.171957 0.292570
O O1 0.398745 0.737872 0.792869
O O2 0.305989 0.788449 0.807442
O O3 0.442047 0.829486 0.616394
O O4 0.374674 0.000000 0.778991
O O5 0.601992 0.500000 0.134089
O O6 0.526657 0.716345 0.183314
O O7 0.667637 0.721933 0.005876
O O8 0.629543 0.500000 0.471787
O O9 0.671970 0.759911 0.394633
O O10 0.547133 0.667665 0.500879
O O11 0.573658 0.712318 0.603791
O O12 0.758617 0.500000 0.691626
O O13 0.714398 0.716214 0.815398
O O14 0.710123 0.707932 0.677189
O O15 0.223853 0.000000 0.885703
O O16 0.300629 0.500000 0.398361
O O17 0.250000 0.250000 0.500000
O O18 0.384408 0.282544 0.315374
O O19 0.946846 0.000000 0.290365
#
# Coordination Sequence:
#
# PCOD9181487 Si02
#       8
#     8   8   8   8   8   8   4   8
#     4  11  22  35  53  78 108 139 174 215 259 311
#     4  10  20  37  57  73 101 143 180 217 257 301
#     4  11  21  34  53  77 109 140 172 215 257 309
#     4  10  20  35  54  79 107 138 173 213 262 317
#     4   9  19  36  54  74 103 140 178 216 258 305
#     4  10  19  32  53  78 107 135 169 212 261 317
#     4  12  22  34  52  80 112 142 168 208 264 316
#     4   9  18  33  51  77 105 133 169 216 261 301
#
# _framework density 17.572893000000001
#
# number of rings (size 3 to 8) (size 9 to 14) (size 15 to 20)
#    0.000    1.867    4.000    0.800    0.000    1.067 
#    0.000    2.000    0.000    4.000    0.000    0.000 
#    0.000    3.200    0.000    0.000    0.000    0.000 
#
# Total GULP energy -167220.334568 kJ/mol
# GULP energy per Si atom -5574.011152 kJ/mol
# Density = 1.753290 g / cm^3
# Si number density = 17.572893 Si / 1000 Ang^3
#
#
#
# Elastic Constant Matrix: (Units=GPa)
#
#
# Indices 1 2 3 4 5 6 
#
# 1 143.7415 21.9149 63.2535 -0.0039 -6.1916 0.0011
# 2 21.9149 18.9013 18.1765 -0.0057 1.1796 0.0024
# 3 63.2535 18.1765 133.5877 -0.0072 -7.7773 0.0016
# 4 -0.0039 -0.0057 -0.0072 11.9002 0.0052 0.1026
# 5 -6.1916 1.1796 -7.7773 0.0052 21.6724 -0.0016
# 6 0.0011 0.0024 0.0016 0.1026 -0.0016 14.5834
#
#
#
# Elastic Compliance Matrix: (Units=1/GPa)
#
#
# Indices 1 2 3 4 5 6 
#
# 1 0.009793 -0.008209 -0.003402 -0.000004 0.002024 0.000001
# 2 -0.008209 0.068639 -0.005931 0.000030 -0.008209 -0.000011
# 3 -0.003402 -0.005931 0.010076 0.000001 0.002967 0.000000
# 4 -0.000004 0.000030 0.000001 0.084037 -0.000023 -0.000591
# 5 0.002024 -0.008209 0.002967 -0.000023 0.048231 0.000006
# 6 0.000001 -0.000011 0.000000 -0.000591 0.000006 0.068576
#
#
# Mechanical properties :
#
#
# Convention : Reuss Voigt Hill
#
# Bulk Modulus (GPa) = 18.71756 55.88003 37.29880
# Shear Modulus (GPa) = 14.60948 22.49024 18.54986
#
# Velocity S-wave (km/s) = 2.88647 3.58135 3.25252
# Velocity P-wave (km/s) = 4.66727 6.99781 5.94781
#
# Compressibility (1/GPa) = 0.05342576
#
# Stress axis : x y z
#
# Youngs Moduli (GPa) = 102.11697 14.56889 99.24315
#
# Poissons Ratio (x) = 0.11959 0.33764
# Poissons Ratio (y) = 0.83824 0.58856
# Poissons Ratio (z) = 0.34741 0.08640
#
# Static dielectric constant tensor:
#      x y z
#    x 1.608770 0.000000 -0.003780 
#    y 0.000000 1.588000 0.000000 
#    z -0.003780 0.000000 1.597940 
# 
# From -- ./inp_files/292893.got.cif
#   From: 2010.05.17/outbox.cif.g08.bks.cpg/sg12_147_cif.got.tgz:292893.got - 2010.06.03 13:09:07.
