data_PCOD9181372
_publ_section_title
;
Structure prediction by ZEFSAII (Michael W. Deem and Ramdas Pophale) SiO2 
 PCOD9181372
Probable space group: C 2/M
;
_chemical_formula_sum "Si O2"
_cell_formula_units_Z 48
_cell_length_a 16.620064
_cell_length_b 19.844171
_cell_length_c 12.859154
_cell_angle_alpha 90.000000
_cell_angle_beta 141.887278
_cell_angle_gamma 90.000000
_cell_volume 2617.649051
_symmetry_space_group_name_H-M "C 2/M"
_symmetry_group_IT_number 12
_symmetry_cell_setting 'monoclinic'
loop_
_space_group_symop_operation_xyz
x,y,z
-x,y,-z
-x,-y,-z
x,-y,z
1/2+x,1/2+y,z
1/2-x,1/2+y,-z
1/2-x,1/2-y,-z
1/2+x,1/2-y,z
loop_
_atom_site_type_symbol
_atom_site_label
_atom_site_fract_x
_atom_site_fract_y
_atom_site_fract_z
Si Si1 0.532091 0.336874 0.764934
Si Si2 0.248993 0.178775 0.561763
Si Si3 0.778230 0.193445 0.220171
Si Si4 0.632822 0.846578 0.700675
Si Si5 0.120027 0.920224 0.048291
Si Si6 0.042939 0.676570 0.831671
O O1 0.380498 0.357936 0.610692
O O2 0.605007 0.340109 0.727939
O O3 0.538254 0.257339 0.801869
O O4 0.603928 0.380832 0.923848
O O5 0.250000 0.250000 0.500000
O O6 0.222872 0.184096 0.658066
O O7 0.395623 0.152353 0.699665
O O8 0.799334 0.273498 0.229716
O O9 0.643419 0.170896 0.028929
O O10 0.500000 0.843374 0.500000
O O11 0.739342 0.898081 0.765412
O O12 0.596451 0.859700 0.783398
O O13 0.113904 0.000000 0.027705
O O14 0.000000 0.899243 0.000000
#
# Coordination Sequence:
#
# PCOD9181372 Si02
#       6
#     8   8   8   8   8   8
#     4  10  19  36  53  77 117 146 187 231 281 342
#     4  10  21  28  51  87 116 144 180 218 285 352
#     4  11  18  34  53  86 120 150 178 222 290 361
#     4  11  21  35  57  82 117 148 187 236 290 346
#     4  11  25  40  58  81 107 154 204 239 282 333
#     4  10  19  32  52  88 110 151 178 216 298 355
#
# _framework density 18.337064000000002
#
# number of rings (size 3 to 8) (size 9 to 14) (size 15 to 20)
#    0.000    1.500    3.333    5.000    7.000    0.333 
#    0.000    0.000    0.000    2.000    0.000    1.167 
#    0.000    0.000    0.000    0.000    0.000    0.000 
#
# Total GULP energy -133805.675724 kJ/mol
# GULP energy per Si atom -5575.236489 kJ/mol
# Density = 1.829533 g / cm^3
# Si number density = 18.337064 Si / 1000 Ang^3
#
#
#
# Elastic Constant Matrix: (Units=GPa)
#
#
# Indices 1 2 3 4 5 6 
#
# 1 95.1883 22.1445 26.8008 0.0000 14.0680 0.0000
# 2 22.1445 19.1001 3.2459 0.0000 6.1036 0.0000
# 3 26.8008 3.2459 120.8415 0.0000 22.0084 0.0000
# 4 0.0000 0.0000 0.0000 7.5942 0.0000 2.2003
# 5 14.0680 6.1036 22.0084 0.0000 42.6524 0.0000
# 6 0.0000 0.0000 0.0000 2.2003 0.0000 13.0565
#
#
#
# Elastic Compliance Matrix: (Units=1/GPa)
#
#
# Indices 1 2 3 4 5 6 
#
# 1 0.015417 -0.017014 -0.002737 0.000000 -0.001238 0.000000
# 2 -0.017014 0.073640 0.002972 0.000000 -0.006460 0.000000
# 3 -0.002737 0.002972 0.009620 0.000000 -0.004486 0.000000
# 4 0.000000 0.000000 0.000000 0.138440 0.000000 -0.023330
# 5 -0.001238 -0.006460 -0.004486 0.000000 0.027093 0.000000
# 6 0.000000 0.000000 0.000000 -0.023330 0.000000 0.080522
#
#
# Mechanical properties :
#
#
# Convention : Reuss Voigt Hill
#
# Bulk Modulus (GPa) = 15.35630 37.72358 26.53994
# Shear Modulus (GPa) = 12.50016 24.85654 18.67835
#
# Velocity S-wave (km/s) = 2.61375 3.68575 3.19503
# Velocity P-wave (km/s) = 4.18348 6.22334 5.30243
#
# Compressibility (1/GPa) = 0.06511987
#
# Stress axis : x y z
#
# Youngs Moduli (GPa) = 64.86322 13.57951 103.95543
#
# Poissons Ratio (x) = 0.23104 0.28450
# Poissons Ratio (y) = 1.10356 -0.30894
# Poissons Ratio (z) = 0.17752 -0.04036
#
# Static dielectric constant tensor:
#      x y z
#    x 1.669180 0.000000 0.021830 
#    y 0.000000 1.589370 0.000000 
#    z 0.021830 0.000000 1.687960 
# 
# From -- ./inp_files/77266.got.cif
#   From: 2010.05.17/outbox.cif.g08.bks.cpg/sg12_39_cif.got.tgz:77266.got - 2010.06.03 13:09:07.
