data_PCOD9181352
_publ_section_title
;
Structure prediction by ZEFSAII (Michael W. Deem and Ramdas Pophale) SiO2 
 PCOD9181352
Probable space group: C 2/M
;
_chemical_formula_sum "Si O2"
_cell_formula_units_Z 48
_cell_length_a 24.077677
_cell_length_b 11.046108
_cell_length_c 9.674351
_cell_angle_alpha 90.000000
_cell_angle_beta 75.726280
_cell_angle_gamma 90.000000
_cell_volume 2493.602723
_symmetry_space_group_name_H-M "C 2/M"
_symmetry_group_IT_number 12
_symmetry_cell_setting 'monoclinic'
loop_
_space_group_symop_operation_xyz
x,y,z
-x,y,-z
-x,-y,-z
x,-y,z
1/2+x,1/2+y,z
1/2-x,1/2+y,-z
1/2-x,1/2-y,-z
1/2+x,1/2-y,z
loop_
_atom_site_type_symbol
_atom_site_label
_atom_site_fract_x
_atom_site_fract_y
_atom_site_fract_z
Si Si1 0.862887 0.643776 0.120530
Si Si2 0.967108 0.641131 0.245850
Si Si3 0.914673 0.748168 0.840975
Si Si4 0.941068 0.000000 0.444526
Si Si5 0.401692 0.239324 0.525683
Si Si6 0.792435 0.358186 0.432216
Si Si7 0.977243 0.000000 0.857967
O O1 0.868766 0.500000 0.089526
O O2 0.918890 0.689691 0.171227
O O3 0.811064 0.657474 0.260247
O O4 0.863862 0.715145 0.976533
O O5 0.956346 0.500000 0.264784
O O6 0.956934 0.697596 0.402914
O O7 0.030517 0.665431 0.155117
O O8 0.901961 0.721812 0.689011
O O9 0.938914 0.882953 0.846950
O O10 0.903057 0.117150 0.498413
O O11 0.000000 0.000000 0.500000
O O12 0.967019 0.000000 0.274948
O O13 0.349488 0.167522 0.487714
O O14 0.774689 0.500000 0.462190
O O15 0.750000 0.250000 0.500000
O O16 0.000000 0.000000 0.000000
#
# Coordination Sequence:
#
# PCOD9181352 Si02
#       7
#     8   8   8   4   8   8   4
#     4   9  20  37  57  84 120 156 195 248 309 369
#     4  10  19  32  52  82 120 162 201 233 288 373
#     4  12  21  34  53  87 125 164 200 246 303 368
#     4  12  20  40  56  90 138 178 210 244 310 377
#     4  11  22  36  60  85 122 164 206 258 308 369
#     4  10  24  47  69  92 116 154 216 276 330 384
#     4  12  24  34  52  86 136 174 214 250 284 369
#
# _framework density 19.249258999999999
#
# number of rings (size 3 to 8) (size 9 to 14) (size 15 to 20)
#    0.000    1.333    3.333    4.000    3.500    4.667 
#    1.500    0.833    0.000    0.000    0.000    0.000 
#    0.000    0.000    0.000    0.000    0.000    0.000 
#
# Total GULP energy -133932.487200 kJ/mol
# GULP energy per Si atom -5580.520300 kJ/mol
# Density = 1.920545 g / cm^3
# Si number density = 19.249259 Si / 1000 Ang^3
#
#
#
# Elastic Constant Matrix: (Units=GPa)
#
#
# Indices 1 2 3 4 5 6 
#
# 1 22.2565 8.9805 16.6601 0.0000 -8.7843 0.0000
# 2 8.9805 84.4680 33.4254 0.0000 -13.0662 0.0000
# 3 16.6601 33.4254 147.9753 0.0000 0.4487 0.0000
# 4 0.0000 0.0000 0.0000 31.8825 0.0000 -3.3666
# 5 -8.7843 -13.0662 0.4487 0.0000 22.1938 0.0000
# 6 0.0000 0.0000 0.0000 -3.3666 0.0000 38.9303
#
#
#
# Elastic Compliance Matrix: (Units=1/GPa)
#
#
# Indices 1 2 3 4 5 6 
#
# 1 0.059299 0.000021 -0.006753 0.000000 0.023620 0.000000
# 2 0.000021 0.014471 -0.003297 0.000000 0.008594 0.000000
# 3 -0.006753 -0.003297 0.008277 0.000000 -0.004781 0.000000
# 4 0.000000 0.000000 0.000000 0.031654 0.000000 0.002737
# 5 0.023620 0.008594 -0.004781 0.000000 0.059563 0.000000
# 6 0.000000 0.000000 0.000000 0.002737 0.000000 0.025924
#
#
# Mechanical properties :
#
#
# Convention : Reuss Voigt Hill
#
# Bulk Modulus (GPa) = 16.13162 41.42576 28.77869
# Shear Modulus (GPa) = 20.84127 31.64359 26.24243
#
# Velocity S-wave (km/s) = 3.29402 4.05889 3.69629
# Velocity P-wave (km/s) = 4.78184 6.59799 5.76192
#
# Compressibility (1/GPa) = 0.06199004
#
# Stress axis : x y z
#
# Youngs Moduli (GPa) = 16.86366 69.10489 120.81041
#
# Poissons Ratio (x) = -0.00147 0.81580
# Poissons Ratio (y) = -0.00036 0.39833
# Poissons Ratio (z) = 0.11388 0.22785
#
# Static dielectric constant tensor:
#      x y z
#    x 1.679140 0.000000 0.003040 
#    y 0.000000 1.694740 0.000000 
#    z 0.003040 0.000000 1.706360 
# 
# From -- ./inp_files/94929.got.cif
#   From: 2010.05.17/outbox.cif.g08.bks.cpg/sg12_48_cif.got.tgz:94929.got - 2010.06.03 13:09:07.
