data_PCOD9181553
_publ_section_title
;
Structure prediction by ZEFSAII (Michael W. Deem and Ramdas Pophale) SiO2 
 PCOD9181553
Probable space group: C 2/M
;
_chemical_formula_sum "Si O2"
_cell_formula_units_Z 56
_cell_length_a 20.401526
_cell_length_b 7.892026
_cell_length_c 25.305391
_cell_angle_alpha 90.000000
_cell_angle_beta 135.228460
_cell_angle_gamma 90.000000
_cell_volume 2869.528844
_symmetry_space_group_name_H-M "C 2/M"
_symmetry_group_IT_number 12
_symmetry_cell_setting 'monoclinic'
loop_
_space_group_symop_operation_xyz
x,y,z
-x,y,-z
-x,-y,-z
x,-y,z
1/2+x,1/2+y,z
1/2-x,1/2+y,-z
1/2-x,1/2-y,-z
1/2+x,1/2-y,z
loop_
_atom_site_type_symbol
_atom_site_label
_atom_site_fract_x
_atom_site_fract_y
_atom_site_fract_z
Si Si1 0.580799 0.699675 0.793392
Si Si2 0.435641 0.706691 0.798849
Si Si3 0.523503 0.707779 0.955014
Si Si4 0.433233 0.197100 0.626474
Si Si5 0.213533 0.798147 0.369018
Si Si6 0.268984 0.702040 0.950559
Si Si7 0.574363 0.207963 0.497866
O O1 0.565270 0.500000 0.778403
O O2 0.524770 0.753867 0.814063
O O3 0.528165 0.783035 0.714150
O O4 0.688386 0.732824 0.865799
O O5 0.431779 0.500000 0.797438
O O6 0.453988 0.763907 0.868821
O O7 0.346538 0.768333 0.715034
O O8 0.522400 0.500000 0.953569
O O9 0.500000 0.763854 0.000000
O O10 0.627980 0.764137 0.002958
O O11 0.349194 0.270450 0.614289
O O12 0.445651 0.263677 0.574036
O O13 0.410279 0.000000 0.608329
O O14 0.319157 0.735040 0.430938
O O15 0.220218 0.000000 0.366599
O O16 0.268718 0.500000 0.946091
O O17 0.250000 0.750000 0.000000
O O18 0.500000 0.262861 0.500000
O O19 0.572334 0.000000 0.497513
#
# Coordination Sequence:
#
# PCOD9181553 Si02
#       7
#     8   8   8   8   8   8   8
#     4  10  19  34  54  77 105 135 174 220 264 311
#     4   8  14  27  47  72  97 128 170 210 252 298
#     4   9  17  30  47  73 106 135 173 217 250 296
#     4  10  19  32  53  80 107 132 171 220 261 309
#     4   9  17  31  54  77 100 137 177 212 258 312
#     4  11  20  32  53  80 107 138 177 217 264 309
#     4   9  18  33  51  77 110 139 172 215 259 310
#
# _framework density 19.515398999999999
#
# number of rings (size 3 to 8) (size 9 to 14) (size 15 to 20)
#    0.000    2.571    1.429    2.571    0.000    0.000 
#    2.571    0.714    0.000    5.571    0.000    0.000 
#    0.000    0.000    0.000    0.000    0.000    0.000 
#
# Total GULP energy -156105.095160 kJ/mol
# GULP energy per Si atom -5575.181970 kJ/mol
# Density = 1.947098 g / cm^3
# Si number density = 19.515399 Si / 1000 Ang^3
#
#
#
# Elastic Constant Matrix: (Units=GPa)
#
#
# Indices 1 2 3 4 5 6 
#
# 1 140.0910 -1.8361 100.9464 0.0000 -15.1685 0.0000
# 2 -1.8361 13.9544 -1.4797 0.0000 -0.8003 0.0000
# 3 100.9464 -1.4797 165.3394 0.0000 -15.7956 0.0000
# 4 0.0000 0.0000 0.0000 16.0962 0.0000 -0.9137
# 5 -15.1685 -0.8003 -15.7956 0.0000 29.2014 0.0000
# 6 0.0000 0.0000 0.0000 -0.9137 0.0000 15.3141
#
#
#
# Elastic Compliance Matrix: (Units=1/GPa)
#
#
# Indices 1 2 3 4 5 6 
#
# 1 0.012942 0.001043 -0.007642 0.000000 0.002617 0.000000
# 2 0.001043 0.071979 0.000261 0.000000 0.002656 0.000000
# 3 -0.007642 0.000261 0.010901 0.000000 0.001934 0.000000
# 4 0.000000 0.000000 0.000000 0.062338 0.000000 0.003719
# 5 0.002617 0.002656 0.001934 0.000000 0.036724 0.000000
# 6 0.000000 0.000000 0.000000 0.003719 0.000000 0.065521
#
#
# Mechanical properties :
#
#
# Convention : Reuss Voigt Hill
#
# Bulk Modulus (GPa) = 12.02705 57.18289 34.60497
# Shear Modulus (GPa) = 16.62251 26.90595 21.76423
#
# Velocity S-wave (km/s) = 2.92167 3.71712 3.34313
# Velocity P-wave (km/s) = 4.19019 6.91286 5.71600
#
# Compressibility (1/GPa) = 0.08314590
#
# Stress axis : x y z
#
# Youngs Moduli (GPa) = 77.26664 13.89289 91.73268
#
# Poissons Ratio (x) = -0.01448 0.70105
# Poissons Ratio (y) = -0.08056 -0.02397
# Poissons Ratio (z) = 0.59050 -0.00363
#
# Static dielectric constant tensor:
#      x y z
#    x 1.669450 0.000000 -0.001140 
#    y 0.000000 1.730980 0.000000 
#    z -0.001140 0.000000 1.690210 
# 
# From -- ./inp_files/342477.got.cif
#   From: 2010.05.17/outbox.cif.g08.bks.cpg/sg12_172_cif.got.tgz:342477.got - 2010.06.03 13:09:07.
