data_PCOD9181078
_publ_section_title
;
Structure prediction by ZEFSAII (Michael W. Deem and Ramdas Pophale) SiO2 
 PCOD9181078
Probable space group: C 2/M
;
_chemical_formula_sum "Si O2"
_cell_formula_units_Z 48
_cell_length_a 16.087959
_cell_length_b 7.993829
_cell_length_c 28.060631
_cell_angle_alpha 90.000000
_cell_angle_beta 148.999994
_cell_angle_gamma 90.000000
_cell_volume 1858.628743
_symmetry_space_group_name_H-M "C 2/M"
_symmetry_group_IT_number 12
_symmetry_cell_setting 'monoclinic'
loop_
_space_group_symop_operation_xyz
x,y,z
-x,y,-z
-x,-y,-z
x,-y,z
1/2+x,1/2+y,z
1/2-x,1/2+y,-z
1/2-x,1/2-y,-z
1/2+x,1/2-y,z
loop_
_atom_site_type_symbol
_atom_site_label
_atom_site_fract_x
_atom_site_fract_y
_atom_site_fract_z
Si Si1 0.441909 0.199745 0.280941
Si Si2 0.604102 0.302252 0.218639
Si Si3 0.584125 0.800165 0.445774
Si Si4 0.595724 0.806291 0.106369
Si Si5 0.763178 0.801914 0.386141
Si Si6 0.246043 0.798274 0.942188
O O1 0.455172 0.257549 0.342717
O O2 0.267331 0.237075 0.173793
O O3 0.599179 0.266354 0.331201
O O4 0.459926 0.000000 0.291085
O O5 0.594517 0.500000 0.203236
O O6 0.607189 0.212144 0.169488
O O7 0.749310 0.276438 0.327017
O O8 0.435168 0.244828 0.160568
O O9 0.750000 0.750000 0.500000
O O10 0.600380 0.728951 0.506973
O O11 0.575340 0.000000 0.446072
O O12 0.596286 0.000000 0.093841
O O13 0.418065 0.734547 0.006559
O O14 0.752257 0.000000 0.373947
O O15 0.251133 0.000000 0.940206
O O16 0.250000 0.750000 0.000000
#
# Coordination Sequence:
#
# PCOD9181078 Si02
#       6
#     8   8   8   8   8   8
#     4   9  19  34  51  73 101 131 163 201 245 293
#     4  10  19  33  53  74 100 132 165 203 249 297
#     4   9  17  31  51  73  98 130 167 203 242 293
#     4  10  19  32  52  76 101 129 165 206 245 291
#     4  10  20  34  52  75 102 130 166 208 247 292
#     4   8  16  30  48  71  96 127 165 201 240 290
#
# _framework density 25.825491
#
# number of rings (size 3 to 8) (size 9 to 14) (size 15 to 20)
#    0.000    2.667    0.000    3.000    0.000    5.333 
#    0.000    1.667    0.000   10.000    0.000    0.000 
#    0.000    0.000    0.000    0.000    0.000    0.000 
#
# Total GULP energy -134091.798026 kJ/mol
# GULP energy per Si atom -5587.158251 kJ/mol
# Density = 2.576671 g / cm^3
# Si number density = 25.825491 Si / 1000 Ang^3
#
#
#
# Elastic Constant Matrix: (Units=GPa)
#
#
# Indices 1 2 3 4 5 6 
#
# 1 95.1104 1.3581 17.2924 0.0001 -7.8367 -0.0001
# 2 1.3581 39.0776 -9.5868 0.0001 -9.3331 -0.0002
# 3 17.2924 -9.5868 176.8590 0.0002 -7.4513 0.0000
# 4 0.0001 0.0001 0.0002 18.1231 0.0000 10.4186
# 5 -7.8367 -9.3331 -7.4513 0.0000 56.2018 0.0000
# 6 -0.0001 -0.0002 0.0000 10.4186 0.0000 7.9229
#
#
#
# Elastic Compliance Matrix: (Units=1/GPa)
#
#
# Indices 1 2 3 4 5 6 
#
# 1 0.010813 -0.000310 -0.001018 0.000000 0.001321 0.000000
# 2 -0.000310 0.027137 0.001699 -0.000002 0.004689 0.000004
# 3 -0.001018 0.001699 0.005885 0.000000 0.000920 0.000001
# 4 0.000000 -0.000002 0.000000 0.226111 0.000000 -0.297337
# 5 0.001321 0.004689 0.000920 0.000000 0.018878 0.000001
# 6 0.000000 0.000004 0.000001 -0.297337 0.000001 0.517216
#
#
# Mechanical properties :
#
#
# Convention : Reuss Voigt Hill
#
# Bulk Modulus (GPa) = 22.43381 36.57494 29.50437
# Shear Modulus (GPa) = 6.09639 36.58178 21.33908
#
# Velocity S-wave (km/s) = 1.53809 3.76772 2.87763
# Velocity P-wave (km/s) = 3.44382 5.75506 4.74239
#
# Compressibility (1/GPa) = 0.04457558
#
# Stress axis : x y z
#
# Youngs Moduli (GPa) = 92.48529 36.84941 169.93352
#
# Poissons Ratio (x) = 0.01143 0.17305
# Poissons Ratio (y) = 0.02868 -0.28870
# Poissons Ratio (z) = 0.09418 -0.06260
#
# Static dielectric constant tensor:
#      x y z
#    x 2.050730 0.000000 -0.106600 
#    y 0.000000 1.889560 0.000000 
#    z -0.106600 0.000000 1.923700 
# 
# From -- ./inp_files/274013.got.cif
#   From: 2010.05.17/outbox.cif.g08.bks.cpg/sg12_138_cif.got.tgz:274013.got - 2010.06.03 13:09:07.
