data_PCOD9181600
_publ_section_title
;
Structure prediction by ZEFSAII (Michael W. Deem and Ramdas Pophale) SiO2 
 PCOD9181600
Probable space group: C 2/M
;
_chemical_formula_sum "Si O2"
_cell_formula_units_Z 40
_cell_length_a 23.135911
_cell_length_b 11.213551
_cell_length_c 6.763878
_cell_angle_alpha 90.000000
_cell_angle_beta 72.144552
_cell_angle_gamma 90.000000
_cell_volume 1670.268694
_symmetry_space_group_name_H-M "C 2/M"
_symmetry_group_IT_number 12
_symmetry_cell_setting 'monoclinic'
loop_
_space_group_symop_operation_xyz
x,y,z
-x,y,-z
-x,-y,-z
x,-y,z
1/2+x,1/2+y,z
1/2-x,1/2+y,-z
1/2-x,1/2-y,-z
1/2+x,1/2-y,z
loop_
_atom_site_type_symbol
_atom_site_label
_atom_site_fract_x
_atom_site_fract_y
_atom_site_fract_z
Si Si1 0.374357 0.132310 0.252655
Si Si2 0.163292 0.130020 0.483921
Si Si3 0.771101 0.369486 0.084925
Si Si4 0.988471 0.370050 0.750230
Si Si5 0.055708 0.873025 0.284173
O O1 0.349965 0.251314 0.382373
O O2 0.341046 0.135272 0.075949
O O3 0.446548 0.135655 0.210681
O O4 0.356875 0.000000 0.354823
O O5 0.230790 0.130126 0.326505
O O6 0.117145 0.133951 0.346114
O O7 0.152560 0.000000 0.594206
O O8 0.759669 0.500000 0.999146
O O9 0.750000 0.250000 0.000000
O O10 0.960504 0.500000 0.823089
O O11 0.953969 0.247015 0.825952
O O12 0.000000 0.370547 0.500000
O O13 0.000000 0.876921 0.500000
O O14 0.054966 0.000000 0.175004
#
# Coordination Sequence:
#
# PCOD9181600 Si02
#       5
#     8   8   8   8   8
#     4  10  19  32  53  81 107 133 170 217 261 307
#     4  10  19  32  53  81 107 133 170 217 261 307
#     4  10  23  40  54  72 104 142 179 218 258 304
#     4   9  15  25  44  73 106 132 157 197 254 306
#     4   9  15  25  44  73 106 132 157 197 254 306
#
# _framework density 23.948243999999999
#
# number of rings (size 3 to 8) (size 9 to 14) (size 15 to 20)
#    0.000    2.400    4.000    0.600    0.000    1.600 
#    0.000    0.000    0.000    1.200    0.000    8.400 
#    0.000    0.000    0.000    0.000    0.000    0.000 
#
# Total GULP energy -111624.872761 kJ/mol
# GULP energy per Si atom -5581.243638 kJ/mol
# Density = 2.389374 g / cm^3
# Si number density = 23.948244 Si / 1000 Ang^3
#
#
#
# Elastic Constant Matrix: (Units=GPa)
#
#
# Indices 1 2 3 4 5 6 
#
# 1 137.3290 63.2437 10.5468 0.0000 2.1881 0.0000
# 2 63.2437 340.1342 48.4445 0.0000 17.0666 0.0000
# 3 10.5468 48.4445 36.4086 0.0000 3.8238 0.0000
# 4 0.0000 0.0000 0.0000 30.5820 0.0000 5.2934
# 5 2.1881 17.0666 3.8238 0.0000 32.9048 0.0000
# 6 0.0000 0.0000 0.0000 5.2934 0.0000 42.2438
#
#
#
# Elastic Compliance Matrix: (Units=1/GPa)
#
#
# Indices 1 2 3 4 5 6 
#
# 1 0.007971 -0.001434 -0.000428 0.000000 0.000264 0.000000
# 2 -0.001434 0.003945 -0.004685 0.000000 -0.001406 0.000000
# 3 -0.000428 -0.004685 0.033981 0.000000 -0.001490 0.000000
# 4 0.000000 0.000000 0.000000 0.033424 0.000000 -0.004188
# 5 0.000264 -0.001406 -0.001490 0.000000 0.031276 0.000000
# 6 0.000000 0.000000 0.000000 -0.004188 0.000000 0.024197
#
#
# Mechanical properties :
#
#
# Convention : Reuss Voigt Hill
#
# Bulk Modulus (GPa) = 30.48724 84.26020 57.37372
# Shear Modulus (GPa) = 31.48167 47.25523 39.36845
#
# Velocity S-wave (km/s) = 3.62963 4.44692 4.05890
# Velocity P-wave (km/s) = 5.50670 7.85031 6.78053
#
# Compressibility (1/GPa) = 0.03280061
#
# Stress axis : x y z
#
# Youngs Moduli (GPa) = 125.45439 253.51097 29.42824
#
# Poissons Ratio (x) = 0.36362 0.01260
# Poissons Ratio (y) = 0.17995 0.13788
# Poissons Ratio (z) = 0.05372 1.18781
#
# Static dielectric constant tensor:
#      x y z
#    x 1.897530 0.000000 -0.024810 
#    y 0.000000 1.963520 0.000000 
#    z -0.024810 0.000000 1.933780 
# 
# From -- ./inp_files/83471.got.cif
#   From: 2010.05.17/outbox.cif.g08.bks.cpg/sg12_42_cif.got.tgz:83471.got - 2010.06.03 13:09:07.
