data_PCOD9181967
_publ_section_title
;
Structure prediction by ZEFSAII (Michael W. Deem and Ramdas Pophale) SiO2 
 PCOD9181967
Probable space group: C 2/M
;
_chemical_formula_sum "Si O2"
_cell_formula_units_Z 40
_cell_length_a 24.406951
_cell_length_b 11.103685
_cell_length_c 25.079149
_cell_angle_alpha 90.000000
_cell_angle_beta 162.466003
_cell_angle_gamma 90.000000
_cell_volume 2047.631088
_symmetry_space_group_name_H-M "C 2/M"
_symmetry_group_IT_number 12
_symmetry_cell_setting 'monoclinic'
loop_
_space_group_symop_operation_xyz
x,y,z
-x,y,-z
-x,-y,-z
x,-y,z
1/2+x,1/2+y,z
1/2-x,1/2+y,-z
1/2-x,1/2-y,-z
1/2+x,1/2-y,z
loop_
_atom_site_type_symbol
_atom_site_label
_atom_site_fract_x
_atom_site_fract_y
_atom_site_fract_z
Si Si1 0.885564 0.364556 0.618535
Si Si2 0.109547 0.640413 0.932783
Si Si3 0.244516 0.642412 0.338912
Si Si4 0.073974 0.760667 0.708036
Si Si5 0.718673 0.857705 0.197355
O O1 0.804601 0.500000 0.550019
O O2 0.750000 0.250000 0.500000
O O3 0.037616 0.352264 0.805926
O O4 0.979653 0.354297 0.647771
O O5 0.121552 0.500000 0.957402
O O6 0.945015 0.694785 0.815457
O O7 0.302254 0.690881 0.128963
O O8 0.218686 0.500000 0.309465
O O9 0.401620 0.663937 0.527249
O O10 0.291374 0.682258 0.322713
O O11 0.206185 0.772572 0.779560
O O12 0.768479 0.000000 0.232839
O O13 0.500000 0.855020 0.000000
#
# Coordination Sequence:
#
# PCOD9181967 Si02
#       5
#     8   8   8   8   8
#     4  11  25  44  65  93 127 163 213 261 309 375
#     4  10  20  36  59  91 125 160 207 259 307 368
#     4  10  19  32  55  90 126 160 207 255 306 364
#     4  12  21  35  61  85 124 165 201 249 321 363
#     4  10  19  32  54  90 128 162 206 258 305 363
#
# _framework density 19.534768
#
# number of rings (size 3 to 8) (size 9 to 14) (size 15 to 20)
#    0.000    1.400    4.000    3.000    0.000    3.200 
#    0.000    1.000    0.000    3.000    0.000    0.000 
#    0.000    0.000    0.000    0.000    0.000    0.000 
#
# Total GULP energy -111345.243174 kJ/mol
# GULP energy per Si atom -5567.262159 kJ/mol
# Density = 1.949031 g / cm^3
# Si number density = 19.534768 Si / 1000 Ang^3
#
#
#
# Elastic Constant Matrix: (Units=GPa)
#
#
# Indices 1 2 3 4 5 6 
#
# 1 99.9251 43.6940 5.8745 0.0026 4.4895 -0.0005
# 2 43.6940 68.6844 32.5123 0.0106 -1.3903 -0.0005
# 3 5.8745 32.5123 96.5419 0.0169 -2.0125 0.0018
# 4 0.0026 0.0106 0.0169 19.9791 0.0071 1.9974
# 5 4.4895 -1.3903 -2.0125 0.0071 23.8618 0.0001
# 6 -0.0005 -0.0005 0.0018 1.9974 0.0001 28.9250
#
#
#
# Elastic Compliance Matrix: (Units=1/GPa)
#
#
# Indices 1 2 3 4 5 6 
#
# 1 0.014636 -0.010614 0.002618 0.000003 -0.003151 0.000000
# 2 -0.010614 0.025024 -0.007723 -0.000006 0.002804 0.000001
# 3 0.002618 -0.007723 0.012803 -0.000007 0.000137 0.000000
# 4 0.000003 -0.000006 -0.000007 0.050400 -0.000016 -0.003480
# 5 -0.003151 0.002804 0.000137 -0.000016 0.042676 0.000001
# 6 0.000000 0.000001 0.000000 -0.003480 0.000001 0.034813
#
#
# Mechanical properties :
#
#
# Convention : Reuss Voigt Hill
#
# Bulk Modulus (GPa) = 47.56207 47.70143 47.63175
# Shear Modulus (GPa) = 22.85210 26.75787 24.80499
#
# Velocity S-wave (km/s) = 3.42397 3.70504 3.56727
# Velocity P-wave (km/s) = 6.32706 6.54025 6.43453
#
# Compressibility (1/GPa) = 0.02102516
#
# Stress axis : x y z
#
# Youngs Moduli (GPa) = 68.32282 39.96143 78.10908
#
# Poissons Ratio (x) = 0.42416 -0.20451
# Poissons Ratio (y) = 0.72519 0.60324
# Poissons Ratio (z) = -0.17888 0.30862
#
# Static dielectric constant tensor:
#      x y z
#    x 1.795920 0.000000 0.023910 
#    y 0.000000 1.652250 0.000000 
#    z 0.023910 0.000000 1.721360 
# 
# From -- ./inp_files/349100.got.cif
#   From: 2010.05.17/outbox.cif.g08.bks.cpg/sg12_175_cif.got.tgz:349100.got - 2010.06.03 13:09:07.
