data_PCOD9181950
_publ_section_title
;
Structure prediction by ZEFSAII (Michael W. Deem and Ramdas Pophale) SiO2 
 PCOD9181950
Probable space group: C 2/M
;
_chemical_formula_sum "Si O2"
_cell_formula_units_Z 56
_cell_length_a 14.599526
_cell_length_b 15.211397
_cell_length_c 11.873613
_cell_angle_alpha 90.000000
_cell_angle_beta 114.915769
_cell_angle_gamma 90.000000
_cell_volume 2391.462669
_symmetry_space_group_name_H-M "C 2/M"
_symmetry_group_IT_number 12
_symmetry_cell_setting 'monoclinic'
loop_
_space_group_symop_operation_xyz
x,y,z
-x,y,-z
-x,-y,-z
x,-y,z
1/2+x,1/2+y,z
1/2-x,1/2+y,-z
1/2-x,1/2-y,-z
1/2+x,1/2-y,z
loop_
_atom_site_type_symbol
_atom_site_label
_atom_site_fract_x
_atom_site_fract_y
_atom_site_fract_z
Si Si1 0.035332 0.841045 0.339913
Si Si2 0.799374 0.894537 0.744339
Si Si3 0.105622 0.397043 0.510189
Si Si4 0.337320 0.893077 0.857218
Si Si5 0.146121 0.101128 0.608402
Si Si6 0.988545 0.349919 0.757820
Si Si7 0.291084 0.899130 0.080606
O O1 0.097004 0.876769 0.265691
O O2 0.113541 0.839509 0.485876
O O3 0.995396 0.747775 0.278461
O O4 0.943249 0.895131 0.345245
O O5 0.706579 0.860587 0.618575
O O6 0.781753 0.859526 0.861790
O O7 0.790220 0.000000 0.747556
O O8 0.104911 0.500000 0.539445
O O9 0.093686 0.390374 0.370408
O O10 0.000000 0.357607 0.500000
O O11 0.246574 0.872550 0.724860
O O12 0.438750 0.855680 0.854497
O O13 0.349446 0.000000 0.869092
O O14 0.305584 0.859792 0.964251
O O15 0.155584 0.000000 0.571620
O O16 0.095607 0.398248 0.809228
O O17 0.258445 0.000000 0.045003
#
# Coordination Sequence:
#
# PCOD9181950 Si02
#       7
#     8   8   8   8   8   8   8
#     4  11  24  37  60  90 121 160 195 244 311 362
#     4  10  20  37  60  86 116 152 201 253 301 351
#     4  10  19  32  54  85 118 153 192 242 301 355
#     4  10  22  41  65  89 116 161 212 251 291 350
#     4  10  22  44  67  87 115 157 212 258 292 347
#     4  12  23  35  57  90 128 156 192 243 305 371
#     4  10  21  40  65  89 119 160 205 251 297 353
#
# _framework density 23.416630999999999
#
# number of rings (size 3 to 8) (size 9 to 14) (size 15 to 20)
#    0.000    1.571    1.429    4.286    2.000    6.857 
#    0.000    5.000    0.000    3.429    0.000    0.000 
#    0.000    0.000    0.000    0.000    0.000    0.000 
#
# Total GULP energy -156493.726878 kJ/mol
# GULP energy per Si atom -5589.061674 kJ/mol
# Density = 2.336333 g / cm^3
# Si number density = 23.416631 Si / 1000 Ang^3
#
#
#
# Elastic Constant Matrix: (Units=GPa)
#
#
# Indices 1 2 3 4 5 6 
#
# 1 104.5381 -7.6994 29.6977 0.0000 -46.5517 0.0000
# 2 -7.6994 37.0615 6.8942 0.0000 -1.6271 0.0000
# 3 29.6977 6.8942 72.8968 0.0000 -33.1492 0.0000
# 4 0.0000 0.0000 0.0000 4.1442 0.0000 8.5794
# 5 -46.5517 -1.6271 -33.1492 0.0000 41.3260 0.0000
# 6 0.0000 0.0000 0.0000 8.5794 0.0000 -21.8953
#
#
#
# Elastic Compliance Matrix: (Units=1/GPa)
#
#
# Indices 1 2 3 4 5 6 
#
# 1 0.020493 0.004857 0.002796 0.000000 0.025518 0.000000
# 2 0.004857 0.028682 -0.002660 0.000000 0.004467 0.000000
# 3 0.002796 -0.002660 0.022378 0.000000 0.020995 0.000000
# 4 0.000000 0.000000 0.000000 0.133228 0.000000 0.052204
# 5 0.025518 0.004467 0.020995 0.000000 0.069960 0.000000
# 6 0.000000 0.000000 0.000000 0.052204 0.000000 -0.025216
#
#
# Mechanical properties :
#
#
# Convention : Reuss Voigt Hill
#
# Bulk Modulus (GPa) = 12.26391 30.25347 21.25869
# Shear Modulus (GPa) = 18.74646 17.08857 17.91751
#
# Velocity S-wave (km/s) = 2.83249 2.70434 2.76916
# Velocity P-wave (km/s) = 3.99324 4.76435 4.39573
#
# Compressibility (1/GPa) = 0.08154006
#
# Stress axis : x y z
#
# Youngs Moduli (GPa) = 48.79760 34.86480 44.68701
#
# Poissons Ratio (x) = -0.16935 -0.12496
# Poissons Ratio (y) = -0.23703 0.11887
# Poissons Ratio (z) = -0.13645 0.09274
#
# Static dielectric constant tensor:
#      x y z
#    x 1.888210 0.000000 -0.029400 
#    y 0.000000 1.910750 0.000000 
#    z -0.029400 0.000000 1.917720 
# 
# From -- ./inp_files/145668.got.cif
#   From: 2010.05.17/outbox.cif.g08.bks.cpg/sg12_73_cif.got.tgz:145668.got - 2010.06.03 13:09:07.
