data_PCOD9181249
_publ_section_title
;
Structure prediction by ZEFSAII (Michael W. Deem and Ramdas Pophale) SiO2 
 PCOD9181249
Probable space group: C 2/M
;
_chemical_formula_sum "Si O2"
_cell_formula_units_Z 56
_cell_length_a 19.489320
_cell_length_b 9.026927
_cell_length_c 22.065887
_cell_angle_alpha 90.000000
_cell_angle_beta 55.455399
_cell_angle_gamma 90.000000
_cell_volume 3197.563509
_symmetry_space_group_name_H-M "C 2/M"
_symmetry_group_IT_number 12
_symmetry_cell_setting 'monoclinic'
loop_
_space_group_symop_operation_xyz
x,y,z
-x,y,-z
-x,-y,-z
x,-y,z
1/2+x,1/2+y,z
1/2-x,1/2+y,-z
1/2-x,1/2-y,-z
1/2+x,1/2-y,z
loop_
_atom_site_type_symbol
_atom_site_label
_atom_site_fract_x
_atom_site_fract_y
_atom_site_fract_z
Si Si1 0.255366 0.175430 0.197838
Si Si2 0.513844 0.323672 0.394228
Si Si3 0.136592 0.824394 0.447637
Si Si4 0.553570 0.176081 0.914556
Si Si5 0.782991 0.175783 0.314057
Si Si6 0.526420 0.324033 0.799559
Si Si7 0.590806 0.176236 0.238053
O O1 0.347676 0.198439 0.124902
O O2 0.258124 0.241622 0.264292
O O3 0.182947 0.255676 0.197529
O O4 0.238406 0.000000 0.209787
O O5 0.514292 0.500000 0.380215
O O6 0.579523 0.300747 0.416172
O O7 0.423108 0.284384 0.466348
O O8 0.541999 0.232884 0.322185
O O9 0.221372 0.735339 0.396374
O O10 0.153726 0.000000 0.442300
O O11 0.528895 0.266193 0.867154
O O12 0.541580 0.000000 0.908916
O O13 0.500000 0.217172 0.000000
O O14 0.881043 0.205104 0.274103
O O15 0.772245 0.000000 0.311448
O O16 0.512413 0.500000 0.804782
O O17 0.457910 0.239668 0.795065
O O18 0.594256 0.000000 0.235207
#
# Coordination Sequence:
#
# PCOD9181249 Si02
#       7
#     8   8   8   8   8   8   8
#     4  10  19  33  56  81 109 144 176 212 264 320
#     4   9  18  32  50  75 106 142 180 222 273 321
#     4   9  17  30  51  76 104 140 181 224 271 321
#     4   9  19  38  63  89 113 138 173 216 260 313
#     4  10  19  32  52  79 106 136 182 230 266 312
#     4  10  22  38  56  79 111 147 179 217 268 322
#     4  12  23  35  53  80 110 142 184 228 267 314
#
# _framework density 17.513335000000001
#
# number of rings (size 3 to 8) (size 9 to 14) (size 15 to 20)
#    0.000    2.143    1.429    3.429    0.000    3.143 
#    0.000    2.857    0.000    0.000    0.000    0.000 
#    0.000    0.000    0.000    0.000    0.000    0.000 
#
# Total GULP energy -156299.915201 kJ/mol
# GULP energy per Si atom -5582.139829 kJ/mol
# Density = 1.747347 g / cm^3
# Si number density = 17.513335 Si / 1000 Ang^3
#
#
#
# Elastic Constant Matrix: (Units=GPa)
#
#
# Indices 1 2 3 4 5 6 
#
# 1 107.2779 68.5829 42.3801 0.0000 -4.6267 0.0002
# 2 68.5829 89.7918 49.3949 0.0001 -5.1478 0.0004
# 3 42.3801 49.3949 95.2272 0.0000 -17.6208 0.0000
# 4 0.0000 0.0001 0.0000 17.8447 0.0000 -0.2108
# 5 -4.6267 -5.1478 -17.6208 0.0000 17.1201 0.0000
# 6 0.0002 0.0004 0.0000 -0.2108 0.0000 28.9633
#
#
#
# Elastic Compliance Matrix: (Units=1/GPa)
#
#
# Indices 1 2 3 4 5 6 
#
# 1 0.018325 -0.013281 -0.001345 0.000000 -0.000426 0.000000
# 2 -0.013281 0.025493 -0.008102 0.000000 -0.004262 0.000000
# 3 -0.001345 -0.008102 0.018262 0.000000 0.015997 0.000000
# 4 0.000000 0.000000 0.000000 0.056044 0.000000 0.000408
# 5 -0.000426 -0.004262 0.015997 0.000000 0.073479 0.000000
# 6 0.000000 0.000000 0.000000 0.000408 0.000000 0.034529
#
#
# Mechanical properties :
#
#
# Convention : Reuss Voigt Hill
#
# Bulk Modulus (GPa) = 60.15071 68.11254 64.13162
# Shear Modulus (GPa) = 18.04200 21.58155 19.81177
#
# Velocity S-wave (km/s) = 3.21313 3.51421 3.36704
# Velocity P-wave (km/s) = 6.94160 7.44597 7.19821
#
# Compressibility (1/GPa) = 0.01662491
#
# Stress axis : x y z
#
# Youngs Moduli (GPa) = 54.56903 39.22571 54.75773
#
# Poissons Ratio (x) = 0.52097 0.07366
# Poissons Ratio (y) = 0.72475 0.44362
# Poissons Ratio (z) = 0.07341 0.31779
#
# Static dielectric constant tensor:
#      x y z
#    x 1.587210 0.000000 -0.023480 
#    y 0.000000 1.578900 0.000000 
#    z -0.023480 0.000000 1.588800 
# 
# From -- ./inp_files/313720.got.cif
#   From: 2010.05.17/outbox.cif.g08.bks.cpg/sg12_157_cif.got.tgz:313720.got - 2010.06.03 13:09:07.
