data_PCOD9181305
_publ_section_title
;
Structure prediction by ZEFSAII (Michael W. Deem and Ramdas Pophale) SiO2 
 PCOD9181305
Probable space group: C 2/M
;
_chemical_formula_sum "Si O2"
_cell_formula_units_Z 56
_cell_length_a 23.552325
_cell_length_b 14.751518
_cell_length_c 22.094505
_cell_angle_alpha 90.000000
_cell_angle_beta 158.374166
_cell_angle_gamma 90.000000
_cell_volume 2829.070791
_symmetry_space_group_name_H-M "C 2/M"
_symmetry_group_IT_number 12
_symmetry_cell_setting 'monoclinic'
loop_
_space_group_symop_operation_xyz
x,y,z
-x,y,-z
-x,-y,-z
x,-y,z
1/2+x,1/2+y,z
1/2-x,1/2+y,-z
1/2-x,1/2-y,-z
1/2+x,1/2-y,z
loop_
_atom_site_type_symbol
_atom_site_label
_atom_site_fract_x
_atom_site_fract_y
_atom_site_fract_z
Si Si1 0.408210 0.750631 0.846425
Si Si2 0.029433 0.269304 0.694580
Si Si3 0.758536 0.606384 0.394749
Si Si4 0.791036 0.400593 0.042401
Si Si5 0.682073 0.398456 0.672273
Si Si6 0.062595 0.103542 0.320857
Si Si7 0.197666 0.341691 0.081986
O O1 0.348914 0.658055 0.759223
O O2 0.268652 0.820726 0.720584
O O3 0.500000 0.736839 0.000000
O O4 0.531199 0.797439 0.924134
O O5 0.109915 0.321377 0.830224
O O6 0.167880 0.233273 0.790527
O O7 0.918864 0.340402 0.553396
O O8 0.936702 0.181933 0.628064
O O9 0.772437 0.500000 0.396688
O O10 0.685346 0.617681 0.389443
O O11 0.845856 0.500000 0.116734
O O12 0.610046 0.391208 0.878466
O O13 0.795848 0.394624 0.974564
O O14 0.500000 0.381423 0.500000
O O15 0.700740 0.500000 0.664758
O O16 0.761598 0.396374 0.817298
O O17 0.079052 0.000000 0.360976
#
# Coordination Sequence:
#
# PCOD9181305 Si02
#       7
#     8   8   8   8   8   8   8
#     4  10  22  39  59  80 107 143 186 231 275 324
#     4  11  20  34  55  81 114 144 181 225 274 328
#     4  11  22  37  56  79 109 144 184 230 279 328
#     4  10  19  32  52  80 113 149 185 218 262 324
#     4  10  21  38  60  86 115 144 178 225 277 323
#     4   9  19  34  53  78 110 147 183 220 266 325
#     4  10  20  35  57  81 111 148 185 227 272 324
#
# _framework density 19.794485999999999
#
# number of rings (size 3 to 8) (size 9 to 14) (size 15 to 20)
#    0.000    1.857    0.000    5.571    0.000    4.000 
#    0.000    1.429    0.000    9.000    0.000    0.000 
#    0.000    0.000    0.000    0.000    0.000    0.000 
#
# Total GULP energy -156386.552813 kJ/mol
# GULP energy per Si atom -5585.234029 kJ/mol
# Density = 1.974943 g / cm^3
# Si number density = 19.794486 Si / 1000 Ang^3
#
#
#
# Elastic Constant Matrix: (Units=GPa)
#
#
# Indices 1 2 3 4 5 6 
#
# 1 32.7967 23.8559 9.2321 0.0000 19.7111 -0.0001
# 2 23.8559 137.1902 50.3043 0.0022 19.8970 0.0019
# 3 9.2321 50.3043 64.3570 -0.0008 12.4579 -0.0001
# 4 0.0000 0.0022 -0.0008 13.2470 0.0012 -11.3567
# 5 19.7111 19.8970 12.4579 0.0012 24.2031 0.0008
# 6 -0.0001 0.0019 -0.0001 -11.3567 0.0008 -0.7128
#
#
#
# Elastic Compliance Matrix: (Units=1/GPa)
#
#
# Indices 1 2 3 4 5 6 
#
# 1 0.062528 -0.005561 0.004831 -0.000004 -0.048838 -0.000012
# 2 -0.005561 0.011232 -0.007853 0.000002 -0.000662 0.000005
# 3 0.004831 -0.007853 0.022764 -0.000002 -0.009195 -0.000006
# 4 -0.000004 0.000002 -0.000002 0.005150 0.000005 -0.082047
# 5 -0.048838 -0.000662 -0.009195 0.000005 0.086369 0.000016
# 6 -0.000012 0.000005 -0.000006 -0.082047 0.000016 -0.095703
#
#
# Mechanical properties :
#
#
# Convention : Reuss Voigt Hill
#
# Bulk Modulus (GPa) = 12.60130 44.56982 28.58556
# Shear Modulus (GPa) = 36.77587 17.41090 27.09338
#
# Velocity S-wave (km/s) = 4.31499 2.96899 3.70365
# Velocity P-wave (km/s) = 5.58618 5.85819 5.72380
#
# Compressibility (1/GPa) = 0.07935686
#
# Stress axis : x y z
#
# Youngs Moduli (GPa) = 15.99276 89.03230 43.92919
#
# Poissons Ratio (x) = 0.49514 -0.21223
# Poissons Ratio (y) = 0.08894 0.34499
# Poissons Ratio (z) = -0.07726 0.69921
#
# Static dielectric constant tensor:
#      x y z
#    x 1.685990 0.000000 0.000710 
#    y 0.000000 1.699840 0.000000 
#    z 0.000710 0.000000 1.697260 
# 
# From -- ./inp_files/349783.got.cif
#   From: 2010.05.17/outbox.cif.g08.bks.cpg/sg12_175_cif.got.tgz:349783.got - 2010.06.03 13:09:07.
