data_PCOD9181626
_publ_section_title
;
Structure prediction by ZEFSAII (Michael W. Deem and Ramdas Pophale) SiO2 
 PCOD9181626
Probable space group: C 2/M
;
_chemical_formula_sum "Si O2"
_cell_formula_units_Z 56
_cell_length_a 30.350434
_cell_length_b 8.129437
_cell_length_c 12.142779
_cell_angle_alpha 90.000000
_cell_angle_beta 69.215097
_cell_angle_gamma 90.000000
_cell_volume 2801.028648
_symmetry_space_group_name_H-M "C 2/M"
_symmetry_group_IT_number 12
_symmetry_cell_setting 'monoclinic'
loop_
_space_group_symop_operation_xyz
x,y,z
-x,y,-z
-x,-y,-z
x,-y,z
1/2+x,1/2+y,z
1/2-x,1/2+y,-z
1/2-x,1/2-y,-z
1/2+x,1/2-y,z
loop_
_atom_site_type_symbol
_atom_site_label
_atom_site_fract_x
_atom_site_fract_y
_atom_site_fract_z
Si Si1 0.650643 0.188120 0.624066
Si Si2 0.067243 0.199055 0.852600
Si Si3 0.772852 0.806980 0.288378
Si Si4 0.167033 0.190881 0.378337
Si Si5 0.463840 0.700381 0.877393
Si Si6 0.383436 0.700842 0.795454
Si Si7 0.296574 0.301622 0.024383
O O1 0.611951 0.232189 0.749694
O O2 0.701443 0.217621 0.634418
O O3 0.645329 0.293513 0.518517
O O4 0.646069 0.000000 0.595023
O O5 0.018202 0.251393 0.838173
O O6 0.070089 0.000000 0.847615
O O7 0.062006 0.247354 0.985361
O O8 0.716886 0.783385 0.334898
O O9 0.793038 0.744397 0.153464
O O10 0.784059 0.000000 0.289029
O O11 0.132800 0.252087 0.311672
O O12 0.177885 0.000000 0.344958
O O13 0.464587 0.500000 0.876319
O O14 0.433231 0.756849 0.800817
O O15 0.384692 0.500000 0.794316
O O16 0.342435 0.752795 0.916737
O O17 0.297652 0.500000 0.027101
O O18 0.250000 0.250000 0.000000
#
# Coordination Sequence:
#
# PCOD9181626 Si02
#       7
#     8   8   8   8   8   8   8
#     4  12  25  39  55  76 108 146 188 232 275 327
#     4   9  17  34  61  88 112 138 176 223 273 327
#     4  11  22  37  58  82 110 144 184 229 276 326
#     4  11  22  37  56  77 109 148 188 230 270 324
#     4   8  15  31  59  90 114 138 172 220 274 329
#     4   9  17  31  53  82 113 144 178 219 267 320
#     4  10  19  32  53  81 113 143 174 217 264 317
#
# _framework density 19.992654000000002
#
# number of rings (size 3 to 8) (size 9 to 14) (size 15 to 20)
#    0.000    2.000    1.429    4.286    0.000    2.857 
#    0.000    2.143    0.000    7.714    0.000    0.000 
#    0.000    0.000    0.000    0.000    0.000    0.000 
#
# Total GULP energy -156377.391557 kJ/mol
# GULP energy per Si atom -5584.906841 kJ/mol
# Density = 1.994715 g / cm^3
# Si number density = 19.992654 Si / 1000 Ang^3
#
#
#
# Elastic Constant Matrix: (Units=GPa)
#
#
# Indices 1 2 3 4 5 6 
#
# 1 119.3211 -0.4291 33.3133 0.0000 25.3300 0.0000
# 2 -0.4291 17.1954 0.0947 0.0000 2.6354 0.0000
# 3 33.3133 0.0947 64.6036 0.0000 16.9954 0.0000
# 4 0.0000 0.0000 0.0000 13.7557 0.0000 -5.3382
# 5 25.3300 2.6354 16.9954 0.0000 25.8556 0.0000
# 6 0.0000 0.0000 0.0000 -5.3382 0.0000 16.7762
#
#
#
# Elastic Compliance Matrix: (Units=1/GPa)
#
#
# Indices 1 2 3 4 5 6 
#
# 1 0.011244 0.001666 -0.003455 0.000000 -0.008914 0.000000
# 2 0.001666 0.059501 0.001304 0.000000 -0.008554 0.000000
# 3 -0.003455 0.001304 0.019833 0.000000 -0.009784 0.000000
# 4 0.000000 0.000000 0.000000 0.082939 0.000000 0.026391
# 5 -0.008914 -0.008554 -0.009784 0.000000 0.054712 0.000000
# 6 0.000000 0.000000 0.000000 0.026391 0.000000 0.068006
#
#
# Mechanical properties :
#
#
# Convention : Reuss Voigt Hill
#
# Bulk Modulus (GPa) = 11.15995 29.67533 20.41764
# Shear Modulus (GPa) = 15.28706 22.48689 18.88698
#
# Velocity S-wave (km/s) = 2.76820 3.35738 3.07692
# Velocity P-wave (km/s) = 3.97635 5.46852 4.78101
#
# Compressibility (1/GPa) = 0.08960613
#
# Stress axis : x y z
#
# Youngs Moduli (GPa) = 88.93894 16.80655 50.42123
#
# Poissons Ratio (x) = -0.02800 0.17423
# Poissons Ratio (y) = -0.14815 -0.06576
# Poissons Ratio (z) = 0.30732 -0.02192
#
# Static dielectric constant tensor:
#      x y z
#    x 1.697850 0.000000 0.012130 
#    y 0.000000 1.712500 0.000000 
#    z 0.012130 0.000000 1.694140 
# 
# From -- ./inp_files/186451.got.cif
#   From: 2010.05.17/outbox.cif.g08.bks.cpg/sg12_94_cif.got.tgz:186451.got - 2010.06.03 13:09:07.
