data_PCOD9181666
_publ_section_title
;
Structure prediction by ZEFSAII (Michael W. Deem and Ramdas Pophale) SiO2 
 PCOD9181666
Probable space group: C 2/M
;
_chemical_formula_sum "Si O2"
_cell_formula_units_Z 64
_cell_length_a 16.817918
_cell_length_b 14.281189
_cell_length_c 14.175085
_cell_angle_alpha 90.000000
_cell_angle_beta 55.425171
_cell_angle_gamma 90.000000
_cell_volume 2803.274439
_symmetry_space_group_name_H-M "C 2/M"
_symmetry_group_IT_number 12
_symmetry_cell_setting 'monoclinic'
loop_
_space_group_symop_operation_xyz
x,y,z
-x,y,-z
-x,-y,-z
x,-y,z
1/2+x,1/2+y,z
1/2-x,1/2+y,-z
1/2-x,1/2-y,-z
1/2+x,1/2-y,z
loop_
_atom_site_type_symbol
_atom_site_label
_atom_site_fract_x
_atom_site_fract_y
_atom_site_fract_z
Si Si1 0.799898 0.791369 0.094132
Si Si2 0.306639 0.105785 0.568942
Si Si3 0.719057 0.607451 0.232095
Si Si4 0.897612 0.155969 0.209957
Si Si5 0.401622 0.606840 0.505701
Si Si6 0.892952 0.898084 0.875164
Si Si7 0.412976 0.780399 0.360248
Si Si8 0.605017 0.886769 0.294532
O O1 0.786900 0.685452 0.139539
O O2 0.877911 0.837047 0.112801
O O3 0.698449 0.844261 0.179415
O O4 0.838565 0.814103 0.964657
O O5 0.199280 0.111927 0.681490
O O6 0.323772 0.163968 0.464043
O O7 0.376515 0.137959 0.607463
O O8 0.332902 0.000000 0.530420
O O9 0.755344 0.500000 0.207432
O O10 0.681996 0.630943 0.361644
O O11 0.627085 0.608731 0.222529
O O12 0.905570 0.257008 0.255574
O O13 0.995817 0.106216 0.172188
O O14 0.500000 0.606908 0.500000
O O15 0.385367 0.500000 0.482417
O O16 0.411959 0.682182 0.416954
O O17 0.852952 0.000000 0.932332
O O18 0.508822 0.838392 0.321083
O O19 0.602238 0.000000 0.289156
#
# Coordination Sequence:
#
# PCOD9181666 Si02
#       8
#     8   8   8   8   8   8   8   8
#     4  11  22  41  63  86 120 157 194 243 301 353
#     4  10  21  37  58  85 120 160 199 242 293 346
#     4  10  22  40  63  90 116 148 197 250 295 348
#     4  11  24  38  57  87 124 160 198 241 288 347
#     4  10  19  32  53  82 116 153 191 234 285 339
#     4  11  23  40  65  91 114 147 195 251 306 352
#     4  12  22  37  58  87 123 162 200 236 286 350
#     4  10  21  37  60  89 120 156 200 248 294 344
#
# _framework density 22.830444
#
# number of rings (size 3 to 8) (size 9 to 14) (size 15 to 20)
#    0.000    1.375    0.000    7.125    0.000    5.000 
#    0.000    2.500    0.000    2.250    0.000    0.000 
#    0.000    0.000    0.000    0.000    0.000    0.000 
#
# Total GULP energy -179095.201156 kJ/mol
# GULP energy per Si atom -5596.725036 kJ/mol
# Density = 2.277848 g / cm^3
# Si number density = 22.830444 Si / 1000 Ang^3
#
#
#
# Elastic Constant Matrix: (Units=GPa)
#
#
# Indices 1 2 3 4 5 6 
#
# 1 70.6030 6.7746 10.9333 0.0000 2.0969 0.0000
# 2 6.7746 99.0075 27.1122 0.0000 -2.1574 0.0000
# 3 10.9333 27.1122 70.9502 0.0000 0.2129 0.0000
# 4 0.0000 0.0000 0.0000 24.7659 0.0000 -3.1463
# 5 2.0969 -2.1574 0.2129 0.0000 28.4969 0.0000
# 6 0.0000 0.0000 0.0000 -3.1463 0.0000 21.2943
#
#
#
# Elastic Compliance Matrix: (Units=1/GPa)
#
#
# Indices 1 2 3 4 5 6 
#
# 1 0.014560 -0.000454 -0.002067 0.000000 -0.001090 0.000000
# 2 -0.000454 0.011317 -0.004257 0.000000 0.000922 0.000000
# 3 -0.002067 -0.004257 0.016041 0.000000 -0.000290 0.000000
# 4 0.000000 0.000000 0.000000 0.041151 0.000000 0.006080
# 5 -0.001090 0.000922 -0.000290 0.000000 0.035244 0.000000
# 6 0.000000 0.000000 0.000000 0.006080 0.000000 0.047859
#
#
# Mechanical properties :
#
#
# Convention : Reuss Voigt Hill
#
# Bulk Modulus (GPa) = 35.25976 36.68900 35.97438
# Shear Modulus (GPa) = 26.42963 27.96079 27.19521
#
# Velocity S-wave (km/s) = 3.40611 3.50339 3.45509
# Velocity P-wave (km/s) = 5.56296 5.69825 5.63101
#
# Compressibility (1/GPa) = 0.02836094
#
# Stress axis : x y z
#
# Youngs Moduli (GPa) = 68.68268 88.36050 62.34151
#
# Poissons Ratio (x) = 0.04012 0.12885
# Poissons Ratio (y) = 0.03118 0.26542
# Poissons Ratio (z) = 0.14196 0.37619
#
# Static dielectric constant tensor:
#      x y z
#    x 1.853980 0.000000 -0.002310 
#    y 0.000000 1.875840 0.000000 
#    z -0.002310 0.000000 1.823100 
# 
# From -- ./inp_files/225659.got.cif
#   From: 2010.05.17/outbox.cif.g08.bks.cpg/sg12_113_cif.got.tgz:225659.got - 2010.06.03 13:09:07.
