data_PCOD9181596
_publ_section_title
;
Structure prediction by ZEFSAII (Michael W. Deem and Ramdas Pophale) SiO2 
 PCOD9181596
Probable space group: C 2/M
;
_chemical_formula_sum "Si O2"
_cell_formula_units_Z 64
_cell_length_a 33.431118
_cell_length_b 8.704245
_cell_length_c 12.576901
_cell_angle_alpha 90.000000
_cell_angle_beta 91.424756
_cell_angle_gamma 90.000000
_cell_volume 3658.654187
_symmetry_space_group_name_H-M "C 2/M"
_symmetry_group_IT_number 12
_symmetry_cell_setting 'monoclinic'
loop_
_space_group_symop_operation_xyz
x,y,z
-x,y,-z
-x,-y,-z
x,-y,z
1/2+x,1/2+y,z
1/2-x,1/2+y,-z
1/2-x,1/2-y,-z
1/2+x,1/2-y,z
loop_
_atom_site_type_symbol
_atom_site_label
_atom_site_fract_x
_atom_site_fract_y
_atom_site_fract_z
Si Si1 0.013573 0.685214 0.882851
Si Si2 0.115800 0.315282 0.415893
Si Si3 0.854104 0.312842 0.355187
Si Si4 0.688817 0.816366 0.261873
Si Si5 0.262611 0.815526 0.386326
Si Si6 0.060684 0.183262 0.238420
Si Si7 0.394204 0.813940 0.137692
Si Si8 0.367208 0.684070 0.915121
O O1 0.011911 0.500000 0.880241
O O2 0.059174 0.732347 0.864773
O O3 0.981893 0.749020 0.796736
O O4 0.000000 0.735855 0.000000
O O5 0.111585 0.500000 0.413830
O O6 0.122372 0.263435 0.537168
O O7 0.156016 0.278089 0.351394
O O8 0.078976 0.242904 0.350009
O O9 0.854573 0.500000 0.356254
O O10 0.807804 0.266224 0.362115
O O11 0.874260 0.263573 0.246784
O O12 0.730581 0.743178 0.298775
O O13 0.670110 0.752555 0.151985
O O14 0.692272 0.000000 0.257654
O O15 0.250000 0.750000 0.500000
O O16 0.261792 0.000000 0.391412
O O17 0.093113 0.230528 0.149853
O O18 0.058861 0.000000 0.239408
O O19 0.392688 0.000000 0.132094
O O20 0.371976 0.747098 0.033661
O O21 0.364962 0.500000 0.914816
#
# Coordination Sequence:
#
# PCOD9181596 Si02
#       8
#     8   8   8   8   8   8   8   8
#     4  10  19  32  53  81 105 134 179 224 263 308
#     4   9  17  33  54  76 105 138 175 217 261 313
#     4   9  19  36  56  79 107 142 178 217 264 316
#     4  10  19  33  55  82 107 137 178 223 268 310
#     4  11  20  34  55  82 111 139 178 222 266 314
#     4  10  20  32  51  79 108 138 173 218 268 314
#     4  10  20  36  57  78 106 142 180 219 264 318
#     4  10  20  34  52  79 111 141 175 218 269 319
#
# _framework density 17.492771000000001
#
# number of rings (size 3 to 8) (size 9 to 14) (size 15 to 20)
#    0.000    2.125    2.500    1.500    0.000    2.250 
#    0.000    3.125    0.000    3.750    0.000    0.000 
#    0.000    0.000    0.000    0.000    0.000    0.000 
#
# Total GULP energy -178600.829480 kJ/mol
# GULP energy per Si atom -5581.275921 kJ/mol
# Density = 1.745296 g / cm^3
# Si number density = 17.492771 Si / 1000 Ang^3
#
#
#
# Elastic Constant Matrix: (Units=GPa)
#
#
# Indices 1 2 3 4 5 6 
#
# 1 126.7021 31.6571 95.8331 0.0000 16.8529 0.0000
# 2 31.6571 23.6897 35.1803 0.0000 4.5641 0.0000
# 3 95.8331 35.1803 170.1480 0.0000 18.1883 0.0000
# 4 0.0000 0.0000 0.0000 21.0995 0.0000 8.4457
# 5 16.8529 4.5641 18.1883 0.0000 33.0267 0.0000
# 6 0.0000 0.0000 0.0000 8.4457 0.0000 23.2797
#
#
#
# Elastic Compliance Matrix: (Units=1/GPa)
#
#
# Indices 1 2 3 4 5 6 
#
# 1 0.015870 -0.011298 -0.006273 0.000000 -0.003082 0.000000
# 2 -0.011298 0.069038 -0.007977 0.000000 0.000618 0.000000
# 3 -0.006273 -0.007977 0.011263 0.000000 -0.001899 0.000000
# 4 0.000000 0.000000 0.000000 0.055446 0.000000 -0.020116
# 5 -0.003082 0.000618 -0.001899 0.000000 0.032812 0.000000
# 6 0.000000 0.000000 0.000000 -0.020116 0.000000 0.050254
#
#
# Mechanical properties :
#
#
# Convention : Reuss Voigt Hill
#
# Bulk Modulus (GPa) = 22.18557 71.76452 46.97505
# Shear Modulus (GPa) = 16.62216 26.00581 21.31398
#
# Velocity S-wave (km/s) = 3.08592 3.85991 3.49441
# Velocity P-wave (km/s) = 5.04058 7.80894 6.57217
#
# Compressibility (1/GPa) = 0.04507433
#
# Stress axis : x y z
#
# Youngs Moduli (GPa) = 63.01160 14.48487 88.78763
#
# Poissons Ratio (x) = 0.16365 0.55697
# Poissons Ratio (y) = 0.71190 0.70826
# Poissons Ratio (z) = 0.39528 0.11555
#
# Static dielectric constant tensor:
#      x y z
#    x 1.580840 0.000000 -0.002310 
#    y 0.000000 1.587550 0.000000 
#    z -0.002310 0.000000 1.584170 
# 
# From -- ./inp_files/187542.got.cif
#   From: 2010.05.17/outbox.cif.g08.bks.cpg/sg12_94_cif.got.tgz:187542.got - 2010.06.03 13:09:07.
