data_PCOD9181419
_publ_section_title
;
Structure prediction by ZEFSAII (Michael W. Deem and Ramdas Pophale) SiO2 
 PCOD9181419
Probable space group: C 2/M
;
_chemical_formula_sum "Si O2"
_cell_formula_units_Z 56
_cell_length_a 19.856170
_cell_length_b 8.777941
_cell_length_c 22.388319
_cell_angle_alpha 90.000000
_cell_angle_beta 124.748566
_cell_angle_gamma 90.000000
_cell_volume 3206.287099
_symmetry_space_group_name_H-M "C 2/M"
_symmetry_group_IT_number 12
_symmetry_cell_setting 'monoclinic'
loop_
_space_group_symop_operation_xyz
x,y,z
-x,y,-z
-x,-y,-z
x,-y,z
1/2+x,1/2+y,z
1/2-x,1/2+y,-z
1/2-x,1/2-y,-z
1/2+x,1/2-y,z
loop_
_atom_site_type_symbol
_atom_site_label
_atom_site_fract_x
_atom_site_fract_y
_atom_site_fract_z
Si Si1 0.988022 0.682722 0.396987
Si Si2 0.940853 0.185006 0.917870
Si Si3 0.460972 0.683998 0.791735
Si Si4 0.742161 0.682557 0.197026
Si Si5 0.133810 0.682121 0.553294
Si Si6 0.591063 0.318342 0.760023
Si Si7 0.213286 0.681038 0.313234
O O1 0.987044 0.500000 0.386464
O O2 0.076868 0.725185 0.468399
O O3 0.922130 0.713396 0.416323
O O4 0.961016 0.767826 0.324087
O O5 0.966595 0.231904 0.863944
O O6 0.845132 0.225768 0.876207
O O7 0.944420 0.000000 0.920638
O O8 0.000000 0.242133 0.000000
O O9 0.452767 0.500000 0.786438
O O10 0.539359 0.726403 0.792217
O O11 0.377701 0.753963 0.723095
O O12 0.745421 0.500000 0.204571
O O13 0.820623 0.740936 0.201317
O O14 0.741663 0.752220 0.263344
O O15 0.146386 0.500000 0.557786
O O16 0.219896 0.764323 0.605096
O O17 0.601242 0.500000 0.764865
O O18 0.211097 0.500000 0.309183
#
# Coordination Sequence:
#
# PCOD9181419 Si02
#       7
#     8   8   8   8   8   8   8
#     4   9  18  31  50  73 100 136 173 213 259 303
#     4   8  15  32  58  81  98 128 175 212 242 296
#     4   9  20  36  53  74 105 140 168 207 261 306
#     4  10  19  32  53  77 104 137 170 208 254 302
#     4   9  17  31  50  73 100 133 173 216 261 302
#     4  11  21  33  50  76 107 137 172 212 255 304
#     4  11  20  31  51  78 102 131 176 220 254 302
#
# _framework density 17.465685000000001
#
# number of rings (size 3 to 8) (size 9 to 14) (size 15 to 20)
#    0.000    2.429    1.429    3.857    0.000    1.714 
#    0.000    2.857    0.000   10.714    0.000    0.000 
#    0.000    0.000    0.000    0.000    0.000    0.000 
#
# Total GULP energy -156179.359788 kJ/mol
# GULP energy per Si atom -5577.834278 kJ/mol
# Density = 1.742593 g / cm^3
# Si number density = 17.465685 Si / 1000 Ang^3
#
#
#
# Elastic Constant Matrix: (Units=GPa)
#
#
# Indices 1 2 3 4 5 6 
#
# 1 127.7299 38.4732 59.8712 0.0000 12.3271 0.0000
# 2 38.4732 36.4973 28.2702 0.0000 4.6744 0.0000
# 3 59.8712 28.2702 115.8355 0.0000 21.4687 0.0000
# 4 0.0000 0.0000 0.0000 0.9503 0.0000 -6.0619
# 5 12.3271 4.6744 21.4687 0.0000 18.9161 0.0000
# 6 0.0000 0.0000 0.0000 -6.0619 0.0000 19.5710
#
#
#
# Elastic Compliance Matrix: (Units=1/GPa)
#
#
# Indices 1 2 3 4 5 6 
#
# 1 0.012927 -0.010449 -0.003861 0.000000 -0.001460 0.000000
# 2 -0.010449 0.042257 -0.005368 0.000000 0.002460 0.000000
# 3 -0.003861 -0.005368 0.014217 0.000000 -0.012293 0.000000
# 4 0.000000 0.000000 0.000000 -1.078428 0.000000 -0.334031
# 5 -0.001460 0.002460 -0.012293 0.000000 0.067161 0.000000
# 6 0.000000 0.000000 0.000000 -0.334031 0.000000 -0.052366
#
#
# Mechanical properties :
#
#
# Convention : Reuss Voigt Hill
#
# Bulk Modulus (GPa) = 33.28344 59.25464 46.26904
# Shear Modulus (GPa) = -5.29178 18.11735 6.41279
#
# Velocity S-wave (km/s) = -1.74253 3.22423 1.91823
# Velocity P-wave (km/s) = 3.87935 6.91815 5.60848
#
# Compressibility (1/GPa) = 0.03004497
#
# Stress axis : x y z
#
# Youngs Moduli (GPa) = 77.35748 23.66446 70.33943
#
# Poissons Ratio (x) = 0.24728 0.27155
# Poissons Ratio (y) = 0.80834 0.37759
# Poissons Ratio (z) = 0.29864 0.12703
#
# Static dielectric constant tensor:
#      x y z
#    x 1.592160 0.000000 0.010290 
#    y 0.000000 1.581670 0.000000 
#    z 0.010290 0.000000 1.592500 
# 
# From -- ./inp_files/314371.got.cif
#   From: 2010.05.17/outbox.cif.g08.bks.cpg/sg12_158_cif.got.tgz:314371.got - 2010.06.03 13:09:07.
