data_PCOD9181033
_publ_section_title
;
Structure prediction by ZEFSAII (Michael W. Deem and Ramdas Pophale) SiO2 
 PCOD9181033
Probable space group: C 2/M
;
_chemical_formula_sum "Si O2"
_cell_formula_units_Z 60
_cell_length_a 28.974313
_cell_length_b 21.061994
_cell_length_c 6.316857
_cell_angle_alpha 90.000000
_cell_angle_beta 88.386333
_cell_angle_gamma 90.000000
_cell_volume 3853.376227
_symmetry_space_group_name_H-M "C 2/M"
_symmetry_group_IT_number 12
_symmetry_cell_setting 'monoclinic'
loop_
_space_group_symop_operation_xyz
x,y,z
-x,y,-z
-x,-y,-z
x,-y,z
1/2+x,1/2+y,z
1/2-x,1/2+y,-z
1/2-x,1/2-y,-z
1/2+x,1/2-y,z
loop_
_atom_site_type_symbol
_atom_site_label
_atom_site_fract_x
_atom_site_fract_y
_atom_site_fract_z
Si Si1 0.722474 0.807347 0.121449
Si Si2 0.643005 0.273814 0.227369
Si Si3 0.759901 0.071865 0.863295
Si Si4 0.284490 0.654322 0.479440
Si Si5 0.547606 0.311786 0.369622
Si Si6 0.652351 0.389734 0.912686
Si Si7 0.566764 0.430812 0.662329
Si Si8 0.500000 0.623388 0.000000
O O1 0.668836 0.788297 0.136303
O O2 0.744113 0.811924 0.353073
O O3 0.750000 0.750000 0.000000
O O4 0.733451 0.873659 0.001584
O O5 0.681791 0.303419 0.379583
O O6 0.592928 0.267447 0.343087
O O7 0.638796 0.325951 0.040817
O O8 0.762844 0.099320 0.626579
O O9 0.742097 0.000000 0.881259
O O10 0.812892 0.072819 0.939777
O O11 0.317330 0.627244 0.294415
O O12 0.500000 0.291815 0.500000
O O13 0.565932 0.374126 0.493119
O O14 0.533303 0.331931 0.134366
O O15 0.608699 0.424579 0.821649
O O16 0.566654 0.500000 0.560805
O O17 0.523083 0.419334 0.817864
#
# Coordination Sequence:
#
# PCOD9181033 Si02
#       8
#     8   8   8   8   8   8   8   4
#     4  11  20  33  55  80 101 131 174 210 251 303
#     4  11  19  34  53  72  97 127 167 214 253 300
#     4  10  22  35  48  73 108 139 167 206 251 304
#     4  10  19  32  52  74  99 128 166 208 246 301
#     4  10  22  36  49  67  91 128 170 217 270 304
#     4  10  19  33  49  70  95 130 169 211 251 295
#     4  11  21  32  47  65  86 124 173 216 259 303
#     4  10  21  36  46  60  86 124 163 222 264 300
#
# _framework density 15.570760999999999
#
# number of rings (size 3 to 8) (size 9 to 14) (size 15 to 20)
#    0.000    1.600    6.667    1.000    0.000    5.600 
#    0.000    0.000    0.000    0.000    0.000    0.000 
#    0.000    0.533    0.000    1.933    0.000    0.000 
#
# Total GULP energy -167108.300633 kJ/mol
# GULP energy per Si atom -5570.276688 kJ/mol
# Density = 1.553532 g / cm^3
# Si number density = 15.570761 Si / 1000 Ang^3
#
#
#
# Elastic Constant Matrix: (Units=GPa)
#
#
# Indices 1 2 3 4 5 6 
#
# 1 91.5512 40.6167 14.4979 0.0000 -9.0390 0.0000
# 2 40.6167 73.9684 24.9615 0.0000 -4.9259 0.0000
# 3 14.4979 24.9615 70.4899 0.0000 4.8942 0.0000
# 4 0.0000 0.0000 0.0000 14.5988 0.0000 -0.3906
# 5 -9.0390 -4.9259 4.8942 0.0000 22.1016 0.0000
# 6 0.0000 0.0000 0.0000 -0.3906 0.0000 11.2279
#
#
#
# Elastic Compliance Matrix: (Units=1/GPa)
#
#
# Indices 1 2 3 4 5 6 
#
# 1 0.014862 -0.007634 -0.000667 0.000000 0.004525 0.000000
# 2 -0.007634 0.019772 -0.005607 0.000000 0.002526 0.000000
# 3 -0.000667 -0.005607 0.016671 0.000000 -0.005214 0.000000
# 4 0.000000 0.000000 0.000000 0.068562 0.000000 0.002385
# 5 0.004525 0.002526 -0.005214 0.000000 0.048814 0.000000
# 6 0.000000 0.000000 0.000000 0.002385 0.000000 0.089147
#
#
# Mechanical properties :
#
#
# Convention : Reuss Voigt Hill
#
# Bulk Modulus (GPa) = 42.57488 44.01798 43.29643
# Shear Modulus (GPa) = 17.03725 19.98121 18.50923
#
# Velocity S-wave (km/s) = 3.31143 3.58614 3.45152
# Velocity P-wave (km/s) = 6.48251 6.74375 6.61442
#
# Compressibility (1/GPa) = 0.02348803
#
# Stress axis : x y z
#
# Youngs Moduli (GPa) = 67.28429 50.57741 59.98393
#
# Poissons Ratio (x) = 0.38613 0.04004
# Poissons Ratio (y) = 0.51368 0.33631
# Poissons Ratio (z) = 0.04491 0.28357
#
# Static dielectric constant tensor:
#      x y z
#    x 1.575510 0.000000 0.004940 
#    y 0.000000 1.534360 0.000000 
#    z 0.004940 0.000000 1.548910 
# 
# From -- ./inp_files/32263.got.cif
#   From: 2010.05.17/outbox.cif.g08.bks.cpg/sg12_17_cif.got.tgz:32263.got - 2010.06.03 13:09:07.
