data_PCOD9181491
_publ_section_title
;
Structure prediction by ZEFSAII (Michael W. Deem and Ramdas Pophale) SiO2 
 PCOD9181491
Probable space group: C 2/M
;
_chemical_formula_sum "Si O2"
_cell_formula_units_Z 58
_cell_length_a 29.645685
_cell_length_b 7.813429
_cell_length_c 12.586014
_cell_angle_alpha 90.000000
_cell_angle_beta 91.704826
_cell_angle_gamma 90.000000
_cell_volume 2914.064033
_symmetry_space_group_name_H-M "C 2/M"
_symmetry_group_IT_number 12
_symmetry_cell_setting 'monoclinic'
loop_
_space_group_symop_operation_xyz
x,y,z
-x,y,-z
-x,-y,-z
x,-y,z
1/2+x,1/2+y,z
1/2-x,1/2+y,-z
1/2-x,1/2-y,-z
1/2+x,1/2-y,z
loop_
_atom_site_type_symbol
_atom_site_label
_atom_site_fract_x
_atom_site_fract_y
_atom_site_fract_z
Si Si1 0.064348 0.209086 0.926345
Si Si2 0.812274 0.298063 0.593602
Si Si3 0.500000 0.000000 0.500000
Si Si4 0.412515 0.202811 0.631785
Si Si5 0.533543 0.706869 0.155635
Si Si6 0.716843 0.799112 0.638684
Si Si7 0.632004 0.703777 0.761608
Si Si8 0.447559 0.307675 0.411636
O O1 0.108739 0.269108 0.867790
O O2 0.018889 0.258765 0.859399
O O3 0.064951 0.000000 0.925845
O O4 0.057672 0.262435 0.047542
O O5 0.817867 0.500000 0.579518
O O6 0.860243 0.244730 0.643845
O O7 0.767187 0.270217 0.658177
O O8 0.802344 0.224248 0.474690
O O9 0.482571 0.152847 0.416356
O O10 0.440456 0.229674 0.739901
O O11 0.429029 0.305596 0.530702
O O12 0.417736 0.000000 0.599857
O O13 0.534083 0.500000 0.157868
O O14 0.679822 0.772432 0.726310
O O15 0.722759 0.000000 0.623674
O O16 0.637364 0.500000 0.771264
O O17 0.594509 0.732755 0.667586
O O18 0.464629 0.500000 0.386120
#
# Coordination Sequence:
#
# PCOD9181491 Si02
#       8
#     8   8   2   8   8   8   8   8
#     4   8  17  35  56  78 104 142 188 237 278 322
#     4   9  19  34  52  74 108 146 180 221 280 337
#     4  12  26  40  52  74 126 156 190 240 272 336
#     4  11  21  36  55  80 117 148 181 234 282 334
#     4   9  18  35  58  79 104 142 192 236 277 328
#     4  10  19  32  53  78 108 141 179 225 281 335
#     4  10  20  34  55  80 111 146 188 228 277 347
#     4  11  24  38  56  82 113 157 194 224 285 345
#
# _framework density 19.903475
#
# number of rings (size 3 to 8) (size 9 to 14) (size 15 to 20)
#    0.000    2.207    2.069    1.862    2.897    1.655 
#    0.000    2.759    0.000    0.828    0.000    0.000 
#    0.000    0.000    0.000    0.000    0.000    0.000 
#
# Total GULP energy -161630.625991 kJ/mol
# GULP energy per Si atom -5573.469862 kJ/mol
# Density = 1.985817 g / cm^3
# Si number density = 19.903475 Si / 1000 Ang^3
#
#
#
# Elastic Constant Matrix: (Units=GPa)
#
#
# Indices 1 2 3 4 5 6 
#
# 1 95.5627 5.0338 39.6832 0.0000 -17.6708 0.0000
# 2 5.0338 53.7085 -0.8964 0.0000 7.2641 0.0000
# 3 39.6832 -0.8964 78.3162 0.0000 -10.6826 0.0000
# 4 0.0000 0.0000 0.0000 7.8182 0.0000 1.5483
# 5 -17.6708 7.2641 -10.6826 0.0000 26.1790 0.0000
# 6 0.0000 0.0000 0.0000 1.5483 0.0000 25.9206
#
#
#
# Elastic Compliance Matrix: (Units=1/GPa)
#
#
# Indices 1 2 3 4 5 6 
#
# 1 0.014750 -0.002579 -0.006404 0.000000 0.008058 0.000000
# 2 -0.002579 0.019818 0.000578 0.000000 -0.007004 0.000000
# 3 -0.006404 0.000578 0.016317 0.000000 0.002175 0.000000
# 4 0.000000 0.000000 0.000000 0.129438 0.000000 -0.007732
# 5 0.008058 -0.007004 0.002175 0.000000 0.046469 0.000000
# 6 0.000000 0.000000 0.000000 -0.007732 0.000000 0.039041
#
#
# Mechanical properties :
#
#
# Convention : Reuss Voigt Hill
#
# Bulk Modulus (GPa) = 29.34734 35.02539 32.18636
# Shear Modulus (GPa) = 17.00680 24.23468 20.62074
#
# Velocity S-wave (km/s) = 2.92629 3.49321 3.22224
# Velocity P-wave (km/s) = 5.11805 5.82288 5.48180
#
# Compressibility (1/GPa) = 0.03407464
#
# Stress axis : x y z
#
# Youngs Moduli (GPa) = 67.79827 50.45990 61.28569
#
# Poissons Ratio (x) = 0.13015 0.39248
# Poissons Ratio (y) = 0.17487 -0.03545
# Poissons Ratio (z) = 0.43418 -0.02918
#
# Static dielectric constant tensor:
#      x y z
#    x 1.835860 0.000000 -0.053020 
#    y 0.000000 1.741860 0.000000 
#    z -0.053020 0.000000 1.707210 
# 
# From -- ./inp_files/186724.got.cif
#   From: 2010.05.17/outbox.cif.g08.bks.cpg/sg12_94_cif.got.tgz:186724.got - 2010.06.03 13:09:07.
