data_PCOD9181724
_publ_section_title
;
Structure prediction by ZEFSAII (Michael W. Deem and Ramdas Pophale) SiO2 
 PCOD9181724
Probable space group: C 2/M
;
_chemical_formula_sum "Si O2"
_cell_formula_units_Z 48
_cell_length_a 7.548783
_cell_length_b 29.339122
_cell_length_c 10.433105
_cell_angle_alpha 90.000000
_cell_angle_beta 71.087062
_cell_angle_gamma 90.000000
_cell_volume 2185.920512
_symmetry_space_group_name_H-M "C 2/M"
_symmetry_group_IT_number 12
_symmetry_cell_setting 'monoclinic'
loop_
_space_group_symop_operation_xyz
x,y,z
-x,y,-z
-x,-y,-z
x,-y,z
1/2+x,1/2+y,z
1/2-x,1/2+y,-z
1/2-x,1/2-y,-z
1/2+x,1/2-y,z
loop_
_atom_site_type_symbol
_atom_site_label
_atom_site_fract_x
_atom_site_fract_y
_atom_site_fract_z
Si Si1 0.214399 0.891203 0.443506
Si Si2 0.000000 0.619440 0.000000
Si Si3 0.473994 0.947066 0.760886
Si Si4 0.962131 0.049786 0.161747
Si Si5 0.500000 0.752030 0.500000
Si Si6 0.211961 0.185254 0.641749
Si Si7 0.638502 0.356132 0.194334
O O1 0.370994 0.928077 0.373377
O O2 0.255499 0.862442 0.561384
O O3 0.205634 0.855214 0.326334
O O4 0.000000 0.909334 0.500000
O O5 0.814981 0.649711 0.061671
O O6 0.017296 0.586209 0.118262
O O7 0.259381 0.945055 0.763316
O O8 0.509606 0.000000 0.786000
O O9 0.075884 0.091431 0.190942
O O10 0.022693 0.000000 0.195678
O O11 0.000000 0.050464 0.000000
O O12 0.602458 0.786169 0.374910
O O13 0.621200 0.717928 0.556414
O O14 0.046720 0.174101 0.779934
#
# Coordination Sequence:
#
# PCOD9181724 Si02
#       7
#     8   4   8   8   4   8   8
#     4   9  19  36  52  78 113 138 178 222 264 324
#     4  10  19  32  54  76 106 152 180 228 254 308
#     4  10  20  32  51  77 108 149 190 221 257 304
#     4  10  20  34  50  77 111 145 191 228 252 300
#     4  10  20  36  64  82 108 130 172 222 270 334
#     4  10  20  38  58  89 104 135 173 218 275 329
#     4  10  19  34  55  80 110 142 178 221 268 316
#
# _framework density 21.958711999999998
#
# number of rings (size 3 to 8) (size 9 to 14) (size 15 to 20)
#    0.000    2.167    4.167    0.250    2.333    3.000 
#    0.000    2.500    0.000    9.000    0.000    0.000 
#    0.000    0.000    0.000    0.000    0.000    0.000 
#
# Total GULP energy -133908.472219 kJ/mol
# GULP energy per Si atom -5579.519676 kJ/mol
# Density = 2.190873 g / cm^3
# Si number density = 21.958712 Si / 1000 Ang^3
#
#
#
# Elastic Constant Matrix: (Units=GPa)
#
#
# Indices 1 2 3 4 5 6 
#
# 1 45.7392 19.0712 25.8964 0.0000 -34.6271 0.0000
# 2 19.0712 63.5085 36.9648 0.0000 -21.5051 0.0000
# 3 25.8964 36.9648 92.6325 0.0000 -47.4265 0.0000
# 4 0.0000 0.0000 0.0000 -7.9537 0.0000 -3.7660
# 5 -34.6271 -21.5051 -47.4265 0.0000 48.4727 0.0000
# 6 0.0000 0.0000 0.0000 -3.7660 0.0000 20.5504
#
#
#
# Elastic Compliance Matrix: (Units=1/GPa)
#
#
# Indices 1 2 3 4 5 6 
#
# 1 0.053294 -0.007100 0.011649 0.000000 0.046319 0.000000
# 2 -0.007100 0.021572 -0.008656 0.000000 -0.003971 0.000000
# 3 0.011649 -0.008656 0.026625 0.000000 0.030531 0.000000
# 4 0.000000 0.000000 0.000000 -0.115689 0.000000 -0.021201
# 5 0.046319 -0.003971 0.030531 0.000000 0.081829 0.000000
# 6 0.000000 0.000000 0.000000 -0.021201 0.000000 0.044776
#
#
# Mechanical properties :
#
#
# Convention : Reuss Voigt Hill
#
# Bulk Modulus (GPa) = 10.72084 40.63833 25.67958
# Shear Modulus (GPa) = 32.95700 20.21039 26.58370
#
# Velocity S-wave (km/s) = 3.87830 3.03707 3.48317
# Velocity P-wave (km/s) = 4.99478 5.55385 5.28172
#
# Compressibility (1/GPa) = 0.09327631
#
# Stress axis : x y z
#
# Youngs Moduli (GPa) = 18.76374 46.35707 37.55923
#
# Poissons Ratio (x) = 0.32912 -0.43752
# Poissons Ratio (y) = 0.13321 0.32513
# Poissons Ratio (z) = -0.21858 0.40129
#
# Static dielectric constant tensor:
#      x y z
#    x 1.936610 0.000000 -0.057290 
#    y 0.000000 1.776730 0.000000 
#    z -0.057290 0.000000 1.866730 
# 
# From -- ./inp_files/123547.got.cif
#   From: 2010.05.17/outbox.cif.g08.bks.cpg/sg12_62_cif.got.tgz:123547.got - 2010.06.03 13:09:07.
