data_PCOD9181517
_publ_section_title
;
Structure prediction by ZEFSAII (Michael W. Deem and Ramdas Pophale) SiO2 
 PCOD9181517
Probable space group: C 2/M
;
_chemical_formula_sum "Si O2"
_cell_formula_units_Z 56
_cell_length_a 15.298451
_cell_length_b 7.737623
_cell_length_c 29.468144
_cell_angle_alpha 90.000000
_cell_angle_beta 130.736335
_cell_angle_gamma 90.000000
_cell_volume 2643.120296
_symmetry_space_group_name_H-M "C 2/M"
_symmetry_group_IT_number 12
_symmetry_cell_setting 'monoclinic'
loop_
_space_group_symop_operation_xyz
x,y,z
-x,y,-z
-x,-y,-z
x,-y,z
1/2+x,1/2+y,z
1/2-x,1/2+y,-z
1/2-x,1/2-y,-z
1/2+x,1/2-y,z
loop_
_atom_site_type_symbol
_atom_site_label
_atom_site_fract_x
_atom_site_fract_y
_atom_site_fract_z
Si Si1 0.235550 0.698387 0.142522
Si Si2 0.001169 0.796167 0.112291
Si Si3 0.986218 0.212954 0.210379
Si Si4 0.819160 0.792976 0.654820
Si Si5 0.139063 0.791830 0.432003
Si Si6 0.623267 0.700587 0.015534
Si Si7 0.946730 0.208463 0.434092
O O1 0.236316 0.500000 0.157196
O O2 0.129080 0.780259 0.133740
O O3 0.364468 0.769746 0.190848
O O4 0.208053 0.707608 0.079196
O O5 0.995834 0.727778 0.161448
O O6 0.976018 0.000000 0.105755
O O7 0.908044 0.724155 0.044423
O O8 0.094069 0.270513 0.277119
O O9 0.984718 0.000000 0.209101
O O10 0.848947 0.723928 0.614822
O O11 0.685269 0.756656 0.617353
O O12 0.833276 0.000000 0.658411
O O13 0.250000 0.750000 0.500000
O O14 0.027325 0.727831 0.420838
O O15 0.132127 0.000000 0.426997
O O16 0.658913 0.500000 0.024068
O O17 0.500000 0.702638 0.000000
O O18 0.000000 0.271056 0.500000
O O19 0.953128 0.000000 0.437328
#
# Coordination Sequence:
#
# PCOD9181517 Si02
#       7
#     8   8   8   8   8   8   8
#     4  10  19  32  53  79 106 135 172 222 268 304
#     4   9  18  35  55  72 101 143 178 211 260 318
#     4   9  20  37  53  73 105 142 176 213 261 312
#     4  10  21  37  56  78 104 138 180 216 250 309
#     4  10  20  34  55  80 106 135 166 206 257 307
#     4   8  15  29  50  75 102 136 174 213 261 315
#     4  10  20  35  55  80 110 138 164 208 266 309
#
# _framework density 21.187080999999999
#
# number of rings (size 3 to 8) (size 9 to 14) (size 15 to 20)
#    0.000    2.571    1.429    1.286    0.000    5.143 
#    0.000    5.000    0.000    0.000    0.000    0.000 
#    0.000    0.000    0.000    0.000    0.000    0.000 
#
# Total GULP energy -156265.761110 kJ/mol
# GULP energy per Si atom -5580.920040 kJ/mol
# Density = 2.113886 g / cm^3
# Si number density = 21.187081 Si / 1000 Ang^3
#
#
#
# Elastic Constant Matrix: (Units=GPa)
#
#
# Indices 1 2 3 4 5 6 
#
# 1 98.4022 -4.9769 34.3377 0.0000 2.9682 0.0000
# 2 -4.9769 27.9621 -4.6758 0.0000 -3.4265 0.0000
# 3 34.3377 -4.6758 78.3619 0.0000 11.8296 0.0000
# 4 0.0000 0.0000 0.0000 10.7844 0.0000 -3.2237
# 5 2.9682 -3.4265 11.8296 0.0000 35.7561 0.0000
# 6 0.0000 0.0000 0.0000 -3.2237 0.0000 5.2641
#
#
#
# Elastic Compliance Matrix: (Units=1/GPa)
#
#
# Indices 1 2 3 4 5 6 
#
# 1 0.012069 0.001365 -0.005342 0.000000 0.000896 0.000000
# 2 0.001365 0.036564 0.001128 0.000000 0.003017 0.000000
# 3 -0.005342 0.001128 0.015879 0.000000 -0.004702 0.000000
# 4 0.000000 0.000000 0.000000 0.113505 0.000000 0.069510
# 5 0.000896 0.003017 -0.004702 0.000000 0.029738 0.000000
# 6 0.000000 0.000000 0.000000 0.069510 0.000000 0.232532
#
#
# Mechanical properties :
#
#
# Convention : Reuss Voigt Hill
#
# Bulk Modulus (GPa) = 17.00298 28.23290 22.61794
# Shear Modulus (GPa) = 10.73907 22.36368 16.55137
#
# Velocity S-wave (km/s) = 2.25382 3.25242 2.79803
# Velocity P-wave (km/s) = 3.84909 5.24011 4.59752
#
# Compressibility (1/GPa) = 0.05881320
#
# Stress axis : x y z
#
# Youngs Moduli (GPa) = 82.85998 27.34930 62.97467
#
# Poissons Ratio (x) = -0.03732 0.33643
# Poissons Ratio (y) = -0.11307 -0.07106
# Poissons Ratio (z) = 0.44266 -0.03086
#
# Static dielectric constant tensor:
#      x y z
#    x 1.764100 0.000000 -0.016500 
#    y 0.000000 1.792490 0.000000 
#    z -0.016500 0.000000 1.754300 
# 
# From -- ./inp_files/337889.got.cif
#   From: 2010.05.17/outbox.cif.g08.bks.cpg/sg12_169_cif.got.tgz:337889.got - 2010.06.03 13:09:07.
