data_PCOD9181765
_publ_section_title
;
Structure prediction by ZEFSAII (Michael W. Deem and Ramdas Pophale) SiO2 
 PCOD9181765
Probable space group: C 2/M
;
_chemical_formula_sum "Si O2"
_cell_formula_units_Z 50
_cell_length_a 14.589512
_cell_length_b 9.425538
_cell_length_c 23.270540
_cell_angle_alpha 90.000000
_cell_angle_beta 52.594248
_cell_angle_gamma 90.000000
_cell_volume 2541.951536
_symmetry_space_group_name_H-M "C 2/M"
_symmetry_group_IT_number 12
_symmetry_cell_setting 'monoclinic'
loop_
_space_group_symop_operation_xyz
x,y,z
-x,y,-z
-x,-y,-z
x,-y,z
1/2+x,1/2+y,z
1/2-x,1/2+y,-z
1/2-x,1/2-y,-z
1/2+x,1/2-y,z
loop_
_atom_site_type_symbol
_atom_site_label
_atom_site_fract_x
_atom_site_fract_y
_atom_site_fract_z
Si Si1 0.633540 0.841751 0.047883
Si Si2 0.038623 0.832219 0.185704
Si Si3 0.274204 0.665580 0.304872
Si Si4 0.500000 0.000000 0.000000
Si Si5 0.922605 0.662472 0.418423
Si Si6 0.822846 0.837135 0.555118
Si Si7 0.132178 0.332570 0.252003
O O1 0.552465 0.755445 0.122217
O O2 0.659836 0.000000 0.062139
O O3 0.750000 0.750000 0.000000
O O4 0.569083 0.877933 0.012741
O O5 0.125029 0.766087 0.199548
O O6 0.910071 0.810740 0.259622
O O7 0.057420 0.000000 0.170042
O O8 0.249465 0.500000 0.325642
O O9 0.199379 0.756860 0.377083
O O10 0.241015 0.693053 0.251516
O O11 0.939997 0.500000 0.430894
O O12 0.910594 0.762249 0.478070
O O13 0.801600 0.668465 0.430071
O O14 0.023969 0.697897 0.335528
O O15 0.853096 0.000000 0.553070
O O16 0.126241 0.500000 0.238929
#
# Coordination Sequence:
#
# PCOD9181765 Si02
#       7
#     8   8   8   2   8   8   8
#     4  10  22  45  73 102 139 176 220 267 324 390
#     4  11  23  40  63  97 133 167 208 260 322 381
#     4  10  22  38  57  84 124 161 209 262 319 385
#     4   8  24  44  74 110 140 176 226 268 320 392
#     4   9  18  33  54  77 107 155 213 262 322 385
#     4  10  19  32  54  79 110 156 207 267 328 378
#     4  10  21  39  60  86 118 167 217 260 321 392
#
# _framework density 19.669927999999999
#
# number of rings (size 3 to 8) (size 9 to 14) (size 15 to 20)
#    0.480    1.600    1.600    1.440    0.000    4.480 
#    0.000    6.400    0.000    0.000    0.000    0.000 
#    0.000    0.000    0.000    0.000    0.000    0.000 
#
# Total GULP energy -139255.776591 kJ/mol
# GULP energy per Si atom -5570.231064 kJ/mol
# Density = 1.962516 g / cm^3
# Si number density = 19.669928 Si / 1000 Ang^3
#
#
#
# Elastic Constant Matrix: (Units=GPa)
#
#
# Indices 1 2 3 4 5 6 
#
# 1 75.9047 47.6725 26.3010 0.0000 21.2003 0.0000
# 2 47.6725 105.0060 55.1488 0.0000 15.1610 0.0000
# 3 26.3010 55.1488 47.0777 0.0000 16.0856 0.0000
# 4 0.0000 0.0000 0.0000 34.5011 0.0000 9.1176
# 5 21.2003 15.1610 16.0856 0.0000 20.5964 0.0000
# 6 0.0000 0.0000 0.0000 9.1176 0.0000 26.2508
#
#
#
# Elastic Compliance Matrix: (Units=1/GPa)
#
#
# Indices 1 2 3 4 5 6 
#
# 1 0.024174 -0.012141 0.008410 0.000000 -0.022514 0.000000
# 2 -0.012141 0.031412 -0.035987 0.000000 0.017480 0.000000
# 3 0.008410 -0.035987 0.071753 0.000000 -0.038206 0.000000
# 4 0.000000 0.000000 0.000000 0.031914 0.000000 -0.011084
# 5 -0.022514 0.017480 -0.038206 0.000000 0.088697 0.000000
# 6 0.000000 0.000000 0.000000 -0.011084 0.000000 0.041944
#
#
# Mechanical properties :
#
#
# Convention : Reuss Voigt Hill
#
# Bulk Modulus (GPa) = 20.87542 54.02591 37.45067
# Shear Modulus (GPa) = 12.97699 22.86072 17.91886
#
# Velocity S-wave (km/s) = 2.57132 3.41283 3.02151
# Velocity P-wave (km/s) = 4.41039 6.56169 5.59049
#
# Compressibility (1/GPa) = 0.04790323
#
# Stress axis : x y z
#
# Youngs Moduli (GPa) = 41.36703 31.83544 13.93660
#
# Poissons Ratio (x) = 0.38652 -0.11721
# Poissons Ratio (y) = 0.50225 0.50153
# Poissons Ratio (z) = -0.34790 1.14565
#
# Static dielectric constant tensor:
#      x y z
#    x 1.736640 0.000000 -0.019230 
#    y 0.000000 1.665910 0.000000 
#    z -0.019230 0.000000 1.688020 
# 
# From -- ./inp_files/337784.got.cif
#   From: 2010.05.17/outbox.cif.g08.bks.cpg/sg12_169_cif.got.tgz:337784.got - 2010.06.03 13:09:07.
