data_PCOD9181342
_publ_section_title
;
Structure prediction by ZEFSAII (Michael W. Deem and Ramdas Pophale) SiO2 
 PCOD9181342
Probable space group: C 2/M
;
_chemical_formula_sum "Si O2"
_cell_formula_units_Z 64
_cell_length_a 14.653150
_cell_length_b 17.286380
_cell_length_c 14.764040
_cell_angle_alpha 90.000000
_cell_angle_beta 118.027514
_cell_angle_gamma 90.000000
_cell_volume 3301.142239
_symmetry_space_group_name_H-M "C 2/M"
_symmetry_group_IT_number 12
_symmetry_cell_setting 'monoclinic'
loop_
_space_group_symop_operation_xyz
x,y,z
-x,y,-z
-x,-y,-z
x,-y,z
1/2+x,1/2+y,z
1/2-x,1/2+y,-z
1/2-x,1/2-y,-z
1/2+x,1/2-y,z
loop_
_atom_site_type_symbol
_atom_site_label
_atom_site_fract_x
_atom_site_fract_y
_atom_site_fract_z
Si Si1 0.965646 0.141047 0.745987
Si Si2 0.195887 0.910848 0.811459
Si Si3 0.207182 0.410231 0.947691
Si Si4 0.938730 0.408666 0.564910
Si Si5 0.110296 0.141788 0.098758
Si Si6 0.050351 0.307444 0.769513
Si Si7 0.247258 0.759406 0.757348
Si Si8 0.765885 0.822269 0.572313
O O1 0.913440 0.107122 0.812576
O O2 0.880575 0.142141 0.627271
O O3 0.073053 0.101590 0.769534
O O4 0.990568 0.232050 0.777511
O O5 0.239442 0.851539 0.757304
O O6 0.216700 0.000000 0.800605
O O7 0.248858 0.890140 0.932632
O O8 0.176872 0.500000 0.933482
O O9 0.302371 0.400005 0.920854
O O10 0.110752 0.358028 0.871972
O O11 0.950431 0.500000 0.587486
O O12 0.821159 0.384574 0.490505
O O13 0.000000 0.390055 0.500000
O O14 0.982336 0.359652 0.670005
O O15 0.160027 0.226089 0.138585
O O16 0.000000 0.143706 0.000000
O O17 0.141928 0.270463 0.752979
O O18 0.253202 0.716233 0.665130
O O19 0.750000 0.750000 0.500000
#
# Coordination Sequence:
#
# PCOD9181342 Si02
#       8
#     8   8   8   8   8   8   8   8
#     4  10  21  34  57  84 107 148 189 233 279 331
#     4  10  21  38  57  81 114 152 189 231 280 334
#     4  10  21  34  54  83 118 153 184 228 284 337
#     4  11  22  37  59  86 113 145 184 235 290 337
#     4  10  19  32  52  82 113 143 187 230 277 328
#     4  10  19  36  57  82 112 147 191 228 275 337
#     4   9  21  35  56  82 106 147 188 230 275 334
#     4  11  21  39  60  83 110 145 188 232 282 335
#
# _framework density 19.387228
#
# number of rings (size 3 to 8) (size 9 to 14) (size 15 to 20)
#    0.000    1.875    3.750    0.375    1.750    2.750 
#    0.000    0.625    0.000    1.125    0.000    0.000 
#    0.000    0.000    0.000    0.000    0.000    0.000 
#
# Total GULP energy -178506.825202 kJ/mol
# GULP energy per Si atom -5578.338288 kJ/mol
# Density = 1.934310 g / cm^3
# Si number density = 19.387228 Si / 1000 Ang^3
#
#
#
# Elastic Constant Matrix: (Units=GPa)
#
#
# Indices 1 2 3 4 5 6 
#
# 1 22.6369 -2.3626 1.9127 0.0000 16.5591 0.0000
# 2 -2.3626 59.0488 13.9941 0.0000 9.4608 0.0000
# 3 1.9127 13.9941 77.6573 0.0000 32.1884 0.0000
# 4 0.0000 0.0000 0.0000 26.4826 0.0000 4.5118
# 5 16.5591 9.4608 32.1884 0.0000 33.5773 0.0000
# 6 0.0000 0.0000 0.0000 4.5118 0.0000 13.4392
#
#
#
# Elastic Compliance Matrix: (Units=1/GPa)
#
#
# Indices 1 2 3 4 5 6 
#
# 1 0.102539 0.010204 0.029516 0.000000 -0.081738 0.000000
# 2 0.010204 0.018916 0.001054 0.000000 -0.011372 0.000000
# 3 0.029516 0.001054 0.030062 0.000000 -0.043671 0.000000
# 4 0.000000 0.000000 0.000000 0.040051 0.000000 -0.013446
# 5 -0.081738 -0.011372 -0.043671 0.000000 0.115161 0.000000
# 6 0.000000 0.000000 0.000000 -0.013446 0.000000 0.078923
#
#
# Mechanical properties :
#
#
# Convention : Reuss Voigt Hill
#
# Bulk Modulus (GPa) = 4.29070 20.71459 12.50264
# Shear Modulus (GPa) = 13.09610 24.41974 18.75792
#
# Velocity S-wave (km/s) = 2.60186 3.55290 3.11390
# Velocity P-wave (km/s) = 3.35324 5.24773 4.40357
#
# Compressibility (1/GPa) = 0.23306219
#
# Stress axis : x y z
#
# Youngs Moduli (GPa) = 9.75240 52.86601 33.26509
#
# Poissons Ratio (x) = -0.53944 -0.98184
# Poissons Ratio (y) = -0.09951 -0.03505
# Poissons Ratio (z) = -0.28785 -0.05570
#
# Static dielectric constant tensor:
#      x y z
#    x 1.697750 0.000000 -0.016000 
#    y 0.000000 1.690710 0.000000 
#    z -0.016000 0.000000 1.727210 
# 
# From -- ./inp_files/216379.got.cif
#   From: 2010.05.17/outbox.cif.g08.bks.cpg/sg12_109_cif.got.tgz:216379.got - 2010.06.03 13:09:07.
