data_PCOD9181220
_publ_section_title
;
Structure prediction by ZEFSAII (Michael W. Deem and Ramdas Pophale) SiO2 
 PCOD9181220
Probable space group: C 2/M
;
_chemical_formula_sum "Si O2"
_cell_formula_units_Z 64
_cell_length_a 34.915141
_cell_length_b 7.586971
_cell_length_c 27.058344
_cell_angle_alpha 90.000000
_cell_angle_beta 156.672099
_cell_angle_gamma 90.000000
_cell_volume 2838.380567
_symmetry_space_group_name_H-M "C 2/M"
_symmetry_group_IT_number 12
_symmetry_cell_setting 'monoclinic'
loop_
_space_group_symop_operation_xyz
x,y,z
-x,y,-z
-x,-y,-z
x,-y,z
1/2+x,1/2+y,z
1/2-x,1/2+y,-z
1/2-x,1/2-y,-z
1/2+x,1/2-y,z
loop_
_atom_site_type_symbol
_atom_site_label
_atom_site_fract_x
_atom_site_fract_y
_atom_site_fract_z
Si Si1 0.792132 0.289450 0.706650
Si Si2 0.583435 0.795256 0.498749
Si Si3 0.550014 0.793583 0.175569
Si Si4 0.363067 0.788051 0.896084
Si Si5 0.929855 0.713269 0.237662
Si Si6 0.849193 0.703386 0.318872
Si Si7 0.938173 0.794940 0.133796
Si Si8 0.777771 0.716091 0.132895
O O1 0.774099 0.500000 0.682420
O O2 0.689354 0.209873 0.599368
O O3 0.862969 0.257510 0.837294
O O4 0.848731 0.223613 0.725391
O O5 0.509081 0.721210 0.370932
O O6 0.593771 0.718089 0.566547
O O7 0.556049 0.000000 0.473166
O O8 0.523830 0.780359 0.201937
O O9 0.552987 0.000000 0.165978
O O10 0.456985 0.720843 0.035861
O O11 0.263585 0.708125 0.798476
O O12 0.355480 0.000000 0.894290
O O13 0.933307 0.500000 0.240155
O O14 0.948064 0.775262 0.204013
O O15 0.827474 0.766020 0.140328
O O16 0.879790 0.500000 0.350693
O O17 0.843665 0.777569 0.257031
O O18 0.935927 0.000000 0.118930
O O19 0.832393 0.719770 0.994099
O O20 0.776026 0.500000 0.132745
#
# Coordination Sequence:
#
# PCOD9181220 Si02
#       8
#     8   8   8   8   8   8   8   8
#     4   9  18  32  52  77 107 140 173 209 254 308
#     4   9  19  34  54  78 106 139 177 214 254 304
#     4  10  19  32  52  78 106 139 174 210 256 311
#     4   9  16  28  48  76 108 139 170 204 250 310
#     4  10  21  38  56  75 101 140 182 218 255 305
#     4   9  16  30  51  78 110 138 165 208 260 308
#     4  11  22  36  54  79 107 136 172 218 266 309
#     4   9  18  33  55  80 107 134 169 214 263 313
#
# _framework density 22.548069000000002
#
# number of rings (size 3 to 8) (size 9 to 14) (size 15 to 20)
#    0.000    2.500    1.250    1.125    0.000    3.000 
#    0.000    4.375    0.000    3.750    0.000    4.375 
#    0.000    0.000    0.000    0.000    0.000    0.000 
#
# Total GULP energy -178629.113740 kJ/mol
# GULP energy per Si atom -5582.159804 kJ/mol
# Density = 2.249675 g / cm^3
# Si number density = 22.548069 Si / 1000 Ang^3
#
#
#
# Elastic Constant Matrix: (Units=GPa)
#
#
# Indices 1 2 3 4 5 6 
#
# 1 142.5796 -0.5098 30.6339 0.0000 -3.9315 0.0000
# 2 -0.5098 52.0453 -0.9128 0.0000 1.6993 -0.0001
# 3 30.6339 -0.9128 63.3650 0.0000 -16.5406 0.0000
# 4 0.0000 0.0000 0.0000 12.3223 0.0000 0.8890
# 5 -3.9315 1.6993 -16.5406 0.0000 30.6068 0.0000
# 6 0.0000 -0.0001 0.0000 0.8890 0.0000 13.9787
#
#
#
# Elastic Compliance Matrix: (Units=1/GPa)
#
#
# Indices 1 2 3 4 5 6 
#
# 1 0.007865 0.000045 -0.004120 0.000000 -0.001219 0.000000
# 2 0.000045 0.019249 -0.000025 0.000000 -0.001077 0.000000
# 3 -0.004120 -0.000025 0.020532 0.000000 0.010568 0.000000
# 4 0.000000 0.000000 0.000000 0.081528 0.000000 -0.005185
# 5 -0.001219 -0.001077 0.010568 0.000000 0.038287 0.000000
# 6 0.000000 0.000000 0.000000 -0.005185 0.000000 0.071867
#
#
# Mechanical properties :
#
#
# Convention : Reuss Voigt Hill
#
# Bulk Modulus (GPa) = 25.35191 35.15693 30.25442
# Shear Modulus (GPa) = 19.18076 26.63348 22.90712
#
# Velocity S-wave (km/s) = 2.91977 3.44057 3.19081
# Velocity P-wave (km/s) = 4.75759 5.60439 5.19826
#
# Compressibility (1/GPa) = 0.03944475
#
# Stress axis : x y z
#
# Youngs Moduli (GPa) = 127.13939 51.95031 48.70529
#
# Poissons Ratio (x) = -0.00232 0.20067
# Poissons Ratio (y) = -0.00567 0.00123
# Poissons Ratio (z) = 0.52382 0.00131
#
# Static dielectric constant tensor:
#      x y z
#    x 1.856780 0.000000 -0.001740 
#    y 0.000000 1.858810 0.000000 
#    z -0.001740 0.000000 1.836520 
# 
# From -- ./inp_files/353443.got.cif
#   From: 2010.05.17/outbox.cif.g08.bks.cpg/sg12_177_cif.got.tgz:353443.got - 2010.06.03 13:09:07.
