data_PCOD9181128
_publ_section_title
;
Structure prediction by ZEFSAII (Michael W. Deem and Ramdas Pophale) SiO2 
 PCOD9181128
Probable space group: C 2/M
;
_chemical_formula_sum "Si O2"
_cell_formula_units_Z 64
_cell_length_a 21.019025
_cell_length_b 7.396456
_cell_length_c 20.775888
_cell_angle_alpha 90.000000
_cell_angle_beta 111.911932
_cell_angle_gamma 90.000000
_cell_volume 2996.614036
_symmetry_space_group_name_H-M "C 2/M"
_symmetry_group_IT_number 12
_symmetry_cell_setting 'monoclinic'
loop_
_space_group_symop_operation_xyz
x,y,z
-x,y,-z
-x,-y,-z
x,-y,z
1/2+x,1/2+y,z
1/2-x,1/2+y,-z
1/2-x,1/2-y,-z
1/2+x,1/2-y,z
loop_
_atom_site_type_symbol
_atom_site_label
_atom_site_fract_x
_atom_site_fract_y
_atom_site_fract_z
Si Si1 0.304732 0.216031 0.464735
Si Si2 0.934391 0.720459 0.306141
Si Si3 0.435566 0.221262 0.160117
Si Si4 0.712201 0.779297 0.687782
Si Si5 0.811941 0.218087 0.837048
Si Si6 0.528448 0.786384 0.078935
Si Si7 0.458242 0.220396 0.547776
Si Si8 0.781692 0.715359 0.081131
O O1 0.250000 0.250000 0.500000
O O2 0.285120 0.281515 0.385533
O O3 0.380093 0.283451 0.513482
O O4 0.310724 0.000000 0.460701
O O5 0.932903 0.500000 0.306227
O O6 0.946571 0.778284 0.237691
O O7 0.860316 0.775232 0.306945
O O8 0.996695 0.779427 0.374801
O O9 0.488467 0.285502 0.126226
O O10 0.359224 0.281212 0.112969
O O11 0.437558 0.000000 0.161287
O O12 0.775414 0.721459 0.757029
O O13 0.712422 0.000000 0.687763
O O14 0.890542 0.266512 0.879650
O O15 0.765460 0.284810 0.878878
O O16 0.809571 0.000000 0.835618
O O17 0.513355 0.000000 0.071551
O O18 0.500000 0.712941 0.000000
O O19 0.500000 0.272226 0.500000
O O20 0.456818 0.000000 0.548760
O O21 0.785453 0.500000 0.092016
O O22 0.750000 0.750000 0.000000
#
# Coordination Sequence:
#
# PCOD9181128 Si02
#       8
#     8   8   8   8   8   8   8   8
#     4  10  20  33  51  78 110 139 170 211 260 310
#     4   9  14  25  48  75  99 124 166 221 259 286
#     4   9  17  30  48  70  96 128 167 207 248 297
#     4   9  16  30  51  75 104 135 167 212 265 308
#     4  10  20  34  54  78 101 134 177 213 254 310
#     4  10  21  36  52  73 106 142 169 203 260 318
#     4   9  15  25  46  75  99 124 166 215 251 283
#     4  10  19  32  52  76  99 126 166 212 253 299
#
# _framework density 21.357437999999998
#
# number of rings (size 3 to 8) (size 9 to 14) (size 15 to 20)
#    0.000    2.500    2.500    0.750    0.000    2.750 
#    0.000    2.500    0.000    0.375    0.000    0.875 
#    0.000    0.000    0.000    0.000    0.000    0.000 
#
# Total GULP energy -178711.661685 kJ/mol
# GULP energy per Si atom -5584.739428 kJ/mol
# Density = 2.130883 g / cm^3
# Si number density = 21.357438 Si / 1000 Ang^3
#
#
#
# Elastic Constant Matrix: (Units=GPa)
#
#
# Indices 1 2 3 4 5 6 
#
# 1 168.3372 -1.9825 91.8710 0.0000 3.9869 0.0000
# 2 -1.9825 68.5604 5.4123 0.0000 -4.5802 0.0000
# 3 91.8710 5.4123 196.4036 0.0000 16.1278 0.0000
# 4 0.0000 0.0000 0.0000 -0.7888 0.0000 -9.4287
# 5 3.9869 -4.5802 16.1278 0.0000 38.1002 0.0000
# 6 0.0000 0.0000 0.0000 -9.4287 0.0000 -4.4018
#
#
#
# Elastic Compliance Matrix: (Units=1/GPa)
#
#
# Indices 1 2 3 4 5 6 
#
# 1 0.008022 0.000592 -0.003839 0.000000 0.000857 0.000000
# 2 0.000592 0.014809 -0.000856 0.000000 0.002081 0.000000
# 3 -0.003839 -0.000856 0.007135 0.000000 -0.002721 0.000000
# 4 0.000000 0.000000 0.000000 0.051526 0.000000 -0.110370
# 5 0.000857 0.002081 -0.002721 0.000000 0.027559 0.000000
# 6 0.000000 0.000000 0.000000 -0.110370 0.000000 0.009234
#
#
# Mechanical properties :
#
#
# Convention : Reuss Voigt Hill
#
# Bulk Modulus (GPa) = 45.95529 69.32254 57.63891
# Shear Modulus (GPa) = 37.38467 29.11527 33.24997
#
# Velocity S-wave (km/s) = 4.18835 3.69621 3.94995
# Velocity P-wave (km/s) = 6.70475 7.12353 6.91731
#
# Compressibility (1/GPa) = 0.02176028
#
# Stress axis : x y z
#
# Youngs Moduli (GPa) = 124.64981 67.52472 140.16385
#
# Poissons Ratio (x) = -0.04000 0.53814
# Poissons Ratio (y) = -0.07383 0.11998
# Poissons Ratio (z) = 0.47857 0.05780
#
# Static dielectric constant tensor:
#      x y z
#    x 1.730620 0.000000 0.003710 
#    y 0.000000 1.858430 0.000000 
#    z 0.003710 0.000000 1.732960 
# 
# From -- ./inp_files/276564.got.cif
#   From: 2010.05.17/outbox.cif.g08.bks.cpg/sg12_139_cif.got.tgz:276564.got - 2010.06.03 13:09:07.
