data_PCOD9181032
_publ_section_title
;
Structure prediction by ZEFSAII (Michael W. Deem and Ramdas Pophale) SiO2 
 PCOD9181032
Probable space group: C 2/M
;
_chemical_formula_sum "Si O2"
_cell_formula_units_Z 56
_cell_length_a 19.405291
_cell_length_b 8.864938
_cell_length_c 25.530046
_cell_angle_alpha 90.000000
_cell_angle_beta 133.308499
_cell_angle_gamma 90.000000
_cell_volume 3195.821675
_symmetry_space_group_name_H-M "C 2/M"
_symmetry_group_IT_number 12
_symmetry_cell_setting 'monoclinic'
loop_
_space_group_symop_operation_xyz
x,y,z
-x,y,-z
-x,-y,-z
x,-y,z
1/2+x,1/2+y,z
1/2-x,1/2+y,-z
1/2-x,1/2-y,-z
1/2+x,1/2-y,z
loop_
_atom_site_type_symbol
_atom_site_label
_atom_site_fract_x
_atom_site_fract_y
_atom_site_fract_z
Si Si1 0.019746 0.675198 0.072968
Si Si2 0.112861 0.678849 0.398174
Si Si3 0.176457 0.181453 0.003869
Si Si4 0.211950 0.181753 0.144142
Si Si5 0.209591 0.324793 0.559874
Si Si6 0.409782 0.678132 0.419140
Si Si7 0.098018 0.681474 0.699001
O O1 0.022789 0.500000 0.089949
O O2 0.123048 0.750877 0.129727
O O3 0.000000 0.682886 0.000000
O O4 0.931646 0.756225 0.055766
O O5 0.126294 0.500000 0.394072
O O6 0.140239 0.698957 0.473731
O O7 0.186828 0.778957 0.405403
O O8 0.004749 0.722800 0.331815
O O9 0.206826 0.221230 0.079646
O O10 0.176020 0.000000 0.998818
O O11 0.250000 0.250000 0.000000
O O12 0.311337 0.231966 0.220701
O O13 0.205281 0.000000 0.143465
O O14 0.203888 0.500000 0.571795
O O15 0.178538 0.219078 0.590723
O O16 0.500000 0.733390 0.500000
O O17 0.420068 0.500000 0.416792
O O18 0.400025 0.756742 0.358584
O O19 0.100030 0.500000 0.698019
#
# Coordination Sequence:
#
# PCOD9181032 Si02
#       7
#     8   8   8   8   8   8   8
#     4   9  17  31  53  79 107 140 177 213 253 307
#     4   9  18  32  51  74 100 132 170 215 267 319
#     4  10  19  33  55  83 111 141 179 219 262 310
#     4   9  19  35  55  79 107 139 175 217 265 317
#     4  10  19  32  52  74  98 131 174 220 266 316
#     4  11  22  34  51  76 104 134 174 222 265 311
#     4  10  20  36  56  77 104 138 175 218 271 322
#
# _framework density 17.522881000000002
#
# number of rings (size 3 to 8) (size 9 to 14) (size 15 to 20)
#    0.000    2.286    1.429    1.714    0.000    4.571 
#    0.000    1.429    0.000    5.143    0.000    0.000 
#    0.000    0.000    0.000    0.000    0.000    0.000 
#
# Total GULP energy -156118.537563 kJ/mol
# GULP energy per Si atom -5575.662056 kJ/mol
# Density = 1.748300 g / cm^3
# Si number density = 17.522881 Si / 1000 Ang^3
#
#
#
# Elastic Constant Matrix: (Units=GPa)
#
#
# Indices 1 2 3 4 5 6 
#
# 1 111.6319 33.0300 50.7106 0.0000 22.4077 0.0000
# 2 33.0300 23.6206 27.8815 0.0000 10.8530 0.0000
# 3 50.7106 27.8815 102.1417 0.0000 29.7176 0.0000
# 4 0.0000 0.0000 0.0000 18.1344 0.0000 3.3812
# 5 22.4077 10.8530 29.7176 0.0000 27.0987 0.0000
# 6 0.0000 0.0000 0.0000 3.3812 0.0000 31.7835
#
#
#
# Elastic Compliance Matrix: (Units=1/GPa)
#
#
# Indices 1 2 3 4 5 6 
#
# 1 0.016026 -0.018541 -0.001763 0.000000 -0.003893 0.000000
# 2 -0.018541 0.085541 -0.012686 0.000000 -0.005017 0.000000
# 3 -0.001763 -0.012686 0.017955 0.000000 -0.013152 0.000000
# 4 0.000000 0.000000 0.000000 0.056260 0.000000 -0.005985
# 5 -0.003893 -0.005017 -0.013152 0.000000 0.056553 0.000000
# 6 0.000000 0.000000 0.000000 -0.005985 0.000000 0.032100
#
#
# Mechanical properties :
#
#
# Convention : Reuss Voigt Hill
#
# Bulk Modulus (GPa) = 18.67625 51.18203 34.92914
# Shear Modulus (GPa) = 14.35706 23.78813 19.07260
#
# Velocity S-wave (km/s) = 2.86550 3.68849 3.30273
# Velocity P-wave (km/s) = 4.65075 6.88564 5.87544
#
# Compressibility (1/GPa) = 0.05354393
#
# Stress axis : x y z
#
# Youngs Moduli (GPa) = 62.39800 11.69026 55.69575
#
# Poissons Ratio (x) = 0.21674 0.09818
# Poissons Ratio (y) = 1.15690 0.70654
# Poissons Ratio (z) = 0.11000 0.14830
#
# Static dielectric constant tensor:
#      x y z
#    x 1.593590 0.000000 0.015920 
#    y 0.000000 1.585200 0.000000 
#    z 0.015920 0.000000 1.602050 
# 
# From -- ./inp_files/362498.got.cif
#   From: 2010.05.17/outbox.cif.g08.bks.cpg/sg12_182_cif.got.tgz:362498.got - 2010.06.03 13:09:07.
