data_PCOD9181828
_publ_section_title
;
Structure prediction by ZEFSAII (Michael W. Deem and Ramdas Pophale) SiO2 
 PCOD9181828
Probable space group: C 2/M
;
_chemical_formula_sum "Si O2"
_cell_formula_units_Z 56
_cell_length_a 12.277475
_cell_length_b 13.894725
_cell_length_c 15.948413
_cell_angle_alpha 90.000000
_cell_angle_beta 112.324354
_cell_angle_gamma 90.000000
_cell_volume 2516.754872
_symmetry_space_group_name_H-M "C 2/M"
_symmetry_group_IT_number 12
_symmetry_cell_setting 'monoclinic'
loop_
_space_group_symop_operation_xyz
x,y,z
-x,y,-z
-x,-y,-z
x,-y,z
1/2+x,1/2+y,z
1/2-x,1/2+y,-z
1/2-x,1/2-y,-z
1/2+x,1/2-y,z
loop_
_atom_site_type_symbol
_atom_site_label
_atom_site_fract_x
_atom_site_fract_y
_atom_site_fract_z
Si Si1 0.351925 0.884867 0.191386
Si Si2 0.391910 0.611079 0.796249
Si Si3 0.878090 0.617032 0.004103
Si Si4 0.638136 0.108734 0.559465
Si Si5 0.578805 0.259318 0.666118
Si Si6 0.353814 0.383593 0.163638
Si Si7 0.622427 0.607276 0.411908
O O1 0.223109 0.852499 0.188748
O O2 0.365362 0.860963 0.098251
O O3 0.446165 0.827020 0.274909
O O4 0.363589 0.000000 0.204922
O O5 0.397372 0.500000 0.824772
O O6 0.524688 0.649088 0.846515
O O7 0.375966 0.612049 0.690338
O O8 0.880208 0.500000 0.999345
O O9 0.762594 0.647135 0.919132
O O10 0.000000 0.652961 0.000000
O O11 0.500000 0.108509 0.500000
O O12 0.653664 0.203144 0.619978
O O13 0.741547 0.116052 0.521233
O O14 0.658563 0.000000 0.602854
O O15 0.640379 0.340003 0.741265
O O16 0.466300 0.308872 0.591154
O O17 0.356832 0.500000 0.169362
O O18 0.579964 0.500000 0.422304
#
# Coordination Sequence:
#
# PCOD9181828 Si02
#       7
#     8   8   8   8   8   8   8
#     4  10  19  32  54  81 109 144 190 246 287 328
#     4   8  14  29  52  77 103 133 181 238 283 324
#     4   9  19  35  50  70 110 155 189 231 293 346
#     4  10  21  38  60  86 117 149 182 227 283 342
#     4  11  20  32  59  85 110 143 189 233 279 339
#     4   9  19  35  55  78 106 147 193 235 286 343
#     4   9  18  35  57  82 113 147 184 231 284 337
#
# _framework density 22.250875000000001
#
# number of rings (size 3 to 8) (size 9 to 14) (size 15 to 20)
#    0.000    2.571    1.429    1.714    0.000    2.857 
#    0.000    2.857    0.000    4.286    0.000    0.000 
#    0.000    0.000    0.000    0.000    0.000    0.000 
#
# Total GULP energy -156023.281598 kJ/mol
# GULP energy per Si atom -5572.260057 kJ/mol
# Density = 2.220023 g / cm^3
# Si number density = 22.250875 Si / 1000 Ang^3
#
#
#
# Elastic Constant Matrix: (Units=GPa)
#
#
# Indices 1 2 3 4 5 6 
#
# 1 108.6885 43.7358 25.6512 0.0000 20.8783 0.0000
# 2 43.7358 111.3610 10.4305 0.0000 6.5860 0.0000
# 3 25.6512 10.4305 38.7014 0.0000 9.5865 0.0000
# 4 0.0000 0.0000 0.0000 20.3130 0.0000 2.5454
# 5 20.8783 6.5860 9.5865 0.0000 37.1164 0.0000
# 6 0.0000 0.0000 0.0000 2.5454 0.0000 29.2833
#
#
#
# Elastic Compliance Matrix: (Units=1/GPa)
#
#
# Indices 1 2 3 4 5 6 
#
# 1 0.013480 -0.004384 -0.006482 0.000000 -0.005131 0.000000
# 2 -0.004384 0.010677 -0.000122 0.000000 0.000603 0.000000
# 3 -0.006482 -0.000122 0.031259 0.000000 -0.004406 0.000000
# 4 0.000000 0.000000 0.000000 0.049772 0.000000 -0.004326
# 5 -0.005131 0.000603 -0.004406 0.000000 0.030859 0.000000
# 6 0.000000 0.000000 0.000000 -0.004326 0.000000 0.034525
#
#
# Mechanical properties :
#
#
# Convention : Reuss Voigt Hill
#
# Bulk Modulus (GPa) = 29.90255 46.48731 38.19493
# Shear Modulus (GPa) = 24.54662 29.27144 26.90903
#
# Velocity S-wave (km/s) = 3.32501 3.63094 3.48134
# Velocity P-wave (km/s) = 5.31121 6.20613 5.77603
#
# Compressibility (1/GPa) = 0.03344196
#
# Stress axis : x y z
#
# Youngs Moduli (GPa) = 74.18464 93.65819 31.99047
#
# Poissons Ratio (x) = 0.41055 0.20737
# Poissons Ratio (y) = 0.32519 0.00389
# Poissons Ratio (z) = 0.48088 0.01138
#
# Static dielectric constant tensor:
#      x y z
#    x 1.857540 0.000000 0.046940 
#    y 0.000000 1.832520 0.000000 
#    z 0.046940 0.000000 1.887530 
# 
# From -- ./inp_files/262971.got.cif
#   From: 2010.05.17/outbox.cif.g08.bks.cpg/sg12_132_cif.got.tgz:262971.got - 2010.06.03 13:09:07.
