data_PCOD9181199
_publ_section_title
;
Structure prediction by ZEFSAII (Michael W. Deem and Ramdas Pophale) SiO2 
 PCOD9181199
Probable space group: C 2/M
;
_chemical_formula_sum "Si O2"
_cell_formula_units_Z 48
_cell_length_a 25.425573
_cell_length_b 11.534517
_cell_length_c 9.329781
_cell_angle_alpha 90.000000
_cell_angle_beta 58.010042
_cell_angle_gamma 90.000000
_cell_volume 2320.650024
_symmetry_space_group_name_H-M "C 2/M"
_symmetry_group_IT_number 12
_symmetry_cell_setting 'monoclinic'
loop_
_space_group_symop_operation_xyz
x,y,z
-x,y,-z
-x,-y,-z
x,-y,z
1/2+x,1/2+y,z
1/2-x,1/2+y,-z
1/2-x,1/2-y,-z
1/2+x,1/2-y,z
loop_
_atom_site_type_symbol
_atom_site_label
_atom_site_fract_x
_atom_site_fract_y
_atom_site_fract_z
Si Si1 0.411306 0.500000 0.002392
Si Si2 0.101207 0.760443 0.119470
Si Si3 0.588039 0.869666 0.844858
Si Si4 0.144211 0.633997 0.318707
Si Si5 0.959004 0.244011 0.350648
Si Si6 0.781176 0.368682 0.508588
Si Si7 0.059212 0.000000 0.714634
O O1 0.384338 0.384994 0.969535
O O2 0.485428 0.500000 0.859857
O O3 0.406420 0.500000 0.181729
O O4 0.146180 0.715451 0.177740
O O5 0.031116 0.764171 0.284877
O O6 0.097276 0.673432 0.991805
O O7 0.546058 0.786691 0.807162
O O8 0.654529 0.870689 0.671513
O O9 0.564368 0.000000 0.873325
O O10 0.139225 0.500000 0.282118
O O11 0.082146 0.670015 0.496153
O O12 0.199909 0.644782 0.351883
O O13 0.929251 0.116086 0.391497
O O14 0.752984 0.500000 0.530978
O O15 0.750000 0.250000 0.500000
#
# Coordination Sequence:
#
# PCOD9181199 Si02
#       7
#     4   8   8   8   8   8   4
#     4   9  18  31  47  71 115 149 187 233 255 295
#     4  11  20  33  52  80 118 153 181 218 269 322
#     4  10  20  33  54  82 110 144 185 227 267 319
#     4  10  22  37  54  81 116 145 178 228 277 324
#     4  10  19  32  52  77 114 157 190 217 256 318
#     4   9  20  43  63  81 107 136 182 238 288 337
#     4   9  16  31  49  69 105 159 193 225 259 291
#
# _framework density 20.683858000000001
#
# number of rings (size 3 to 8) (size 9 to 14) (size 15 to 20)
#    0.000    2.167    1.667    3.000    0.000    4.667 
#    9.000    3.333    0.000    0.000    0.000    0.000 
#    0.000    0.000    0.000    0.000    0.000    0.000 
#
# Total GULP energy -133969.166596 kJ/mol
# GULP energy per Si atom -5582.048608 kJ/mol
# Density = 2.063678 g / cm^3
# Si number density = 20.683858 Si / 1000 Ang^3
#
#
#
# Elastic Constant Matrix: (Units=GPa)
#
#
# Indices 1 2 3 4 5 6 
#
# 1 55.2134 55.6397 20.1135 0.0000 19.2689 0.0000
# 2 55.6397 153.2641 5.2325 0.0000 14.8889 0.0000
# 3 20.1135 5.2325 33.3219 0.0000 18.2021 0.0000
# 4 0.0000 0.0000 0.0000 27.8513 0.0000 16.6877
# 5 19.2689 14.8889 18.2021 0.0000 24.3672 0.0000
# 6 0.0000 0.0000 0.0000 16.6877 0.0000 29.5168
#
#
#
# Elastic Compliance Matrix: (Units=1/GPa)
#
#
# Indices 1 2 3 4 5 6 
#
# 1 0.042136 -0.013484 -0.016244 0.000000 -0.012946 0.000000
# 2 -0.013484 0.011337 0.007295 0.000000 -0.001714 0.000000
# 3 -0.016244 0.007295 0.057585 0.000000 -0.034628 0.000000
# 4 0.000000 0.000000 0.000000 0.054298 0.000000 -0.030698
# 5 -0.012946 -0.001714 -0.034628 0.000000 0.078190 0.000000
# 6 0.000000 0.000000 0.000000 -0.030698 0.000000 0.051235
#
#
# Mechanical properties :
#
#
# Convention : Reuss Voigt Hill
#
# Bulk Modulus (GPa) = 15.10777 44.86344 29.98560
# Shear Modulus (GPa) = 13.82314 27.06798 20.44556
#
# Velocity S-wave (km/s) = 2.58797 3.62145 3.14742
# Velocity P-wave (km/s) = 4.03114 6.26289 5.26658
#
# Compressibility (1/GPa) = 0.06619111
#
# Stress axis : x y z
#
# Youngs Moduli (GPa) = 23.73287 88.20415 17.36552
#
# Poissons Ratio (x) = 1.18937 0.28209
# Poissons Ratio (y) = 0.32002 -0.12668
# Poissons Ratio (z) = 0.38553 -0.64346
#
# Static dielectric constant tensor:
#      x y z
#    x 1.755950 0.000000 -0.001760 
#    y 0.000000 1.761870 0.000000 
#    z -0.001760 0.000000 1.740440 
# 
# From -- ./inp_files/94950.got.cif
#   From: 2010.05.17/outbox.cif.g08.bks.cpg/sg12_48_cif.got.tgz:94950.got - 2010.06.03 13:09:07.
