data_PCOD9181349
_publ_section_title
;
Structure prediction by ZEFSAII (Michael W. Deem and Ramdas Pophale) SiO2 
 PCOD9181349
Probable space group: C 2/M
;
_chemical_formula_sum "Si O2"
_cell_formula_units_Z 56
_cell_length_a 24.789409
_cell_length_b 7.600280
_cell_length_c 15.842790
_cell_angle_alpha 90.000000
_cell_angle_beta 52.292905
_cell_angle_gamma 90.000000
_cell_volume 2361.484264
_symmetry_space_group_name_H-M "C 2/M"
_symmetry_group_IT_number 12
_symmetry_cell_setting 'monoclinic'
loop_
_space_group_symop_operation_xyz
x,y,z
-x,y,-z
-x,-y,-z
x,-y,z
1/2+x,1/2+y,z
1/2-x,1/2+y,-z
1/2-x,1/2-y,-z
1/2+x,1/2-y,z
loop_
_atom_site_type_symbol
_atom_site_label
_atom_site_fract_x
_atom_site_fract_y
_atom_site_fract_z
Si Si1 0.763304 0.793669 0.228307
Si Si2 0.343995 0.699311 0.988862
Si Si3 0.989066 0.295727 0.911078
Si Si4 0.579001 0.283789 0.240732
Si Si5 0.110999 0.799140 0.395146
Si Si6 0.134079 0.293059 0.721846
Si Si7 0.075383 0.787610 0.613015
O O1 0.692589 0.700974 0.315011
O O2 0.811829 0.779335 0.263867
O O3 0.749734 0.000000 0.228305
O O4 0.798253 0.723248 0.108196
O O5 0.319449 0.500000 0.998271
O O6 0.420363 0.696927 0.954041
O O7 0.361216 0.778363 0.880155
O O8 0.980768 0.500000 0.891642
O O9 0.059400 0.214998 0.811338
O O10 0.000000 0.299155 0.000000
O O11 0.582159 0.500000 0.236445
O O12 0.588552 0.221421 0.327230
O O13 0.501992 0.234125 0.287803
O O14 0.087468 0.720884 0.506342
O O15 0.084955 0.000000 0.419562
O O16 0.131188 0.500000 0.743439
O O17 0.135243 0.270690 0.619713
O O18 0.077348 0.000000 0.609615
#
# Coordination Sequence:
#
# PCOD9181349 Si02
#       7
#     8   8   8   8   8   8   8
#     4  11  24  39  56  83 119 157 193 230 279 340
#     4  10  20  34  57  86 115 148 187 230 281 337
#     4  10  19  32  52  82 117 148 182 229 286 341
#     4   9  18  36  62  89 114 143 188 240 285 336
#     4  10  22  40  61  83 112 154 197 235 280 335
#     4  11  22  36  58  87 118 151 187 231 288 346
#     4  10  20  37  63  90 113 144 190 241 288 334
#
# _framework density 23.713899000000001
#
# number of rings (size 3 to 8) (size 9 to 14) (size 15 to 20)
#    0.000    1.857    2.857    1.286    0.000    4.857 
#    0.000    1.429    0.000    1.714    0.000    0.000 
#    0.000    0.000    0.000    0.000    0.000    0.000 
#
# Total GULP energy -156287.895836 kJ/mol
# GULP energy per Si atom -5581.710566 kJ/mol
# Density = 2.365993 g / cm^3
# Si number density = 23.713899 Si / 1000 Ang^3
#
#
#
# Elastic Constant Matrix: (Units=GPa)
#
#
# Indices 1 2 3 4 5 6 
#
# 1 72.3050 -10.6538 39.3612 0.0000 9.6734 0.0001
# 2 -10.6538 66.4264 5.6839 0.0001 0.4942 0.0004
# 3 39.3612 5.6839 132.7626 -0.0001 21.5979 0.0000
# 4 0.0000 0.0001 -0.0001 3.3989 0.0001 -3.7881
# 5 9.6734 0.4942 21.5979 0.0001 42.9285 0.0000
# 6 0.0001 0.0004 0.0000 -3.7881 0.0000 -4.3796
#
#
#
# Elastic Compliance Matrix: (Units=1/GPa)
#
#
# Indices 1 2 3 4 5 6 
#
# 1 0.017219 0.003201 -0.005015 0.000000 -0.001394 0.000001
# 2 0.003201 0.015706 -0.001606 0.000000 -0.000094 0.000001
# 3 -0.005015 -0.001606 0.009695 0.000000 -0.003729 0.000000
# 4 0.000000 0.000000 0.000000 0.149804 0.000000 -0.129571
# 5 -0.001394 -0.000094 -0.003729 0.000000 0.025486 0.000000
# 6 0.000001 0.000001 0.000000 -0.129571 0.000000 -0.116258
#
#
# Mechanical properties :
#
#
# Convention : Reuss Voigt Hill
#
# Bulk Modulus (GPa) = 27.94993 37.80853 32.87923
# Shear Modulus (GPa) = 41.52224 24.19641 32.85933
#
# Velocity S-wave (km/s) = 4.18899 3.19775 3.72648
# Velocity P-wave (km/s) = 5.93370 5.44173 5.69303
#
# Compressibility (1/GPa) = 0.03577826
#
# Stress axis : x y z
#
# Youngs Moduli (GPa) = 58.07672 63.67078 103.15098
#
# Poissons Ratio (x) = -0.20382 0.51733
# Poissons Ratio (y) = -0.18591 0.16568
# Poissons Ratio (z) = 0.29127 0.10227
#
# Static dielectric constant tensor:
#      x y z
#    x 1.889380 0.000000 0.062500 
#    y 0.000000 1.896620 0.000000 
#    z 0.062500 0.000000 1.993610 
# 
# From -- ./inp_files/238368.got.cif
#   From: 2010.05.17/outbox.cif.g08.bks.cpg/sg12_120_cif.got.tgz:238368.got - 2010.06.03 13:09:07.
