data_PCOD9181829
_publ_section_title
;
Structure prediction by ZEFSAII (Michael W. Deem and Ramdas Pophale) SiO2 
 PCOD9181829
Probable space group: C 2/M
;
_chemical_formula_sum "Si O2"
_cell_formula_units_Z 56
_cell_length_a 23.055914
_cell_length_b 8.615981
_cell_length_c 16.200954
_cell_angle_alpha 90.000000
_cell_angle_beta 62.207665
_cell_angle_gamma 90.000000
_cell_volume 2847.055198
_symmetry_space_group_name_H-M "C 2/M"
_symmetry_group_IT_number 12
_symmetry_cell_setting 'monoclinic'
loop_
_space_group_symop_operation_xyz
x,y,z
-x,y,-z
-x,-y,-z
x,-y,z
1/2+x,1/2+y,z
1/2-x,1/2+y,-z
1/2-x,1/2-y,-z
1/2+x,1/2-y,z
loop_
_atom_site_type_symbol
_atom_site_label
_atom_site_fract_x
_atom_site_fract_y
_atom_site_fract_z
Si Si1 0.578001 0.811717 0.094249
Si Si2 0.169164 0.687950 0.886404
Si Si3 0.429569 0.187377 0.193887
Si Si4 0.572686 0.187398 0.287641
Si Si5 0.431025 0.314526 0.377027
Si Si6 0.704975 0.314182 0.456984
Si Si7 0.292994 0.185619 0.722201
O O1 0.503717 0.768674 0.118406
O O2 0.586370 0.763257 0.183645
O O3 0.580259 0.000000 0.091566
O O4 0.632585 0.758211 0.993727
O O5 0.172767 0.500000 0.884867
O O6 0.123141 0.733680 0.839412
O O7 0.240649 0.755913 0.823596
O O8 0.418208 0.255637 0.292216
O O9 0.427869 0.000000 0.201976
O O10 0.501290 0.249958 0.358331
O O11 0.633560 0.237793 0.302898
O O12 0.569552 0.000000 0.290526
O O13 0.433829 0.500000 0.374121
O O14 0.369917 0.265735 0.473876
O O15 0.708658 0.500000 0.454334
O O16 0.750000 0.250000 0.500000
O O17 0.725851 0.251365 0.354433
O O18 0.292094 0.000000 0.720589
#
# Coordination Sequence:
#
# PCOD9181829 Si02
#       7
#     8   8   8   8   8   8   8
#     4   8  15  31  55  80 106 141 187 230 267 320
#     4  10  19  32  54  81 109 147 189 228 274 323
#     4   9  17  31  53  81 112 144 180 221 269 331
#     4   9  20  39  59  79 107 146 188 225 268 326
#     4  10  21  36  57  83 109 138 176 227 278 321
#     4  11  24  41  61  86 114 144 178 219 271 328
#     4  11  24  39  55  79 112 147 185 229 272 321
#
# _framework density 19.669447000000002
#
# number of rings (size 3 to 8) (size 9 to 14) (size 15 to 20)
#    0.000    2.286    0.000    3.429    0.000    9.143 
#    0.000    5.714    0.000    4.286    0.000    0.000 
#    0.000    0.000    0.000    0.000    0.000    0.000 
#
# Total GULP energy -156359.165856 kJ/mol
# GULP energy per Si atom -5584.255923 kJ/mol
# Density = 1.962468 g / cm^3
# Si number density = 19.669447 Si / 1000 Ang^3
#
#
#
# Elastic Constant Matrix: (Units=GPa)
#
#
# Indices 1 2 3 4 5 6 
#
# 1 82.3766 17.6530 15.6473 0.0000 -4.7669 0.0000
# 2 17.6530 18.2123 10.5472 -0.0001 -5.0354 0.0000
# 3 15.6473 10.5472 62.2512 0.0000 -27.1853 0.0000
# 4 0.0000 -0.0001 0.0000 19.9769 0.0000 -5.3543
# 5 -4.7669 -5.0354 -27.1853 0.0000 29.1821 0.0000
# 6 0.0000 0.0000 0.0000 -5.3543 0.0000 24.1672
#
#
#
# Elastic Compliance Matrix: (Units=1/GPa)
#
#
# Indices 1 2 3 4 5 6 
#
# 1 0.015530 -0.014242 -0.002454 0.000000 -0.002207 0.000000
# 2 -0.014242 0.073981 -0.007411 0.000000 0.003535 0.000000
# 3 -0.002454 -0.007411 0.029001 0.000000 0.025337 0.000000
# 4 0.000000 0.000000 0.000000 0.053218 0.000000 0.011790
# 5 -0.002207 0.003535 0.025337 0.000000 0.058121 0.000000
# 6 0.000000 0.000000 0.000000 0.011790 0.000000 0.043991
#
#
# Mechanical properties :
#
#
# Convention : Reuss Voigt Hill
#
# Bulk Modulus (GPa) = 14.22508 27.83722 21.03115
# Shear Modulus (GPa) = 14.47224 22.59806 18.53515
#
# Velocity S-wave (km/s) = 2.71546 3.39321 3.07307
# Velocity P-wave (km/s) = 4.13272 5.43462 4.82775
#
# Compressibility (1/GPa) = 0.07029836
#
# Stress axis : x y z
#
# Youngs Moduli (GPa) = 64.39234 13.51690 34.48106
#
# Poissons Ratio (x) = 0.19250 0.08463
# Poissons Ratio (y) = 0.91705 0.25554
# Poissons Ratio (z) = 0.15804 0.10018
#
# Static dielectric constant tensor:
#      x y z
#    x 1.690800 0.000000 -0.010130 
#    y 0.000000 1.667910 0.000000 
#    z -0.010130 0.000000 1.675440 
# 
# From -- ./inp_files/237484.got.cif
#   From: 2010.05.17/outbox.cif.g08.bks.cpg/sg12_119_cif.got.tgz:237484.got - 2010.06.03 13:09:07.
