data_PCOD9181187
_publ_section_title
;
Structure prediction by ZEFSAII (Michael W. Deem and Ramdas Pophale) SiO2 
 PCOD9181187
Probable space group: C 2/M
;
_chemical_formula_sum "Si O2"
_cell_formula_units_Z 58
_cell_length_a 22.188872
_cell_length_b 7.474126
_cell_length_c 30.924156
_cell_angle_alpha 90.000000
_cell_angle_beta 147.561263
_cell_angle_gamma 90.000000
_cell_volume 2750.934504
_symmetry_space_group_name_H-M "C 2/M"
_symmetry_group_IT_number 12
_symmetry_cell_setting 'monoclinic'
loop_
_space_group_symop_operation_xyz
x,y,z
-x,y,-z
-x,-y,-z
x,-y,z
1/2+x,1/2+y,z
1/2-x,1/2+y,-z
1/2-x,1/2-y,-z
1/2+x,1/2-y,z
loop_
_atom_site_type_symbol
_atom_site_label
_atom_site_fract_x
_atom_site_fract_y
_atom_site_fract_z
Si Si1 0.264556 0.786738 0.958235
Si Si2 0.515176 0.781584 0.082803
Si Si3 0.500000 0.500000 0.000000
Si Si4 0.466112 0.714173 0.219944
Si Si5 0.122131 0.201141 0.578231
Si Si6 0.858083 0.714389 0.751198
Si Si7 0.915041 0.784108 0.623605
Si Si8 0.677236 0.207875 0.518073
O O1 0.153934 0.713300 0.867915
O O2 0.264903 0.000000 0.953101
O O3 0.250000 0.750000 0.000000
O O4 0.385017 0.727571 0.013632
O O5 0.584053 0.737160 0.168360
O O6 0.522112 0.000000 0.080318
O O7 0.547799 0.659578 0.062105
O O8 0.456519 0.500000 0.217655
O O9 0.560875 0.742955 0.240471
O O10 0.500729 0.779834 0.288403
O O11 0.230667 0.283499 0.667616
O O12 0.157871 0.190283 0.550103
O O13 0.000000 0.291090 0.500000
O O14 0.104037 0.000000 0.585499
O O15 0.848812 0.500000 0.745385
O O16 0.792967 0.725955 0.567176
O O17 0.919103 0.723746 0.576531
O O18 0.917438 0.000000 0.624037
O O19 0.692276 0.000000 0.538266
#
# Coordination Sequence:
#
# PCOD9181187 Si02
#       8
#     8   8   2   8   8   8   8   8
#     4  10  20  33  57  91 128 154 189 257 319 373
#     4  10  23  43  65  97 127 164 219 264 309 382
#     4  12  26  44  72  90 122 188 218 254 318 382
#     4  10  19  32  55  87 119 154 190 237 305 374
#     4  10  21  37  57  81 110 152 200 248 304 361
#     4  10  20  35  58  88 118 149 196 256 310 363
#     4   9  18  32  50  77 109 147 185 224 280 359
#     4  10  19  32  52  77 107 143 184 234 285 341
#
# _framework density 21.083746000000001
#
# number of rings (size 3 to 8) (size 9 to 14) (size 15 to 20)
#    0.000    2.069    2.759    0.621    1.931    1.379 
#    0.000    1.379    3.034    6.621    0.000    0.000 
#    0.000    0.000    0.000    0.000    0.000    0.000 
#
# Total GULP energy -161445.232771 kJ/mol
# GULP energy per Si atom -5567.076992 kJ/mol
# Density = 2.103576 g / cm^3
# Si number density = 21.083746 Si / 1000 Ang^3
#
#
#
# Elastic Constant Matrix: (Units=GPa)
#
#
# Indices 1 2 3 4 5 6 
#
# 1 8.6286 4.7259 24.6959 0.0000 0.1937 0.0000
# 2 4.7259 79.8649 18.2809 0.0002 -2.9812 -0.0017
# 3 24.6959 18.2809 193.5514 -0.0002 0.0880 0.0001
# 4 0.0000 0.0002 -0.0002 11.3227 0.0000 -10.4571
# 5 0.1937 -2.9812 0.0880 0.0000 38.0606 0.0001
# 6 0.0000 -0.0017 0.0001 -10.4571 0.0001 20.2151
#
#
#
# Elastic Compliance Matrix: (Units=1/GPa)
#
#
# Indices 1 2 3 4 5 6 
#
# 1 0.185106 -0.005721 -0.023077 0.000000 -0.001337 0.000000
# 2 -0.005721 0.013013 -0.000500 0.000001 0.001050 0.000002
# 3 -0.023077 -0.000500 0.008158 0.000000 0.000059 0.000000
# 4 0.000000 0.000001 0.000000 0.169110 0.000000 0.087479
# 5 -0.001337 0.001050 0.000059 0.000000 0.026363 0.000000
# 6 0.000000 0.000002 0.000000 0.087479 0.000000 0.094720
#
#
# Mechanical properties :
#
#
# Convention : Reuss Voigt Hill
#
# Bulk Modulus (GPa) = 6.77131 41.93892 24.35512
# Shear Modulus (GPa) = 8.27411 29.54250 18.90831
#
# Velocity S-wave (km/s) = 1.98316 3.74732 2.99794
# Velocity P-wave (km/s) = 2.90904 6.21755 4.85389
#
# Compressibility (1/GPa) = 0.14768195
#
# Stress axis : x y z
#
# Youngs Moduli (GPa) = 5.40230 76.84497 122.57487
#
# Poissons Ratio (x) = 0.43962 2.82871
# Poissons Ratio (y) = 0.03091 0.06124
# Poissons Ratio (z) = 0.12467 0.03839
#
# Static dielectric constant tensor:
#      x y z
#    x 1.740860 0.000000 0.015630 
#    y 0.000000 1.763390 0.000000 
#    z 0.015630 0.000000 1.820320 
# 
# From -- ./inp_files/237588.got.cif
#   From: 2010.05.17/outbox.cif.g08.bks.cpg/sg12_119_cif.got.tgz:237588.got - 2010.06.03 13:09:07.
