data_PCOD9181715
_publ_section_title
;
Structure prediction by ZEFSAII (Michael W. Deem and Ramdas Pophale) SiO2 
 PCOD9181715
Probable space group: C 2/M
;
_chemical_formula_sum "Si O2"
_cell_formula_units_Z 40
_cell_length_a 14.224864
_cell_length_b 18.850453
_cell_length_c 12.022954
_cell_angle_alpha 90.000000
_cell_angle_beta 32.714515
_cell_angle_gamma 90.000000
_cell_volume 1742.366141
_symmetry_space_group_name_H-M "C 2/M"
_symmetry_group_IT_number 12
_symmetry_cell_setting 'monoclinic'
loop_
_space_group_symop_operation_xyz
x,y,z
-x,y,-z
-x,-y,-z
x,-y,z
1/2+x,1/2+y,z
1/2-x,1/2+y,-z
1/2-x,1/2-y,-z
1/2+x,1/2-y,z
loop_
_atom_site_type_symbol
_atom_site_label
_atom_site_fract_x
_atom_site_fract_y
_atom_site_fract_z
Si Si1 0.486173 0.418156 0.346593
Si Si2 0.645624 0.421753 0.771743
Si Si3 0.186503 0.694400 0.302566
Si Si4 0.190595 0.303287 0.661284
Si Si5 0.189074 0.668310 0.049787
O O1 0.490704 0.500000 0.384387
O O2 0.435390 0.424375 0.267717
O O3 0.333165 0.365400 0.540601
O O4 0.672390 0.378266 0.157120
O O5 0.692298 0.500000 0.763961
O O6 0.804028 0.368930 0.617893
O O7 0.500000 0.392052 0.000000
O O8 0.314496 0.754014 0.223264
O O9 0.197697 0.654169 0.173798
O O10 0.000000 0.730072 0.500000
O O11 0.250000 0.250000 0.500000
O O12 0.002504 0.333041 0.812536
O O13 0.250000 0.750000 0.000000
#
# Coordination Sequence:
#
# PCOD9181715 Si02
#       5
#     8   8   8   8   8
#     4  11  23  41  63  91 132 172 207 260 320 377
#     4  10  19  32  53  86 127 161 194 242 309 385
#     4  12  22  37  61  89 128 166 204 255 317 373
#     4  12  23  41  61  97 131 164 212 258 314 379
#     4  12  23  39  66  95 126 164 218 264 315 376
#
# _framework density 22.957287999999998
#
# number of rings (size 3 to 8) (size 9 to 14) (size 15 to 20)
#    0.000    0.600    8.000    0.000    0.000    1.200 
#    0.000    0.000    0.000    5.400    0.000    7.000 
#    0.000    0.000    0.000    0.000    0.000    0.000 
#
# Total GULP energy -111554.413440 kJ/mol
# GULP energy per Si atom -5577.720672 kJ/mol
# Density = 2.290504 g / cm^3
# Si number density = 22.957288 Si / 1000 Ang^3
#
#
#
# Elastic Constant Matrix: (Units=GPa)
#
#
# Indices 1 2 3 4 5 6 
#
# 1 94.1680 26.8884 54.3470 -0.0057 -23.0700 0.0029
# 2 26.8884 152.9125 75.5496 -0.0122 -28.7187 0.0067
# 3 54.3470 75.5496 125.8407 -0.0079 -39.2205 0.0063
# 4 -0.0057 -0.0122 -0.0079 33.6510 0.0037 -1.6548
# 5 -23.0700 -28.7187 -39.2205 0.0037 39.5993 -0.0031
# 6 0.0029 0.0067 0.0063 -1.6548 -0.0031 17.3922
#
#
#
# Elastic Compliance Matrix: (Units=1/GPa)
#
#
# Indices 1 2 3 4 5 6 
#
# 1 0.014519 0.000940 -0.005765 0.000001 0.003430 0.000000
# 2 0.000940 0.009444 -0.005454 0.000002 0.001995 -0.000001
# 3 -0.005765 -0.005454 0.016535 0.000000 0.009063 -0.000001
# 4 0.000001 0.000002 0.000000 0.029856 -0.000001 0.002841
# 5 0.003430 0.001995 0.009063 -0.000001 0.037674 0.000002
# 6 0.000000 -0.000001 -0.000001 0.002841 0.000002 0.057767
#
#
# Mechanical properties :
#
#
# Convention : Reuss Voigt Hill
#
# Bulk Modulus (GPa) = 50.15391 76.27677 63.21534
# Shear Modulus (GPa) = 25.90671 32.53760 29.22215
#
# Velocity S-wave (km/s) = 3.36292 3.76880 3.57163
# Velocity P-wave (km/s) = 6.08055 7.22746 6.67867
#
# Compressibility (1/GPa) = 0.01993862
#
# Stress axis : x y z
#
# Youngs Moduli (GPa) = 68.87722 105.89204 60.47670
#
# Poissons Ratio (x) = -0.09950 0.34867
# Poissons Ratio (y) = -0.06472 0.32982
# Poissons Ratio (z) = 0.39711 0.57750
#
# Static dielectric constant tensor:
#      x y z
#    x 2.240430 0.000000 0.289980 
#    y 0.000000 1.916540 0.000000 
#    z 0.289980 0.000000 2.269790 
# 
# From -- ./inp_files/216612.got.cif
#   From: 2010.05.17/outbox.cif.g08.bks.cpg/sg12_109_cif.got.tgz:216612.got - 2010.06.03 13:09:07.
