data_PCOD9181637
_publ_section_title
;
Structure prediction by ZEFSAII (Michael W. Deem and Ramdas Pophale) SiO2 
 PCOD9181637
Probable space group: C 2/M
;
_chemical_formula_sum "Si O2"
_cell_formula_units_Z 56
_cell_length_a 23.797152
_cell_length_b 16.156990
_cell_length_c 9.536991
_cell_angle_alpha 90.000000
_cell_angle_beta 116.862969
_cell_angle_gamma 90.000000
_cell_volume 3271.186963
_symmetry_space_group_name_H-M "C 2/M"
_symmetry_group_IT_number 12
_symmetry_cell_setting 'monoclinic'
loop_
_space_group_symop_operation_xyz
x,y,z
-x,y,-z
-x,-y,-z
x,-y,z
1/2+x,1/2+y,z
1/2-x,1/2+y,-z
1/2-x,1/2-y,-z
1/2+x,1/2-y,z
loop_
_atom_site_type_symbol
_atom_site_label
_atom_site_fract_x
_atom_site_fract_y
_atom_site_fract_z
Si Si1 0.327538 0.303670 0.837818
Si Si2 0.302507 0.100979 0.297812
Si Si3 0.375148 0.831988 0.108149
Si Si4 0.502797 0.276720 0.668552
Si Si5 0.131540 0.294826 0.378597
Si Si6 0.948426 0.907068 0.063323
Si Si7 0.568086 0.907301 0.084905
O O1 0.268338 0.363557 0.791857
O O2 0.330147 0.267919 0.680877
O O3 0.333493 0.230788 0.963321
O O4 0.390483 0.355561 0.936958
O O5 0.338420 0.128532 0.196290
O O6 0.333443 0.156320 0.457669
O O7 0.305243 0.000000 0.320313
O O8 0.438920 0.785435 0.231489
O O9 0.399687 0.901178 0.028646
O O10 0.500000 0.288987 0.500000
O O11 0.433922 0.245487 0.640632
O O12 0.521408 0.359239 0.772412
O O13 0.110597 0.363246 0.244273
O O14 0.929100 0.000000 0.078904
O O15 0.000000 0.909839 0.000000
O O16 0.557802 0.000000 0.121345
O O17 0.500000 0.863672 0.000000
#
# Coordination Sequence:
#
# PCOD9181637 Si02
#       7
#     8   8   8   8   8   8   8
#     4  10  22  39  63  81 114 151 201 230 284 341
#     4  12  24  39  56  84 121 155 190 238 284 334
#     4  10  21  36  59  84 112 151 197 232 282 345
#     4  11  20  36  57  85 120 148 187 234 291 343
#     4  11  21  37  57  85 112 153 196 232 282 346
#     4  10  20  36  62  90 109 140 191 247 291 331
#     4  10  19  32  53  81 114 148 189 239 282 324
#
# _framework density 17.119167999999998
#
# number of rings (size 3 to 8) (size 9 to 14) (size 15 to 20)
#    0.000    1.429    4.286    2.143    0.000    0.286 
#    0.000    0.714    0.000    0.000    0.000    0.000 
#    0.000    0.000    0.000    0.000    0.000    0.000 
#
# Total GULP energy -156007.552757 kJ/mol
# GULP energy per Si atom -5571.698313 kJ/mol
# Density = 1.708020 g / cm^3
# Si number density = 17.119168 Si / 1000 Ang^3
#
#
#
# Elastic Constant Matrix: (Units=GPa)
#
#
# Indices 1 2 3 4 5 6 
#
# 1 91.8633 29.3712 42.4424 0.0000 -9.5262 0.0000
# 2 29.3712 88.4372 32.5897 0.0000 -3.1313 0.0000
# 3 42.4424 32.5897 105.1102 0.0000 -15.3882 0.0000
# 4 0.0000 0.0000 0.0000 13.0985 0.0000 -1.3275
# 5 -9.5262 -3.1313 -15.3882 0.0000 29.6503 0.0000
# 6 0.0000 0.0000 0.0000 -1.3275 0.0000 25.5709
#
#
#
# Elastic Compliance Matrix: (Units=1/GPa)
#
#
# Indices 1 2 3 4 5 6 
#
# 1 0.014108 -0.002959 -0.004503 0.000000 0.001883 0.000000
# 2 -0.002959 0.013403 -0.003131 0.000000 -0.001160 0.000000
# 3 -0.004503 -0.003131 0.013033 0.000000 0.004986 0.000000
# 4 0.000000 0.000000 0.000000 0.076748 0.000000 0.003984
# 5 0.001883 -0.001160 0.004986 0.000000 0.036797 0.000000
# 6 0.000000 0.000000 0.000000 0.003984 0.000000 0.039314
#
#
# Mechanical properties :
#
#
# Convention : Reuss Voigt Hill
#
# Bulk Modulus (GPa) = 51.66023 54.91304 53.28663
# Shear Modulus (GPa) = 22.62024 25.73111 24.17567
#
# Velocity S-wave (km/s) = 3.63897 3.88114 3.76200
# Velocity P-wave (km/s) = 6.92087 7.22709 7.07564
#
# Compressibility (1/GPa) = 0.01935725
#
# Stress axis : x y z
#
# Youngs Moduli (GPa) = 70.88285 74.61133 76.72891
#
# Poissons Ratio (x) = 0.22079 0.34554
# Poissons Ratio (y) = 0.20975 0.24020
# Poissons Ratio (z) = 0.31922 0.23357
#
# Static dielectric constant tensor:
#      x y z
#    x 1.597570 0.000000 0.004360 
#    y 0.000000 1.598570 0.000000 
#    z 0.004360 0.000000 1.564160 
# 
# From -- ./inp_files/75987.got.cif
#   From: 2010.05.17/outbox.cif.g08.bks.cpg/sg12_38_cif.got.tgz:75987.got - 2010.06.03 13:09:07.
