data_PCOD9181422
_publ_section_title
;
Structure prediction by ZEFSAII (Michael W. Deem and Ramdas Pophale) SiO2 
 PCOD9181422
Probable space group: C 2/M
;
_chemical_formula_sum "Si O2"
_cell_formula_units_Z 52
_cell_length_a 5.113503
_cell_length_b 14.628339
_cell_length_c 31.651794
_cell_angle_alpha 90.000000
_cell_angle_beta 89.486808
_cell_angle_gamma 90.000000
_cell_volume 2367.524276
_symmetry_space_group_name_H-M "C 2/M"
_symmetry_group_IT_number 12
_symmetry_cell_setting 'monoclinic'
loop_
_space_group_symop_operation_xyz
x,y,z
-x,y,-z
-x,-y,-z
x,-y,z
1/2+x,1/2+y,z
1/2-x,1/2+y,-z
1/2-x,1/2-y,-z
1/2+x,1/2-y,z
loop_
_atom_site_type_symbol
_atom_site_label
_atom_site_fract_x
_atom_site_fract_y
_atom_site_fract_z
Si Si1 0.918157 0.889846 0.227899
Si Si2 0.424463 0.810809 0.910254
Si Si3 0.091362 0.889950 0.595296
Si Si4 0.406644 0.111847 0.454129
Si Si5 0.500000 0.183676 0.000000
Si Si6 0.920962 0.609754 0.179277
Si Si7 0.078074 0.194470 0.316232
O O1 0.634596 0.857460 0.213088
O O2 0.002584 0.858555 0.273916
O O3 0.134555 0.858307 0.193584
O O4 0.914059 0.000000 0.227698
O O5 0.127030 0.774906 0.910455
O O6 0.491353 0.862501 0.867375
O O7 0.483628 0.863777 0.954251
O O8 0.879976 0.860128 0.560487
O O9 0.379025 0.859471 0.580850
O O10 0.000771 0.857108 0.641002
O O11 0.093062 0.000000 0.595511
O O12 0.500000 0.142763 0.500000
O O13 0.405290 0.000000 0.455373
O O14 0.750000 0.250000 0.000000
O O15 0.917432 0.500000 0.181002
O O16 0.884339 0.281980 0.315995
#
# Coordination Sequence:
#
# PCOD9181422 Si02
#       7
#     8   8   8   8   4   8   8
#     4  10  22  40  58  77 106 142 177 215 266 324
#     4  10  19  32  53  77 105 141 180 219 259 312
#     4  10  20  36  58  81 109 144 177 213 264 316
#     4   9  17  31  56  87 110 134 178 226 256 295
#     4   8  16  30  47  72 103 138 178 216 256 304
#     4  10  21  36  55  80 108 136 171 220 272 318
#     4  12  25  39  57  81 110 140 177 224 263 308
#
# _framework density 21.96387
#
# number of rings (size 3 to 8) (size 9 to 14) (size 15 to 20)
#    0.000    2.000    0.000    3.692    0.000    5.538 
#    0.000    6.538    0.000    9.231    0.000    9.692 
#    0.000    0.000    0.000    0.000    0.000    0.000 
#
# Total GULP energy -145320.799694 kJ/mol
# GULP energy per Si atom -5589.261527 kJ/mol
# Density = 2.191388 g / cm^3
# Si number density = 21.963870 Si / 1000 Ang^3
#
#
#
# Elastic Constant Matrix: (Units=GPa)
#
#
# Indices 1 2 3 4 5 6 
#
# 1 75.5635 -7.5360 -11.8631 0.0000 3.1198 0.0000
# 2 -7.5360 35.5776 -2.3418 0.0000 2.6032 0.0000
# 3 -11.8631 -2.3418 103.0982 0.0000 3.1347 0.0000
# 4 0.0000 0.0000 0.0000 32.0464 0.0000 -9.0915
# 5 3.1198 2.6032 3.1347 0.0000 35.2056 0.0000
# 6 0.0000 0.0000 0.0000 -9.0915 0.0000 14.8871
#
#
#
# Elastic Compliance Matrix: (Units=1/GPa)
#
#
# Indices 1 2 3 4 5 6 
#
# 1 0.013887 0.003173 0.001719 0.000000 -0.001618 0.000000
# 2 0.003173 0.029037 0.001101 0.000000 -0.002526 0.000000
# 3 0.001719 0.001101 0.009956 0.000000 -0.001120 0.000000
# 4 0.000000 0.000000 0.000000 0.037744 0.000000 0.023050
# 5 -0.001618 -0.002526 -0.001120 0.000000 0.028835 0.000000
# 6 0.000000 0.000000 0.000000 0.023050 0.000000 0.081249
#
#
# Mechanical properties :
#
#
# Convention : Reuss Voigt Hill
#
# Bulk Modulus (GPa) = 15.41587 18.97305 17.19446
# Shear Modulus (GPa) = 23.77072 32.15985 27.96529
#
# Velocity S-wave (km/s) = 3.29335 3.83066 3.57212
# Velocity P-wave (km/s) = 4.63632 5.31247 4.98587
#
# Compressibility (1/GPa) = 0.06486820
#
# Stress axis : x y z
#
# Youngs Moduli (GPa) = 72.00934 34.43876 100.43796
#
# Poissons Ratio (x) = -0.10928 -0.17267
# Poissons Ratio (y) = -0.22849 -0.11063
# Poissons Ratio (z) = -0.12380 -0.03793
#
# Static dielectric constant tensor:
#      x y z
#    x 1.772130 0.000000 -0.000590 
#    y 0.000000 1.813210 0.000000 
#    z -0.000590 0.000000 1.797770 
# 
# From -- ./inp_files/354894.got.cif
#   From: 2010.05.17/outbox.cif.g08.bks.cpg/sg12_178_cif.got.tgz:354894.got - 2010.06.03 13:09:07.
