data_PCOD9181023
_publ_section_title
;
Structure prediction by ZEFSAII (Michael W. Deem and Ramdas Pophale) SiO2 
 PCOD9181023
Probable space group: C 2/M
;
_chemical_formula_sum "Si O2"
_cell_formula_units_Z 56
_cell_length_a 20.653710
_cell_length_b 7.476792
_cell_length_c 17.329966
_cell_angle_alpha 90.000000
_cell_angle_beta 92.134513
_cell_angle_gamma 90.000000
_cell_volume 2674.297018
_symmetry_space_group_name_H-M "C 2/M"
_symmetry_group_IT_number 12
_symmetry_cell_setting 'monoclinic'
loop_
_space_group_symop_operation_xyz
x,y,z
-x,y,-z
-x,-y,-z
x,-y,z
1/2+x,1/2+y,z
1/2-x,1/2+y,-z
1/2-x,1/2-y,-z
1/2+x,1/2-y,z
loop_
_atom_site_type_symbol
_atom_site_label
_atom_site_fract_x
_atom_site_fract_y
_atom_site_fract_z
Si Si1 0.024244 0.293746 0.420181
Si Si2 0.672583 0.219124 0.158503
Si Si3 0.730588 0.287030 0.586524
Si Si4 0.178868 0.792601 0.822137
Si Si5 0.358735 0.219105 0.677175
Si Si6 0.894692 0.782559 0.331186
Si Si7 0.327061 0.788307 0.008582
O O1 0.041656 0.500000 0.438567
O O2 0.086379 0.216083 0.379189
O O3 0.000000 0.212027 0.500000
O O4 0.964001 0.288323 0.359298
O O5 0.747607 0.280803 0.172058
O O6 0.634118 0.272573 0.233261
O O7 0.673871 0.000000 0.155962
O O8 0.647492 0.278002 0.073249
O O9 0.728530 0.500000 0.596368
O O10 0.750000 0.250000 0.500000
O O11 0.788387 0.222249 0.643946
O O12 0.660125 0.223364 0.609704
O O13 0.132435 0.721690 0.753216
O O14 0.151217 0.783363 0.907608
O O15 0.187939 0.000000 0.801907
O O16 0.360041 0.000000 0.676384
O O17 0.899825 0.000000 0.332360
O O18 0.336715 0.000000 0.012463
O O19 0.250000 0.750000 0.000000
#
# Coordination Sequence:
#
# PCOD9181023 Si02
#       7
#     8   8   8   8   8   8   8
#     4  10  21  35  51  73  99 130 167 209 252 292
#     4   8  13  25  46  70  94 123 162 199 234 286
#     4  10  19  32  52  74  96 125 162 205 252 294
#     4   9  16  29  48  71  98 127 163 201 244 294
#     4   9  16  30  51  70  94 129 166 201 242 293
#     4  10  20  34  53  74  99 133 167 202 249 305
#     4   9  16  25  43  71 101 130 160 198 245 293
#
# _framework density 20.940080999999999
#
# number of rings (size 3 to 8) (size 9 to 14) (size 15 to 20)
#    0.000    2.714    1.429    2.143    0.000    2.571 
#    0.000    0.714    0.000    5.143    0.000    6.000 
#    0.000    0.000    0.000    0.000    0.000    0.000 
#
# Total GULP energy -156130.135022 kJ/mol
# GULP energy per Si atom -5576.076251 kJ/mol
# Density = 2.089242 g / cm^3
# Si number density = 20.940081 Si / 1000 Ang^3
#
#
#
# Elastic Constant Matrix: (Units=GPa)
#
#
# Indices 1 2 3 4 5 6 
#
# 1 37.2209 -3.8803 -16.6918 0.0000 -8.9057 0.0000
# 2 -3.8803 57.0781 -9.6042 0.0000 -2.4135 0.0000
# 3 -16.6918 -9.6042 99.9447 0.0000 -15.1858 0.0000
# 4 0.0000 0.0000 0.0000 18.0625 0.0000 3.5947
# 5 -8.9057 -2.4135 -15.1858 0.0000 30.4214 0.0000
# 6 0.0000 0.0000 0.0000 3.5947 0.0000 8.5378
#
#
#
# Elastic Compliance Matrix: (Units=1/GPa)
#
#
# Indices 1 2 3 4 5 6 
#
# 1 0.034626 0.004395 0.008438 0.000000 0.014697 0.000000
# 2 0.004395 0.018536 0.003175 0.000000 0.004342 0.000000
# 3 0.008438 0.003175 0.013129 0.000000 0.009276 0.000000
# 4 0.000000 0.000000 0.000000 0.060426 0.000000 -0.025442
# 5 0.014697 0.004342 0.009276 0.000000 0.042149 0.000000
# 6 0.000000 0.000000 0.000000 -0.025442 0.000000 0.127839
#
#
# Mechanical properties :
#
#
# Convention : Reuss Voigt Hill
#
# Bulk Modulus (GPa) = 10.17204 14.87681 12.52443
# Shear Modulus (GPa) = 16.80910 26.36567 21.58738
#
# Velocity S-wave (km/s) = 2.83631 3.55223 3.21427
# Velocity P-wave (km/s) = 3.94898 4.89330 4.44628
#
# Compressibility (1/GPa) = 0.09830872
#
# Stress axis : x y z
#
# Youngs Moduli (GPa) = 28.88041 53.94762 76.16513
#
# Poissons Ratio (x) = -0.23711 -0.64271
# Poissons Ratio (y) = -0.12694 -0.24183
# Poissons Ratio (z) = -0.24370 -0.17129
#
# Static dielectric constant tensor:
#      x y z
#    x 1.729140 0.000000 -0.030760 
#    y 0.000000 1.743910 0.000000 
#    z -0.030760 0.000000 1.803180 
# 
# From -- ./inp_files/280262.got.cif
#   From: 2010.05.17/outbox.cif.g08.bks.cpg/sg12_141_cif.got.tgz:280262.got - 2010.06.03 13:09:07.
