data_PCOD9181878
_publ_section_title
;
Structure prediction by ZEFSAII (Michael W. Deem and Ramdas Pophale) SiO2 
 PCOD9181878
Probable space group: C 2/M
;
_chemical_formula_sum "Si O2"
_cell_formula_units_Z 64
_cell_length_a 28.788878
_cell_length_b 13.140586
_cell_length_c 22.292615
_cell_angle_alpha 90.000000
_cell_angle_beta 25.916237
_cell_angle_gamma 90.000000
_cell_volume 3685.855166
_symmetry_space_group_name_H-M "C 2/M"
_symmetry_group_IT_number 12
_symmetry_cell_setting 'monoclinic'
loop_
_space_group_symop_operation_xyz
x,y,z
-x,y,-z
-x,-y,-z
x,-y,z
1/2+x,1/2+y,z
1/2-x,1/2+y,-z
1/2-x,1/2-y,-z
1/2+x,1/2-y,z
loop_
_atom_site_type_symbol
_atom_site_label
_atom_site_fract_x
_atom_site_fract_y
_atom_site_fract_z
Si Si1 0.271360 0.717327 0.406682
Si Si2 0.614791 0.231417 0.216179
Si Si3 0.514615 0.613027 0.412169
Si Si4 0.409056 0.118597 0.054580
Si Si5 0.993392 0.243254 0.849145
Si Si6 0.443993 0.117861 0.338152
Si Si7 0.776568 0.117985 0.639081
Si Si8 0.665908 0.620831 0.045728
O O1 0.250000 0.750000 0.500000
O O2 0.396042 0.692894 0.257467
O O3 0.179965 0.634379 0.502155
O O4 0.249214 0.809648 0.386582
O O5 0.588010 0.295695 0.305810
O O6 0.515892 0.166822 0.306576
O O7 0.636925 0.317617 0.139928
O O8 0.715495 0.158830 0.106547
O O9 0.500000 0.614766 0.500000
O O10 0.556146 0.500000 0.347460
O O11 0.399717 0.625071 0.514211
O O12 0.298753 0.142724 0.216693
O O13 0.405513 0.000000 0.038735
O O14 0.500000 0.126233 0.000000
O O15 0.438868 0.192540 0.965551
O O16 0.025747 0.321256 0.757862
O O17 0.914409 0.161757 0.911637
O O18 0.468152 0.000000 0.302115
O O19 0.753242 0.000000 0.650386
O O20 0.659498 0.500000 0.060670
#
# Coordination Sequence:
#
# PCOD9181878 Si02
#       8
#     8   8   8   8   8   8   8   8
#     4  10  20  34  51  81 114 147 186 223 274 332
#     4  10  20  38  60  82 110 144 182 233 283 331
#     4  10  21  36  57  86 115 144 182 230 288 343
#     4  10  19  32  54  82 111 144 179 223 277 332
#     4  10  21  35  55  83 114 147 183 228 280 336
#     4  10  20  35  56  81 109 142 183 233 279 327
#     4  10  20  35  56  82 115 149 184 231 285 339
#     4  10  22  38  58  83 111 147 188 228 280 338
#
# _framework density 17.363676999999999
#
# number of rings (size 3 to 8) (size 9 to 14) (size 15 to 20)
#    0.000    2.000    2.500    1.125    1.750    2.500 
#    0.000    1.250    0.000    4.125    0.000    0.000 
#    0.000    0.000    0.000    0.000    0.000    0.000 
#
# Total GULP energy -178487.879682 kJ/mol
# GULP energy per Si atom -5577.746240 kJ/mol
# Density = 1.732416 g / cm^3
# Si number density = 17.363677 Si / 1000 Ang^3
#
#
#
# Elastic Constant Matrix: (Units=GPa)
#
#
# Indices 1 2 3 4 5 6 
#
# 1 69.4751 34.0610 15.9428 0.0000 -8.6604 0.0000
# 2 34.0610 96.1766 34.5720 0.0000 -11.6077 0.0000
# 3 15.9428 34.5720 46.7925 0.0000 -0.4845 0.0000
# 4 0.0000 0.0000 0.0000 22.7903 0.0000 7.5252
# 5 -8.6604 -11.6077 -0.4845 0.0000 24.9707 0.0000
# 6 0.0000 0.0000 0.0000 7.5252 0.0000 15.4607
#
#
#
# Elastic Compliance Matrix: (Units=1/GPa)
#
#
# Indices 1 2 3 4 5 6 
#
# 1 0.017870 -0.005030 -0.002333 0.000000 0.003814 0.000000
# 2 -0.005030 0.016668 -0.010541 0.000000 0.005799 0.000000
# 3 -0.002333 -0.010541 0.029901 0.000000 -0.005129 0.000000
# 4 0.000000 0.000000 0.000000 0.052281 0.000000 -0.025447
# 5 0.003814 0.005799 -0.005129 0.000000 0.043966 0.000000
# 6 0.000000 0.000000 0.000000 -0.025447 0.000000 0.077066
#
#
# Mechanical properties :
#
#
# Convention : Reuss Voigt Hill
#
# Bulk Modulus (GPa) = 34.92664 42.39951 38.66308
# Shear Modulus (GPa) = 17.66140 21.16889 19.41514
#
# Velocity S-wave (km/s) = 3.19273 3.49542 3.34750
# Velocity P-wave (km/s) = 5.80946 6.38452 6.10377
#
# Compressibility (1/GPa) = 0.02863144
#
# Stress axis : x y z
#
# Youngs Moduli (GPa) = 55.95833 59.99552 33.44389
#
# Poissons Ratio (x) = 0.30177 0.07802
# Poissons Ratio (y) = 0.28146 0.35253
# Poissons Ratio (z) = 0.13055 0.63242
#
# Static dielectric constant tensor:
#      x y z
#    x 1.583140 0.000000 -0.020050 
#    y 0.000000 1.558190 0.000000 
#    z -0.020050 0.000000 1.618400 
# 
# From -- ./inp_files/327770.got.cif
#   From: 2010.05.17/outbox.cif.g08.bks.cpg/sg12_164_cif.got.tgz:327770.got - 2010.06.03 13:09:07.
