data_PCOD9181873
_publ_section_title
;
Structure prediction by ZEFSAII (Michael W. Deem and Ramdas Pophale) SiO2 
 PCOD9181873
Probable space group: C 2/M
;
_chemical_formula_sum "Si O2"
_cell_formula_units_Z 56
_cell_length_a 19.659131
_cell_length_b 8.067703
_cell_length_c 21.466001
_cell_angle_alpha 90.000000
_cell_angle_beta 122.883474
_cell_angle_gamma 90.000000
_cell_volume 2859.098257
_symmetry_space_group_name_H-M "C 2/M"
_symmetry_group_IT_number 12
_symmetry_cell_setting 'monoclinic'
loop_
_space_group_symop_operation_xyz
x,y,z
-x,y,-z
-x,-y,-z
x,-y,z
1/2+x,1/2+y,z
1/2-x,1/2+y,-z
1/2-x,1/2-y,-z
1/2+x,1/2-y,z
loop_
_atom_site_type_symbol
_atom_site_label
_atom_site_fract_x
_atom_site_fract_y
_atom_site_fract_z
Si Si1 0.021378 0.802207 0.314481
Si Si2 0.027286 0.700909 0.582336
Si Si3 0.352185 0.810733 0.186847
Si Si4 0.293370 0.797931 0.286440
Si Si5 0.880638 0.198644 0.758230
Si Si6 0.840758 0.185868 0.049080
Si Si7 0.000874 0.308515 0.070576
O O1 0.083767 0.750191 0.291361
O O2 0.032527 0.767292 0.393291
O O3 0.940745 0.697968 0.260459
O O4 0.007222 0.000000 0.300135
O O5 0.026241 0.500000 0.584504
O O6 0.120423 0.757035 0.642143
O O7 0.000000 0.751764 0.500000
O O8 0.293009 0.756565 0.212657
O O9 0.356974 0.693752 0.130474
O O10 0.333455 0.000000 0.158275
O O11 0.210334 0.737016 0.275517
O O12 0.294583 0.000000 0.289759
O O13 0.940451 0.237818 0.846098
O O14 0.875383 0.000000 0.753624
O O15 0.909242 0.292876 0.049932
O O16 0.847442 0.000000 0.027972
O O17 0.750000 0.250000 0.000000
O O18 0.024718 0.500000 0.076402
O O19 0.000000 0.234260 0.000000
#
# Coordination Sequence:
#
# PCOD9181873 Si02
#       7
#     8   8   8   8   8   8   8
#     4  10  19  32  54  82 110 145 183 228 282 340
#     4   9  18  35  59  83 110 148 191 235 282 338
#     4  10  19  35  57  80 107 144 188 237 279 329
#     4   8  17  33  55  82 109 143 188 228 273 335
#     4  10  20  36  57  81 111 150 190 231 284 347
#     4  12  25  40  58  81 111 148 191 240 292 345
#     4  11  25  42  58  82 114 150 193 246 297 343
#
# _framework density 19.586594999999999
#
# number of rings (size 3 to 8) (size 9 to 14) (size 15 to 20)
#    0.000    2.000    1.429    3.429    2.000    2.000 
#    0.000    3.571    0.000    0.000    0.000    0.000 
#    0.000    0.000    0.000    0.000    0.000    0.000 
#
# Total GULP energy -156057.053782 kJ/mol
# GULP energy per Si atom -5573.466207 kJ/mol
# Density = 1.954201 g / cm^3
# Si number density = 19.586595 Si / 1000 Ang^3
#
#
#
# Elastic Constant Matrix: (Units=GPa)
#
#
# Indices 1 2 3 4 5 6 
#
# 1 162.6113 1.6480 61.7406 0.0000 -24.4027 0.0000
# 2 1.6480 25.5033 1.5128 0.0000 -5.8530 0.0000
# 3 61.7406 1.5128 93.7582 0.0000 -26.7043 0.0000
# 4 0.0000 0.0000 0.0000 21.3618 0.0000 -3.3121
# 5 -24.4027 -5.8530 -26.7043 0.0000 30.1947 0.0000
# 6 0.0000 0.0000 0.0000 -3.3121 0.0000 8.7534
#
#
#
# Elastic Compliance Matrix: (Units=1/GPa)
#
#
# Indices 1 2 3 4 5 6 
#
# 1 0.008343 0.000340 -0.004759 0.000000 0.002600 0.000000
# 2 0.000340 0.041375 0.001967 0.000000 0.010034 0.000000
# 3 -0.004759 0.001967 0.017085 0.000000 0.011645 0.000000
# 4 0.000000 0.000000 0.000000 0.049730 0.000000 0.018817
# 5 0.002600 0.010034 0.011645 0.000000 0.047463 0.000000
# 6 0.000000 0.000000 0.000000 0.018817 0.000000 0.121362
#
#
# Mechanical properties :
#
#
# Convention : Reuss Voigt Hill
#
# Bulk Modulus (GPa) = 16.15585 45.74173 30.94879
# Shear Modulus (GPa) = 16.08257 26.52674 21.30466
#
# Velocity S-wave (km/s) = 2.86859 3.68412 3.30163
# Velocity P-wave (km/s) = 4.38613 6.44215 5.51087
#
# Compressibility (1/GPa) = 0.06189709
#
# Stress axis : x y z
#
# Youngs Moduli (GPa) = 119.85680 24.16929 58.53225
#
# Poissons Ratio (x) = -0.00821 0.27856
# Poissons Ratio (y) = -0.04072 -0.11511
# Poissons Ratio (z) = 0.57042 -0.04753
#
# Static dielectric constant tensor:
#      x y z
#    x 1.718530 0.000000 0.050430 
#    y 0.000000 1.681680 0.000000 
#    z 0.050430 0.000000 2.242050 
# 
# From -- ./inp_files/314402.got.cif
#   From: 2010.05.17/outbox.cif.g08.bks.cpg/sg12_158_cif.got.tgz:314402.got - 2010.06.03 13:09:07.
