data_PCOD9181754
_publ_section_title
;
Structure prediction by ZEFSAII (Michael W. Deem and Ramdas Pophale) SiO2 
 PCOD9181754
Probable space group: C 2/M
;
_chemical_formula_sum "Si O2"
_cell_formula_units_Z 64
_cell_length_a 23.201583
_cell_length_b 10.607238
_cell_length_c 18.138523
_cell_angle_alpha 90.000000
_cell_angle_beta 122.699314
_cell_angle_gamma 90.000000
_cell_volume 3756.512804
_symmetry_space_group_name_H-M "C 2/M"
_symmetry_group_IT_number 12
_symmetry_cell_setting 'monoclinic'
loop_
_space_group_symop_operation_xyz
x,y,z
-x,y,-z
-x,-y,-z
x,-y,z
1/2+x,1/2+y,z
1/2-x,1/2+y,-z
1/2-x,1/2-y,-z
1/2+x,1/2-y,z
loop_
_atom_site_type_symbol
_atom_site_label
_atom_site_fract_x
_atom_site_fract_y
_atom_site_fract_z
Si Si1 0.384752 0.347248 0.916431
Si Si2 0.081675 0.365315 0.550306
Si Si3 0.136737 0.722717 0.440537
Si Si4 0.224816 0.351182 0.207543
Si Si5 0.261788 0.854686 0.612210
Si Si6 0.004559 0.848240 0.884720
Si Si7 0.117817 0.852888 0.683898
Si Si8 0.997760 0.150876 0.713681
O O1 0.369862 0.500000 0.905008
O O2 0.321624 0.251952 0.865237
O O3 0.436301 0.318088 0.883896
O O4 0.429272 0.317388 0.020218
O O5 0.104782 0.500000 0.599059
O O6 0.103469 0.362977 0.480363
O O7 0.110262 0.243005 0.611068
O O8 0.000000 0.358634 0.500000
O O9 0.199445 0.788321 0.527071
O O10 0.171539 0.661382 0.392988
O O11 0.074818 0.810304 0.370729
O O12 0.202864 0.500000 0.186672
O O13 0.225353 0.313414 0.294941
O O14 0.303715 0.346117 0.235718
O O15 0.242717 0.000000 0.604710
O O16 0.004531 0.797872 0.801649
O O17 0.004778 0.000000 0.880695
O O18 0.061394 0.813497 0.705310
O O19 0.104972 0.000000 0.654084
O O20 0.999763 0.000000 0.718996
#
# Coordination Sequence:
#
# PCOD9181754 Si02
#       8
#     8   8   8   8   8   8   8   8
#     4   9  17  33  58  81 104 135 168 210 263 319
#     4  11  22  36  52  74 105 140 177 222 268 304
#     4  11  20  33  52  75 101 139 180 212 260 311
#     4  10  20  35  52  75 108 139 171 215 260 307
#     4  10  21  34  48  72 108 141 171 214 260 307
#     4   8  16  32  54  82 108 129 167 218 263 306
#     4  10  21  36  54  75 101 139 182 218 256 307
#     4  10  19  32  54  79 101 133 179 225 257 301
#
# _framework density 17.037078999999999
#
# number of rings (size 3 to 8) (size 9 to 14) (size 15 to 20)
#    0.000    2.125    2.500    2.250    0.000    1.250 
#    0.000    2.500    0.000    2.250    0.000    0.000 
#    0.000    0.000    0.000    0.000    0.000    0.000 
#
# Total GULP energy -178194.530767 kJ/mol
# GULP energy per Si atom -5568.579086 kJ/mol
# Density = 1.699830 g / cm^3
# Si number density = 17.037079 Si / 1000 Ang^3
#
#
#
# Elastic Constant Matrix: (Units=GPa)
#
#
# Indices 1 2 3 4 5 6 
#
# 1 94.8794 16.6167 32.8286 0.0000 2.0820 0.0000
# 2 16.6167 38.0238 16.2120 0.0000 5.9642 0.0000
# 3 32.8286 16.2120 46.9930 0.0000 2.6455 0.0000
# 4 0.0000 0.0000 0.0000 20.8951 0.0000 -9.7191
# 5 2.0820 5.9642 2.6455 0.0000 23.9516 0.0000
# 6 0.0000 0.0000 0.0000 -9.7191 0.0000 -17.2066
#
#
#
# Elastic Compliance Matrix: (Units=1/GPa)
#
#
# Indices 1 2 3 4 5 6 
#
# 1 0.014071 -0.002352 -0.009039 0.000000 0.000361 0.000000
# 2 -0.002352 0.032282 -0.009110 0.000000 -0.006828 0.000000
# 3 -0.009039 -0.009110 0.030756 0.000000 -0.000343 0.000000
# 4 0.000000 0.000000 0.000000 0.037900 0.000000 -0.021408
# 5 0.000361 -0.006828 -0.000343 0.000000 0.043458 0.000000
# 6 0.000000 0.000000 0.000000 -0.021408 0.000000 -0.046025
#
#
# Mechanical properties :
#
#
# Convention : Reuss Voigt Hill
#
# Bulk Modulus (GPa) = 27.69405 34.57897 31.13651
# Shear Modulus (GPa) = 30.21521 13.14393 21.67957
#
# Velocity S-wave (km/s) = 4.21586 2.78058 3.57107
# Velocity P-wave (km/s) = 6.32364 5.53617 5.94296
#
# Compressibility (1/GPa) = 0.03610884
#
# Stress axis : x y z
#
# Youngs Moduli (GPa) = 71.06743 30.97685 32.51383
#
# Poissons Ratio (x) = 0.07286 0.29389
# Poissons Ratio (y) = 0.16715 0.29619
# Poissons Ratio (z) = 0.64236 0.28218
#
# Static dielectric constant tensor:
#      x y z
#    x 1.604200 0.000000 -0.016000 
#    y 0.000000 1.580590 0.000000 
#    z -0.016000 0.000000 1.575600 
# 
# From -- ./inp_files/289100.got.cif
#   From: 2010.05.17/outbox.cif.g08.bks.cpg/sg12_145_cif.got.tgz:289100.got - 2010.06.03 13:09:07.
