data_PCOD9181256
_publ_section_title
;
Structure prediction by ZEFSAII (Michael W. Deem and Ramdas Pophale) SiO2 
 PCOD9181256
Probable space group: C 2/M
;
_chemical_formula_sum "Si O2"
_cell_formula_units_Z 56
_cell_length_a 18.369827
_cell_length_b 7.665284
_cell_length_c 23.278257
_cell_angle_alpha 90.000000
_cell_angle_beta 54.857990
_cell_angle_gamma 90.000000
_cell_volume 2680.356671
_symmetry_space_group_name_H-M "C 2/M"
_symmetry_group_IT_number 12
_symmetry_cell_setting 'monoclinic'
loop_
_space_group_symop_operation_xyz
x,y,z
-x,y,-z
-x,-y,-z
x,-y,z
1/2+x,1/2+y,z
1/2-x,1/2+y,-z
1/2-x,1/2-y,-z
1/2+x,1/2-y,z
loop_
_atom_site_type_symbol
_atom_site_label
_atom_site_fract_x
_atom_site_fract_y
_atom_site_fract_z
Si Si1 0.046671 0.208923 0.148431
Si Si2 0.655928 0.709961 0.571760
Si Si3 0.129985 0.796270 0.712289
Si Si4 0.801522 0.203755 0.704564
Si Si5 0.712077 0.790374 0.156576
Si Si6 0.333331 0.709427 0.003790
Si Si7 0.990335 0.786507 0.570465
O O1 0.124718 0.239537 0.159611
O O2 0.082162 0.277189 0.070602
O O3 0.954351 0.280344 0.215209
O O4 0.037479 0.000000 0.145467
O O5 0.650053 0.500000 0.576342
O O6 0.750000 0.750000 0.500000
O O7 0.647258 0.777715 0.640894
O O8 0.573873 0.773198 0.570285
O O9 0.218449 0.786757 0.709879
O O10 0.107693 0.000000 0.713521
O O11 0.793483 0.223400 0.776479
O O12 0.896687 0.272318 0.639614
O O13 0.798489 0.000000 0.691052
O O14 0.715078 0.000000 0.157368
O O15 0.799026 0.727356 0.081279
O O16 0.342480 0.500000 0.004153
O O17 0.250000 0.750000 0.000000
O O18 0.000000 0.733138 0.500000
O O19 0.990713 0.000000 0.571478
#
# Coordination Sequence:
#
# PCOD9181256 Si02
#       7
#     8   8   8   8   8   8   8
#     4   9  17  33  56  78 102 136 177 215 256 309
#     4  10  20  35  55  79 106 135 168 208 257 309
#     4  10  21  36  53  75 106 140 175 220 264 301
#     4  11  22  36  55  76 101 138 180 217 259 312
#     4  10  19  32  52  79 109 136 168 215 265 310
#     4   8  15  28  49  76 102 132 170 211 256 307
#     4   9  18  34  56  79 102 131 169 211 253 302
#
# _framework density 20.892741999999998
#
# number of rings (size 3 to 8) (size 9 to 14) (size 15 to 20)
#    0.000    2.429    0.000    2.571    0.000    5.143 
#    0.000    3.571    0.000    8.143    0.000    0.000 
#    0.000    0.000    0.000    0.000    0.000    0.000 
#
# Total GULP energy -156236.654464 kJ/mol
# GULP energy per Si atom -5579.880517 kJ/mol
# Density = 2.084519 g / cm^3
# Si number density = 20.892742 Si / 1000 Ang^3
#
#
#
# Elastic Constant Matrix: (Units=GPa)
#
#
# Indices 1 2 3 4 5 6 
#
# 1 115.4387 -9.7251 100.2375 0.0000 -17.9231 0.0000
# 2 -9.7251 36.3684 5.8049 0.0001 -8.9403 0.0000
# 3 100.2375 5.8049 221.4462 0.0000 -17.6184 -0.0002
# 4 0.0000 0.0001 0.0000 12.4732 -0.0001 2.5354
# 5 -17.9231 -8.9403 -17.6184 -0.0001 32.5144 0.0000
# 6 0.0000 0.0000 -0.0002 2.5354 0.0000 10.3073
#
#
#
# Elastic Compliance Matrix: (Units=1/GPa)
#
#
# Indices 1 2 3 4 5 6 
#
# 1 0.016613 0.007381 -0.007131 0.000000 0.007323 0.000000
# 2 0.007381 0.032773 -0.003302 0.000000 0.011291 0.000000
# 3 -0.007131 -0.003302 0.007781 0.000000 -0.000623 0.000000
# 4 0.000000 0.000000 0.000000 0.084391 0.000000 -0.020759
# 5 0.007323 0.011291 -0.000623 0.000000 0.037560 0.000000
# 6 0.000000 0.000000 0.000000 -0.020759 0.000000 0.102125
#
#
# Mechanical properties :
#
#
# Convention : Reuss Voigt Hill
#
# Bulk Modulus (GPa) = 19.58359 62.87643 41.23001
# Shear Modulus (GPa) = 16.42753 29.52139 22.97446
#
# Velocity S-wave (km/s) = 2.80711 3.76306 3.31968
# Velocity P-wave (km/s) = 4.46097 7.00293 5.87117
#
# Compressibility (1/GPa) = 0.05106317
#
# Stress axis : x y z
#
# Youngs Moduli (GPa) = 60.19296 30.51324 128.52583
#
# Poissons Ratio (x) = -0.22522 0.91649
# Poissons Ratio (y) = -0.44428 0.42436
# Poissons Ratio (z) = 0.42922 0.10075
#
# Static dielectric constant tensor:
#      x y z
#    x 1.688650 0.000000 -0.018650 
#    y 0.000000 1.809800 0.000000 
#    z -0.018650 0.000000 1.782230 
# 
# From -- ./inp_files/313788.got.cif
#   From: 2010.05.17/outbox.cif.g08.bks.cpg/sg12_157_cif.got.tgz:313788.got - 2010.06.03 13:09:07.
