data_PCOD9181983
_publ_section_title
;
Structure prediction by ZEFSAII (Michael W. Deem and Ramdas Pophale) SiO2 
 PCOD9181983
Probable space group: C 2/M
;
_chemical_formula_sum "Si O2"
_cell_formula_units_Z 48
_cell_length_a 20.508098
_cell_length_b 7.486431
_cell_length_c 14.295339
_cell_angle_alpha 90.000000
_cell_angle_beta 89.604846
_cell_angle_gamma 90.000000
_cell_volume 2194.746374
_symmetry_space_group_name_H-M "C 2/M"
_symmetry_group_IT_number 12
_symmetry_cell_setting 'monoclinic'
loop_
_space_group_symop_operation_xyz
x,y,z
-x,y,-z
-x,-y,-z
x,-y,z
1/2+x,1/2+y,z
1/2-x,1/2+y,-z
1/2-x,1/2-y,-z
1/2+x,1/2-y,z
loop_
_atom_site_type_symbol
_atom_site_label
_atom_site_fract_x
_atom_site_fract_y
_atom_site_fract_z
Si Si1 0.071667 0.215410 0.608387
Si Si2 0.467407 0.296959 0.908786
Si Si3 0.593701 0.792692 0.810651
Si Si4 0.420283 0.717538 0.598859
Si Si5 0.774941 0.713766 0.104048
Si Si6 0.849973 0.219331 0.786032
O O1 0.108165 0.278884 0.700427
O O2 0.097360 0.273517 0.506484
O O3 0.995525 0.272046 0.614983
O O4 0.072360 0.000000 0.609686
O O5 0.449327 0.500000 0.935711
O O6 0.525317 0.300643 0.832699
O O7 0.403636 0.218553 0.861466
O O8 0.500000 0.212092 0.000000
O O9 0.653072 0.718367 0.871662
O O10 0.583758 0.000000 0.834162
O O11 0.420325 0.500000 0.599634
O O12 0.374017 0.776733 0.683510
O O13 0.778833 0.500000 0.114397
O O14 0.720619 0.777442 0.178156
O O15 0.750000 0.750000 0.000000
O O16 0.851375 0.000000 0.786241
#
# Coordination Sequence:
#
# PCOD9181983 Si02
#       6
#     8   8   8   8   8   8
#     4   9  16  30  54  80 102 130 173 218 255 299
#     4  10  19  32  55  80  97 125 177 228 258 293
#     4  11  22  34  49  76 112 142 164 201 265 323
#     4   8  14  27  53  82 101 124 171 226 260 286
#     4  10  22  38  55  74 102 141 177 210 254 308
#     4   9  16  31  54  77  99 129 175 221 254 291
#
# _framework density 21.870408999999999
#
# number of rings (size 3 to 8) (size 9 to 14) (size 15 to 20)
#    0.000    2.500    1.667    2.500    0.000    3.000 
#    0.000    3.333    0.000    0.000    0.000    0.000 
#    0.000    0.000    0.000    0.000    0.000    0.000 
#
# Total GULP energy -133994.412348 kJ/mol
# GULP energy per Si atom -5583.100515 kJ/mol
# Density = 2.182063 g / cm^3
# Si number density = 21.870409 Si / 1000 Ang^3
#
#
#
# Elastic Constant Matrix: (Units=GPa)
#
#
# Indices 1 2 3 4 5 6 
#
# 1 43.4095 3.5742 -16.3868 0.0000 1.6276 0.0000
# 2 3.5742 65.1464 -4.2450 0.0000 -1.6115 0.0000
# 3 -16.3868 -4.2450 93.6415 0.0000 -0.5897 0.0000
# 4 0.0000 0.0000 0.0000 7.1998 0.0000 -3.9489
# 5 1.6276 -1.6115 -0.5897 0.0000 37.8982 0.0000
# 6 0.0000 0.0000 0.0000 -3.9489 0.0000 -1.4592
#
#
#
# Elastic Compliance Matrix: (Units=1/GPa)
#
#
# Indices 1 2 3 4 5 6 
#
# 1 0.024782 -0.001107 0.004280 0.000000 -0.001045 0.000000
# 2 -0.001107 0.015462 0.000512 0.000000 0.000713 0.000000
# 3 0.004280 0.000512 0.011451 0.000000 0.000016 0.000000
# 4 0.000000 0.000000 0.000000 0.055910 0.000000 -0.151299
# 5 -0.001045 0.000713 0.000016 0.000000 0.026462 0.000000
# 6 0.000000 0.000000 0.000000 -0.151299 0.000000 -0.275857
#
#
# Mechanical properties :
#
#
# Convention : Reuss Voigt Hill
#
# Bulk Modulus (GPa) = 16.93024 18.67580 17.80302
# Shear Modulus (GPa) = -38.61852 23.34477 -7.63688
#
# Velocity S-wave (km/s) = -4.20669 3.27067 -1.87068
# Velocity P-wave (km/s) = 3.97957 4.77712 1.86868
#
# Compressibility (1/GPa) = 0.05906589
#
# Stress axis : x y z
#
# Youngs Moduli (GPa) = 40.35116 64.67583 87.32620
#
# Poissons Ratio (x) = 0.07157 -0.37376
# Poissons Ratio (y) = 0.04465 -0.04469
# Poissons Ratio (z) = -0.17271 -0.03310
#
# Static dielectric constant tensor:
#      x y z
#    x 1.777190 0.000000 -0.005940 
#    y 0.000000 1.842400 0.000000 
#    z -0.005940 0.000000 1.829620 
# 
# From -- ./inp_files/229291.got.cif
#   From: 2010.05.17/outbox.cif.g08.bks.cpg/sg12_115_cif.got.tgz:229291.got - 2010.06.03 13:09:07.
