data_PCOD9181973
_publ_section_title
;
Structure prediction by ZEFSAII (Michael W. Deem and Ramdas Pophale) SiO2 
 PCOD9181973
Probable space group: C 2/M
;
_chemical_formula_sum "Si O2"
_cell_formula_units_Z 64
_cell_length_a 15.220835
_cell_length_b 15.529366
_cell_length_c 16.493136
_cell_angle_alpha 90.000000
_cell_angle_beta 120.602111
_cell_angle_gamma 90.000000
_cell_volume 3355.513489
_symmetry_space_group_name_H-M "C 2/M"
_symmetry_group_IT_number 12
_symmetry_cell_setting 'monoclinic'
loop_
_space_group_symop_operation_xyz
x,y,z
-x,y,-z
-x,-y,-z
x,-y,z
1/2+x,1/2+y,z
1/2-x,1/2+y,-z
1/2-x,1/2-y,-z
1/2+x,1/2-y,z
loop_
_atom_site_type_symbol
_atom_site_label
_atom_site_fract_x
_atom_site_fract_y
_atom_site_fract_z
Si Si1 0.342489 0.656254 0.786180
Si Si2 0.209915 0.343463 0.314838
Si Si3 0.618356 0.256400 0.034399
Si Si4 0.521623 0.819983 0.318607
Si Si5 0.894736 0.234239 0.491222
Si Si6 0.132915 0.596061 0.627188
Si Si7 0.748118 0.904540 0.155353
Si Si8 0.064814 0.176189 0.836577
O O1 0.319153 0.749566 0.735253
O O2 0.247885 0.598998 0.715421
O O3 0.456159 0.634200 0.809736
O O4 0.344534 0.672724 0.883259
O O5 0.107852 0.373845 0.312255
O O6 0.302491 0.326657 0.420599
O O7 0.240254 0.395378 0.249075
O O8 0.619866 0.292626 0.944670
O O9 0.500000 0.238687 0.000000
O O10 0.680891 0.169982 0.081978
O O11 0.583681 0.752045 0.404763
O O12 0.446119 0.873997 0.340081
O O13 0.457473 0.761783 0.226538
O O14 0.874994 0.329377 0.443968
O O15 0.000000 0.202790 0.500000
O O16 0.110103 0.500000 0.587583
O O17 0.862872 0.885403 0.180616
O O18 0.715658 0.000000 0.115899
#
# Coordination Sequence:
#
# PCOD9181973 Si02
#       8
#     8   8   8   8   8   8   8   8
#     4   8  17  34  56  77  96 129 172 213 252 297
#     4   9  18  34  52  74 102 134 175 211 247 298
#     4   9  18  36  58  76  98 132 175 217 254 297
#     4  10  19  32  55  78  99 136 178 216 250 296
#     4   9  17  31  54  78  99 131 176 219 256 297
#     4  10  20  33  50  77 110 134 159 207 267 313
#     4  11  22  34  51  77 110 140 166 206 261 316
#     4  10  19  35  57  76  99 135 178 215 248 295
#
# _framework density 19.073086
#
# number of rings (size 3 to 8) (size 9 to 14) (size 15 to 20)
#    0.000    2.500    0.000    4.500    0.000    3.500 
#    0.000    2.500    0.000    5.625    0.000    0.000 
#    0.000    0.000    0.000    0.000    0.000    0.000 
#
# Total GULP energy -178477.959534 kJ/mol
# GULP energy per Si atom -5577.436235 kJ/mol
# Density = 1.902968 g / cm^3
# Si number density = 19.073086 Si / 1000 Ang^3
#
#
#
# Elastic Constant Matrix: (Units=GPa)
#
#
# Indices 1 2 3 4 5 6 
#
# 1 71.8190 15.5549 16.7946 0.0000 -2.8066 0.0000
# 2 15.5549 30.4045 -14.5213 0.0000 2.2033 0.0000
# 3 16.7946 -14.5213 63.9930 0.0000 3.4460 0.0000
# 4 0.0000 0.0000 0.0000 4.3826 0.0000 -6.1303
# 5 -2.8066 2.2033 3.4460 0.0000 30.1178 0.0000
# 6 0.0000 0.0000 0.0000 -6.1303 0.0000 -18.4709
#
#
#
# Elastic Compliance Matrix: (Units=1/GPa)
#
#
# Indices 1 2 3 4 5 6 
#
# 1 0.019075 -0.014041 -0.008395 0.000000 0.003765 0.000000
# 2 -0.014041 0.047633 0.014844 0.000000 -0.006491 0.000000
# 3 -0.008395 0.014844 0.021431 0.000000 -0.004320 0.000000
# 4 0.000000 0.000000 0.000000 0.155833 0.000000 -0.051719
# 5 0.003765 -0.006491 -0.004320 0.000000 0.034523 0.000000
# 6 0.000000 0.000000 0.000000 -0.051719 0.000000 -0.036974
#
#
# Mechanical properties :
#
#
# Convention : Reuss Voigt Hill
#
# Bulk Modulus (GPa) = 13.70737 22.43030 18.06884
# Shear Modulus (GPa) = 17.79198 13.09846 15.44522
#
# Velocity S-wave (km/s) = 3.05754 2.62344 2.84877
# Velocity P-wave (km/s) = 4.43476 4.57846 4.50718
#
# Compressibility (1/GPa) = 0.07295344
#
# Stress axis : x y z
#
# Youngs Moduli (GPa) = 52.42359 20.99375 46.66145
#
# Poissons Ratio (x) = 0.29478 0.39174
# Poissons Ratio (y) = 0.73610 -0.69262
# Poissons Ratio (z) = 0.44011 -0.31162
#
# Static dielectric constant tensor:
#      x y z
#    x 1.705580 0.000000 0.000640 
#    y 0.000000 1.618060 0.000000 
#    z 0.000640 0.000000 1.681320 
# 
# From -- ./inp_files/216385.got.cif
#   From: 2010.05.17/outbox.cif.g08.bks.cpg/sg12_109_cif.got.tgz:216385.got - 2010.06.03 13:09:07.
