data_PCOD9181137
_publ_section_title
;
Structure prediction by ZEFSAII (Michael W. Deem and Ramdas Pophale) SiO2 
 PCOD9181137
Probable space group: C 2/M
;
_chemical_formula_sum "Si O2"
_cell_formula_units_Z 64
_cell_length_a 29.302730
_cell_length_b 7.573058
_cell_length_c 14.759060
_cell_angle_alpha 90.000000
_cell_angle_beta 91.251674
_cell_angle_gamma 90.000000
_cell_volume 3274.420307
_symmetry_space_group_name_H-M "C 2/M"
_symmetry_group_IT_number 12
_symmetry_cell_setting 'monoclinic'
loop_
_space_group_symop_operation_xyz
x,y,z
-x,y,-z
-x,-y,-z
x,-y,z
1/2+x,1/2+y,z
1/2-x,1/2+y,-z
1/2-x,1/2-y,-z
1/2+x,1/2-y,z
loop_
_atom_site_type_symbol
_atom_site_label
_atom_site_fract_x
_atom_site_fract_y
_atom_site_fract_z
Si Si1 0.509080 0.287190 0.398029
Si Si2 0.197071 0.211753 0.016940
Si Si3 0.157884 0.215361 0.827419
Si Si4 0.182548 0.793101 0.217294
Si Si5 0.581778 0.710389 0.693791
Si Si6 0.268511 0.206308 0.324078
Si Si7 0.844081 0.286557 0.458004
Si Si8 0.886991 0.290970 0.644621
O O1 0.500000 0.222619 0.500000
O O2 0.505621 0.500000 0.400642
O O3 0.468287 0.219980 0.332096
O O4 0.559842 0.244434 0.368629
O O5 0.168447 0.276795 0.929267
O O6 0.190875 0.000000 0.017836
O O7 0.250000 0.250000 0.000000
O O8 0.184630 0.281672 0.116044
O O9 0.110165 0.276167 0.781549
O O10 0.197432 0.278073 0.760507
O O11 0.159138 0.000000 0.825559
O O12 0.220841 0.715525 0.287185
O O13 0.134188 0.779937 0.263901
O O14 0.194596 0.000000 0.208554
O O15 0.577608 0.500000 0.705151
O O16 0.614789 0.742146 0.609111
O O17 0.297269 0.281356 0.410086
O O18 0.261110 0.000000 0.345004
O O19 0.841362 0.500000 0.461288
O O20 0.858231 0.219602 0.557286
O O21 0.880689 0.500000 0.645915
#
# Coordination Sequence:
#
# PCOD9181137 Si02
#       8
#     8   8   8   8   8   8   8   8
#     4  10  19  33  54  76  99 129 166 205 249 301
#     4  10  19  32  52  77 102 131 166 206 248 292
#     4   9  17  29  49  77 104 126 158 205 248 289
#     4  10  21  35  50  70 100 137 172 204 244 295
#     4   9  17  30  50  76 101 127 160 200 247 297
#     4   9  17  31  49  70  99 134 168 198 239 295
#     4   9  18  31  47  70 101 133 164 201 243 290
#     4  11  23  35  49  72 102 134 170 210 251 291
#
# _framework density 19.545445000000001
#
# number of rings (size 3 to 8) (size 9 to 14) (size 15 to 20)
#    0.000    2.375    2.500    0.375    0.000    2.750 
#    0.000    0.000    0.000    0.750    0.000    5.250 
#    0.000    0.000    0.000    0.000    0.000    0.000 
#
# Total GULP energy -178528.656168 kJ/mol
# GULP energy per Si atom -5579.020505 kJ/mol
# Density = 1.950096 g / cm^3
# Si number density = 19.545445 Si / 1000 Ang^3
#
#
#
# Elastic Constant Matrix: (Units=GPa)
#
#
# Indices 1 2 3 4 5 6 
#
# 1 100.5323 2.1759 75.2412 0.0000 8.8509 0.0000
# 2 2.1759 39.9206 -8.2160 0.0000 10.4203 0.0000
# 3 75.2412 -8.2160 123.0266 0.0000 12.1483 0.0000
# 4 0.0000 0.0000 0.0000 -1.6757 0.0000 -34.5963
# 5 8.8509 10.4203 12.1483 0.0000 26.9442 0.0000
# 6 0.0000 0.0000 0.0000 -34.5963 0.0000 -59.4765
#
#
#
# Elastic Compliance Matrix: (Units=1/GPa)
#
#
# Indices 1 2 3 4 5 6 
#
# 1 0.018804 -0.003590 -0.011792 0.000000 0.000528 0.000000
# 2 -0.003590 0.029694 0.005438 0.000000 -0.012757 0.000000
# 3 -0.011792 0.005438 0.016252 0.000000 -0.005557 0.000000
# 4 0.000000 0.000000 0.000000 0.054205 0.000000 -0.031530
# 5 0.000528 -0.012757 -0.005557 0.000000 0.044379 0.000000
# 6 0.000000 0.000000 0.000000 -0.031530 0.000000 0.001527
#
#
# Mechanical properties :
#
#
# Convention : Reuss Voigt Hill
#
# Bulk Modulus (GPa) = 22.29001 44.65353 33.47177
# Shear Modulus (GPa) = 25.03715 6.11029 15.57372
#
# Velocity S-wave (km/s) = 3.58295 1.77002 2.82582
# Velocity P-wave (km/s) = 5.34281 5.20316 5.27345
#
# Compressibility (1/GPa) = 0.04486314
#
# Stress axis : x y z
#
# Youngs Moduli (GPa) = 53.18113 33.67639 61.53096
#
# Poissons Ratio (x) = 0.12089 0.72557
# Poissons Ratio (y) = 0.19090 -0.33461
# Poissons Ratio (z) = 0.62711 -0.18314
#
# Static dielectric constant tensor:
#      x y z
#    x 1.694670 0.000000 0.044310 
#    y 0.000000 1.806640 0.000000 
#    z 0.044310 0.000000 1.696280 
# 
# From -- ./inp_files/243970.got.cif
#   From: 2010.05.17/outbox.cif.g08.bks.cpg/sg12_122_cif.got.tgz:243970.got - 2010.06.03 13:09:07.
