data_PCOD9181406
_publ_section_title
;
Structure prediction by ZEFSAII (Michael W. Deem and Ramdas Pophale) SiO2 
 PCOD9181406
Probable space group: C 2/M
;
_chemical_formula_sum "Si O2"
_cell_formula_units_Z 40
_cell_length_a 9.247804
_cell_length_b 13.064063
_cell_length_c 15.598611
_cell_angle_alpha 90.000000
_cell_angle_beta 91.867667
_cell_angle_gamma 90.000000
_cell_volume 1883.527813
_symmetry_space_group_name_H-M "C 2/M"
_symmetry_group_IT_number 12
_symmetry_cell_setting 'monoclinic'
loop_
_space_group_symop_operation_xyz
x,y,z
-x,y,-z
-x,-y,-z
x,-y,z
1/2+x,1/2+y,z
1/2-x,1/2+y,-z
1/2-x,1/2-y,-z
1/2+x,1/2-y,z
loop_
_atom_site_type_symbol
_atom_site_label
_atom_site_fract_x
_atom_site_fract_y
_atom_site_fract_z
Si Si1 0.786549 0.880059 0.946133
Si Si2 0.914974 0.787064 0.112140
Si Si3 0.832710 0.615238 0.564945
Si Si4 0.600511 0.612319 0.714713
Si Si5 0.396686 0.340202 0.573259
O O1 0.637392 0.825528 0.916577
O O2 0.919217 0.819337 0.902582
O O3 0.792078 0.000000 0.927081
O O4 0.820760 0.859654 0.047060
O O5 0.882876 0.806134 0.210671
O O6 0.892767 0.500000 0.570692
O O7 0.714026 0.622980 0.639077
O O8 0.757809 0.632705 0.470233
O O9 0.922665 0.718144 0.580162
O O10 0.619124 0.500000 0.754218
O O11 0.445216 0.617296 0.664798
O O12 0.500000 0.381512 0.500000
#
# Coordination Sequence:
#
# PCOD9181406 Si02
#       5
#     8   8   8   8   8
#     4  10  21  41  61  86 121 156 194 241 291 347
#     4  10  21  37  62  87 116 154 193 239 288 348
#     4   9  18  32  49  73 102 134 175 223 272 331
#     4  10  19  32  53  77 101 138 182 229 277 332
#     4   9  18  32  50  71 101 137 174 219 273 333
#
# _framework density 21.236743000000001
#
# number of rings (size 3 to 8) (size 9 to 14) (size 15 to 20)
#    0.000    2.400    0.000    3.000    2.800    2.800 
#    0.000   11.000    0.000    0.000    0.000    0.000 
#    0.000    0.000    0.000    0.000    0.000    0.000 
#
# Total GULP energy -111472.741868 kJ/mol
# GULP energy per Si atom -5573.637093 kJ/mol
# Density = 2.118841 g / cm^3
# Si number density = 21.236743 Si / 1000 Ang^3
#
#
#
# Elastic Constant Matrix: (Units=GPa)
#
#
# Indices 1 2 3 4 5 6 
#
# 1 39.1173 35.9782 18.1140 0.0000 -5.1461 0.0000
# 2 35.9782 135.2740 11.9129 0.0000 -2.5102 0.0000
# 3 18.1140 11.9129 103.8432 0.0000 4.2786 0.0000
# 4 0.0000 0.0000 0.0000 17.9586 0.0000 1.1818
# 5 -5.1461 -2.5102 4.2786 0.0000 14.2232 0.0000
# 6 0.0000 0.0000 0.0000 1.1818 0.0000 21.2057
#
#
#
# Elastic Compliance Matrix: (Units=1/GPa)
#
#
# Indices 1 2 3 4 5 6 
#
# 1 0.039230 -0.009609 -0.006334 0.000000 0.014403 0.000000
# 2 -0.009609 0.009857 0.000625 0.000000 -0.001925 0.000000
# 3 -0.006334 0.000625 0.010888 0.000000 -0.005457 0.000000
# 4 0.000000 0.000000 0.000000 0.055889 0.000000 -0.003115
# 5 0.014403 -0.001925 -0.005457 0.000000 0.076821 0.000000
# 6 0.000000 0.000000 0.000000 -0.003115 0.000000 0.047331
#
#
# Mechanical properties :
#
#
# Convention : Reuss Voigt Hill
#
# Bulk Modulus (GPa) = 34.08502 45.58276 39.83389
# Shear Modulus (GPa) = 17.82969 24.82613 21.32791
#
# Velocity S-wave (km/s) = 2.90067 3.42280 3.17250
# Velocity P-wave (km/s) = 5.22527 6.09356 5.67604
#
# Compressibility (1/GPa) = 0.02933840
#
# Stress axis : x y z
#
# Youngs Moduli (GPa) = 25.49084 101.44810 91.84424
#
# Poissons Ratio (x) = 0.97478 0.58176
# Poissons Ratio (y) = 0.24493 -0.05736
# Poissons Ratio (z) = 0.16146 -0.06336
#
# Static dielectric constant tensor:
#      x y z
#    x 1.837830 0.000000 -0.021630 
#    y 0.000000 1.799980 0.000000 
#    z -0.021630 0.000000 1.748690 
# 
# From -- ./inp_files/202944.got.cif
#   From: 2010.05.17/outbox.cif.g08.bks.cpg/sg12_102_cif.got.tgz:202944.got - 2010.06.03 13:09:07.
