data_PCOD9181794
_publ_section_title
;
Structure prediction by ZEFSAII (Michael W. Deem and Ramdas Pophale) SiO2 
 PCOD9181794
Probable space group: C 2/M
;
_chemical_formula_sum "Si O2"
_cell_formula_units_Z 48
_cell_length_a 8.600412
_cell_length_b 22.749664
_cell_length_c 16.551874
_cell_angle_alpha 90.000000
_cell_angle_beta 124.964202
_cell_angle_gamma 90.000000
_cell_volume 2653.968752
_symmetry_space_group_name_H-M "C 2/M"
_symmetry_group_IT_number 12
_symmetry_cell_setting 'monoclinic'
loop_
_space_group_symop_operation_xyz
x,y,z
-x,y,-z
-x,-y,-z
x,-y,z
1/2+x,1/2+y,z
1/2-x,1/2+y,-z
1/2-x,1/2-y,-z
1/2+x,1/2-y,z
loop_
_atom_site_type_symbol
_atom_site_label
_atom_site_fract_x
_atom_site_fract_y
_atom_site_fract_z
Si Si1 0.000000 0.604029 0.500000
Si Si2 0.500000 0.621204 0.500000
Si Si3 0.206589 0.185331 0.021342
Si Si4 0.839065 0.697167 0.577641
Si Si5 0.580204 0.336878 0.820735
Si Si6 0.914731 0.066615 0.648295
Si Si7 0.703146 0.780390 0.789201
O O1 0.078272 0.647242 0.455353
O O2 0.184900 0.570262 0.587215
O O3 0.671393 0.664751 0.574646
O O4 0.456591 0.583998 0.567348
O O5 0.329441 0.179944 0.139375
O O6 0.250000 0.250000 0.000000
O O7 0.000000 0.186486 0.000000
O O8 0.188426 0.144876 0.936445
O O9 0.750000 0.750000 0.500000
O O10 0.013399 0.718522 0.681327
O O11 0.513625 0.387162 0.738995
O O12 0.715090 0.287655 0.820122
O O13 0.385632 0.304195 0.794323
O O14 0.976931 0.000000 0.682568
#
# Coordination Sequence:
#
# PCOD9181794 Si02
#       7
#     4   4   8   8   8   8   8
#     4  10  20  36  50  78 102 141 187 218 264 328
#     4  10  24  36  50  76 106 145 191 216 268 330
#     4   8  16  31  49  77 108 136 173 212 263 334
#     4  11  21  31  51  80 116 142 169 219 282 335
#     4  10  20  33  56  83 107 141 180 222 277 325
#     4  11  22  39  56  75 106 147 194 228 263 320
#     4  10  19  32  54  80 117 140 170 221 282 336
#
# _framework density 18.086120999999999
#
# number of rings (size 3 to 8) (size 9 to 14) (size 15 to 20)
#    0.000    2.000    1.667    3.000    4.667    0.000 
#    0.000    0.000    0.000    4.500    0.000    1.167 
#    0.000    0.000    0.000    0.000    0.000    0.000 
#
# Total GULP energy -133622.460688 kJ/mol
# GULP energy per Si atom -5567.602529 kJ/mol
# Density = 1.804496 g / cm^3
# Si number density = 18.086121 Si / 1000 Ang^3
#
#
#
# Elastic Constant Matrix: (Units=GPa)
#
#
# Indices 1 2 3 4 5 6 
#
# 1 55.0411 28.4170 8.8980 0.0000 -8.7058 0.0000
# 2 28.4170 87.2043 30.3866 0.0000 -16.5211 0.0000
# 3 8.8980 30.3866 106.9456 0.0000 -16.0525 0.0000
# 4 0.0000 0.0000 0.0000 12.8374 0.0000 -0.8938
# 5 -8.7058 -16.5211 -16.0525 0.0000 21.9962 0.0000
# 6 0.0000 0.0000 0.0000 -0.8938 0.0000 11.9620
#
#
#
# Elastic Compliance Matrix: (Units=1/GPa)
#
#
# Indices 1 2 3 4 5 6 
#
# 1 0.022169 -0.006653 0.000688 0.000000 0.004279 0.000000
# 2 -0.006653 0.016028 -0.002907 0.000000 0.007284 0.000000
# 3 0.000688 -0.002907 0.011042 0.000000 0.006147 0.000000
# 4 0.000000 0.000000 0.000000 0.078305 0.000000 0.005851
# 5 0.004279 0.007284 0.006147 0.000000 0.057113 0.000000
# 6 0.000000 0.000000 0.000000 0.005851 0.000000 0.084036
#
#
# Mechanical properties :
#
#
# Convention : Reuss Voigt Hill
#
# Bulk Modulus (GPa) = 31.75149 42.73270 37.24210
# Shear Modulus (GPa) = 16.83868 21.45839 19.14854
#
# Velocity S-wave (km/s) = 3.05459 3.44823 3.25736
# Velocity P-wave (km/s) = 5.48037 6.28748 5.89775
#
# Compressibility (1/GPa) = 0.03149459
#
# Stress axis : x y z
#
# Youngs Moduli (GPa) = 45.10855 62.38936 90.56315
#
# Poissons Ratio (x) = 0.41509 -0.06233
# Poissons Ratio (y) = 0.30011 0.26330
# Poissons Ratio (z) = -0.03104 0.18139
#
# Static dielectric constant tensor:
#      x y z
#    x 1.660110 0.000000 0.018800 
#    y 0.000000 1.582820 0.000000 
#    z 0.018800 0.000000 1.707730 
# 
# From -- ./inp_files/259046.got.cif
#   From: 2010.05.17/outbox.cif.g08.bks.cpg/sg12_130_cif.got.tgz:259046.got - 2010.06.03 13:09:07.
