data_PCOD9181473
_publ_section_title
;
Structure prediction by ZEFSAII (Michael W. Deem and Ramdas Pophale) SiO2 
 PCOD9181473
Probable space group: C 2/M
;
_chemical_formula_sum "Si O2"
_cell_formula_units_Z 40
_cell_length_a 14.415753
_cell_length_b 28.327682
_cell_length_c 8.096470
_cell_angle_alpha 90.000000
_cell_angle_beta 142.906197
_cell_angle_gamma 90.000000
_cell_volume 1994.109719
_symmetry_space_group_name_H-M "C 2/M"
_symmetry_group_IT_number 12
_symmetry_cell_setting 'monoclinic'
loop_
_space_group_symop_operation_xyz
x,y,z
-x,y,-z
-x,-y,-z
x,-y,z
1/2+x,1/2+y,z
1/2-x,1/2+y,-z
1/2-x,1/2-y,-z
1/2+x,1/2-y,z
loop_
_atom_site_type_symbol
_atom_site_label
_atom_site_fract_x
_atom_site_fract_y
_atom_site_fract_z
Si Si1 0.039367 0.131350 0.248909
Si Si2 0.656606 0.094936 0.130772
Si Si3 0.637781 0.449418 0.827208
Si Si4 0.589239 0.197737 0.948588
Si Si5 0.637916 0.265075 0.492684
O O1 0.203877 0.108365 0.542613
O O2 0.052671 0.185408 0.331012
O O3 0.907799 0.097334 0.136966
O O4 0.000000 0.133314 0.000000
O O5 0.715183 0.058160 0.079418
O O6 0.500000 0.081430 0.000000
O O7 0.622624 0.142902 0.981226
O O8 0.500000 0.452201 0.500000
O O9 0.644087 0.500000 0.927213
O O10 0.481203 0.222834 0.665208
O O11 0.500000 0.200991 0.000000
O O12 0.748905 0.224989 0.196379
O O13 0.750000 0.250000 0.500000
#
# Coordination Sequence:
#
# PCOD9181473 Si02
#       5
#     8   8   8   8   8
#     4  10  19  32  53  78 104 136 171 208 253 306
#     4   9  18  33  54  77 101 133 172 214 257 302
#     4   9  19  36  55  75 101 134 174 215 256 310
#     4   8  14  24  42  68  97 127 161 198 240 292
#     4   9  15  25  44  71 101 133 164 198 243 295
#
# _framework density 20.059076000000001
#
# number of rings (size 3 to 8) (size 9 to 14) (size 15 to 20)
#    0.000    3.000    0.000    3.000    0.000    0.800 
#    0.000    2.000    0.000    6.000    0.000    0.000 
#    0.000    0.000    0.000    0.000    0.000    0.000 
#
# Total GULP energy -111359.180310 kJ/mol
# GULP energy per Si atom -5567.959016 kJ/mol
# Density = 2.001342 g / cm^3
# Si number density = 20.059076 Si / 1000 Ang^3
#
#
#
# Elastic Constant Matrix: (Units=GPa)
#
#
# Indices 1 2 3 4 5 6 
#
# 1 54.5264 28.8489 30.1301 0.0000 19.2547 0.0000
# 2 28.8489 88.4700 33.0921 0.0000 14.0193 0.0000
# 3 30.1301 33.0921 47.6784 0.0000 14.5585 0.0000
# 4 0.0000 0.0000 0.0000 -22.4541 0.0000 -10.6459
# 5 19.2547 14.0193 14.5585 0.0000 22.9435 0.0000
# 6 0.0000 0.0000 0.0000 -10.6459 0.0000 12.0325
#
#
#
# Elastic Compliance Matrix: (Units=1/GPa)
#
#
# Indices 1 2 3 4 5 6 
#
# 1 0.033899 -0.003045 -0.013880 0.000000 -0.017781 0.000000
# 2 -0.003045 0.015736 -0.008486 0.000000 -0.001675 0.000000
# 3 -0.013880 -0.008486 0.037823 0.000000 -0.007167 0.000000
# 4 0.000000 0.000000 0.000000 -0.031374 0.000000 -0.027759
# 5 -0.017781 -0.001675 -0.007167 0.000000 0.064079 0.000000
# 6 0.000000 0.000000 0.000000 -0.027759 0.000000 0.058548
#
#
# Mechanical properties :
#
#
# Convention : Reuss Voigt Hill
#
# Bulk Modulus (GPa) = 27.29452 41.64634 34.47043
# Shear Modulus (GPa) = 20.68291 9.07796 14.88044
#
# Velocity S-wave (km/s) = 3.21456 2.12966 2.72661
# Velocity P-wave (km/s) = 5.23588 5.18210 5.20906
#
# Compressibility (1/GPa) = 0.03663738
#
# Stress axis : x y z
#
# Youngs Moduli (GPa) = 29.49904 63.54944 26.43859
#
# Poissons Ratio (x) = 0.19349 0.36696
# Poissons Ratio (y) = 0.08982 0.22436
# Poissons Ratio (z) = 0.40944 0.53929
#
# Static dielectric constant tensor:
#      x y z
#    x 1.762190 0.000000 0.039540 
#    y 0.000000 1.822890 0.000000 
#    z 0.039540 0.000000 1.715320 
# 
# From -- ./inp_files/41475.got.cif
#   From: 2010.05.17/outbox.cif.g08.bks.cpg/sg12_21_cif.got.tgz:41475.got - 2010.06.03 13:09:07.
