data_PCOD9181452
_publ_section_title
;
Structure prediction by ZEFSAII (Michael W. Deem and Ramdas Pophale) SiO2 
 PCOD9181452
Probable space group: C 2/M
;
_chemical_formula_sum "Si O2"
_cell_formula_units_Z 40
_cell_length_a 16.137191
_cell_length_b 9.253093
_cell_length_c 11.925360
_cell_angle_alpha 90.000000
_cell_angle_beta 97.277673
_cell_angle_gamma 90.000000
_cell_volume 1766.336600
_symmetry_space_group_name_H-M "C 2/M"
_symmetry_group_IT_number 12
_symmetry_cell_setting 'monoclinic'
loop_
_space_group_symop_operation_xyz
x,y,z
-x,y,-z
-x,-y,-z
x,-y,z
1/2+x,1/2+y,z
1/2-x,1/2+y,-z
1/2-x,1/2-y,-z
1/2+x,1/2-y,z
loop_
_atom_site_type_symbol
_atom_site_label
_atom_site_fract_x
_atom_site_fract_y
_atom_site_fract_z
Si Si1 0.852524 0.170981 0.636994
Si Si2 0.242891 0.831216 0.165294
Si Si3 0.596588 0.835830 0.561369
Si Si4 0.010918 0.328837 0.772150
Si Si5 0.119475 0.832872 0.950100
O O1 0.774947 0.195867 0.707237
O O2 0.851826 0.232951 0.511421
O O3 0.929983 0.249670 0.710823
O O4 0.866929 0.000000 0.636030
O O5 0.303220 0.719864 0.114056
O O6 0.270565 0.000000 0.154911
O O7 0.155220 0.819376 0.081673
O O8 0.500000 0.833089 0.500000
O O9 0.583084 0.803661 0.689855
O O10 0.627342 0.000000 0.553468
O O11 0.996519 0.500000 0.775456
O O12 0.044118 0.264617 0.893551
O O13 0.098750 0.000000 0.926676
#
# Coordination Sequence:
#
# PCOD9181452 Si02
#       5
#     8   8   8   8   8
#     4  10  19  32  53  78 103 131 166 207 248 296
#     4   9  20  37  53  73 103 134 163 205 258 299
#     4   8  16  31  49  71 101 134 164 201 250 295
#     4  10  20  34  52  75 105 135 165 206 251 293
#     4  10  20  35  55  75  98 132 172 208 246 299
#
# _framework density 22.645738999999999
#
# number of rings (size 3 to 8) (size 9 to 14) (size 15 to 20)
#    0.000    2.600    0.000    3.000    0.000    7.600 
#    0.000    5.000    0.000    0.000    0.000    0.000 
#    0.000    0.000    0.000    0.000    0.000    0.000 
#
# Total GULP energy -111774.133416 kJ/mol
# GULP energy per Si atom -5588.706671 kJ/mol
# Density = 2.259420 g / cm^3
# Si number density = 22.645739 Si / 1000 Ang^3
#
#
#
# Elastic Constant Matrix: (Units=GPa)
#
#
# Indices 1 2 3 4 5 6 
#
# 1 50.7374 29.4001 15.5755 0.0000 -4.7420 0.0000
# 2 29.4001 82.0544 64.5905 0.0000 -17.7557 0.0000
# 3 15.5755 64.5905 122.1261 0.0000 -7.7960 0.0000
# 4 0.0000 0.0000 0.0000 32.1824 0.0000 6.5172
# 5 -4.7420 -17.7557 -7.7960 0.0000 43.3973 0.0000
# 6 0.0000 0.0000 0.0000 6.5172 0.0000 19.6971
#
#
#
# Elastic Compliance Matrix: (Units=1/GPa)
#
#
# Indices 1 2 3 4 5 6 
#
# 1 0.025467 -0.011676 0.002832 0.000000 -0.001485 0.000000
# 2 -0.011676 0.028309 -0.012974 0.000000 0.007976 0.000000
# 3 0.002832 -0.012974 0.014536 0.000000 -0.002387 0.000000
# 4 0.000000 0.000000 0.000000 0.033304 0.000000 -0.011020
# 5 -0.001485 0.007976 -0.002387 0.000000 0.025715 0.000000
# 6 0.000000 0.000000 0.000000 -0.011020 0.000000 0.054415
#
#
# Mechanical properties :
#
#
# Convention : Reuss Voigt Hill
#
# Bulk Modulus (GPa) = 40.52295 52.67222 46.59758
# Shear Modulus (GPa) = 21.40348 28.74547 25.07447
#
# Velocity S-wave (km/s) = 3.07765 3.56667 3.33115
# Velocity P-wave (km/s) = 5.52833 6.34596 5.95120
#
# Compressibility (1/GPa) = 0.02467738
#
# Stress axis : x y z
#
# Youngs Moduli (GPa) = 39.26726 35.32440 68.79293
#
# Poissons Ratio (x) = 0.41243 -0.19484
# Poissons Ratio (y) = 0.45847 0.89252
# Poissons Ratio (z) = -0.11122 0.45830
#
# Static dielectric constant tensor:
#      x y z
#    x 1.930640 0.000000 0.030270 
#    y 0.000000 1.748100 0.000000 
#    z 0.030270 0.000000 1.869980 
# 
# From -- ./inp_files/151847.got.cif
#   From: 2010.05.17/outbox.cif.g08.bks.cpg/sg12_76_cif.got.tgz:151847.got - 2010.06.03 13:09:07.
