data_PCOD9181164
_publ_section_title
;
Structure prediction by ZEFSAII (Michael W. Deem and Ramdas Pophale) SiO2 
 PCOD9181164
Probable space group: C 2/M
;
_chemical_formula_sum "Si O2"
_cell_formula_units_Z 64
_cell_length_a 18.049520
_cell_length_b 13.311022
_cell_length_c 12.854606
_cell_angle_alpha 90.000000
_cell_angle_beta 126.168162
_cell_angle_gamma 90.000000
_cell_volume 2493.242528
_symmetry_space_group_name_H-M "C 2/M"
_symmetry_group_IT_number 12
_symmetry_cell_setting 'monoclinic'
loop_
_space_group_symop_operation_xyz
x,y,z
-x,y,-z
-x,-y,-z
x,-y,z
1/2+x,1/2+y,z
1/2-x,1/2+y,-z
1/2-x,1/2-y,-z
1/2+x,1/2-y,z
loop_
_atom_site_type_symbol
_atom_site_label
_atom_site_fract_x
_atom_site_fract_y
_atom_site_fract_z
Si Si1 0.710847 0.121061 0.018462
Si Si2 0.291624 0.615314 0.499575
Si Si3 0.986927 0.379076 0.106311
Si Si4 0.908835 0.615879 0.611182
Si Si5 0.902321 0.120479 0.111533
Si Si6 0.451090 0.272158 0.362559
Si Si7 0.245595 0.760770 0.739364
Si Si8 0.403932 0.379929 0.794125
O O1 0.795276 0.153484 0.013893
O O2 0.728316 0.158209 0.150441
O O3 0.712058 0.000000 0.017049
O O4 0.606026 0.154735 0.911884
O O5 0.297602 0.500000 0.470279
O O6 0.277843 0.682440 0.387577
O O7 0.373311 0.635293 0.647657
O O8 0.199301 0.625207 0.492359
O O9 0.979301 0.500000 0.093056
O O10 0.072215 0.359859 0.251434
O O11 0.000000 0.344059 0.000000
O O12 0.934407 0.500000 0.614428
O O13 0.974535 0.688336 0.604052
O O14 0.929555 0.153327 0.250520
O O15 0.988910 0.151617 0.111890
O O16 0.902140 0.000000 0.103073
O O17 0.500000 0.327461 0.500000
O O18 0.353923 0.219678 0.308564
O O19 0.328640 0.682182 0.795841
O O20 0.396666 0.500000 0.810368
#
# Coordination Sequence:
#
# PCOD9181164 Si02
#       8
#     8   8   8   8   8   8   8   8
#     4   9  18  33  54  80 104 127 164 219 278 324
#     4  10  19  32  52  77 104 137 179 225 270 313
#     4   9  17  32  56  84 109 134 170 221 278 323
#     4  10  21  36  55  80 111 144 175 213 265 325
#     4   9  19  35  52  73 103 140 183 227 268 307
#     4  11  22  34  51  78 112 148 180 213 258 317
#     4  11  20  31  50  75 105 141 177 217 263 315
#     4  10  20  33  50  73 105 146 185 219 256 307
#
# _framework density 25.669383
#
# number of rings (size 3 to 8) (size 9 to 14) (size 15 to 20)
#    0.000    2.125    0.000    3.750    0.000    3.500 
#    0.000    2.500    0.000    1.500    0.000    0.875 
#    0.000    9.000    0.000    0.000    0.000    0.000 
#
# Total GULP energy -179236.030272 kJ/mol
# GULP energy per Si atom -5601.125946 kJ/mol
# Density = 2.561096 g / cm^3
# Si number density = 25.669383 Si / 1000 Ang^3
#
#
#
# Elastic Constant Matrix: (Units=GPa)
#
#
# Indices 1 2 3 4 5 6 
#
# 1 185.5188 47.5499 32.1344 0.0000 36.5643 0.0000
# 2 47.5499 89.2676 19.0941 0.0000 6.1394 0.0000
# 3 32.1344 19.0941 67.9380 0.0000 15.1722 0.0000
# 4 0.0000 0.0000 0.0000 26.8597 0.0000 10.6272
# 5 36.5643 6.1394 15.1722 0.0000 48.9461 0.0000
# 6 0.0000 0.0000 0.0000 10.6272 0.0000 37.9704
#
#
#
# Elastic Compliance Matrix: (Units=1/GPa)
#
#
# Indices 1 2 3 4 5 6 
#
# 1 0.007421 -0.003303 -0.001543 0.000000 -0.004651 0.000000
# 2 -0.003303 0.013400 -0.002556 0.000000 0.001579 0.000000
# 3 -0.001543 -0.002556 0.017017 0.000000 -0.003801 0.000000
# 4 0.000000 0.000000 0.000000 0.041867 0.000000 -0.011718
# 5 -0.004651 0.001579 -0.003801 0.000000 0.024885 0.000000
# 6 0.000000 0.000000 0.000000 -0.011718 0.000000 0.029616
#
#
# Mechanical properties :
#
#
# Convention : Reuss Voigt Hill
#
# Bulk Modulus (GPa) = 43.41696 60.03124 51.72410
# Shear Modulus (GPa) = 31.91069 39.01830 35.46450
#
# Velocity S-wave (km/s) = 3.52965 3.90299 3.72100
# Velocity P-wave (km/s) = 5.79326 6.61424 6.21732
#
# Compressibility (1/GPa) = 0.02303248
#
# Stress axis : x y z
#
# Youngs Moduli (GPa) = 134.75659 74.62788 58.76619
#
# Poissons Ratio (x) = 0.24649 0.09068
# Poissons Ratio (y) = 0.44508 0.15023
# Poissons Ratio (z) = 0.20794 0.19078
#
# Static dielectric constant tensor:
#      x y z
#    x 2.042060 0.000000 -0.005580 
#    y 0.000000 2.018460 0.000000 
#    z -0.005580 0.000000 2.013640 
# 
# From -- ./inp_files/225322.got.cif
#   From: 2010.05.17/outbox.cif.g08.bks.cpg/sg12_113_cif.got.tgz:225322.got - 2010.06.03 13:09:07.
