data_PCOD9181995
_publ_section_title
;
Structure prediction by ZEFSAII (Michael W. Deem and Ramdas Pophale) SiO2 
 PCOD9181995
Probable space group: C 2/M
;
_chemical_formula_sum "Si O2"
_cell_formula_units_Z 56
_cell_length_a 19.425050
_cell_length_b 7.743521
_cell_length_c 25.381404
_cell_angle_alpha 90.000000
_cell_angle_beta 43.360080
_cell_angle_gamma 90.000000
_cell_volume 2621.248051
_symmetry_space_group_name_H-M "C 2/M"
_symmetry_group_IT_number 12
_symmetry_cell_setting 'monoclinic'
loop_
_space_group_symop_operation_xyz
x,y,z
-x,y,-z
-x,-y,-z
x,-y,z
1/2+x,1/2+y,z
1/2-x,1/2+y,-z
1/2-x,1/2-y,-z
1/2+x,1/2-y,z
loop_
_atom_site_type_symbol
_atom_site_label
_atom_site_fract_x
_atom_site_fract_y
_atom_site_fract_z
Si Si1 0.540375 0.289040 0.267608
Si Si2 0.335810 0.706026 0.994161
Si Si3 0.269423 0.198788 0.326485
Si Si4 0.719422 0.287061 0.243453
Si Si5 0.004806 0.209184 0.822861
Si Si6 0.108345 0.700548 0.925739
Si Si7 0.681156 0.698817 0.586809
O O1 0.541208 0.500000 0.268376
O O2 0.627987 0.231598 0.257456
O O3 0.552765 0.243115 0.199242
O O4 0.430302 0.221372 0.346071
O O5 0.338068 0.500000 0.999638
O O6 0.440324 0.762986 0.908857
O O7 0.250000 0.750000 0.000000
O O8 0.327580 0.789323 0.056001
O O9 0.210355 0.270509 0.308984
O O10 0.385315 0.212736 0.243585
O O11 0.265385 0.280375 0.386364
O O12 0.241403 0.000000 0.349107
O O13 0.721743 0.500000 0.242510
O O14 0.823157 0.225753 0.158848
O O15 0.014928 0.000000 0.817937
O O16 0.090682 0.500000 0.922208
O O17 0.000000 0.780398 0.000000
O O18 0.660414 0.500000 0.590375
O O19 0.750000 0.750000 0.500000
#
# Coordination Sequence:
#
# PCOD9181995 Si02
#       7
#     8   8   8   8   8   8   8
#     4   8  15  30  52  74  96 130 173 210 248 299
#     4  11  22  34  50  73 102 138 182 232 281 325
#     4  10  19  32  55  82 104 131 168 209 253 306
#     4   9  17  31  51  75 104 137 174 214 257 310
#     4   9  18  33  51  70  98 137 177 218 263 313
#     4  10  20  34  52  75 106 144 183 225 273 322
#     4  10  20  36  58  81 106 135 168 208 254 307
#
# _framework density 21.363868
#
# number of rings (size 3 to 8) (size 9 to 14) (size 15 to 20)
#    0.000    2.429    0.000    3.857    0.000    4.857 
#    0.000    2.143    0.000   13.714    0.000    0.000 
#    0.000    0.000    0.000    0.000    0.000    0.000 
#
# Total GULP energy -156296.722520 kJ/mol
# GULP energy per Si atom -5582.025804 kJ/mol
# Density = 2.131524 g / cm^3
# Si number density = 21.363868 Si / 1000 Ang^3
#
#
#
# Elastic Constant Matrix: (Units=GPa)
#
#
# Indices 1 2 3 4 5 6 
#
# 1 92.2624 -11.2912 16.6488 -0.0001 13.7455 -0.0007
# 2 -11.2912 33.0454 2.9297 -0.0001 -3.8595 0.0001
# 3 16.6488 2.9297 102.8320 -0.0001 23.7069 -0.0002
# 4 -0.0001 -0.0001 -0.0001 17.3642 0.0000 2.3367
# 5 13.7455 -3.8595 23.7069 0.0000 21.2744 -0.0002
# 6 -0.0007 0.0001 -0.0002 2.3367 -0.0002 17.8727
#
#
#
# Elastic Compliance Matrix: (Units=1/GPa)
#
#
# Indices 1 2 3 4 5 6 
#
# 1 0.012370 0.003486 -0.000545 0.000000 -0.006752 0.000000
# 2 0.003486 0.032567 -0.003142 0.000000 0.007157 0.000000
# 3 -0.000545 -0.003142 0.013393 0.000000 -0.015142 0.000000
# 4 0.000000 0.000000 0.000000 0.058621 0.000000 -0.007664
# 5 -0.006752 0.007157 -0.015142 0.000000 0.069539 0.000000
# 6 0.000000 0.000000 0.000000 -0.007664 0.000000 0.056953
#
#
# Mechanical properties :
#
#
# Convention : Reuss Voigt Hill
#
# Bulk Modulus (GPa) = 17.26302 27.19048 22.22675
# Shear Modulus (GPa) = 19.00016 25.95911 22.47964
#
# Velocity S-wave (km/s) = 2.98545 3.48960 3.24732
# Velocity P-wave (km/s) = 4.47011 5.38436 4.94840
#
# Compressibility (1/GPa) = 0.05792730
#
# Stress axis : x y z
#
# Youngs Moduli (GPa) = 80.84308 30.70576 74.66394
#
# Poissons Ratio (x) = -0.10705 0.04073
# Poissons Ratio (y) = -0.28185 0.23462
# Poissons Ratio (z) = 0.04410 0.09649
#
# Static dielectric constant tensor:
#      x y z
#    x 1.810040 0.000000 -0.036430 
#    y 0.000000 1.790450 0.000000 
#    z -0.036430 0.000000 1.833250 
# 
# From -- ./inp_files/280174.got.cif
#   From: 2010.05.17/outbox.cif.g08.bks.cpg/sg12_141_cif.got.tgz:280174.got - 2010.06.03 13:09:07.
