data_PCOD9181217
_publ_section_title
;
Structure prediction by ZEFSAII (Michael W. Deem and Ramdas Pophale) SiO2 
 PCOD9181217
Probable space group: C 2/M
;
_chemical_formula_sum "Si O2"
_cell_formula_units_Z 48
_cell_length_a 28.565765
_cell_length_b 8.425022
_cell_length_c 12.110260
_cell_angle_alpha 90.000000
_cell_angle_beta 70.468069
_cell_angle_gamma 90.000000
_cell_volume 2746.825923
_symmetry_space_group_name_H-M "C 2/M"
_symmetry_group_IT_number 12
_symmetry_cell_setting 'monoclinic'
loop_
_space_group_symop_operation_xyz
x,y,z
-x,y,-z
-x,-y,-z
x,-y,z
1/2+x,1/2+y,z
1/2-x,1/2+y,-z
1/2-x,1/2-y,-z
1/2+x,1/2-y,z
loop_
_atom_site_type_symbol
_atom_site_label
_atom_site_fract_x
_atom_site_fract_y
_atom_site_fract_z
Si Si1 0.196257 0.690824 0.999489
Si Si2 0.055854 0.193183 0.475331
Si Si3 0.145654 0.189876 0.246677
Si Si4 0.209017 0.684411 0.389967
Si Si5 0.374030 0.686351 0.386970
Si Si6 0.813601 0.688192 0.247247
O O1 0.196074 0.500000 0.004616
O O2 0.154740 0.759711 0.114415
O O3 0.250000 0.750000 0.000000
O O4 0.186333 0.739298 0.880640
O O5 0.093500 0.233331 0.345772
O O6 0.081034 0.246448 0.570672
O O7 0.000000 0.249845 0.500000
O O8 0.054857 0.000000 0.480615
O O9 0.187549 0.278173 0.285537
O O10 0.152443 0.000000 0.252543
O O11 0.202965 0.500000 0.422826
O O12 0.174280 0.786024 0.497747
O O13 0.266174 0.731699 0.342655
O O14 0.380759 0.500000 0.362395
O O15 0.361806 0.769259 0.281187
O O16 0.805777 0.500000 0.255847
#
# Coordination Sequence:
#
# PCOD9181217 Si02
#       6
#     8   8   8   8   8   8
#     4  11  22  34  51  72 103 143 180 214 248 300
#     4   8  16  33  57  81 102 127 163 214 268 311
#     4  10  19  32  52  78 106 134 172 216 257 304
#     4  11  20  31  49  71 102 139 173 209 250 303
#     4  10  20  33  51  75 102 131 168 213 260 309
#     4  11  22  34  48  69 102 140 175 209 250 302
#
# _framework density 17.474715
#
# number of rings (size 3 to 8) (size 9 to 14) (size 15 to 20)
#    0.000    1.833    1.667    5.000    0.000    2.000 
#    0.000    0.000    0.000   19.000    0.000    7.000 
#    0.000    0.000    0.000    0.000    0.000    0.000 
#
# Total GULP energy -133927.149855 kJ/mol
# GULP energy per Si atom -5580.297911 kJ/mol
# Density = 1.743494 g / cm^3
# Si number density = 17.474715 Si / 1000 Ang^3
#
#
#
# Elastic Constant Matrix: (Units=GPa)
#
#
# Indices 1 2 3 4 5 6 
#
# 1 120.3881 8.7203 52.7255 0.0000 11.2939 0.0000
# 2 8.7203 24.8867 -2.1673 0.0000 -0.7122 0.0000
# 3 52.7255 -2.1673 82.7041 0.0000 22.3369 0.0000
# 4 0.0000 0.0000 0.0000 27.2527 0.0000 4.3800
# 5 11.2939 -0.7122 22.3369 0.0000 22.0674 0.0000
# 6 0.0000 0.0000 0.0000 4.3800 0.0000 15.6777
#
#
#
# Elastic Compliance Matrix: (Units=1/GPa)
#
#
# Indices 1 2 3 4 5 6 
#
# 1 0.012174 -0.004942 -0.008484 0.000000 0.002198 0.000000
# 2 -0.004942 0.042282 0.004413 0.000000 -0.000573 0.000000
# 3 -0.008484 0.004413 0.022577 0.000000 -0.018368 0.000000
# 4 0.000000 0.000000 0.000000 0.038419 0.000000 -0.010733
# 5 0.002198 -0.000573 -0.018368 0.000000 0.062764 0.000000
# 6 0.000000 0.000000 0.000000 -0.010733 0.000000 0.066783
#
#
# Mechanical properties :
#
#
# Convention : Reuss Voigt Hill
#
# Bulk Modulus (GPa) = 16.94713 38.50397 27.72555
# Shear Modulus (GPa) = 17.68704 24.24626 20.96665
#
# Velocity S-wave (km/s) = 3.18488 3.72896 3.46761
# Velocity P-wave (km/s) = 4.82118 6.37355 5.65093
#
# Compressibility (1/GPa) = 0.05900704
#
# Stress axis : x y z
#
# Youngs Moduli (GPa) = 82.14194 23.65090 44.29361
#
# Poissons Ratio (x) = 0.11688 0.37580
# Poissons Ratio (y) = 0.40593 -0.19549
# Poissons Ratio (z) = 0.69692 -0.10438
#
# Static dielectric constant tensor:
#      x y z
#    x 1.595390 0.000000 0.027810 
#    y 0.000000 1.596470 0.000000 
#    z 0.027810 0.000000 1.618640 
# 
# From -- ./inp_files/179231.got.cif
#   From: 2010.05.17/outbox.cif.g08.bks.cpg/sg12_90_cif.got.tgz:179231.got - 2010.06.03 13:09:07.
