data_PCOD9181138
_publ_section_title
;
Structure prediction by ZEFSAII (Michael W. Deem and Ramdas Pophale) SiO2 
 PCOD9181138
Probable space group: C 2/M
;
_chemical_formula_sum "Si O2"
_cell_formula_units_Z 56
_cell_length_a 13.831001
_cell_length_b 19.168087
_cell_length_c 9.209424
_cell_angle_alpha 90.000000
_cell_angle_beta 62.724310
_cell_angle_gamma 90.000000
_cell_volume 2170.074489
_symmetry_space_group_name_H-M "C 2/M"
_symmetry_group_IT_number 12
_symmetry_cell_setting 'monoclinic'
loop_
_space_group_symop_operation_xyz
x,y,z
-x,y,-z
-x,-y,-z
x,-y,z
1/2+x,1/2+y,z
1/2-x,1/2+y,-z
1/2-x,1/2-y,-z
1/2+x,1/2-y,z
loop_
_atom_site_type_symbol
_atom_site_label
_atom_site_fract_x
_atom_site_fract_y
_atom_site_fract_z
Si Si1 0.936160 0.136634 0.840693
Si Si2 0.217460 0.367012 0.795148
Si Si3 0.698051 0.579716 0.807897
Si Si4 0.767274 0.774140 0.321175
Si Si5 0.453218 0.782134 0.695731
Si Si6 0.084869 0.423535 0.139398
Si Si7 0.599198 0.419484 0.524573
O O1 0.823120 0.132788 0.828448
O O2 0.979039 0.215361 0.779167
O O3 0.032206 0.086447 0.720352
O O4 0.894166 0.110350 0.023185
O O5 0.168472 0.290835 0.794066
O O6 0.282655 0.392306 0.606934
O O7 0.129016 0.410789 0.945349
O O8 0.684477 0.500000 0.765261
O O9 0.710457 0.643813 0.688514
O O10 0.808558 0.575466 0.829254
O O11 0.750000 0.750000 0.500000
O O12 0.672310 0.775639 0.263723
O O13 0.500000 0.779600 0.500000
O O14 0.477442 0.855552 0.757098
O O15 0.031965 0.500000 0.188308
O O16 0.500000 0.383050 0.500000
O O17 0.605752 0.500000 0.477997
#
# Coordination Sequence:
#
# PCOD9181138 Si02
#       7
#     8   8   8   8   8   8   8
#     4   9  15  26  46  72  99 126 161 207 253 298
#     4   9  16  28  46  70  98 129 166 207 249 298
#     4   9  17  30  49  73 102 133 167 210 256 302
#     4  10  20  34  52  74 102 137 173 206 247 306
#     4  10  19  32  52  77 102 131 171 216 258 301
#     4   9  17  29  48  75 101 126 167 221 266 298
#     4   9  15  23  41  72 105 129 152 193 252 306
#
# _framework density 25.805565999999999
#
# number of rings (size 3 to 8) (size 9 to 14) (size 15 to 20)
#    0.000    2.714    0.000    3.857    0.000    7.143 
#    0.000    1.429    0.000    9.429    0.000    6.000 
#    0.000    0.000    0.000    0.000    0.000    0.000 
#
# Total GULP energy -155948.521877 kJ/mol
# GULP energy per Si atom -5569.590067 kJ/mol
# Density = 2.574683 g / cm^3
# Si number density = 25.805566 Si / 1000 Ang^3
#
#
#
# Elastic Constant Matrix: (Units=GPa)
#
#
# Indices 1 2 3 4 5 6 
#
# 1 55.5328 22.8459 -9.2550 0.0000 8.1059 0.0000
# 2 22.8459 227.6206 54.3073 0.0000 -6.9126 0.0000
# 3 -9.2550 54.3073 101.1941 0.0000 5.1364 0.0000
# 4 0.0000 0.0000 0.0000 36.9541 0.0000 2.3363
# 5 8.1059 -6.9126 5.1364 0.0000 26.0160 0.0000
# 6 0.0000 0.0000 0.0000 2.3363 0.0000 32.6673
#
#
#
# Elastic Compliance Matrix: (Units=1/GPa)
#
#
# Indices 1 2 3 4 5 6 
#
# 1 0.021327 -0.003397 0.004199 0.000000 -0.008376 0.000000
# 2 -0.003397 0.005673 -0.003521 0.000000 0.003261 0.000000
# 3 0.004199 -0.003521 0.012394 0.000000 -0.004691 0.000000
# 4 0.000000 0.000000 0.000000 0.027184 0.000000 -0.001944
# 5 -0.008376 0.003261 -0.004691 0.000000 0.042840 0.000000
# 6 0.000000 0.000000 0.000000 -0.001944 0.000000 0.030751
#
#
# Mechanical properties :
#
#
# Convention : Reuss Voigt Hill
#
# Bulk Modulus (GPa) = 29.44971 57.79376 43.62173
# Shear Modulus (GPa) = 31.86236 40.22410 36.04323
#
# Velocity S-wave (km/s) = 3.51765 3.95237 3.74133
# Velocity P-wave (km/s) = 5.28540 6.57820 5.96692
#
# Compressibility (1/GPa) = 0.03395620
#
# Stress axis : x y z
#
# Youngs Moduli (GPa) = 46.88851 176.26617 80.68712
#
# Poissons Ratio (x) = 0.59872 -0.33877
# Poissons Ratio (y) = 0.15927 0.28408
# Poissons Ratio (z) = -0.19687 0.62060
#
# Static dielectric constant tensor:
#      x y z
#    x 2.254480 0.000000 0.095160 
#    y 0.000000 2.063880 0.000000 
#    z 0.095160 0.000000 2.192040 
# 
# From -- ./inp_files/87803.got.cif
#   From: 2010.05.17/outbox.cif.g08.bks.cpg/sg12_44_cif.got.tgz:87803.got - 2010.06.03 13:09:07.
