data_PCOD9181958
_publ_section_title
;
Structure prediction by ZEFSAII (Michael W. Deem and Ramdas Pophale) SiO2 
 PCOD9181958
Probable space group: C 2/M
;
_chemical_formula_sum "Si O2"
_cell_formula_units_Z 48
_cell_length_a 20.793432
_cell_length_b 19.578178
_cell_length_c 13.247765
_cell_angle_alpha 90.000000
_cell_angle_beta 154.320089
_cell_angle_gamma 90.000000
_cell_volume 2337.076743
_symmetry_space_group_name_H-M "C 2/M"
_symmetry_group_IT_number 12
_symmetry_cell_setting 'monoclinic'
loop_
_space_group_symop_operation_xyz
x,y,z
-x,y,-z
-x,-y,-z
x,-y,z
1/2+x,1/2+y,z
1/2-x,1/2+y,-z
1/2-x,1/2-y,-z
1/2+x,1/2-y,z
loop_
_atom_site_type_symbol
_atom_site_label
_atom_site_fract_x
_atom_site_fract_y
_atom_site_fract_z
Si Si1 0.758123 0.422597 0.010047
Si Si2 0.392837 0.681742 0.760167
Si Si3 0.950844 0.844433 0.608154
Si Si4 0.905875 0.711377 0.216283
Si Si5 0.574150 0.829204 0.258748
Si Si6 0.671363 0.076230 0.129427
O O1 0.772135 0.500000 0.070772
O O2 0.590891 0.393324 0.783505
O O3 0.790609 0.426727 0.936367
O O4 0.870409 0.363670 0.211531
O O5 0.446995 0.664822 0.723930
O O6 0.386077 0.764827 0.755424
O O7 0.225933 0.654058 0.531300
O O8 0.500000 0.657442 0.000000
O O9 0.976412 0.770843 0.588856
O O10 0.796055 0.876617 0.355873
O O11 0.954695 0.696965 0.170746
O O12 0.750000 0.750000 0.000000
O O13 0.492919 0.892698 0.095312
O O14 0.681471 0.000000 0.184880
#
# Coordination Sequence:
#
# PCOD9181958 Si02
#       6
#     8   8   8   8   8   8
#     4   9  17  33  57  85 120 151 184 238 307 361
#     4  10  22  37  58  79 114 156 202 246 287 338
#     4  10  19  32  54  86 123 150 193 239 292 355
#     4   8  16  31  51  81 117 146 186 233 288 349
#     4   9  20  35  57  83 115 149 192 243 299 346
#     4  10  20  34  59  91 121 148 183 244 315 363
#
# _framework density 20.538478000000001
#
# number of rings (size 3 to 8) (size 9 to 14) (size 15 to 20)
#    0.000    2.667    0.000    1.000    7.000    1.333 
#    0.000    2.500    3.667    7.500    0.000    5.833 
#    0.000    0.000    0.000    0.000    0.000    0.000 
#
# Total GULP energy -133697.128892 kJ/mol
# GULP energy per Si atom -5570.713704 kJ/mol
# Density = 2.049173 g / cm^3
# Si number density = 20.538478 Si / 1000 Ang^3
#
#
#
# Elastic Constant Matrix: (Units=GPa)
#
#
# Indices 1 2 3 4 5 6 
#
# 1 59.5140 6.8293 26.8443 0.0000 5.1793 0.0000
# 2 6.8293 171.1739 70.8211 0.0000 11.3096 0.0000
# 3 26.8443 70.8211 144.6984 0.0000 5.3199 0.0000
# 4 0.0000 0.0000 0.0000 28.4780 0.0000 3.1982
# 5 5.1793 11.3096 5.3199 0.0000 19.1123 0.0000
# 6 0.0000 0.0000 0.0000 3.1982 0.0000 15.9976
#
#
#
# Elastic Compliance Matrix: (Units=1/GPa)
#
#
# Indices 1 2 3 4 5 6 
#
# 1 0.018835 0.001171 -0.003894 0.000000 -0.004713 0.000000
# 2 0.001171 0.007620 -0.003808 0.000000 -0.003766 0.000000
# 3 -0.003894 -0.003808 0.009473 0.000000 0.000672 0.000000
# 4 0.000000 0.000000 0.000000 0.035921 0.000000 -0.007181
# 5 -0.004713 -0.003766 0.000672 0.000000 0.055641 0.000000
# 6 0.000000 0.000000 0.000000 -0.007181 0.000000 0.063945
#
#
# Mechanical properties :
#
#
# Convention : Reuss Voigt Hill
#
# Bulk Modulus (GPa) = 43.73530 64.93063 54.33297
# Shear Modulus (GPa) = 23.57168 30.77701 27.17435
#
# Velocity S-wave (km/s) = 3.39142 3.87525 3.64138
# Velocity P-wave (km/s) = 6.05609 7.19070 6.64765
#
# Compressibility (1/GPa) = 0.02286483
#
# Stress axis : x y z
#
# Youngs Moduli (GPa) = 53.09247 131.23847 105.56837
#
# Poissons Ratio (x) = -0.15369 0.41110
# Poissons Ratio (y) = -0.06218 0.40202
# Poissons Ratio (z) = 0.20675 0.49978
#
# Static dielectric constant tensor:
#      x y z
#    x 1.772170 0.000000 -0.000530 
#    y 0.000000 1.800290 0.000000 
#    z -0.000530 0.000000 1.729800 
# 
# From -- ./inp_files/241881.got.cif
#   From: 2010.05.17/outbox.cif.g08.bks.cpg/sg12_121_cif.got.tgz:241881.got - 2010.06.03 13:09:07.
