data_PCOD9181617
_publ_section_title
;
Structure prediction by ZEFSAII (Michael W. Deem and Ramdas Pophale) SiO2 
 PCOD9181617
Probable space group: C 2/M
;
_chemical_formula_sum "Si O2"
_cell_formula_units_Z 48
_cell_length_a 28.349716
_cell_length_b 11.315047
_cell_length_c 7.665375
_cell_angle_alpha 90.000000
_cell_angle_beta 81.718084
_cell_angle_gamma 90.000000
_cell_volume 2433.243506
_symmetry_space_group_name_H-M "C 2/M"
_symmetry_group_IT_number 12
_symmetry_cell_setting 'monoclinic'
loop_
_space_group_symop_operation_xyz
x,y,z
-x,y,-z
-x,-y,-z
x,-y,z
1/2+x,1/2+y,z
1/2-x,1/2+y,-z
1/2-x,1/2-y,-z
1/2+x,1/2-y,z
loop_
_atom_site_type_symbol
_atom_site_label
_atom_site_fract_x
_atom_site_fract_y
_atom_site_fract_z
Si Si1 0.007723 0.869651 0.707367
Si Si2 0.257267 0.866734 0.615197
Si Si3 0.860963 0.290921 0.581061
Si Si4 0.344595 0.636928 0.244152
Si Si5 0.042908 0.374056 0.618807
Si Si6 0.399697 0.638192 0.876090
O O1 0.956718 0.854492 0.826671
O O2 0.000000 0.874949 0.500000
O O3 0.037062 0.750123 0.722872
O O4 0.027396 0.000000 0.747064
O O5 0.250000 0.750000 0.500000
O O6 0.311467 0.855837 0.650754
O O7 0.212100 0.859012 0.769181
O O8 0.252700 0.000000 0.536101
O O9 0.852180 0.210886 0.414667
O O10 0.906728 0.368617 0.506967
O O11 0.876765 0.209491 0.731220
O O12 0.356412 0.500000 0.272890
O O13 0.377041 0.679881 0.068850
O O14 0.039785 0.500000 0.717558
O O15 0.000000 0.373699 0.500000
O O16 0.387420 0.500000 0.864613
#
# Coordination Sequence:
#
# PCOD9181617 Si02
#       6
#     8   8   8   8   8   8
#     4   9  16  30  52  77 103 139 184 226 267 318
#     4   9  19  36  58  84 115 147 186 231 275 329
#     4  11  19  33  59  81 106 150 187 224 275 332
#     4   9  20  36  54  83 116 143 183 231 276 330
#     4  10  19  32  53  81 110 145 184 223 274 332
#     4  10  19  33  55  82 114 147 181 230 280 327
#
# _framework density 19.726756999999999
#
# number of rings (size 3 to 8) (size 9 to 14) (size 15 to 20)
#    0.000    2.333    3.333    1.000    0.000    2.000 
#    0.000    0.833    0.000   19.000    0.000    0.000 
#    0.000    0.000    0.000    0.000    0.000    0.000 
#
# Total GULP energy -133673.738710 kJ/mol
# GULP energy per Si atom -5569.739113 kJ/mol
# Density = 1.968186 g / cm^3
# Si number density = 19.726757 Si / 1000 Ang^3
#
#
#
# Elastic Constant Matrix: (Units=GPa)
#
#
# Indices 1 2 3 4 5 6 
#
# 1 122.9955 37.1596 32.2185 0.0000 -27.7073 0.0000
# 2 37.1596 143.9324 36.7849 0.0000 -3.6528 0.0000
# 3 32.2185 36.7849 87.6956 0.0000 -23.0168 0.0000
# 4 0.0000 0.0000 0.0000 14.9656 0.0000 -12.6248
# 5 -27.7073 -3.6528 -23.0168 0.0000 25.6418 0.0000
# 6 0.0000 0.0000 0.0000 -12.6248 0.0000 17.8023
#
#
#
# Elastic Compliance Matrix: (Units=1/GPa)
#
#
# Indices 1 2 3 4 5 6 
#
# 1 0.011715 -0.002732 0.000082 0.000000 0.012342 0.000000
# 2 -0.002732 0.008532 -0.003965 0.000000 -0.005296 0.000000
# 3 0.000082 -0.003965 0.016890 0.000000 0.014685 0.000000
# 4 0.000000 0.000000 0.000000 0.166319 0.000000 0.117948
# 5 0.012342 -0.005296 0.014685 0.000000 0.064762 0.000000
# 6 0.000000 0.000000 0.000000 0.117948 0.000000 0.139818
#
#
# Mechanical properties :
#
#
# Convention : Reuss Voigt Hill
#
# Bulk Modulus (GPa) = 41.83038 62.99440 52.41239
# Shear Modulus (GPa) = 11.64859 28.24598 19.94728
#
# Velocity S-wave (km/s) = 2.43265 3.78810 3.18335
# Velocity P-wave (km/s) = 5.39827 7.15093 6.33550
#
# Compressibility (1/GPa) = 0.02390607
#
# Stress axis : x y z
#
# Youngs Moduli (GPa) = 85.36180 117.20573 59.20498
#
# Poissons Ratio (x) = 0.32021 -0.00483
# Poissons Ratio (y) = 0.23321 0.23475
# Poissons Ratio (z) = -0.00696 0.46473
#
# Static dielectric constant tensor:
#      x y z
#    x 1.738980 0.000000 -0.025840 
#    y 0.000000 1.733940 0.000000 
#    z -0.025840 0.000000 1.672040 
# 
# From -- ./inp_files/109352.got.cif
#   From: 2010.05.17/outbox.cif.g08.bks.cpg/sg12_55_cif.got.tgz:109352.got - 2010.06.03 13:09:07.
