data_PCOD9181436
_publ_section_title
;
Structure prediction by ZEFSAII (Michael W. Deem and Ramdas Pophale) SiO2 
 PCOD9181436
Probable space group: C 2/M
;
_chemical_formula_sum "Si O2"
_cell_formula_units_Z 64
_cell_length_a 29.015351
_cell_length_b 7.703793
_cell_length_c 12.795743
_cell_angle_alpha 90.000000
_cell_angle_beta 100.081305
_cell_angle_gamma 90.000000
_cell_volume 2816.049492
_symmetry_space_group_name_H-M "C 2/M"
_symmetry_group_IT_number 12
_symmetry_cell_setting 'monoclinic'
loop_
_space_group_symop_operation_xyz
x,y,z
-x,y,-z
-x,-y,-z
x,-y,z
1/2+x,1/2+y,z
1/2-x,1/2+y,-z
1/2-x,1/2-y,-z
1/2+x,1/2-y,z
loop_
_atom_site_type_symbol
_atom_site_label
_atom_site_fract_x
_atom_site_fract_y
_atom_site_fract_z
Si Si1 0.942811 0.207476 0.574785
Si Si2 0.285334 0.208034 0.798042
Si Si3 0.513384 0.799398 0.785402
Si Si4 0.368282 0.296373 0.704576
Si Si5 0.680504 0.706849 0.775593
Si Si6 0.913230 0.795794 0.345653
Si Si7 0.355725 0.788978 0.009041
Si Si8 0.061062 0.299776 0.087984
O O1 0.890694 0.235166 0.600740
O O2 0.942342 0.273454 0.456182
O O3 0.976961 0.288140 0.673929
O O4 0.953913 0.000000 0.581158
O O5 0.314978 0.249693 0.706225
O O6 0.232699 0.277482 0.780777
O O7 0.283069 0.000000 0.807529
O O8 0.317723 0.270146 0.907299
O O9 0.559412 0.720188 0.752502
O O10 0.485681 0.724580 0.875388
O O11 0.523608 0.000000 0.811021
O O12 0.374820 0.500000 0.728466
O O13 0.400625 0.201140 0.802785
O O14 0.682828 0.500000 0.757095
O O15 0.638549 0.779482 0.687965
O O16 0.663045 0.732531 0.886890
O O17 0.908684 0.000000 0.366567
O O18 0.357628 0.000000 0.008048
O O19 0.407703 0.726398 0.994436
O O20 0.050517 0.500000 0.059733
#
# Coordination Sequence:
#
# PCOD9181436 Si02
#       8
#     8   8   8   8   8   8   8   8
#     4   9  18  33  52  73  99 130 161 196 241 290
#     4   9  18  33  51  72  99 129 159 195 245 295
#     4  10  19  32  53  78 100 124 160 203 242 285
#     4   9  16  27  48  76  98 120 157 201 239 280
#     4  10  21  35  50  69  96 132 169 201 236 284
#     4  10  21  36  50  67  98 136 167 197 239 288
#     4   9  17  31  52  74  96 123 156 199 248 291
#     4   8  16  31  49  72 101 127 152 191 245 295
#
# _framework density 22.726873000000001
#
# number of rings (size 3 to 8) (size 9 to 14) (size 15 to 20)
#    0.000    2.750    0.000    2.250    0.000    6.000 
#    0.000    1.250    0.000    3.750    0.000    0.000 
#    0.000    0.000    0.000    0.000    0.000    0.000 
#
# Total GULP energy -178539.066817 kJ/mol
# GULP energy per Si atom -5579.345838 kJ/mol
# Density = 2.267515 g / cm^3
# Si number density = 22.726873 Si / 1000 Ang^3
#
#
#
# Elastic Constant Matrix: (Units=GPa)
#
#
# Indices 1 2 3 4 5 6 
#
# 1 139.3600 1.7137 29.6159 0.0000 -11.7808 0.0000
# 2 1.7137 35.3651 3.9215 0.0000 6.2799 0.0000
# 3 29.6159 3.9215 75.9485 0.0000 -10.3004 0.0000
# 4 0.0000 0.0000 0.0000 18.4361 0.0000 -13.8623
# 5 -11.7808 6.2799 -10.3004 0.0000 30.9734 0.0000
# 6 0.0000 0.0000 0.0000 -13.8623 0.0000 16.2943
#
#
#
# Elastic Compliance Matrix: (Units=1/GPa)
#
#
# Indices 1 2 3 4 5 6 
#
# 1 0.007958 -0.000467 -0.002781 0.000000 0.002197 0.000000
# 2 -0.000467 0.029795 -0.002303 0.000000 -0.006985 0.000000
# 3 -0.002781 -0.002303 0.014965 0.000000 0.004386 0.000000
# 4 0.000000 0.000000 0.000000 0.150541 0.000000 0.128072
# 5 0.002197 -0.006985 0.004386 0.000000 0.035996 0.000000
# 6 0.000000 0.000000 0.000000 0.128072 0.000000 0.170329
#
#
# Mechanical properties :
#
#
# Convention : Reuss Voigt Hill
#
# Bulk Modulus (GPa) = 24.03033 35.68621 29.85827
# Shear Modulus (GPa) = 11.50593 27.50225 19.50409
#
# Velocity S-wave (km/s) = 2.25248 3.48245 2.93267
# Velocity P-wave (km/s) = 4.16670 5.64856 4.96325
#
# Compressibility (1/GPa) = 0.04161407
#
# Stress axis : x y z
#
# Youngs Moduli (GPa) = 125.65736 33.56291 66.82208
#
# Poissons Ratio (x) = 0.01568 0.18585
# Poissons Ratio (y) = 0.05872 0.15392
# Poissons Ratio (z) = 0.34948 0.07731
#
# Static dielectric constant tensor:
#      x y z
#    x 1.900300 0.000000 0.003460 
#    y 0.000000 1.870010 0.000000 
#    z 0.003460 0.000000 1.854020 
# 
# From -- ./inp_files/187526.got.cif
#   From: 2010.05.17/outbox.cif.g08.bks.cpg/sg12_94_cif.got.tgz:187526.got - 2010.06.03 13:09:07.
