data_PCOD9181073
_publ_section_title
;
Structure prediction by ZEFSAII (Michael W. Deem and Ramdas Pophale) SiO2 
 PCOD9181073
Probable space group: C 2/M
;
_chemical_formula_sum "Si O2"
_cell_formula_units_Z 50
_cell_length_a 18.636001
_cell_length_b 17.888321
_cell_length_c 7.139501
_cell_angle_alpha 90.000000
_cell_angle_beta 117.722059
_cell_angle_gamma 90.000000
_cell_volume 2106.874802
_symmetry_space_group_name_H-M "C 2/M"
_symmetry_group_IT_number 12
_symmetry_cell_setting 'monoclinic'
loop_
_space_group_symop_operation_xyz
x,y,z
-x,y,-z
-x,-y,-z
x,-y,z
1/2+x,1/2+y,z
1/2-x,1/2+y,-z
1/2-x,1/2-y,-z
1/2+x,1/2-y,z
loop_
_atom_site_type_symbol
_atom_site_label
_atom_site_fract_x
_atom_site_fract_y
_atom_site_fract_z
Si Si1 0.227017 0.082241 0.701250
Si Si2 0.094755 0.203500 0.581820
Si Si3 0.411261 0.289485 0.867419
Si Si4 0.880751 0.625623 0.369089
Si Si5 0.000000 0.500000 0.500000
Si Si6 0.702977 0.583053 0.218351
Si Si7 0.909362 0.618280 0.855572
O O1 0.167081 0.145029 0.713939
O O2 0.213816 0.084776 0.458453
O O3 0.324626 0.088939 0.836858
O O4 0.201771 0.000000 0.735618
O O5 0.105788 0.213476 0.372798
O O6 0.105840 0.288218 0.669834
O O7 0.000000 0.180625 0.500000
O O8 0.351715 0.346085 0.893383
O O9 0.411152 0.203967 0.928296
O O10 0.500000 0.321634 0.000000
O O11 0.939724 0.566313 0.348020
O O12 0.789508 0.598612 0.233141
O O13 0.897463 0.616270 0.614768
O O14 0.672444 0.500000 0.135751
O O15 0.000000 0.586756 0.000000
#
# Coordination Sequence:
#
# PCOD9181073 Si02
#       7
#     8   8   8   8   2   8   8
#     4   9  18  31  50  77  98 127 172 210 242 290
#     4  10  19  33  54  74 101 136 166 204 252 297
#     4   9  18  32  52  75 100 129 171 208 246 294
#     4  10  19  32  52  76 100 129 167 201 248 302
#     4  12  20  32  50  76 104 128 158 212 240 308
#     4   9  16  29  50  74  97 128 169 214 243 281
#     4   9  18  33  54  75 100 129 163 208 252 293
#
# _framework density 23.731833000000002
#
# number of rings (size 3 to 8) (size 9 to 14) (size 15 to 20)
#    0.000    2.560    1.600    0.960    1.120    4.800 
#    0.000    0.000    3.520    3.840    0.000    0.000 
#    0.000    0.000    0.000    0.000    0.000    0.000 
#
# Total GULP energy -139348.636961 kJ/mol
# GULP energy per Si atom -5573.945478 kJ/mol
# Density = 2.367782 g / cm^3
# Si number density = 23.731833 Si / 1000 Ang^3
#
#
#
# Elastic Constant Matrix: (Units=GPa)
#
#
# Indices 1 2 3 4 5 6 
#
# 1 116.2846 80.5642 21.8011 0.0000 10.9370 0.0000
# 2 80.5642 182.9902 17.3156 0.0000 35.4095 0.0000
# 3 21.8011 17.3156 48.8277 0.0000 -16.0112 0.0000
# 4 0.0000 0.0000 0.0000 183.8806 0.0000 99.0267
# 5 10.9370 35.4095 -16.0112 0.0000 50.9220 0.0000
# 6 0.0000 0.0000 0.0000 99.0267 0.0000 45.2657
#
#
#
# Elastic Compliance Matrix: (Units=1/GPa)
#
#
# Indices 1 2 3 4 5 6 
#
# 1 0.013069 -0.005284 -0.004099 0.000000 -0.000421 0.000000
# 2 -0.005284 0.009285 -0.002986 0.000000 -0.006261 0.000000
# 3 -0.004099 -0.002986 0.027137 0.000000 0.011490 0.000000
# 4 0.000000 0.000000 0.000000 -0.030527 0.000000 0.066784
# 5 -0.000421 -0.006261 0.011490 0.000000 0.027695 0.000000
# 6 0.000000 0.000000 0.000000 0.066784 0.000000 -0.124009
#
#
# Mechanical properties :
#
#
# Convention : Reuss Voigt Hill
#
# Bulk Modulus (GPa) = 40.40196 65.27380 52.83788
# Shear Modulus (GPa) = -112.71500 71.24177 -20.73662
#
# Velocity S-wave (km/s) = -6.89916 5.48495 -2.95920
# Velocity P-wave (km/s) = 6.81199 8.22662 3.26145
#
# Compressibility (1/GPa) = 0.02475128
#
# Stress axis : x y z
#
# Youngs Moduli (GPa) = 76.51790 107.69626 36.84987
#
# Poissons Ratio (x) = 0.56910 0.15106
# Poissons Ratio (y) = 0.40435 0.11005
# Poissons Ratio (z) = 0.31367 0.32163
#
# Static dielectric constant tensor:
#      x y z
#    x 1.840380 0.000000 0.003200 
#    y 0.000000 1.861870 0.000000 
#    z 0.003200 0.000000 2.119730 
# 
# From -- ./inp_files/76063.got.cif
#   From: 2010.05.17/outbox.cif.g08.bks.cpg/sg12_39_cif.got.tgz:76063.got - 2010.06.03 13:09:07.
