data_PCOD9181083
_publ_section_title
;
Structure prediction by ZEFSAII (Michael W. Deem and Ramdas Pophale) SiO2 
 PCOD9181083
Probable space group: C 2/M
;
_chemical_formula_sum "Si O2"
_cell_formula_units_Z 58
_cell_length_a 14.929914
_cell_length_b 7.676227
_cell_length_c 21.021540
_cell_angle_alpha 90.000000
_cell_angle_beta 87.024312
_cell_angle_gamma 90.000000
_cell_volume 2405.933773
_symmetry_space_group_name_H-M "C 2/M"
_symmetry_group_IT_number 12
_symmetry_cell_setting 'monoclinic'
loop_
_space_group_symop_operation_xyz
x,y,z
-x,y,-z
-x,-y,-z
x,-y,z
1/2+x,1/2+y,z
1/2-x,1/2+y,-z
1/2-x,1/2-y,-z
1/2+x,1/2-y,z
loop_
_atom_site_type_symbol
_atom_site_label
_atom_site_fract_x
_atom_site_fract_y
_atom_site_fract_z
Si Si1 0.556613 0.202398 0.653128
Si Si2 0.257690 0.298827 0.402396
Si Si3 0.500000 0.500000 0.000000
Si Si4 0.808028 0.211309 0.735586
Si Si5 0.879331 0.291645 0.214314
Si Si6 0.427245 0.213952 0.554786
Si Si7 0.832360 0.811633 0.955325
Si Si8 0.062107 0.210476 0.164870
O O1 0.646013 0.208706 0.605744
O O2 0.585078 0.282079 0.719156
O O3 0.472569 0.277767 0.618786
O O4 0.536536 0.000000 0.664633
O O5 0.273911 0.500000 0.416820
O O6 0.215540 0.286523 0.332395
O O7 0.175517 0.227544 0.447798
O O8 0.579463 0.352809 0.006306
O O9 0.724058 0.261004 0.784672
O O10 0.897502 0.267762 0.768764
O O11 0.809318 0.000000 0.728746
O O12 0.877202 0.500000 0.218783
O O13 0.956808 0.247859 0.161922
O O14 0.500000 0.266120 0.500000
O O15 0.424554 0.000000 0.555351
O O16 0.874139 0.716371 0.892671
O O17 0.799645 0.000000 0.930858
O O18 0.750000 0.750000 0.000000
O O19 0.066995 0.000000 0.161681
#
# Coordination Sequence:
#
# PCOD9181083 Si02
#       8
#     8   8   2   8   8   8   8   8
#     4   9  18  34  53  71 100 142 172 212 267 323
#     4  10  19  32  52  76 101 131 174 215 262 321
#     4   8  20  40  62  82 120 148 190 248 278 326
#     4   9  19  35  52  73 105 140 168 209 263 319
#     4   9  18  32  50  75 107 136 174 213 261 330
#     4   9  18  32  50  72  98 133 176 218 264 316
#     4   9  20  39  60  83 117 155 194 238 286 336
#     4  10  20  34  53  80 109 137 176 221 265 313
#
# _framework density 24.107064000000001
#
# number of rings (size 3 to 8) (size 9 to 14) (size 15 to 20)
#    0.414    2.345    0.000    2.069    0.000    6.069 
#    0.000    1.724    0.000    2.897    0.000    0.000 
#    0.000    0.000    0.000    0.000    0.000    0.000 
#
# Total GULP energy -161443.247345 kJ/mol
# GULP energy per Si atom -5567.008529 kJ/mol
# Density = 2.405220 g / cm^3
# Si number density = 24.107064 Si / 1000 Ang^3
#
#
#
# Elastic Constant Matrix: (Units=GPa)
#
#
# Indices 1 2 3 4 5 6 
#
# 1 136.9585 -0.6045 21.7917 0.0000 -14.9697 0.0000
# 2 -0.6045 47.9642 -0.6361 0.0000 0.4621 0.0000
# 3 21.7917 -0.6361 51.4454 0.0000 -24.5041 0.0000
# 4 0.0000 0.0000 0.0000 13.9785 0.0000 -6.5597
# 5 -14.9697 0.4621 -24.5041 0.0000 32.9398 0.0000
# 6 0.0000 0.0000 0.0000 -6.5597 0.0000 21.2697
#
#
#
# Elastic Compliance Matrix: (Units=1/GPa)
#
#
# Indices 1 2 3 4 5 6 
#
# 1 0.007890 0.000049 -0.002531 0.000000 0.001703 0.000000
# 2 0.000049 0.020853 0.000168 0.000000 -0.000145 0.000000
# 3 -0.002531 0.000168 0.030919 0.000000 0.021848 0.000000
# 4 0.000000 0.000000 0.000000 0.083644 0.000000 0.025796
# 5 0.001703 -0.000145 0.021848 0.000000 0.047387 0.000000
# 6 0.000000 0.000000 0.000000 0.025796 0.000000 0.054971
#
#
# Mechanical properties :
#
#
# Convention : Reuss Voigt Hill
#
# Bulk Modulus (GPa) = 18.17026 30.83004 24.50015
# Shear Modulus (GPa) = 18.61255 28.02539 23.31897
#
# Velocity S-wave (km/s) = 2.78164 3.41330 3.11353
# Velocity P-wave (km/s) = 4.22734 5.32454 4.80735
#
# Compressibility (1/GPa) = 0.05503499
#
# Stress axis : x y z
#
# Youngs Moduli (GPa) = 126.73528 47.95445 32.34291
#
# Poissons Ratio (x) = -0.00237 0.08185
# Poissons Ratio (y) = -0.00627 -0.00542
# Poissons Ratio (z) = 0.32074 -0.00804
#
# Static dielectric constant tensor:
#      x y z
#    x 1.899750 0.000000 -0.026820 
#    y 0.000000 1.903500 0.000000 
#    z -0.026820 0.000000 2.034500 
# 
# From -- ./inp_files/337942.got.cif
#   From: 2010.05.17/outbox.cif.g08.bks.cpg/sg12_169_cif.got.tgz:337942.got - 2010.06.03 13:09:07.
