data_PCOD9181205
_publ_section_title
;
Structure prediction by ZEFSAII (Michael W. Deem and Ramdas Pophale) SiO2 
 PCOD9181205
Probable space group: C 2/M
;
_chemical_formula_sum "Si O2"
_cell_formula_units_Z 64
_cell_length_a 14.900406
_cell_length_b 7.666619
_cell_length_c 31.501258
_cell_angle_alpha 90.000000
_cell_angle_beta 56.661733
_cell_angle_gamma 90.000000
_cell_volume 3006.390573
_symmetry_space_group_name_H-M "C 2/M"
_symmetry_group_IT_number 12
_symmetry_cell_setting 'monoclinic'
loop_
_space_group_symop_operation_xyz
x,y,z
-x,y,-z
-x,-y,-z
x,-y,z
1/2+x,1/2+y,z
1/2-x,1/2+y,-z
1/2-x,1/2-y,-z
1/2+x,1/2-y,z
loop_
_atom_site_type_symbol
_atom_site_label
_atom_site_fract_x
_atom_site_fract_y
_atom_site_fract_z
Si Si1 0.486051 0.786320 0.366221
Si Si2 0.961499 0.295558 0.554633
Si Si3 0.306046 0.293552 0.173706
Si Si4 0.385652 0.206668 0.015062
Si Si5 0.782653 0.706347 0.363830
Si Si6 0.463856 0.289804 0.906258
Si Si7 0.809721 0.210286 0.876603
Si Si8 0.270986 0.211131 0.716191
O O1 0.485855 0.725990 0.415477
O O2 0.385366 0.728191 0.363851
O O3 0.603890 0.733385 0.318633
O O4 0.485219 0.000000 0.366285
O O5 0.990522 0.500000 0.546501
O O6 0.832617 0.282729 0.592470
O O7 0.000000 0.217656 0.500000
O O8 0.323797 0.500000 0.174111
O O9 0.414229 0.223118 0.123252
O O10 0.209406 0.269009 0.166090
O O11 0.282067 0.223226 0.226593
O O12 0.287645 0.276854 0.068095
O O13 0.386687 0.000000 0.022979
O O14 0.500000 0.282481 0.000000
O O15 0.387263 0.229986 0.964174
O O16 0.775798 0.500000 0.372916
O O17 0.788558 0.736785 0.311668
O O18 0.462664 0.500000 0.909334
O O19 0.416900 0.236609 0.873031
O O20 0.807688 0.000000 0.876875
O O21 0.271377 0.000000 0.716951
#
# Coordination Sequence:
#
# PCOD9181205 Si02
#       8
#     8   8   8   8   8   8   8   8
#     4   8  16  32  52  73 101 136 171 209 252 298
#     4   9  18  34  54  76 107 147 180 205 246 304
#     4  10  21  36  54  76 100 129 167 209 253 303
#     4  10  19  33  53  74  98 132 169 202 245 305
#     4  10  19  32  52  78 104 132 171 217 259 292
#     4  10  21  35  52  76 103 130 163 207 256 300
#     4  10  21  36  52  73 103 133 162 204 255 305
#     4   9  19  37  55  71  99 136 171 208 252 308
#
# _framework density 21.287984000000002
#
# number of rings (size 3 to 8) (size 9 to 14) (size 15 to 20)
#    0.000    2.500    1.250    1.500    0.000    3.500 
#    0.000    5.000    0.000    0.000    0.000    0.000 
#    0.000    0.000    0.000    0.000    0.000    0.000 
#
# Total GULP energy -178520.432408 kJ/mol
# GULP energy per Si atom -5578.763513 kJ/mol
# Density = 2.123953 g / cm^3
# Si number density = 21.287984 Si / 1000 Ang^3
#
#
#
# Elastic Constant Matrix: (Units=GPa)
#
#
# Indices 1 2 3 4 5 6 
#
# 1 123.4185 -9.2393 32.2871 0.0001 27.0507 0.0001
# 2 -9.2393 29.4808 -4.7057 0.0002 -0.8735 0.0001
# 3 32.2871 -4.7057 103.7087 0.0000 28.4484 0.0000
# 4 0.0001 0.0002 0.0000 12.5689 0.0001 5.9529
# 5 27.0507 -0.8735 28.4484 0.0001 19.9391 0.0001
# 6 0.0001 0.0001 0.0000 5.9529 0.0001 15.3236
#
#
#
# Elastic Compliance Matrix: (Units=1/GPa)
#
#
# Indices 1 2 3 4 5 6 
#
# 1 0.011951 0.003432 0.001382 0.000000 -0.018035 0.000000
# 2 0.003432 0.035170 0.002270 0.000000 -0.006354 0.000000
# 3 0.001382 0.002270 0.016106 0.000000 -0.024755 0.000000
# 4 0.000000 0.000000 0.000000 0.097501 0.000000 -0.037877
# 5 -0.018035 -0.006354 -0.024755 0.000000 0.109661 0.000000
# 6 0.000000 0.000000 0.000000 -0.037877 0.000000 0.079973
#
#
# Mechanical properties :
#
#
# Convention : Reuss Voigt Hill
#
# Bulk Modulus (GPa) = 12.92070 32.58804 22.75437
# Shear Modulus (GPa) = 13.81249 25.45071 19.63160
#
# Velocity S-wave (km/s) = 2.55000 3.46141 3.04005
# Velocity P-wave (km/s) = 3.84092 5.59612 4.79944
#
# Compressibility (1/GPa) = 0.07739518
#
# Stress axis : x y z
#
# Youngs Moduli (GPa) = 83.67743 28.43331 62.09034
#
# Poissons Ratio (x) = -0.09757 -0.08583
# Poissons Ratio (y) = -0.28715 -0.14098
# Poissons Ratio (z) = -0.11567 -0.06456
#
# Static dielectric constant tensor:
#      x y z
#    x 1.778030 0.000000 0.012110 
#    y 0.000000 1.797410 0.000000 
#    z 0.012110 0.000000 1.772870 
# 
# From -- ./inp_files/375038.got.cif
#   From: 2010.05.17/outbox.cif.g08.bks.cpg/sg12_188_cif.got.tgz:375038.got - 2010.06.03 13:09:07.
