data_PCOD9181550
_publ_section_title
;
Structure prediction by ZEFSAII (Michael W. Deem and Ramdas Pophale) SiO2 
 PCOD9181550
Probable space group: C 2/M
;
_chemical_formula_sum "Si O2"
_cell_formula_units_Z 64
_cell_length_a 20.986854
_cell_length_b 7.592702
_cell_length_c 21.808233
_cell_angle_alpha 90.000000
_cell_angle_beta 130.482109
_cell_angle_gamma 90.000000
_cell_volume 2643.172314
_symmetry_space_group_name_H-M "C 2/M"
_symmetry_group_IT_number 12
_symmetry_cell_setting 'monoclinic'
loop_
_space_group_symop_operation_xyz
x,y,z
-x,y,-z
-x,-y,-z
x,-y,z
1/2+x,1/2+y,z
1/2-x,1/2+y,-z
1/2-x,1/2-y,-z
1/2+x,1/2-y,z
loop_
_atom_site_type_symbol
_atom_site_label
_atom_site_fract_x
_atom_site_fract_y
_atom_site_fract_z
Si Si1 0.576798 0.714630 0.360108
Si Si2 0.593590 0.209864 0.550181
Si Si3 0.325943 0.206747 0.756310
Si Si4 0.166824 0.206717 0.984771
Si Si5 0.749689 0.202853 0.579183
Si Si6 0.746806 0.211066 0.162014
Si Si7 0.000650 0.213212 0.181194
Si Si8 0.587508 0.287920 0.682284
O O1 0.581576 0.500000 0.365191
O O2 0.674312 0.775699 0.416204
O O3 0.530757 0.767778 0.267832
O O4 0.507808 0.776789 0.366666
O O5 0.500000 0.285654 0.500000
O O6 0.658592 0.284036 0.540097
O O7 0.624502 0.236542 0.639343
O O8 0.587917 0.000000 0.535819
O O9 0.292140 0.296005 0.673527
O O10 0.292614 0.277544 0.799522
O O11 0.425366 0.228513 0.817169
O O12 0.303880 0.000000 0.736877
O O13 0.188772 0.250597 0.068261
O O14 0.153644 0.000000 0.974555
O O15 0.250000 0.250000 0.000000
O O16 0.086421 0.283486 0.899724
O O17 0.737651 0.000000 0.554829
O O18 0.844509 0.269659 0.224132
O O19 0.750748 0.000000 0.167916
O O20 0.998489 0.000000 0.182854
O O21 0.582353 0.500000 0.681178
#
# Coordination Sequence:
#
# PCOD9181550 Si02
#       8
#     8   8   8   8   8   8   8   8
#     4   8  15  30  55  78  98 136 181 220 261 308
#     4  10  21  36  55  80 111 144 176 218 271 325
#     4  10  19  32  53  80 106 135 175 225 274 316
#     4  11  23  37  54  75 104 143 185 229 276 327
#     4   9  17  33  55  77 106 143 182 218 262 329
#     4  10  21  35  52  76 108 141 175 224 279 326
#     4   9  19  36  54  74 105 144 183 219 266 326
#     4  10  19  35  57  80 107 138 180 226 268 323
#
# _framework density 24.213328000000001
#
# number of rings (size 3 to 8) (size 9 to 14) (size 15 to 20)
#    0.000    2.375    1.250    2.250    0.000    5.250 
#    0.000    5.625    0.000    0.000    0.000    0.000 
#    0.000    0.000    0.000    0.000    0.000    0.000 
#
# Total GULP energy -178677.145063 kJ/mol
# GULP energy per Si atom -5583.660783 kJ/mol
# Density = 2.415822 g / cm^3
# Si number density = 24.213328 Si / 1000 Ang^3
#
#
#
# Elastic Constant Matrix: (Units=GPa)
#
#
# Indices 1 2 3 4 5 6 
#
# 1 184.8166 8.7713 39.8990 0.0000 18.0387 0.0000
# 2 8.7713 61.3159 20.9992 0.0000 1.8359 0.0000
# 3 39.8990 20.9992 102.0475 0.0000 21.9849 0.0000
# 4 0.0000 0.0000 0.0000 25.3098 0.0000 -5.6213
# 5 18.0387 1.8359 21.9849 0.0000 45.6542 0.0000
# 6 0.0000 0.0000 0.0000 -5.6213 0.0000 17.2768
#
#
#
# Elastic Compliance Matrix: (Units=1/GPa)
#
#
# Indices 1 2 3 4 5 6 
#
# 1 0.005988 -0.000124 -0.002016 0.000000 -0.001390 0.000000
# 2 -0.000124 0.017603 -0.003829 0.000000 0.001185 0.000000
# 3 -0.002016 -0.003829 0.012464 0.000000 -0.005051 0.000000
# 4 0.000000 0.000000 0.000000 0.042588 0.000000 0.013857
# 5 -0.001390 0.001185 -0.005051 0.000000 0.024838 0.000000
# 6 0.000000 0.000000 0.000000 0.013857 0.000000 0.062390
#
#
# Mechanical properties :
#
#
# Convention : Reuss Voigt Hill
#
# Bulk Modulus (GPa) = 41.46760 54.16877 47.81819
# Shear Modulus (GPa) = 26.90393 36.21552 31.55972
#
# Velocity S-wave (km/s) = 3.33696 3.87160 3.61418
# Velocity P-wave (km/s) = 5.65776 6.51197 6.09984
#
# Compressibility (1/GPa) = 0.02411521
#
# Stress axis : x y z
#
# Youngs Moduli (GPa) = 167.01283 56.80975 80.23273
#
# Poissons Ratio (x) = 0.00707 0.16175
# Poissons Ratio (y) = 0.02079 0.30720
# Poissons Ratio (z) = 0.33669 0.21752
#
# Static dielectric constant tensor:
#      x y z
#    x 1.967530 0.000000 0.032410 
#    y 0.000000 1.902850 0.000000 
#    z 0.032410 0.000000 2.015400 
# 
# From -- ./inp_files/346219.got.cif
#   From: 2010.05.17/outbox.cif.g08.bks.cpg/sg12_174_cif.got.tgz:346219.got - 2010.06.03 13:09:07.
