data_PCOD9181699
_publ_section_title
;
Structure prediction by ZEFSAII (Michael W. Deem and Ramdas Pophale) SiO2 
 PCOD9181699
Probable space group: C 2/M
;
_chemical_formula_sum "Si O2"
_cell_formula_units_Z 42
_cell_length_a 20.049717
_cell_length_b 14.584185
_cell_length_c 14.938212
_cell_angle_alpha 90.000000
_cell_angle_beta 155.076720
_cell_angle_gamma 90.000000
_cell_volume 1840.721207
_symmetry_space_group_name_H-M "C 2/M"
_symmetry_group_IT_number 12
_symmetry_cell_setting 'monoclinic'
loop_
_space_group_symop_operation_xyz
x,y,z
-x,y,-z
-x,-y,-z
x,-y,z
1/2+x,1/2+y,z
1/2-x,1/2+y,-z
1/2-x,1/2-y,-z
1/2+x,1/2-y,z
loop_
_atom_site_type_symbol
_atom_site_label
_atom_site_fract_x
_atom_site_fract_y
_atom_site_fract_z
Si Si1 0.593447 0.775111 0.526773
Si Si2 0.743455 0.400009 0.643019
Si Si3 0.000000 0.000000 0.000000
Si Si4 0.054802 0.637596 0.931095
Si Si5 0.893029 0.849432 0.997267
Si Si6 0.692417 0.854653 0.915823
O O1 0.500000 0.736684 0.500000
O O2 0.635001 0.690092 0.513144
O O3 0.745521 0.826754 0.750928
O O4 0.476866 0.846446 0.338583
O O5 0.664988 0.500000 0.547463
O O6 0.877392 0.397463 0.729424
O O7 0.843745 0.387937 0.857635
O O8 0.996757 0.919887 0.918276
O O9 0.154632 0.606001 0.966799
O O10 0.037718 0.748075 0.903922
O O11 0.818017 0.890275 0.996878
O O12 0.750000 0.750000 0.000000
#
# Coordination Sequence:
#
# PCOD9181699 Si02
#       6
#     8   8   2   8   8   8
#     4   9  18  35  57  79 106 144 191 224 269 338
#     4  10  19  32  53  85 110 144 181 227 283 326
#     4  12  20  36  58  80 114 138 186 236 280 332
#     4   9  17  34  58  78 110 149 189 219 272 340
#     4   9  19  34  57  83 104 147 187 226 274 329
#     4   9  18  35  59  78 102 143 191 228 269 328
#
# _framework density 22.817143999999999
#
# number of rings (size 3 to 8) (size 9 to 14) (size 15 to 20)
#    0.000    2.667    0.000    4.571    0.000    1.143 
#    3.429    4.286   16.762    0.000    0.000    0.000 
#    0.000    0.000    0.000    0.000    0.000    0.000 
#
# Total GULP energy -116932.046066 kJ/mol
# GULP energy per Si atom -5568.192670 kJ/mol
# Density = 2.276521 g / cm^3
# Si number density = 22.817144 Si / 1000 Ang^3
#
#
#
# Elastic Constant Matrix: (Units=GPa)
#
#
# Indices 1 2 3 4 5 6 
#
# 1 148.7876 30.3690 -12.3065 0.0000 -8.7616 -0.0001
# 2 30.3690 100.1032 -9.7315 0.0000 0.0337 0.0000
# 3 -12.3065 -9.7315 26.6348 0.0000 -2.0698 -0.0001
# 4 0.0000 0.0000 0.0000 -5.5744 0.0000 -1.3375
# 5 -8.7616 0.0337 -2.0698 0.0000 17.0749 -0.0001
# 6 -0.0001 0.0000 -0.0001 -1.3375 -0.0001 -41.8667
#
#
#
# Elastic Compliance Matrix: (Units=1/GPa)
#
#
# Indices 1 2 3 4 5 6 
#
# 1 0.007645 -0.002016 0.003130 0.000000 0.004306 0.000000
# 2 -0.002016 0.010893 0.002994 0.000000 -0.000693 0.000000
# 3 0.003130 0.002994 0.040592 0.000000 0.006521 0.000000
# 4 0.000000 0.000000 0.000000 -0.180779 0.000000 0.005775
# 5 0.004306 -0.000693 0.006521 0.000000 0.061567 0.000000
# 6 0.000000 0.000000 0.000000 0.005775 0.000000 -0.024070
#
#
# Mechanical properties :
#
#
# Convention : Reuss Voigt Hill
#
# Bulk Modulus (GPa) = 14.84871 32.46529 23.65700
# Shear Modulus (GPa) = -71.51106 11.73974 -29.88566
#
# Velocity S-wave (km/s) = -5.60437 2.27075 -3.62303
# Velocity P-wave (km/s) = 5.94616 4.59722 2.66668
#
# Compressibility (1/GPa) = 0.06734591
#
# Stress axis : x y z
#
# Youngs Moduli (GPa) = 130.80329 91.80399 24.63542
#
# Poissons Ratio (x) = 0.18512 -0.07712
# Poissons Ratio (y) = 0.26376 -0.07377
# Poissons Ratio (z) = -0.40945 -0.27489
#
# Static dielectric constant tensor:
#      x y z
#    x 1.898120 0.000000 -0.008370 
#    y 0.000000 1.757100 0.000000 
#    z -0.008370 0.000000 1.893910 
# 
# From -- ./inp_files/73256.got.cif
#   From: 2010.05.17/outbox.cif.g08.bks.cpg/sg12_37_cif.got.tgz:73256.got - 2010.06.03 13:09:07.
