data_PCOD9181826
_publ_section_title
;
Structure prediction by ZEFSAII (Michael W. Deem and Ramdas Pophale) SiO2 
 PCOD9181826
Probable space group: C 2/M
;
_chemical_formula_sum "Si O2"
_cell_formula_units_Z 64
_cell_length_a 20.707917
_cell_length_b 8.613192
_cell_length_c 21.187641
_cell_angle_alpha 90.000000
_cell_angle_beta 105.935053
_cell_angle_gamma 90.000000
_cell_volume 3633.838707
_symmetry_space_group_name_H-M "C 2/M"
_symmetry_group_IT_number 12
_symmetry_cell_setting 'monoclinic'
loop_
_space_group_symop_operation_xyz
x,y,z
-x,y,-z
-x,-y,-z
x,-y,z
1/2+x,1/2+y,z
1/2-x,1/2+y,-z
1/2-x,1/2-y,-z
1/2+x,1/2-y,z
loop_
_atom_site_type_symbol
_atom_site_label
_atom_site_fract_x
_atom_site_fract_y
_atom_site_fract_z
Si Si1 0.070837 0.312969 0.196015
Si Si2 0.423830 0.312775 0.661442
Si Si3 0.709326 0.187644 0.179203
Si Si4 0.424920 0.313559 0.303001
Si Si5 0.715372 0.313682 0.928140
Si Si6 0.792489 0.313955 0.320638
Si Si7 0.419722 0.813424 0.159538
Si Si8 0.716458 0.687399 0.427988
O O1 0.071430 0.500000 0.199463
O O2 0.084811 0.249118 0.269808
O O3 0.131680 0.264314 0.167163
O O4 0.994892 0.266621 0.158115
O O5 0.422464 0.500000 0.664047
O O6 0.498619 0.267374 0.659632
O O7 0.360855 0.261484 0.602687
O O8 0.743030 0.237927 0.122888
O O9 0.750638 0.250565 0.249889
O O10 0.712392 0.000000 0.181984
O O11 0.420399 0.500000 0.300416
O O12 0.368080 0.246838 0.333068
O O13 0.411732 0.250610 0.228687
O O14 0.715037 0.500000 0.929371
O O15 0.639832 0.252802 0.898648
O O16 0.750000 0.250000 0.000000
O O17 0.791946 0.500000 0.317994
O O18 0.757604 0.264249 0.376504
O O19 0.415764 0.000000 0.160113
O O20 0.717115 0.500000 0.430260
O O21 0.750000 0.750000 0.500000
#
# Coordination Sequence:
#
# PCOD9181826 Si02
#       8
#     8   8   8   8   8   8   8   8
#     4   9  18  32  54  83 109 137 177 224 271 319
#     4   9  18  34  53  77 109 142 179 221 268 321
#     4  10  20  35  56  82 109 140 183 225 268 322
#     4  10  19  32  54  81 109 141 178 223 270 320
#     4  11  23  38  56  79 110 148 187 225 273 329
#     4  11  21  34  55  82 111 140 180 229 274 319
#     4  10  19  33  54  81 112 142 176 221 272 323
#     4  10  22  38  55  79 109 146 184 223 273 327
#
# _framework density 17.612228999999999
#
# number of rings (size 3 to 8) (size 9 to 14) (size 15 to 20)
#    0.000    2.000    2.500    1.500    0.000    3.000 
#    0.000    1.250    0.000    7.500    0.000    0.000 
#    0.000    0.000    0.000    0.000    0.000    0.000 
#
# Total GULP energy -178567.081520 kJ/mol
# GULP energy per Si atom -5580.221297 kJ/mol
# Density = 1.757214 g / cm^3
# Si number density = 17.612229 Si / 1000 Ang^3
#
#
#
# Elastic Constant Matrix: (Units=GPa)
#
#
# Indices 1 2 3 4 5 6 
#
# 1 152.1093 29.3129 86.4100 0.0000 19.7512 0.0000
# 2 29.3129 19.9333 26.4049 0.0000 2.1992 0.0000
# 3 86.4100 26.4049 139.5582 0.0000 17.5769 0.0000
# 4 0.0000 0.0000 0.0000 28.9628 0.0000 1.9067
# 5 19.7512 2.1992 17.5769 0.0000 29.8131 0.0000
# 6 0.0000 0.0000 0.0000 1.9067 0.0000 23.4122
#
#
#
# Elastic Compliance Matrix: (Units=1/GPa)
#
#
# Indices 1 2 3 4 5 6 
#
# 1 0.011928 -0.010674 -0.004829 0.000000 -0.004268 0.000000
# 2 -0.010674 0.076705 -0.008730 0.000000 0.006560 0.000000
# 3 -0.004829 -0.008730 0.012231 0.000000 -0.003368 0.000000
# 4 0.000000 0.000000 0.000000 0.034713 0.000000 -0.002827
# 5 -0.004268 0.006560 -0.003368 0.000000 0.037872 0.000000
# 6 0.000000 0.000000 0.000000 -0.002827 0.000000 0.042943
#
#
# Mechanical properties :
#
#
# Convention : Reuss Voigt Hill
#
# Bulk Modulus (GPa) = 19.08437 66.20626 42.64531
# Shear Modulus (GPa) = 17.71014 27.73583 22.72299
#
# Velocity S-wave (km/s) = 3.17450 3.97269 3.59581
# Velocity P-wave (km/s) = 4.92909 7.66261 6.44250
#
# Compressibility (1/GPa) = 0.05239890
#
# Stress axis : x y z
#
# Youngs Moduli (GPa) = 83.83287 13.03701 81.75907
#
# Poissons Ratio (x) = 0.13916 0.39478
# Poissons Ratio (y) = 0.89486 0.71374
# Poissons Ratio (z) = 0.40479 0.11381
#
# Static dielectric constant tensor:
#      x y z
#    x 1.634190 0.000000 0.017840 
#    y 0.000000 1.600450 0.000000 
#    z 0.017840 0.000000 1.556510 
# 
# From -- ./inp_files/320041.got.cif
#   From: 2010.05.17/outbox.cif.g08.bks.cpg/sg12_161_cif.got.tgz:320041.got - 2010.06.03 13:09:07.
