data_PCOD9181527
_publ_section_title
;
Structure prediction by ZEFSAII (Michael W. Deem and Ramdas Pophale) SiO2 
 PCOD9181527
Probable space group: C 2/M
;
_chemical_formula_sum "Si O2"
_cell_formula_units_Z 64
_cell_length_a 28.994082
_cell_length_b 7.514769
_cell_length_c 13.302555
_cell_angle_alpha 90.000000
_cell_angle_beta 94.183688
_cell_angle_gamma 90.000000
_cell_volume 2890.688180
_symmetry_space_group_name_H-M "C 2/M"
_symmetry_group_IT_number 12
_symmetry_cell_setting 'monoclinic'
loop_
_space_group_symop_operation_xyz
x,y,z
-x,y,-z
-x,-y,-z
x,-y,z
1/2+x,1/2+y,z
1/2-x,1/2+y,-z
1/2-x,1/2-y,-z
1/2+x,1/2-y,z
loop_
_atom_site_type_symbol
_atom_site_label
_atom_site_fract_x
_atom_site_fract_y
_atom_site_fract_z
Si Si1 0.202236 0.783990 0.730019
Si Si2 0.106998 0.206297 0.035146
Si Si3 0.218626 0.287273 0.397438
Si Si4 0.198476 0.213013 0.956341
Si Si5 0.105233 0.292871 0.626808
Si Si6 0.613300 0.219496 0.406953
Si Si7 0.555129 0.217124 0.820164
Si Si8 0.049054 0.295364 0.217296
O O1 0.251102 0.723316 0.692458
O O2 0.193316 0.720273 0.841610
O O3 0.160093 0.722209 0.654200
O O4 0.201874 0.000000 0.729955
O O5 0.158206 0.281975 0.022659
O O6 0.080738 0.219526 0.924514
O O7 0.110885 0.000000 0.064694
O O8 0.078046 0.293007 0.119293
O O9 0.215115 0.500000 0.387675
O O10 0.250000 0.250000 0.500000
O O11 0.166316 0.220500 0.398445
O O12 0.192129 0.000000 0.951448
O O13 0.250000 0.250000 0.000000
O O14 0.092029 0.500000 0.621758
O O15 0.096184 0.220593 0.514182
O O16 0.080416 0.219696 0.722240
O O17 0.579963 0.280451 0.312250
O O18 0.614216 0.000000 0.407697
O O19 0.502009 0.279316 0.808972
O O20 0.557033 0.000000 0.824679
O O21 0.040629 0.500000 0.245200
#
# Coordination Sequence:
#
# PCOD9181527 Si02
#       8
#     8   8   8   8   8   8   8   8
#     4  10  20  35  54  79 111 146 184 226 276 334
#     4  11  23  40  60  84 114 149 189 233 282 339
#     4  10  19  32  53  79 107 142 181 218 265 327
#     4  10  23  39  56  82 113 146 185 227 277 334
#     4  10  19  34  58  84 112 146 188 231 276 333
#     4   9  19  35  55  82 114 147 182 227 281 331
#     4  10  21  37  60  88 110 142 192 239 284 336
#     4  10  22  39  59  83 114 149 188 236 287 337
#
# _framework density 22.140056000000001
#
# number of rings (size 3 to 8) (size 9 to 14) (size 15 to 20)
#    0.000    2.000    2.500    0.750    1.750    4.000 
#    0.000    3.750    0.000    0.000    0.000    2.625 
#    0.000    0.000    0.000    0.000    0.000    0.000 
#
# Total GULP energy -178780.727467 kJ/mol
# GULP energy per Si atom -5586.897733 kJ/mol
# Density = 2.208966 g / cm^3
# Si number density = 22.140056 Si / 1000 Ang^3
#
#
#
# Elastic Constant Matrix: (Units=GPa)
#
#
# Indices 1 2 3 4 5 6 
#
# 1 108.3129 -15.3302 48.0781 0.0000 13.1320 0.0000
# 2 -15.3302 56.8621 -13.7532 0.0000 -1.8896 0.0000
# 3 48.0781 -13.7532 112.3702 0.0000 -7.5324 0.0000
# 4 0.0000 0.0000 0.0000 -11.2675 0.0000 9.7203
# 5 13.1320 -1.8896 -7.5324 0.0000 29.1069 0.0000
# 6 0.0000 0.0000 0.0000 9.7203 0.0000 11.9130
#
#
#
# Elastic Compliance Matrix: (Units=1/GPa)
#
#
# Indices 1 2 3 4 5 6 
#
# 1 0.012941 0.001848 -0.005795 0.000000 -0.007218 0.000000
# 2 0.001848 0.018478 0.001522 0.000000 0.000760 0.000000
# 3 -0.005795 0.001522 0.011954 0.000000 0.005807 0.000000
# 4 0.000000 0.000000 0.000000 -0.052087 0.000000 0.042500
# 5 -0.007218 0.000760 0.005807 0.000000 0.039165 0.000000
# 6 0.000000 0.000000 0.000000 0.042500 0.000000 0.049265
#
#
# Mechanical properties :
#
#
# Convention : Reuss Voigt Hill
#
# Bulk Modulus (GPa) = 25.95862 35.05940 30.50901
# Shear Modulus (GPa) = 51.33082 23.18716 37.25899
#
# Velocity S-wave (km/s) = 4.82026 3.23970 4.10674
# Velocity P-wave (km/s) = 6.53683 5.46479 6.02470
#
# Compressibility (1/GPa) = 0.03852285
#
# Stress axis : x y z
#
# Youngs Moduli (GPa) = 77.27166 54.11874 83.65413
#
# Poissons Ratio (x) = -0.09999 0.48475
# Poissons Ratio (y) = -0.14277 -0.12732
# Poissons Ratio (z) = 0.44777 -0.08237
#
# Static dielectric constant tensor:
#      x y z
#    x 1.797830 0.000000 -0.019730 
#    y 0.000000 1.806700 0.000000 
#    z -0.019730 0.000000 1.788450 
# 
# From -- ./inp_files/238747.got.cif
#   From: 2010.05.17/outbox.cif.g08.bks.cpg/sg12_120_cif.got.tgz:238747.got - 2010.06.03 13:09:07.
