data_PCOD9181687
_publ_section_title
;
Structure prediction by ZEFSAII (Michael W. Deem and Ramdas Pophale) SiO2 
 PCOD9181687
Probable space group: C 2/M
;
_chemical_formula_sum "Si O2"
_cell_formula_units_Z 56
_cell_length_a 18.379901
_cell_length_b 13.859076
_cell_length_c 15.941810
_cell_angle_alpha 90.000000
_cell_angle_beta 132.842231
_cell_angle_gamma 90.000000
_cell_volume 2977.519600
_symmetry_space_group_name_H-M "C 2/M"
_symmetry_group_IT_number 12
_symmetry_cell_setting 'monoclinic'
loop_
_space_group_symop_operation_xyz
x,y,z
-x,y,-z
-x,-y,-z
x,-y,z
1/2+x,1/2+y,z
1/2-x,1/2+y,-z
1/2-x,1/2-y,-z
1/2+x,1/2-y,z
loop_
_atom_site_type_symbol
_atom_site_label
_atom_site_fract_x
_atom_site_fract_y
_atom_site_fract_z
Si Si1 0.926545 0.270011 0.875611
Si Si2 0.605123 0.885740 0.321317
Si Si3 0.292161 0.251146 0.297995
Si Si4 0.405326 0.394242 0.486687
Si Si5 0.249554 0.387533 0.580545
Si Si6 0.516453 0.612695 0.199715
Si Si7 0.031389 0.754218 0.695058
O O1 0.904950 0.332385 0.775236
O O2 0.817568 0.249109 0.826146
O O3 0.978860 0.172212 0.882925
O O4 0.000000 0.316721 0.000000
O O5 0.702242 0.859721 0.453582
O O6 0.513851 0.843834 0.304187
O O7 0.602451 0.000000 0.308722
O O8 0.316441 0.353891 0.360978
O O9 0.291981 0.174154 0.374051
O O10 0.377650 0.237210 0.296216
O O11 0.500000 0.404958 0.500000
O O12 0.384747 0.500000 0.508491
O O13 0.444145 0.310909 0.577639
O O14 0.223582 0.500000 0.572693
O O15 0.368688 0.379824 0.678308
O O16 0.491228 0.500000 0.173585
O O17 0.448924 0.671995 0.212421
#
# Coordination Sequence:
#
# PCOD9181687 Si02
#       7
#     8   8   8   8   8   8   8
#     4  10  23  40  58  77 103 145 193 232 265 312
#     4  10  21  36  55  78 111 149 183 219 268 323
#     4  10  20  34  55  82 112 141 179 223 270 322
#     4   9  17  28  45  76 114 141 162 199 261 327
#     4   9  18  33  54  82 111 145 181 218 267 325
#     4   9  19  35  58  83 111 140 177 227 277 326
#     4  10  19  32  53  84 116 141 170 216 277 331
#
# _framework density 18.807600999999998
#
# number of rings (size 3 to 8) (size 9 to 14) (size 15 to 20)
#    0.000    2.429    1.429    0.429    2.000    4.000 
#    0.000    4.286    0.000    1.714    0.000    0.000 
#    0.000    0.000    0.000    0.000    0.000    0.000 
#
# Total GULP energy -156114.002768 kJ/mol
# GULP energy per Si atom -5575.500099 kJ/mol
# Density = 1.876479 g / cm^3
# Si number density = 18.807601 Si / 1000 Ang^3
#
#
#
# Elastic Constant Matrix: (Units=GPa)
#
#
# Indices 1 2 3 4 5 6 
#
# 1 92.5555 18.3672 24.6679 0.0000 -6.8653 0.0000
# 2 18.3672 84.0824 15.7974 0.0000 -4.5089 0.0000
# 3 24.6679 15.7974 78.6765 0.0000 2.7520 0.0000
# 4 0.0000 0.0000 0.0000 12.1522 0.0000 -1.9655
# 5 -6.8653 -4.5089 2.7520 0.0000 12.1224 0.0000
# 6 0.0000 0.0000 0.0000 -1.9655 0.0000 9.8351
#
#
#
# Elastic Compliance Matrix: (Units=1/GPa)
#
#
# Indices 1 2 3 4 5 6 
#
# 1 0.012732 -0.001642 -0.003924 0.000000 0.007490 0.000000
# 2 -0.001642 0.012905 -0.002229 0.000000 0.004376 0.000000
# 3 -0.003924 -0.002229 0.014611 0.000000 -0.006369 0.000000
# 4 0.000000 0.000000 0.000000 0.085038 0.000000 0.016995
# 5 0.007490 0.004376 -0.006369 0.000000 0.089808 0.000000
# 6 0.000000 0.000000 0.000000 0.016995 0.000000 0.105073
#
#
# Mechanical properties :
#
#
# Convention : Reuss Voigt Hill
#
# Bulk Modulus (GPa) = 40.55716 41.44215 40.99966
# Shear Modulus (GPa) = 14.53583 19.92072 17.22828
#
# Velocity S-wave (km/s) = 2.78307 3.25804 3.02988
# Velocity P-wave (km/s) = 5.65140 6.01961 5.83841
#
# Compressibility (1/GPa) = 0.02465656
#
# Stress axis : x y z
#
# Youngs Moduli (GPa) = 78.54436 77.48712 68.44144
#
# Poissons Ratio (x) = 0.12725 0.26857
# Poissons Ratio (y) = 0.12899 0.15259
# Poissons Ratio (z) = 0.30821 0.17275
#
# Static dielectric constant tensor:
#      x y z
#    x 1.671910 0.000000 -0.020790 
#    y 0.000000 1.667360 0.000000 
#    z -0.020790 0.000000 1.666190 
# 
# From -- ./inp_files/225361.got.cif
#   From: 2010.05.17/outbox.cif.g08.bks.cpg/sg12_113_cif.got.tgz:225361.got - 2010.06.03 13:09:07.
