data_PCOD9181864
_publ_section_title
;
Structure prediction by ZEFSAII (Michael W. Deem and Ramdas Pophale) SiO2 
 PCOD9181864
Probable space group: C 2/M
;
_chemical_formula_sum "Si O2"
_cell_formula_units_Z 64
_cell_length_a 16.562138
_cell_length_b 7.879179
_cell_length_c 20.004840
_cell_angle_alpha 90.000000
_cell_angle_beta 81.583825
_cell_angle_gamma 90.000000
_cell_volume 2582.439698
_symmetry_space_group_name_H-M "C 2/M"
_symmetry_group_IT_number 12
_symmetry_cell_setting 'monoclinic'
loop_
_space_group_symop_operation_xyz
x,y,z
-x,y,-z
-x,-y,-z
x,-y,z
1/2+x,1/2+y,z
1/2-x,1/2+y,-z
1/2-x,1/2-y,-z
1/2+x,1/2-y,z
loop_
_atom_site_type_symbol
_atom_site_label
_atom_site_fract_x
_atom_site_fract_y
_atom_site_fract_z
Si Si1 0.515426 0.201748 0.790005
Si Si2 0.632137 0.200681 0.665649
Si Si3 0.077682 0.291409 0.532998
Si Si4 0.659887 0.295552 0.038764
Si Si5 0.416490 0.697499 0.082429
Si Si6 0.739588 0.706962 0.159528
Si Si7 0.129884 0.801567 0.288711
Si Si8 0.804651 0.305716 0.590850
O O1 0.597781 0.261860 0.740724
O O2 0.522339 0.241685 0.867616
O O3 0.444553 0.279442 0.753193
O O4 0.507312 0.000000 0.786886
O O5 0.580928 0.269306 0.608627
O O6 0.725146 0.223590 0.632494
O O7 0.618711 0.000000 0.669749
O O8 0.078504 0.500000 0.533070
O O9 0.157144 0.234015 0.481533
O O10 0.000000 0.236844 0.500000
O O11 0.651660 0.500000 0.040881
O O12 0.670206 0.239122 0.113961
O O13 0.750000 0.250000 0.000000
O O14 0.595578 0.229176 0.991399
O O15 0.433946 0.500000 0.072094
O O16 0.326329 0.723408 0.125620
O O17 0.745448 0.500000 0.157878
O O18 0.708072 0.757898 0.235825
O O19 0.126946 0.705229 0.359006
O O20 0.139159 0.000000 0.302878
O O21 0.783912 0.500000 0.581170
#
# Coordination Sequence:
#
# PCOD9181864 Si02
#       8
#     8   8   8   8   8   8   8   8
#     4  11  23  38  56  77 105 143 182 221 268 320
#     4  10  21  38  59  81 108 144 184 223 263 311
#     4   9  18  35  58  82 110 145 182 218 260 312
#     4   8  15  29  50  76 104 135 174 217 261 312
#     4  10  19  32  54  82 109 138 174 220 269 316
#     4   9  18  34  55  78 105 140 180 219 263 317
#     4  11  23  38  56  78 107 142 179 222 270 319
#     4  11  22  36  58  85 111 141 178 221 267 315
#
# _framework density 24.782765999999999
#
# number of rings (size 3 to 8) (size 9 to 14) (size 15 to 20)
#    0.000    2.125    0.000    3.375    0.000    7.500 
#    0.000    1.250    0.000    6.375    0.000    0.000 
#    0.000    0.000    0.000    0.000    0.000    0.000 
#
# Total GULP energy -178814.489239 kJ/mol
# GULP energy per Si atom -5587.952789 kJ/mol
# Density = 2.472636 g / cm^3
# Si number density = 24.782766 Si / 1000 Ang^3
#
#
#
# Elastic Constant Matrix: (Units=GPa)
#
#
# Indices 1 2 3 4 5 6 
#
# 1 79.3512 -7.7427 7.7155 0.0000 16.1605 0.0000
# 2 -7.7427 35.7758 6.2891 0.0000 0.5713 0.0000
# 3 7.7155 6.2891 124.5545 0.0000 7.4319 0.0000
# 4 0.0000 0.0000 0.0000 17.0588 0.0000 9.0191
# 5 16.1605 0.5713 7.4319 0.0000 41.3114 0.0000
# 6 0.0000 0.0000 0.0000 9.0191 0.0000 21.4109
#
#
#
# Elastic Compliance Matrix: (Units=1/GPa)
#
#
# Indices 1 2 3 4 5 6 
#
# 1 0.014096 0.003263 -0.000714 0.000000 -0.005431 0.000000
# 2 0.003263 0.028958 -0.001581 0.000000 -0.001392 0.000000
# 3 -0.000714 -0.001581 0.008223 0.000000 -0.001178 0.000000
# 4 0.000000 0.000000 0.000000 0.075417 0.000000 -0.031768
# 5 -0.005431 -0.001392 -0.001178 0.000000 0.026562 0.000000
# 6 0.000000 0.000000 0.000000 -0.031768 0.000000 0.060087
#
#
# Mechanical properties :
#
#
# Convention : Reuss Voigt Hill
#
# Bulk Modulus (GPa) = 18.79243 28.02281 23.40762
# Shear Modulus (GPa) = 21.82023 31.51754 26.66888
#
# Velocity S-wave (km/s) = 2.97047 3.57003 3.28396
# Velocity P-wave (km/s) = 4.40049 5.32216 4.88312
#
# Compressibility (1/GPa) = 0.05321292
#
# Stress axis : x y z
#
# Youngs Moduli (GPa) = 70.94195 34.53246 121.61054
#
# Poissons Ratio (x) = -0.11268 0.08682
# Poissons Ratio (y) = -0.23148 0.19229
# Poissons Ratio (z) = 0.05064 0.05460
#
# Static dielectric constant tensor:
#      x y z
#    x 2.019220 0.000000 0.004460 
#    y 0.000000 1.886980 0.000000 
#    z 0.004460 0.000000 1.987090 
# 
# From -- ./inp_files/314211.got.cif
#   From: 2010.05.17/outbox.cif.g08.bks.cpg/sg12_158_cif.got.tgz:314211.got - 2010.06.03 13:09:07.
