data_PCOD9181857
_publ_section_title
;
Structure prediction by ZEFSAII (Michael W. Deem and Ramdas Pophale) SiO2 
 PCOD9181857
Probable space group: C 2/M
;
_chemical_formula_sum "Si O2"
_cell_formula_units_Z 56
_cell_length_a 25.068690
_cell_length_b 8.904686
_cell_length_c 13.960265
_cell_angle_alpha 90.000000
_cell_angle_beta 84.175362
_cell_angle_gamma 90.000000
_cell_volume 3100.244257
_symmetry_space_group_name_H-M "C 2/M"
_symmetry_group_IT_number 12
_symmetry_cell_setting 'monoclinic'
loop_
_space_group_symop_operation_xyz
x,y,z
-x,y,-z
-x,-y,-z
x,-y,z
1/2+x,1/2+y,z
1/2-x,1/2+y,-z
1/2-x,1/2-y,-z
1/2+x,1/2-y,z
loop_
_atom_site_type_symbol
_atom_site_label
_atom_site_fract_x
_atom_site_fract_y
_atom_site_fract_z
Si Si1 0.301320 0.320494 0.043668
Si Si2 0.196997 0.678406 0.308969
Si Si3 0.026822 0.821006 0.278585
Si Si4 0.082677 0.680745 0.664053
Si Si5 0.192924 0.319956 0.747245
Si Si6 0.909446 0.680143 0.558311
Si Si7 0.631675 0.320761 0.148441
O O1 0.294453 0.500000 0.053754
O O2 0.307869 0.248110 0.146113
O O3 0.250000 0.250000 0.000000
O O4 0.351174 0.290628 0.963248
O O5 0.204953 0.500000 0.303088
O O6 0.253432 0.759147 0.313011
O O7 0.151424 0.711081 0.396312
O O8 0.171400 0.735676 0.213728
O O9 0.051446 0.759893 0.373780
O O10 0.071314 0.781018 0.190324
O O11 0.968800 0.749889 0.275074
O O12 0.022549 0.000000 0.283349
O O13 0.078915 0.500000 0.667467
O O14 0.138926 0.723882 0.701489
O O15 0.081724 0.726301 0.552508
O O16 0.195565 0.500000 0.752153
O O17 0.917881 0.500000 0.564305
O O18 0.638601 0.500000 0.163773
#
# Coordination Sequence:
#
# PCOD9181857 Si02
#       7
#     8   8   8   8   8   8   8
#     4  11  21  35  58  84 109 140 178 220 270 325
#     4  10  19  32  54  82 108 138 179 225 270 320
#     4  10  20  35  57  84 109 137 179 227 271 318
#     4  10  22  39  55  74 108 152 186 219 268 322
#     4  11  23  37  53  77 112 148 181 221 271 324
#     4   9  19  36  57  80 107 142 184 224 268 323
#     4   9  19  35  55  80 110 139 171 219 275 322
#
# _framework density 18.063092999999999
#
# number of rings (size 3 to 8) (size 9 to 14) (size 15 to 20)
#    0.000    2.000    1.429    2.143    0.000    5.714 
#    0.000    0.714    0.000    4.286    0.000    0.000 
#    0.000    0.000    0.000    0.000    0.000    0.000 
#
# Total GULP energy -156341.584333 kJ/mol
# GULP energy per Si atom -5583.628012 kJ/mol
# Density = 1.802198 g / cm^3
# Si number density = 18.063093 Si / 1000 Ang^3
#
#
#
# Elastic Constant Matrix: (Units=GPa)
#
#
# Indices 1 2 3 4 5 6 
#
# 1 124.0080 35.9091 11.3185 0.0000 -13.1924 0.0000
# 2 35.9091 33.3526 10.3675 0.0000 -6.4354 0.0000
# 3 11.3185 10.3675 28.5850 0.0000 -14.5136 0.0000
# 4 0.0000 0.0000 0.0000 21.3198 0.0000 -2.4793
# 5 -13.1924 -6.4354 -14.5136 0.0000 17.9794 0.0000
# 6 0.0000 0.0000 0.0000 -2.4793 0.0000 33.8050
#
#
#
# Elastic Compliance Matrix: (Units=1/GPa)
#
#
# Indices 1 2 3 4 5 6 
#
# 1 0.012237 -0.012867 0.003460 0.000000 0.007166 0.000000
# 2 -0.012867 0.047471 -0.014046 0.000000 -0.003788 0.000000
# 3 0.003460 -0.014046 0.063450 0.000000 0.048730 0.000000
# 4 0.000000 0.000000 0.000000 0.047308 0.000000 0.003470
# 5 0.007166 -0.003788 0.048730 0.000000 0.098858 0.000000
# 6 0.000000 0.000000 0.000000 0.003470 0.000000 0.029836
#
#
# Mechanical properties :
#
#
# Convention : Reuss Voigt Hill
#
# Bulk Modulus (GPa) = 13.11452 33.45954 23.28703
# Shear Modulus (GPa) = 13.45955 23.17753 18.31854
#
# Velocity S-wave (km/s) = 2.73269 3.58598 3.18801
# Velocity P-wave (km/s) = 4.15126 5.97575 5.14503
#
# Compressibility (1/GPa) = 0.07625136
#
# Stress axis : x y z
#
# Youngs Moduli (GPa) = 81.72252 21.06530 15.76051
#
# Poissons Ratio (x) = 0.27105 -0.05453
# Poissons Ratio (y) = 1.05155 0.22137
# Poissons Ratio (z) = -0.28277 0.29588
#
# Static dielectric constant tensor:
#      x y z
#    x 1.619600 0.000000 -0.032810 
#    y 0.000000 1.604490 0.000000 
#    z -0.032810 0.000000 1.602380 
# 
# From -- ./inp_files/230871.got.cif
#   From: 2010.05.17/outbox.cif.g08.bks.cpg/sg12_116_cif.got.tgz:230871.got - 2010.06.03 13:09:07.
