data_PCOD9181313
_publ_section_title
;
Structure prediction by ZEFSAII (Michael W. Deem and Ramdas Pophale) SiO2 
 PCOD9181313
Probable space group: C 2/M
;
_chemical_formula_sum "Si O2"
_cell_formula_units_Z 64
_cell_length_a 27.863194
_cell_length_b 22.470672
_cell_length_c 8.222417
_cell_angle_alpha 90.000000
_cell_angle_beta 34.351312
_cell_angle_gamma 90.000000
_cell_volume 2904.892516
_symmetry_space_group_name_H-M "C 2/M"
_symmetry_group_IT_number 12
_symmetry_cell_setting 'monoclinic'
loop_
_space_group_symop_operation_xyz
x,y,z
-x,y,-z
-x,-y,-z
x,-y,z
1/2+x,1/2+y,z
1/2-x,1/2+y,-z
1/2-x,1/2-y,-z
1/2+x,1/2-y,z
loop_
_atom_site_type_symbol
_atom_site_label
_atom_site_fract_x
_atom_site_fract_y
_atom_site_fract_z
Si Si1 0.026805 0.632110 0.237449
Si Si2 0.661531 0.348164 0.570863
Si Si3 0.813431 0.433102 0.114864
Si Si4 0.453763 0.742861 0.952069
Si Si5 0.554840 0.433502 0.040162
Si Si6 0.914927 0.842241 0.547091
Si Si7 0.813119 0.931803 0.045922
Si Si8 0.635041 0.067552 0.408974
O O1 0.000000 0.643887 0.500000
O O2 0.943602 0.612171 0.370959
O O3 0.095827 0.579782 0.057758
O O4 0.065128 0.691121 0.051709
O O5 0.750403 0.380532 0.342291
O O6 0.628949 0.298700 0.788589
O O7 0.648630 0.326738 0.423327
O O8 0.589957 0.399994 0.785066
O O9 0.782733 0.500000 0.238514
O O10 0.825373 0.429339 0.885138
O O11 0.500000 0.741674 0.000000
O O12 0.520095 0.713600 0.637349
O O13 0.525457 0.500000 0.099162
O O14 0.483180 0.394896 0.325882
O O15 0.638697 0.434754 0.918911
O O16 0.855701 0.873896 0.844496
O O17 0.712006 0.922547 0.318749
O O18 0.826373 0.000000 0.935898
O O19 0.603579 0.000000 0.517802
#
# Coordination Sequence:
#
# PCOD9181313 Si02
#       8
#     8   8   8   8   8   8   8   8
#     4  10  21  38  61  83 108 144 194 236 280 324
#     4  10  20  35  56  80 110 151 185 226 273 327
#     4  10  19  34  61  90 113 139 184 237 280 333
#     4   9  21  39  56  78 113 151 187 232 270 326
#     4  10  20  30  46  80 117 146 180 225 278 338
#     4  10  19  34  56  76 106 151 193 224 269 331
#     4  10  19  32  52  80 116 147 180 232 286 333
#     4   9  18  35  59  84 111 143 184 236 286 329
#
# _framework density 22.031796
#
# number of rings (size 3 to 8) (size 9 to 14) (size 15 to 20)
#    0.000    2.250    1.250    2.625    0.000    7.000 
#    2.250    0.625    2.750    0.750    0.000    0.000 
#    0.000    0.000    0.000    0.000    0.000    0.000 
#
# Total GULP energy -178428.188918 kJ/mol
# GULP energy per Si atom -5575.880904 kJ/mol
# Density = 2.198165 g / cm^3
# Si number density = 22.031796 Si / 1000 Ang^3
#
#
#
# Elastic Constant Matrix: (Units=GPa)
#
#
# Indices 1 2 3 4 5 6 
#
# 1 71.1593 20.9397 18.6951 0.0000 -26.8852 0.0000
# 2 20.9397 84.5225 17.0091 0.0000 -6.0405 0.0000
# 3 18.6951 17.0091 43.5413 0.0000 -16.3610 0.0000
# 4 0.0000 0.0000 0.0000 19.5476 0.0000 -3.3512
# 5 -26.8852 -6.0405 -16.3610 0.0000 24.5187 0.0000
# 6 0.0000 0.0000 0.0000 -3.3512 0.0000 17.5779
#
#
#
# Elastic Compliance Matrix: (Units=1/GPa)
#
#
# Indices 1 2 3 4 5 6 
#
# 1 0.025550 -0.004599 0.001238 0.000000 0.027709 0.000000
# 2 -0.004599 0.013669 -0.005331 0.000000 -0.005232 0.000000
# 3 0.001238 -0.005331 0.032745 0.000000 0.021894 0.000000
# 4 0.000000 0.000000 0.000000 0.052886 0.000000 0.010083
# 5 0.027709 -0.005232 0.021894 0.000000 0.084490 0.000000
# 6 0.000000 0.000000 0.000000 0.010083 0.000000 0.058812
#
#
# Mechanical properties :
#
#
# Convention : Reuss Voigt Hill
#
# Bulk Modulus (GPa) = 18.32171 34.72344 26.52257
# Shear Modulus (GPa) = 16.46207 21.83412 19.14810
#
# Velocity S-wave (km/s) = 2.73645 3.15147 2.95127
# Velocity P-wave (km/s) = 4.27999 5.38862 4.86598
#
# Compressibility (1/GPa) = 0.05458007
#
# Stress axis : x y z
#
# Youngs Moduli (GPa) = 39.13896 73.15610 30.53930
#
# Poissons Ratio (x) = 0.33642 -0.03781
# Poissons Ratio (y) = 0.17999 0.16282
# Poissons Ratio (z) = -0.04846 0.39003
#
# Static dielectric constant tensor:
#      x y z
#    x 1.842280 0.000000 0.034150 
#    y 0.000000 1.797980 0.000000 
#    z 0.034150 0.000000 1.828200 
# 
# From -- ./inp_files/113628.got.cif
#   From: 2010.05.17/outbox.cif.g08.bks.cpg/sg12_57_cif.got.tgz:113628.got - 2010.06.03 13:09:07.
