data_PCOD9181825
_publ_section_title
;
Structure prediction by ZEFSAII (Michael W. Deem and Ramdas Pophale) SiO2 
 PCOD9181825
Probable space group: C 2/M
;
_chemical_formula_sum "Si O2"
_cell_formula_units_Z 48
_cell_length_a 20.122637
_cell_length_b 15.267751
_cell_length_c 7.064993
_cell_angle_alpha 90.000000
_cell_angle_beta 88.741840
_cell_angle_gamma 90.000000
_cell_volume 2170.036209
_symmetry_space_group_name_H-M "C 2/M"
_symmetry_group_IT_number 12
_symmetry_cell_setting 'monoclinic'
loop_
_space_group_symop_operation_xyz
x,y,z
-x,y,-z
-x,-y,-z
x,-y,z
1/2+x,1/2+y,z
1/2-x,1/2+y,-z
1/2-x,1/2-y,-z
1/2+x,1/2-y,z
loop_
_atom_site_type_symbol
_atom_site_label
_atom_site_fract_x
_atom_site_fract_y
_atom_site_fract_z
Si Si1 0.689917 0.500000 0.779326
Si Si2 0.553704 0.182058 0.772567
Si Si3 0.843587 0.500000 0.654173
Si Si4 0.618418 0.000000 0.796174
Si Si5 0.170090 0.190607 0.819253
Si Si6 0.908340 0.683174 0.673775
Si Si7 0.267595 0.500000 0.804258
Si Si8 0.287718 0.310413 0.751584
O O1 0.765794 0.500000 0.703112
O O2 0.660072 0.594913 0.730374
O O3 0.687992 0.500000 0.009967
O O4 0.577148 0.086948 0.841490
O O5 0.601945 0.257062 0.847131
O O6 0.475138 0.197142 0.790616
O O7 0.569923 0.179460 0.546399
O O8 0.861562 0.500000 0.428919
O O9 0.875581 0.589927 0.727380
O O10 0.691386 0.000000 0.882317
O O11 0.222523 0.253311 0.707882
O O12 0.205518 0.179826 0.020615
O O13 0.853590 0.758730 0.691766
O O14 0.279369 0.410640 0.688874
#
# Coordination Sequence:
#
# PCOD9181825 Si02
#       8
#     4   8   4   4   8   8   4   8
#     4  10  20  35  54  80 110 136 172 221 268 310
#     4  10  21  36  54  79 111 143 176 217 265 316
#     4  10  19  32  54  81 109 139 172 214 267 320
#     4  10  19  32  54  81 109 139 172 214 267 320
#     4  10  20  35  56  79 106 140 178 220 263 313
#     4  10  21  36  54  79 111 143 176 217 265 316
#     4  10  20  35  54  80 110 136 172 221 268 310
#     4  10  20  35  56  79 106 140 178 220 263 313
#
# _framework density 22.119446
#
# number of rings (size 3 to 8) (size 9 to 14) (size 15 to 20)
#    0.000    2.000    3.333    0.500    0.000    4.667 
#    0.000    0.833    0.000    8.000    0.000    0.000 
#    0.000    0.000    0.000    0.000    0.000    0.000 
#
# Total GULP energy -134181.997761 kJ/mol
# GULP energy per Si atom -5590.916573 kJ/mol
# Density = 2.206910 g / cm^3
# Si number density = 22.119446 Si / 1000 Ang^3
#
#
#
# Elastic Constant Matrix: (Units=GPa)
#
#
# Indices 1 2 3 4 5 6 
#
# 1 129.4652 98.5717 -10.0770 0.0000 -5.3833 0.0000
# 2 98.5717 240.2618 4.8895 0.0000 -5.6844 0.0000
# 3 -10.0770 4.8895 52.4216 0.0000 -2.9261 0.0000
# 4 0.0000 0.0000 0.0000 9.1642 0.0000 1.1616
# 5 -5.3833 -5.6844 -2.9261 0.0000 33.4255 0.0000
# 6 0.0000 0.0000 0.0000 1.1616 0.0000 11.5309
#
#
#
# Elastic Compliance Matrix: (Units=1/GPa)
#
#
# Indices 1 2 3 4 5 6 
#
# 1 0.011652 -0.004806 0.002761 0.000000 0.001301 0.000000
# 2 -0.004806 0.006168 -0.001491 0.000000 0.000144 0.000000
# 3 0.002761 -0.001491 0.019854 0.000000 0.001929 0.000000
# 4 0.000000 0.000000 0.000000 0.110532 0.000000 -0.011135
# 5 0.001301 0.000144 0.001929 0.000000 0.030320 0.000000
# 6 0.000000 0.000000 0.000000 -0.011135 0.000000 0.087845
#
#
# Mechanical properties :
#
#
# Convention : Reuss Voigt Hill
#
# Bulk Modulus (GPa) = 32.67875 67.65746 50.16810
# Shear Modulus (GPa) = 17.62775 32.74173 25.18474
#
# Velocity S-wave (km/s) = 2.82607 3.85154 3.37794
# Velocity P-wave (km/s) = 5.04526 7.10161 6.15985
#
# Compressibility (1/GPa) = 0.03060093
#
# Stress axis : x y z
#
# Youngs Moduli (GPa) = 85.82089 162.13771 50.36883
#
# Poissons Ratio (x) = 0.77922 -0.13906
# Poissons Ratio (y) = 0.41245 0.07510
# Poissons Ratio (z) = -0.23693 0.24175
#
# Static dielectric constant tensor:
#      x y z
#    x 1.749900 0.000000 0.013900 
#    y 0.000000 1.822910 0.000000 
#    z 0.013900 0.000000 1.926540 
# 
# From -- ./inp_files/73713.got.cif
#   From: 2010.05.17/outbox.cif.g08.bks.cpg/sg12_37_cif.got.tgz:73713.got - 2010.06.03 13:09:07.
