data_PCOD9181863
_publ_section_title
;
Structure prediction by ZEFSAII (Michael W. Deem and Ramdas Pophale) SiO2 
 PCOD9181863
Probable space group: C 2/M
;
_chemical_formula_sum "Si O2"
_cell_formula_units_Z 64
_cell_length_a 17.141901
_cell_length_b 14.067540
_cell_length_c 15.601937
_cell_angle_alpha 90.000000
_cell_angle_beta 81.577589
_cell_angle_gamma 90.000000
_cell_volume 3721.743221
_symmetry_space_group_name_H-M "C 2/M"
_symmetry_group_IT_number 12
_symmetry_cell_setting 'monoclinic'
loop_
_space_group_symop_operation_xyz
x,y,z
-x,y,-z
-x,-y,-z
x,-y,z
1/2+x,1/2+y,z
1/2-x,1/2+y,-z
1/2-x,1/2-y,-z
1/2+x,1/2-y,z
loop_
_atom_site_type_symbol
_atom_site_label
_atom_site_fract_x
_atom_site_fract_y
_atom_site_fract_z
Si Si1 0.458657 0.749975 0.339450
Si Si2 0.558351 0.280382 0.070240
Si Si3 0.565033 0.604103 0.413510
Si Si4 0.096326 0.611369 0.342844
Si Si5 0.067356 0.110380 0.803495
Si Si6 0.160999 0.253168 0.482623
Si Si7 0.141441 0.388934 0.146356
Si Si8 0.183668 0.108878 0.945825
O O1 0.526277 0.673108 0.351632
O O2 0.510508 0.845937 0.329890
O O3 0.418195 0.695872 0.266543
O O4 0.397140 0.760945 0.426663
O O5 0.513191 0.358271 0.135534
O O6 0.578809 0.185952 0.119789
O O7 0.500000 0.259687 0.000000
O O8 0.638444 0.323559 0.018721
O O9 0.500000 0.599640 0.500000
O O10 0.579637 0.500000 0.377368
O O11 0.641083 0.653036 0.440788
O O12 0.090181 0.500000 0.364346
O O13 0.134438 0.668095 0.416676
O O14 0.147485 0.622952 0.248096
O O15 0.135195 0.112994 0.864522
O O16 0.063759 0.000000 0.771519
O O17 0.250000 0.250000 0.500000
O O18 0.120081 0.500000 0.134868
O O19 0.225502 0.370349 0.088467
O O20 0.177953 0.000000 0.977782
#
# Coordination Sequence:
#
# PCOD9181863 Si02
#       8
#     8   8   8   8   8   8   8   8
#     4  10  19  34  53  75 102 134 180 216 261 317
#     4  10  19  34  55  82 111 143 179 221 268 320
#     4   8  15  30  49  69  96 128 160 201 252 307
#     4  10  21  38  57  76 104 144 188 223 258 312
#     4  10  19  32  54  82 109 137 174 222 272 322
#     4  10  22  34  51  80 105 134 172 221 270 317
#     4  10  20  35  55  81 110 144 184 222 263 317
#     4   9  19  33  53  82 112 141 175 217 271 327
#
# _framework density 17.196242999999999
#
# number of rings (size 3 to 8) (size 9 to 14) (size 15 to 20)
#    0.000    2.375    1.250    2.250    1.750    3.750 
#    0.000    0.000    0.000    0.000    0.000    0.000 
#    0.000    0.000    0.000    0.000    0.000    0.000 
#
# Total GULP energy -178163.360315 kJ/mol
# GULP energy per Si atom -5567.605010 kJ/mol
# Density = 1.715710 g / cm^3
# Si number density = 17.196243 Si / 1000 Ang^3
#
#
#
# Elastic Constant Matrix: (Units=GPa)
#
#
# Indices 1 2 3 4 5 6 
#
# 1 57.1847 33.7225 5.9157 0.0000 0.4530 0.0000
# 2 33.7225 102.0664 34.6496 0.0000 5.0112 0.0000
# 3 5.9157 34.6496 64.9066 0.0000 -2.9902 0.0000
# 4 0.0000 0.0000 0.0000 24.7891 0.0000 0.9633
# 5 0.4530 5.0112 -2.9902 0.0000 18.7730 0.0000
# 6 0.0000 0.0000 0.0000 0.9633 0.0000 17.8324
#
#
#
# Elastic Compliance Matrix: (Units=1/GPa)
#
#
# Indices 1 2 3 4 5 6 
#
# 1 0.022071 -0.008235 0.002480 0.000000 0.002061 0.000000
# 2 -0.008235 0.015384 -0.007699 0.000000 -0.005134 0.000000
# 3 0.002480 -0.007699 0.019526 0.000000 0.005105 0.000000
# 4 0.000000 0.000000 0.000000 0.040425 0.000000 -0.002184
# 5 0.002061 -0.005134 0.005105 0.000000 0.055402 0.000000
# 6 0.000000 0.000000 0.000000 -0.002184 0.000000 0.056196
#
#
# Mechanical properties :
#
#
# Convention : Reuss Voigt Hill
#
# Bulk Modulus (GPa) = 33.25313 41.41480 37.33397
# Shear Modulus (GPa) = 20.33058 22.27024 21.30041
#
# Velocity S-wave (km/s) = 3.44214 3.60260 3.52329
# Velocity P-wave (km/s) = 5.93104 6.43746 6.18943
#
# Compressibility (1/GPa) = 0.03007236
#
# Stress axis : x y z
#
# Youngs Moduli (GPa) = 45.30901 65.00279 51.21454
#
# Poissons Ratio (x) = 0.53530 -0.12699
# Poissons Ratio (y) = 0.37312 0.39428
# Poissons Ratio (z) = -0.11235 0.50042
#
# Static dielectric constant tensor:
#      x y z
#    x 1.568110 0.000000 -0.000820 
#    y 0.000000 1.603880 0.000000 
#    z -0.000820 0.000000 1.610860 
# 
# From -- ./inp_files/224785.got.cif
#   From: 2010.05.17/outbox.cif.g08.bks.cpg/sg12_113_cif.got.tgz:224785.got - 2010.06.03 13:09:07.
