data_PCOD9181854
_publ_section_title
;
Structure prediction by ZEFSAII (Michael W. Deem and Ramdas Pophale) SiO2 
 PCOD9181854
Probable space group: C 2/M
;
_chemical_formula_sum "Si O2"
_cell_formula_units_Z 64
_cell_length_a 21.033085
_cell_length_b 8.550794
_cell_length_c 25.103902
_cell_angle_alpha 90.000000
_cell_angle_beta 130.849461
_cell_angle_gamma 90.000000
_cell_volume 3415.228769
_symmetry_space_group_name_H-M "C 2/M"
_symmetry_group_IT_number 12
_symmetry_cell_setting 'monoclinic'
loop_
_space_group_symop_operation_xyz
x,y,z
-x,y,-z
-x,-y,-z
x,-y,z
1/2+x,1/2+y,z
1/2-x,1/2+y,-z
1/2-x,1/2-y,-z
1/2+x,1/2-y,z
loop_
_atom_site_type_symbol
_atom_site_label
_atom_site_fract_x
_atom_site_fract_y
_atom_site_fract_z
Si Si1 0.771684 0.311097 0.594549
Si Si2 0.041958 0.313041 0.893516
Si Si3 0.627729 0.686418 0.163044
Si Si4 0.300587 0.811799 0.078903
Si Si5 0.960499 0.311074 0.420842
Si Si6 0.358294 0.689465 0.948974
Si Si7 0.227772 0.187061 0.688025
Si Si8 0.382613 0.188901 0.560422
O O1 0.768956 0.500000 0.592633
O O2 0.767521 0.259158 0.653231
O O3 0.688855 0.249405 0.519082
O O4 0.851297 0.262266 0.602016
O O5 0.037055 0.500000 0.889884
O O6 0.103792 0.259973 0.879264
O O7 0.948955 0.245662 0.843115
O O8 0.086869 0.259990 0.973184
O O9 0.627068 0.500000 0.161777
O O10 0.614934 0.740862 0.095015
O O11 0.715662 0.744618 0.234165
O O12 0.239967 0.767882 0.094466
O O13 0.301640 0.000000 0.078148
O O14 0.250000 0.750000 0.000000
O O15 0.953594 0.500000 0.416115
O O16 0.868561 0.240810 0.363426
O O17 0.000000 0.267886 0.500000
O O18 0.026839 0.260892 0.411750
O O19 0.366226 0.500000 0.956655
O O20 0.231293 0.000000 0.691780
O O21 0.381642 0.000000 0.558094
#
# Coordination Sequence:
#
# PCOD9181854 Si02
#       8
#     8   8   8   8   8   8   8   8
#     4   9  18  32  51  76 103 132 165 206 254 300
#     4  10  19  32  54  82 108 135 170 215 265 312
#     4  11  23  37  53  73 102 142 181 216 259 310
#     4   8  15  29  50  76 103 130 164 208 255 301
#     4  10  19  33  55  81 105 133 168 206 252 309
#     4   9  18  34  55  78 104 137 178 218 255 304
#     4  11  23  37  53  74 105 139 174 217 264 310
#     4   9  17  31  53  79 104 130 165 206 248 301
#
# _framework density 18.739594
#
# number of rings (size 3 to 8) (size 9 to 14) (size 15 to 20)
#    0.000    2.375    1.250    1.500    0.000    4.250 
#    0.000    1.250    0.000    7.500    0.000    0.000 
#    0.000    0.000    0.000    0.000    0.000    0.000 
#
# Total GULP energy -178386.039568 kJ/mol
# GULP energy per Si atom -5574.563736 kJ/mol
# Density = 1.869694 g / cm^3
# Si number density = 18.739594 Si / 1000 Ang^3
#
#
#
# Elastic Constant Matrix: (Units=GPa)
#
#
# Indices 1 2 3 4 5 6 
#
# 1 115.8182 18.7782 13.5921 0.0000 17.5157 0.0000
# 2 18.7782 13.3173 7.9477 0.0000 5.0179 0.0000
# 3 13.5921 7.9477 36.3197 0.0000 16.3459 0.0000
# 4 0.0000 0.0000 0.0000 23.0175 0.0000 8.0654
# 5 17.5157 5.0179 16.3459 0.0000 25.0945 0.0000
# 6 0.0000 0.0000 0.0000 8.0654 0.0000 24.8916
#
#
#
# Elastic Compliance Matrix: (Units=1/GPa)
#
#
# Indices 1 2 3 4 5 6 
#
# 1 0.011892 -0.015437 0.001803 0.000000 -0.006388 0.000000
# 2 -0.015437 0.107291 -0.018243 0.000000 0.001204 0.000000
# 3 0.001803 -0.018243 0.042124 0.000000 -0.025049 0.000000
# 4 0.000000 0.000000 0.000000 0.049010 0.000000 -0.015880
# 5 -0.006388 0.001204 -0.025049 0.000000 0.060383 0.000000
# 6 0.000000 0.000000 0.000000 -0.015880 0.000000 0.045320
#
#
# Mechanical properties :
#
#
# Convention : Reuss Voigt Hill
#
# Bulk Modulus (GPa) = 10.25092 27.34345 18.79719
# Shear Modulus (GPa) = 12.12733 22.94320 17.53526
#
# Velocity S-wave (km/s) = 2.54667 3.50282 3.06229
# Velocity P-wave (km/s) = 3.75892 5.56620 4.74932
#
# Compressibility (1/GPa) = 0.09755219
#
# Stress axis : x y z
#
# Youngs Moduli (GPa) = 84.09329 9.32042 23.73932
#
# Poissons Ratio (x) = 0.14388 -0.04279
# Poissons Ratio (y) = 1.29813 0.43308
# Poissons Ratio (z) = -0.15158 0.17003
#
# Static dielectric constant tensor:
#      x y z
#    x 1.707660 0.000000 -0.006670 
#    y 0.000000 1.646480 0.000000 
#    z -0.006670 0.000000 1.611100 
# 
# From -- ./inp_files/346101.got.cif
#   From: 2010.05.17/outbox.cif.g08.bks.cpg/sg12_174_cif.got.tgz:346101.got - 2010.06.03 13:09:07.
