data_PCOD9181003
_publ_section_title
;
Structure prediction by ZEFSAII (Michael W. Deem and Ramdas Pophale) SiO2 
 PCOD9181003
Probable space group: C 2/M
;
_chemical_formula_sum "Si O2"
_cell_formula_units_Z 58
_cell_length_a 25.014945
_cell_length_b 7.374909
_cell_length_c 15.479056
_cell_angle_alpha 90.000000
_cell_angle_beta 97.738140
_cell_angle_gamma 90.000000
_cell_volume 2829.617913
_symmetry_space_group_name_H-M "C 2/M"
_symmetry_group_IT_number 12
_symmetry_cell_setting 'monoclinic'
loop_
_space_group_symop_operation_xyz
x,y,z
-x,y,-z
-x,-y,-z
x,-y,z
1/2+x,1/2+y,z
1/2-x,1/2+y,-z
1/2-x,1/2-y,-z
1/2+x,1/2-y,z
loop_
_atom_site_type_symbol
_atom_site_label
_atom_site_fract_x
_atom_site_fract_y
_atom_site_fract_z
Si Si1 0.000000 0.500000 0.000000
Si Si2 0.170300 0.218439 0.435065
Si Si3 0.668345 0.721833 0.120303
Si Si4 0.209841 0.280712 0.813862
Si Si5 0.382169 0.290104 0.068958
Si Si6 0.217157 0.286475 0.622030
Si Si7 0.596343 0.719470 0.269321
Si Si8 0.997903 0.781733 0.864837
O O1 0.027594 0.661701 0.065343
O O2 0.173730 0.265338 0.536556
O O3 0.226011 0.286229 0.402812
O O4 0.120911 0.282729 0.365266
O O5 0.171107 0.000000 0.432159
O O6 0.667834 0.500000 0.119265
O O7 0.730747 0.776525 0.141976
O O8 0.635410 0.775650 0.198749
O O9 0.642441 0.786616 0.024857
O O10 0.208667 0.500000 0.815152
O O11 0.162877 0.220450 0.867321
O O12 0.202608 0.216719 0.713446
O O13 0.393639 0.500000 0.052854
O O14 0.439670 0.218329 0.115891
O O15 0.226380 0.500000 0.636025
O O16 0.598750 0.500000 0.271808
O O17 0.535325 0.763688 0.228696
O O18 0.993069 0.000000 0.877442
#
# Coordination Sequence:
#
# PCOD9181003 Si02
#       8
#     2   8   8   8   8   8   8   8
#     4  12  22  36  60  82 112 142 194 236 276 328
#     4   9  16  29  53  77 103 135 171 218 277 335
#     4   9  16  29  50  75 101 137 177 216 263 322
#     4  10  19  32  52  73 103 143 182 215 264 328
#     4  10  21  35  52  73 105 145 184 224 265 314
#     4   9  17  30  48  76 106 136 171 217 275 332
#     4   9  16  32  56  78 106 141 177 220 278 332
#     4  10  22  38  57  82 112 148 187 233 282 324
#
# _framework density 20.497467
#
# number of rings (size 3 to 8) (size 9 to 14) (size 15 to 20)
#    0.000    2.483    1.379    1.448    0.966    2.759 
#    1.241    0.000    1.517    0.828    0.000    5.793 
#    0.000    0.000    0.000    0.000    0.000    0.000 
#
# Total GULP energy -161520.842412 kJ/mol
# GULP energy per Si atom -5569.684221 kJ/mol
# Density = 2.045081 g / cm^3
# Si number density = 20.497467 Si / 1000 Ang^3
#
#
#
# Elastic Constant Matrix: (Units=GPa)
#
#
# Indices 1 2 3 4 5 6 
#
# 1 110.3941 -8.3947 70.7907 0.0000 22.7399 0.0000
# 2 -8.3947 79.0705 -3.7432 0.0000 4.8300 0.0000
# 3 70.7907 -3.7432 151.6095 0.0000 32.2618 0.0000
# 4 0.0000 0.0000 0.0000 -74.5645 0.0000 -22.0920
# 5 22.7399 4.8300 32.2618 0.0000 34.1845 0.0000
# 6 0.0000 0.0000 0.0000 -22.0920 0.0000 3.1328
#
#
#
# Elastic Compliance Matrix: (Units=1/GPa)
#
#
# Indices 1 2 3 4 5 6 
#
# 1 0.013457 0.001423 -0.005381 0.000000 -0.004074 0.000000
# 2 0.001423 0.013001 0.000311 0.000000 -0.003077 0.000000
# 3 -0.005381 0.000311 0.010466 0.000000 -0.006341 0.000000
# 4 0.000000 0.000000 0.000000 -0.004341 0.000000 -0.030613
# 5 -0.004074 -0.003077 -0.006341 0.000000 0.038382 0.000000
# 6 0.000000 0.000000 0.000000 -0.030613 0.000000 0.103325
#
#
# Mechanical properties :
#
#
# Convention : Reuss Voigt Hill
#
# Bulk Modulus (GPa) = 33.75076 50.93109 42.34093
# Shear Modulus (GPa) = 26.11519 11.37865 18.74692
#
# Velocity S-wave (km/s) = 3.57328 2.35866 3.02751
# Velocity P-wave (km/s) = 5.79017 5.68500 5.73782
#
# Compressibility (1/GPa) = 0.02962897
#
# Stress axis : x y z
#
# Youngs Moduli (GPa) = 74.31327 76.91889 95.55090
#
# Poissons Ratio (x) = -0.10944 0.51418
# Poissons Ratio (y) = -0.10573 -0.02976
# Poissons Ratio (z) = 0.39989 -0.02396
#
# Static dielectric constant tensor:
#      x y z
#    x 1.750150 0.000000 0.025630 
#    y 0.000000 1.878140 0.000000 
#    z 0.025630 0.000000 1.752210 
# 
# From -- ./inp_files/243194.got.cif
#   From: 2010.05.17/outbox.cif.g08.bks.cpg/sg12_122_cif.got.tgz:243194.got - 2010.06.03 13:09:07.
