data_PCOD9181822
_publ_section_title
;
Structure prediction by ZEFSAII (Michael W. Deem and Ramdas Pophale) SiO2 
 PCOD9181822
Probable space group: C 2/M
;
_chemical_formula_sum "Si O2"
_cell_formula_units_Z 64
_cell_length_a 20.940641
_cell_length_b 8.831954
_cell_length_c 22.424197
_cell_angle_alpha 90.000000
_cell_angle_beta 118.094382
_cell_angle_gamma 90.000000
_cell_volume 3658.621263
_symmetry_space_group_name_H-M "C 2/M"
_symmetry_group_IT_number 12
_symmetry_cell_setting 'monoclinic'
loop_
_space_group_symop_operation_xyz
x,y,z
-x,y,-z
-x,-y,-z
x,-y,z
1/2+x,1/2+y,z
1/2-x,1/2+y,-z
1/2-x,1/2-y,-z
1/2+x,1/2-y,z
loop_
_atom_site_type_symbol
_atom_site_label
_atom_site_fract_x
_atom_site_fract_y
_atom_site_fract_z
Si Si1 0.829705 0.682449 0.040073
Si Si2 0.075118 0.819624 0.673371
Si Si3 0.704253 0.681762 0.533919
Si Si4 0.583601 0.182924 0.039597
Si Si5 0.301271 0.680408 0.823074
Si Si6 0.727766 0.318111 0.678653
Si Si7 0.455422 0.180544 0.540511
Si Si8 0.647732 0.818347 0.816679
O O1 0.824415 0.500000 0.037022
O O2 0.861471 0.724820 0.118556
O O3 0.750000 0.750000 0.000000
O O4 0.877083 0.730073 0.004438
O O5 0.146368 0.778736 0.665264
O O6 0.094785 0.766100 0.748300
O O7 0.005513 0.737334 0.616356
O O8 0.065917 0.000000 0.666303
O O9 0.705364 0.500000 0.531417
O O10 0.750000 0.750000 0.500000
O O11 0.734770 0.726587 0.612723
O O12 0.621943 0.739396 0.494155
O O13 0.629182 0.248725 0.114572
O O14 0.585977 0.000000 0.044359
O O15 0.500000 0.229643 0.000000
O O16 0.307869 0.500000 0.824038
O O17 0.282828 0.743214 0.749388
O O18 0.229994 0.717803 0.831835
O O19 0.734532 0.500000 0.686126
O O20 0.500000 0.217936 0.500000
O O21 0.445509 0.000000 0.538681
O O22 0.638713 0.000000 0.806403
#
# Coordination Sequence:
#
# PCOD9181822 Si02
#       8
#     8   8   8   8   8   8   8   8
#     4  10  19  33  54  78 106 138 177 224 272 324
#     4  10  19  33  55  83 112 145 186 232 282 333
#     4  11  23  40  60  85 117 152 191 234 283 338
#     4  10  21  36  54  78 109 146 184 221 271 332
#     4  10  19  32  54  81 108 140 182 230 275 323
#     4   9  19  35  56  81 111 147 186 226 274 333
#     4  11  22  36  58  86 115 148 188 234 285 335
#     4   9  18  32  50  78 110 139 178 229 283 329
#
# _framework density 17.492929
#
# number of rings (size 3 to 8) (size 9 to 14) (size 15 to 20)
#    0.000    2.000    2.500    1.500    0.000    3.250 
#    0.000    1.250    0.000    6.000    0.000    0.000 
#    0.000    0.000    0.000    0.000    0.000    0.000 
#
# Total GULP energy -178628.545130 kJ/mol
# GULP energy per Si atom -5582.142035 kJ/mol
# Density = 1.745311 g / cm^3
# Si number density = 17.492929 Si / 1000 Ang^3
#
#
#
# Elastic Constant Matrix: (Units=GPa)
#
#
# Indices 1 2 3 4 5 6 
#
# 1 107.3764 40.1536 82.2783 0.0000 -1.4478 0.0000
# 2 40.1536 30.9450 46.9778 0.0000 0.2003 0.0000
# 3 82.2783 46.9778 175.1610 0.0000 -1.1750 0.0000
# 4 0.0000 0.0000 0.0000 30.1599 0.0000 3.3187
# 5 -1.4478 0.2003 -1.1750 0.0000 27.9741 0.0000
# 6 0.0000 0.0000 0.0000 3.3187 0.0000 23.3109
#
#
#
# Elastic Compliance Matrix: (Units=1/GPa)
#
#
# Indices 1 2 3 4 5 6 
#
# 1 0.019675 -0.019425 -0.004026 0.000000 0.000988 0.000000
# 2 -0.019425 0.073716 -0.010659 0.000000 -0.001981 0.000000
# 3 -0.004026 -0.010659 0.010461 0.000000 0.000307 0.000000
# 4 0.000000 0.000000 0.000000 0.033684 0.000000 -0.004796
# 5 0.000988 -0.001981 0.000307 0.000000 0.035826 0.000000
# 6 0.000000 0.000000 0.000000 -0.004796 0.000000 0.043581
#
#
# Mechanical properties :
#
#
# Convention : Reuss Voigt Hill
#
# Bulk Modulus (GPa) = 28.06480 72.47798 50.27139
# Shear Modulus (GPa) = 16.83280 25.89383 21.36331
#
# Velocity S-wave (km/s) = 3.10540 3.85157 3.49844
# Velocity P-wave (km/s) = 5.37925 7.82957 6.71709
#
# Compressibility (1/GPa) = 0.03563182
#
# Stress axis : x y z
#
# Youngs Moduli (GPa) = 50.82580 13.56566 95.59551
#
# Poissons Ratio (x) = 0.26352 0.38482
# Poissons Ratio (y) = 0.98730 1.01896
# Poissons Ratio (z) = 0.20460 0.14460
#
# Static dielectric constant tensor:
#      x y z
#    x 1.574310 0.000000 -0.015980 
#    y 0.000000 1.580500 0.000000 
#    z -0.015980 0.000000 1.588090 
# 
# From -- ./inp_files/319997.got.cif
#   From: 2010.05.17/outbox.cif.g08.bks.cpg/sg12_160_cif.got.tgz:319997.got - 2010.06.03 13:09:07.
