data_PCOD9181427
_publ_section_title
;
Structure prediction by ZEFSAII (Michael W. Deem and Ramdas Pophale) SiO2 
 PCOD9181427
Probable space group: C 2/M
;
_chemical_formula_sum "Si O2"
_cell_formula_units_Z 56
_cell_length_a 9.487210
_cell_length_b 29.354982
_cell_length_c 19.982037
_cell_angle_alpha 90.000000
_cell_angle_beta 36.243627
_cell_angle_gamma 90.000000
_cell_volume 3290.100521
_symmetry_space_group_name_H-M "C 2/M"
_symmetry_group_IT_number 12
_symmetry_cell_setting 'monoclinic'
loop_
_space_group_symop_operation_xyz
x,y,z
-x,y,-z
-x,-y,-z
x,-y,z
1/2+x,1/2+y,z
1/2-x,1/2+y,-z
1/2-x,1/2-y,-z
1/2+x,1/2-y,z
loop_
_atom_site_type_symbol
_atom_site_label
_atom_site_fract_x
_atom_site_fract_y
_atom_site_fract_z
Si Si1 0.731683 0.272879 0.078451
Si Si2 0.623020 0.700603 0.608837
Si Si3 0.816764 0.448806 0.471244
Si Si4 0.095876 0.353669 0.612922
Si Si5 0.444465 0.356129 0.230728
Si Si6 0.367953 0.550731 0.311212
Si Si7 0.680474 0.779040 0.684709
O O1 0.618316 0.323317 0.123299
O O2 0.558447 0.241586 0.190557
O O3 0.750000 0.250000 0.000000
O O4 0.000000 0.275771 0.000000
O O5 0.786584 0.675234 0.492466
O O6 0.571304 0.665953 0.689184
O O7 0.735410 0.743951 0.603349
O O8 0.385492 0.717390 0.661690
O O9 0.769302 0.500000 0.462961
O O10 0.800544 0.404876 0.430263
O O11 0.658574 0.441898 0.598722
O O12 0.092938 0.448502 0.390609
O O13 0.145990 0.327575 0.662488
O O14 0.814766 0.354007 0.704541
O O15 0.502225 0.408863 0.221927
O O16 0.462550 0.500000 0.263236
#
# Coordination Sequence:
#
# PCOD9181427 Si02
#       7
#     8   8   8   8   8   8   8
#     4  11  22  38  52  66  92 126 169 220 257 289
#     4  11  21  34  47  72 106 133 159 195 240 295
#     4   8  14  25  45  73 105 137 161 185 224 281
#     4  11  19  31  50  76 107 133 159 195 235 292
#     4  10  19  32  53  77  97 130 169 200 250 296
#     4   8  13  25  46  75 104 128 159 197 233 283
#     4  11  23  35  50  71  95 131 172 201 247 301
#
# _framework density 17.020757
#
# number of rings (size 3 to 8) (size 9 to 14) (size 15 to 20)
#    0.000    2.000    1.429    6.429    0.000    2.286 
#    0.000    0.000    0.000    3.000    0.000    1.000 
#    0.000    5.714    0.000    0.000    0.000    0.286 
#
# Total GULP energy -156167.404082 kJ/mol
# GULP energy per Si atom -5577.407289 kJ/mol
# Density = 1.698202 g / cm^3
# Si number density = 17.020757 Si / 1000 Ang^3
#
#
#
# Elastic Constant Matrix: (Units=GPa)
#
#
# Indices 1 2 3 4 5 6 
#
# 1 65.8481 28.8509 16.1325 0.0000 -5.4962 0.0000
# 2 28.8509 151.6883 42.2377 0.0000 7.9917 0.0000
# 3 16.1325 42.2377 68.9478 0.0000 -2.3074 0.0000
# 4 0.0000 0.0000 0.0000 24.4710 0.0000 2.5596
# 5 -5.4962 7.9917 -2.3074 0.0000 21.2328 0.0000
# 6 0.0000 0.0000 0.0000 2.5596 0.0000 18.4696
#
#
#
# Elastic Compliance Matrix: (Units=1/GPa)
#
#
# Indices 1 2 3 4 5 6 
#
# 1 0.017474 -0.003042 -0.002043 0.000000 0.005446 0.000000
# 2 -0.003042 0.008751 -0.004803 0.000000 -0.004603 0.000000
# 3 -0.002043 -0.004803 0.018033 0.000000 0.003239 0.000000
# 4 0.000000 0.000000 0.000000 0.041466 0.000000 -0.005746
# 5 0.005446 -0.004603 0.003239 0.000000 0.050591 0.000000
# 6 0.000000 0.000000 0.000000 -0.005746 0.000000 0.054939
#
#
# Mechanical properties :
#
#
# Convention : Reuss Voigt Hill
#
# Bulk Modulus (GPa) = 40.84638 51.21405 46.03022
# Shear Modulus (GPa) = 22.81120 26.11888 24.46504
#
# Velocity S-wave (km/s) = 3.66484 3.92156 3.79537
# Velocity P-wave (km/s) = 6.47751 7.11754 6.80505
#
# Compressibility (1/GPa) = 0.02448197
#
# Stress axis : x y z
#
# Youngs Moduli (GPa) = 57.22708 114.27326 55.45505
#
# Poissons Ratio (x) = 0.34757 0.11330
# Poissons Ratio (y) = 0.17406 0.26636
# Poissons Ratio (z) = 0.11692 0.54888
#
# Static dielectric constant tensor:
#      x y z
#    x 1.567190 0.000000 -0.005920 
#    y 0.000000 1.624540 0.000000 
#    z -0.005920 0.000000 1.570250 
# 
# From -- ./inp_files/185200.got.cif
#   From: 2010.05.17/outbox.cif.g08.bks.cpg/sg12_93_cif.got.tgz:185200.got - 2010.06.03 13:09:07.
