data_PCOD9181653
_publ_section_title
;
Structure prediction by ZEFSAII (Michael W. Deem and Ramdas Pophale) SiO2 
 PCOD9181653
Probable space group: C 2/M
;
_chemical_formula_sum "Si O2"
_cell_formula_units_Z 48
_cell_length_a 14.070120
_cell_length_b 32.204015
_cell_length_c 7.353997
_cell_angle_alpha 90.000000
_cell_angle_beta 36.902398
_cell_angle_gamma 90.000000
_cell_volume 2000.832767
_symmetry_space_group_name_H-M "C 2/M"
_symmetry_group_IT_number 12
_symmetry_cell_setting 'monoclinic'
loop_
_space_group_symop_operation_xyz
x,y,z
-x,y,-z
-x,-y,-z
x,-y,z
1/2+x,1/2+y,z
1/2-x,1/2+y,-z
1/2-x,1/2-y,-z
1/2+x,1/2-y,z
loop_
_atom_site_type_symbol
_atom_site_label
_atom_site_fract_x
_atom_site_fract_y
_atom_site_fract_z
Si Si1 0.639162 0.632308 0.932318
Si Si2 0.637243 0.455818 0.942752
Si Si3 0.036184 0.788004 0.656214
Si Si4 0.335246 0.217880 0.015063
Si Si5 0.492765 0.136333 0.232242
Si Si6 0.988304 0.544732 0.236423
O O1 0.633172 0.588564 0.049961
O O2 0.811329 0.638908 0.579247
O O3 0.500000 0.625466 0.000000
O O4 0.573707 0.674181 0.118704
O O5 0.624718 0.500000 0.063327
O O6 0.805749 0.455150 0.579850
O O7 0.500000 0.456953 0.000000
O O8 0.224328 0.792048 0.357187
O O9 0.000000 0.784893 0.500000
O O10 0.986574 0.745843 0.826957
O O11 0.250000 0.250000 0.000000
O O12 0.400136 0.173335 0.850249
O O13 0.552409 0.089941 0.195139
O O14 0.500000 0.139245 0.000000
O O15 0.056063 0.500000 0.197316
O O16 0.000000 0.544458 0.000000
#
# Coordination Sequence:
#
# PCOD9181653 Si02
#       6
#     8   8   8   8   8   8
#     4  10  19  32  53  82 112 143 181 227 279 326
#     4   8  14  25  43  70 105 142 177 214 261 320
#     4  10  21  37  55  74 101 135 179 226 275 335
#     4  10  21  37  55  75 102 139 182 226 276 334
#     4  10  19  32  53  83 116 147 183 229 280 328
#     4   8  14  25  43  71 109 147 178 214 264 322
#
# _framework density 23.990009000000001
#
# number of rings (size 3 to 8) (size 9 to 14) (size 15 to 20)
#    0.000    2.667    0.000    2.000    0.000    3.333 
#    0.000    3.333    0.000    0.500    0.000    3.500 
#    0.000   27.333    0.000    0.000    0.000    0.167 
#
# Total GULP energy -133615.641468 kJ/mol
# GULP energy per Si atom -5567.318395 kJ/mol
# Density = 2.393541 g / cm^3
# Si number density = 23.990009 Si / 1000 Ang^3
#
#
#
# Elastic Constant Matrix: (Units=GPa)
#
#
# Indices 1 2 3 4 5 6 
#
# 1 66.4860 22.1243 3.4696 0.0000 -8.4074 0.0000
# 2 22.1243 284.4870 85.2788 0.0000 -16.0128 0.0000
# 3 3.4696 85.2788 109.0371 0.0000 -14.8690 0.0000
# 4 0.0000 0.0000 0.0000 29.6122 0.0000 16.1621
# 5 -8.4074 -16.0128 -14.8690 0.0000 29.0204 0.0000
# 6 0.0000 0.0000 0.0000 16.1621 0.0000 10.9443
#
#
#
# Elastic Compliance Matrix: (Units=1/GPa)
#
#
# Indices 1 2 3 4 5 6 
#
# 1 0.015992 -0.001335 0.001147 0.000000 0.004484 0.000000
# 2 -0.001335 0.004718 -0.003597 0.000000 0.000374 0.000000
# 3 0.001147 -0.003597 0.012603 0.000000 0.004805 0.000000
# 4 0.000000 0.000000 0.000000 0.174080 0.000000 -0.257076
# 5 0.004484 0.000374 0.004805 0.000000 0.038426 0.000000
# 6 0.000000 0.000000 0.000000 -0.257076 0.000000 0.471012
#
#
# Mechanical properties :
#
#
# Convention : Reuss Voigt Hill
#
# Bulk Modulus (GPa) = 38.84506 75.75064 57.29785
# Shear Modulus (GPa) = 6.82145 37.19118 22.00631
#
# Velocity S-wave (km/s) = 1.68808 3.94163 3.03200
# Velocity P-wave (km/s) = 4.47514 7.23600 6.01608
#
# Compressibility (1/GPa) = 0.02574330
#
# Stress axis : x y z
#
# Youngs Moduli (GPa) = 62.53053 211.94979 79.34697
#
# Poissons Ratio (x) = 0.28297 -0.09099
# Poissons Ratio (y) = 0.08348 0.28538
# Poissons Ratio (z) = -0.07171 0.76230
#
# Static dielectric constant tensor:
#      x y z
#    x 2.245470 0.000000 -0.263100 
#    y 0.000000 1.919700 0.000000 
#    z -0.263100 0.000000 2.181930 
# 
# From -- ./inp_files/80595.got.cif
#   From: 2010.05.17/outbox.cif.g08.bks.cpg/sg12_41_cif.got.tgz:80595.got - 2010.06.03 13:09:07.
