data_PCOD9181772
_publ_section_title
;
Structure prediction by ZEFSAII (Michael W. Deem and Ramdas Pophale) SiO2 
 PCOD9181772
Probable space group: C 2/M
;
_chemical_formula_sum "Si O2"
_cell_formula_units_Z 64
_cell_length_a 23.014069
_cell_length_b 9.327914
_cell_length_c 21.756988
_cell_angle_alpha 90.000000
_cell_angle_beta 128.902044
_cell_angle_gamma 90.000000
_cell_volume 3634.791640
_symmetry_space_group_name_H-M "C 2/M"
_symmetry_group_IT_number 12
_symmetry_cell_setting 'monoclinic'
loop_
_space_group_symop_operation_xyz
x,y,z
-x,y,-z
-x,-y,-z
x,-y,z
1/2+x,1/2+y,z
1/2-x,1/2+y,-z
1/2-x,1/2-y,-z
1/2+x,1/2-y,z
loop_
_atom_site_type_symbol
_atom_site_label
_atom_site_fract_x
_atom_site_fract_y
_atom_site_fract_z
Si Si1 0.340922 0.329146 0.257208
Si Si2 0.166623 0.336822 0.875421
Si Si3 0.362451 0.829025 0.540142
Si Si4 0.001618 0.171110 0.573214
Si Si5 0.655043 0.664152 0.985442
Si Si6 0.189035 0.328120 0.228844
Si Si7 0.279788 0.828921 0.610190
Si Si8 0.087761 0.830117 0.067967
O O1 0.336695 0.500000 0.242493
O O2 0.344301 0.245991 0.195330
O O3 0.415948 0.301506 0.345488
O O4 0.267034 0.289124 0.246785
O O5 0.139979 0.500000 0.853197
O O6 0.255470 0.339776 0.948135
O O7 0.132769 0.254979 0.911375
O O8 0.438804 0.756347 0.568930
O O9 0.340812 0.802876 0.597311
O O10 0.294274 0.758294 0.456965
O O11 0.364829 0.000000 0.532174
O O12 0.000000 0.208814 0.500000
O O13 0.986746 0.000000 0.568289
O O14 0.628549 0.500000 0.960863
O O15 0.625357 0.723588 0.029963
O O16 0.180805 0.500000 0.218886
O O17 0.193695 0.290909 0.303870
O O18 0.122682 0.251304 0.148617
O O19 0.262545 0.000000 0.598076
O O20 0.104547 0.000000 0.085142
O O21 0.000000 0.813207 0.000000
#
# Coordination Sequence:
#
# PCOD9181772 Si02
#       8
#     8   8   8   8   8   8   8   8
#     4  10  20  34  55  81 107 142 184 226 273 327
#     4  10  19  32  54  80 104 137 176 223 271 316
#     4  10  20  35  57  85 116 147 185 230 272 320
#     4  10  21  38  58  80 112 151 187 224 274 333
#     4   9  18  34  54  76 106 139 174 216 267 326
#     4  10  20  36  59  82 106 140 186 230 268 322
#     4   9  19  37  59  82 112 150 186 224 272 325
#     4  10  21  38  57  79 110 143 176 223 278 328
#
# _framework density 17.607610999999999
#
# number of rings (size 3 to 8) (size 9 to 14) (size 15 to 20)
#    0.000    2.250    1.250    1.500    0.000    5.000 
#    2.250    1.250    0.000    0.000    0.000    0.000 
#    0.000    0.000    0.000    0.000    0.000    0.000 
#
# Total GULP energy -178529.877214 kJ/mol
# GULP energy per Si atom -5579.058663 kJ/mol
# Density = 1.756754 g / cm^3
# Si number density = 17.607611 Si / 1000 Ang^3
#
#
#
# Elastic Constant Matrix: (Units=GPa)
#
#
# Indices 1 2 3 4 5 6 
#
# 1 54.6519 32.4193 52.3383 0.0000 -11.6880 0.0000
# 2 32.4193 49.6029 61.7857 0.0000 -10.3509 0.0000
# 3 52.3383 61.7857 137.5183 0.0000 -31.5583 0.0000
# 4 0.0000 0.0000 0.0000 23.1475 0.0000 -2.0354
# 5 -11.6880 -10.3509 -31.5583 0.0000 29.5101 0.0000
# 6 0.0000 0.0000 0.0000 -2.0354 0.0000 23.2822
#
#
#
# Elastic Compliance Matrix: (Units=1/GPa)
#
#
# Indices 1 2 3 4 5 6 
#
# 1 0.032225 -0.013460 -0.005793 0.000000 0.001847 0.000000
# 2 -0.013460 0.052825 -0.020650 0.000000 -0.008886 0.000000
# 3 -0.005793 -0.020650 0.021953 0.000000 0.013939 0.000000
# 4 0.000000 0.000000 0.000000 0.043536 0.000000 0.003806
# 5 0.001847 -0.008886 0.013939 0.000000 0.046408 0.000000
# 6 0.000000 0.000000 0.000000 0.003806 0.000000 0.043284
#
#
# Mechanical properties :
#
#
# Convention : Reuss Voigt Hill
#
# Bulk Modulus (GPa) = 36.76937 59.42883 48.09910
# Shear Modulus (GPa) = 15.19277 21.53660 18.36469
#
# Velocity S-wave (km/s) = 2.94062 3.50114 3.23305
# Velocity P-wave (km/s) = 5.69716 7.08301 6.42755
#
# Compressibility (1/GPa) = 0.02719655
#
# Stress axis : x y z
#
# Youngs Moduli (GPa) = 31.03175 18.93051 45.55085
#
# Poissons Ratio (x) = 0.25480 0.26390
# Poissons Ratio (y) = 0.41768 0.94063
# Poissons Ratio (z) = 0.17978 0.39092
#
# Static dielectric constant tensor:
#      x y z
#    x 1.598840 0.000000 -0.005390 
#    y 0.000000 1.595590 0.000000 
#    z -0.005390 0.000000 1.573680 
# 
# From -- ./inp_files/324307.got.cif
#   From: 2010.05.17/outbox.cif.g08.bks.cpg/sg12_163_cif.got.tgz:324307.got - 2010.06.03 13:09:07.
