data_PCOD9181374
_publ_section_title
;
Structure prediction by ZEFSAII (Michael W. Deem and Ramdas Pophale) SiO2 
 PCOD9181374
Probable space group: C 2/M
;
_chemical_formula_sum "Si O2"
_cell_formula_units_Z 58
_cell_length_a 20.269650
_cell_length_b 7.758966
_cell_length_c 16.267811
_cell_angle_alpha 90.000000
_cell_angle_beta 73.886819
_cell_angle_gamma 90.000000
_cell_volume 2457.955060
_symmetry_space_group_name_H-M "C 2/M"
_symmetry_group_IT_number 12
_symmetry_cell_setting 'monoclinic'
loop_
_space_group_symop_operation_xyz
x,y,z
-x,y,-z
-x,-y,-z
x,-y,z
1/2+x,1/2+y,z
1/2-x,1/2+y,-z
1/2-x,1/2-y,-z
1/2+x,1/2-y,z
loop_
_atom_site_type_symbol
_atom_site_label
_atom_site_fract_x
_atom_site_fract_y
_atom_site_fract_z
Si Si1 0.898965 0.201028 0.861132
Si Si2 0.031561 0.196092 0.735950
Si Si3 0.896783 0.794789 0.059499
Si Si4 0.249422 0.297696 0.097030
Si Si5 0.674759 0.704827 0.427878
Si Si6 0.000000 0.500000 0.000000
Si Si7 0.035736 0.299839 0.402922
Si Si8 0.329338 0.708231 0.380655
O O1 0.826826 0.255688 0.846417
O O2 0.969649 0.284613 0.807002
O O3 0.904459 0.000000 0.840647
O O4 0.894011 0.220336 0.960707
O O5 0.107160 0.272583 0.696246
O O6 0.997555 0.191561 0.657612
O O7 0.042033 0.000000 0.763803
O O8 0.820217 0.735845 0.113487
O O9 0.953402 0.654459 0.060938
O O10 0.910166 0.000000 0.072885
O O11 0.256992 0.500000 0.097534
O O12 0.250000 0.250000 0.000000
O O13 0.616860 0.780409 0.388827
O O14 0.664506 0.768857 0.526088
O O15 0.753189 0.745276 0.377694
O O16 0.834224 0.000000 0.380854
O O17 0.019533 0.500000 0.392554
O O18 0.000000 0.247540 0.500000
O O19 0.334420 0.500000 0.568365
#
# Coordination Sequence:
#
# PCOD9181374 Si02
#       8
#     8   8   8   8   8   2   8   8
#     4   9  19  34  57  83 113 142 180 237 286 333
#     4  10  20  36  57  81 108 145 186 231 289 344
#     4   9  20  36  55  88 120 149 193 236 275 332
#     4   9  17  30  54  82 110 140 180 232 273 314
#     4  10  19  32  53  74 101 136 178 228 280 333
#     4  12  22  32  64  86 116 160 184 226 278 346
#     4  11  22  34  51  78 109 140 180 236 287 330
#     4   9  18  32  52  77 102 136 180 226 276 336
#
# _framework density 23.59685
#
# number of rings (size 3 to 8) (size 9 to 14) (size 15 to 20)
#    0.000    2.345    1.379    2.276    4.828    2.207 
#    0.000    0.000    3.034    0.000    0.000    0.000 
#    0.000    0.000    0.000    0.000    0.000    0.000 
#
# Total GULP energy -161578.112980 kJ/mol
# GULP energy per Si atom -5571.659068 kJ/mol
# Density = 2.354314 g / cm^3
# Si number density = 23.596850 Si / 1000 Ang^3
#
#
#
# Elastic Constant Matrix: (Units=GPa)
#
#
# Indices 1 2 3 4 5 6 
#
# 1 159.7526 18.1840 50.1448 0.0000 -39.0327 0.0000
# 2 18.1840 51.0056 11.3217 0.0000 -3.3665 0.0000
# 3 50.1448 11.3217 55.9641 0.0000 -23.9570 0.0000
# 4 0.0000 0.0000 0.0000 2.5436 0.0000 -8.7780
# 5 -39.0327 -3.3665 -23.9570 0.0000 44.1256 0.0000
# 6 0.0000 0.0000 0.0000 -8.7780 0.0000 6.7913
#
#
#
# Elastic Compliance Matrix: (Units=1/GPa)
#
#
# Indices 1 2 3 4 5 6 
#
# 1 0.009605 -0.001739 -0.006089 0.000000 0.005057 0.000000
# 2 -0.001739 0.020870 -0.003440 0.000000 -0.001814 0.000000
# 3 -0.006089 -0.003440 0.028143 0.000000 0.009631 0.000000
# 4 0.000000 0.000000 0.000000 -0.113610 0.000000 -0.146843
# 5 0.005057 -0.001814 0.009631 0.000000 0.032227 0.000000
# 6 0.000000 0.000000 0.000000 -0.146843 0.000000 -0.042552
#
#
# Mechanical properties :
#
#
# Convention : Reuss Voigt Hill
#
# Bulk Modulus (GPa) = 27.71553 47.33593 37.52573
# Shear Modulus (GPa) = -162.58463 23.16356 -69.71053
#
# Velocity S-wave (km/s) = -8.30967 3.13651 -5.44118
# Velocity P-wave (km/s) = 8.96083 5.76374 4.85158
#
# Compressibility (1/GPa) = 0.03608086
#
# Stress axis : x y z
#
# Youngs Moduli (GPa) = 104.11649 47.91672 35.53227
#
# Poissons Ratio (x) = 0.08331 0.21636
# Poissons Ratio (y) = 0.18103 0.12225
# Poissons Ratio (z) = 0.63398 0.16486
#
# Static dielectric constant tensor:
#      x y z
#    x 1.952930 0.000000 -0.054230 
#    y 0.000000 1.868840 0.000000 
#    z -0.054230 0.000000 1.926050 
# 
# From -- ./inp_files/281145.got.cif
#   From: 2010.05.17/outbox.cif.g08.bks.cpg/sg12_141_cif.got.tgz:281145.got - 2010.06.03 13:09:07.
