data_PCOD9181474
_publ_section_title
;
Structure prediction by ZEFSAII (Michael W. Deem and Ramdas Pophale) SiO2 
 PCOD9181474
Probable space group: C 2/M
;
_chemical_formula_sum "Si O2"
_cell_formula_units_Z 56
_cell_length_a 12.320180
_cell_length_b 21.562867
_cell_length_c 11.871417
_cell_angle_alpha 90.000000
_cell_angle_beta 113.936491
_cell_angle_gamma 90.000000
_cell_volume 2882.506459
_symmetry_space_group_name_H-M "C 2/M"
_symmetry_group_IT_number 12
_symmetry_cell_setting 'monoclinic'
loop_
_space_group_symop_operation_xyz
x,y,z
-x,y,-z
-x,-y,-z
x,-y,z
1/2+x,1/2+y,z
1/2-x,1/2+y,-z
1/2-x,1/2-y,-z
1/2+x,1/2-y,z
loop_
_atom_site_type_symbol
_atom_site_label
_atom_site_fract_x
_atom_site_fract_y
_atom_site_fract_z
Si Si1 0.407998 0.361805 0.364222
Si Si2 0.704401 0.161102 0.451586
Si Si3 0.340844 0.162078 0.073460
Si Si4 0.456534 0.072617 0.744719
Si Si5 0.241647 0.568383 0.144474
Si Si6 0.618700 0.274244 0.080600
Si Si7 0.100880 0.217212 0.332160
O O1 0.500000 0.381536 0.500000
O O2 0.295234 0.334229 0.383358
O O3 0.356511 0.416487 0.267278
O O4 0.476520 0.313117 0.314569
O O5 0.622403 0.101848 0.390414
O O6 0.794530 0.167668 0.594312
O O7 0.624213 0.222410 0.417932
O O8 0.438823 0.120930 0.179626
O O9 0.243601 0.192629 0.113087
O O10 0.272763 0.116925 0.959786
O O11 0.386104 0.216457 0.008542
O O12 0.370483 0.072849 0.818059
O O13 0.490243 0.000000 0.739901
O O14 0.244729 0.500000 0.097973
O O15 0.608339 0.260516 0.207878
O O16 0.500000 0.312893 0.000000
#
# Coordination Sequence:
#
# PCOD9181474 Si02
#       7
#     8   8   8   8   8   8   8
#     4   9  18  33  53  79 107 135 173 221 270 319
#     4   9  19  34  55  83 109 135 174 222 272 323
#     4  11  22  35  54  80 110 141 178 221 266 317
#     4  10  20  36  58  82 109 141 179 225 273 319
#     4  10  19  32  53  78 104 136 175 219 265 314
#     4  11  22  35  55  80 108 142 177 218 268 320
#     4  10  19  34  55  79 109 141 174 219 272 323
#
# _framework density 19.427537000000001
#
# number of rings (size 3 to 8) (size 9 to 14) (size 15 to 20)
#    0.000    2.000    0.000    5.143    0.000    4.857 
#    0.000    4.286    0.000   10.286    0.000    0.000 
#    0.000    0.000    0.000    0.000    0.000    0.000 
#
# Total GULP energy -156118.004630 kJ/mol
# GULP energy per Si atom -5575.643022 kJ/mol
# Density = 1.938332 g / cm^3
# Si number density = 19.427537 Si / 1000 Ang^3
#
#
#
# Elastic Constant Matrix: (Units=GPa)
#
#
# Indices 1 2 3 4 5 6 
#
# 1 73.3671 36.0584 22.9364 0.0000 18.5792 0.0000
# 2 36.0584 88.7646 29.8552 0.0000 17.2347 0.0000
# 3 22.9364 29.8552 70.7218 0.0000 14.6884 0.0000
# 4 0.0000 0.0000 0.0000 16.9876 0.0000 4.2521
# 5 18.5792 17.2347 14.6884 0.0000 22.5935 0.0000
# 6 0.0000 0.0000 0.0000 4.2521 0.0000 9.4731
#
#
#
# Elastic Compliance Matrix: (Units=1/GPa)
#
#
# Indices 1 2 3 4 5 6 
#
# 1 0.019521 -0.005185 -0.001884 0.000000 -0.010872 0.000000
# 2 -0.005185 0.015677 -0.003859 0.000000 -0.005186 0.000000
# 3 -0.001884 -0.003859 0.017858 0.000000 -0.007117 0.000000
# 4 0.000000 0.000000 0.000000 0.066317 0.000000 -0.029767
# 5 -0.010872 -0.005186 -0.007117 0.000000 0.061784 0.000000
# 6 0.000000 0.000000 0.000000 -0.029767 0.000000 0.118923
#
#
# Mechanical properties :
#
#
# Convention : Reuss Voigt Hill
#
# Bulk Modulus (GPa) = 32.05222 45.61705 38.83463
# Shear Modulus (GPa) = 15.04498 19.41106 17.22802
#
# Velocity S-wave (km/s) = 2.78585 3.16437 2.98112
# Velocity P-wave (km/s) = 5.18480 6.07310 5.64644
#
# Compressibility (1/GPa) = 0.03119908
#
# Stress axis : x y z
#
# Youngs Moduli (GPa) = 51.22767 63.78758 55.99655
#
# Poissons Ratio (x) = 0.33075 0.10549
# Poissons Ratio (y) = 0.26562 0.21611
# Poissons Ratio (z) = 0.09651 0.24618
#
# Static dielectric constant tensor:
#      x y z
#    x 1.703580 0.000000 0.034140 
#    y 0.000000 1.680170 0.000000 
#    z 0.034140 0.000000 1.712420 
# 
# From -- ./inp_files/135487.got.cif
#   From: 2010.05.17/outbox.cif.g08.bks.cpg/sg12_68_cif.got.tgz:135487.got - 2010.06.03 13:09:07.
