data_PCOD9181504
_publ_section_title
;
Structure prediction by ZEFSAII (Michael W. Deem and Ramdas Pophale) SiO2 
 PCOD9181504
Probable space group: C 2/M
;
_chemical_formula_sum "Si O2"
_cell_formula_units_Z 64
_cell_length_a 15.917466
_cell_length_b 9.570084
_cell_length_c 28.381685
_cell_angle_alpha 90.000000
_cell_angle_beta 139.150104
_cell_angle_gamma 90.000000
_cell_volume 2827.863552
_symmetry_space_group_name_H-M "C 2/M"
_symmetry_group_IT_number 12
_symmetry_cell_setting 'monoclinic'
loop_
_space_group_symop_operation_xyz
x,y,z
-x,y,-z
-x,-y,-z
x,-y,z
1/2+x,1/2+y,z
1/2-x,1/2+y,-z
1/2-x,1/2-y,-z
1/2+x,1/2-y,z
loop_
_atom_site_type_symbol
_atom_site_label
_atom_site_fract_x
_atom_site_fract_y
_atom_site_fract_z
Si Si1 0.726769 0.161422 0.410950
Si Si2 0.856928 0.841864 0.204930
Si Si3 0.927298 0.337367 0.829662
Si Si4 0.215026 0.341724 0.910414
Si Si5 0.954512 0.662986 0.534554
Si Si6 0.151381 0.839172 0.291012
Si Si7 0.490555 0.339204 0.052283
Si Si8 0.067394 0.339947 0.677476
O O1 0.833230 0.235904 0.487860
O O2 0.721378 0.248300 0.360268
O O3 0.583751 0.165224 0.371771
O O4 0.760090 0.000000 0.416819
O O5 0.782225 0.761673 0.132383
O O6 0.003897 0.844179 0.247587
O O7 0.861766 0.762128 0.256606
O O8 0.813385 0.000000 0.191822
O O9 0.888343 0.500000 0.811509
O O10 0.076774 0.332571 0.876082
O O11 0.931421 0.268307 0.882857
O O12 0.853650 0.240166 0.760898
O O13 0.226836 0.500000 0.896533
O O14 0.337405 0.320925 0.995657
O O15 0.918023 0.500000 0.526561
O O16 0.060930 0.695039 0.619377
O O17 0.000000 0.676248 0.500000
O O18 0.196645 0.000000 0.307490
O O19 0.524840 0.500000 0.078830
O O20 0.500000 0.322139 0.000000
O O21 0.111034 0.500000 0.702794
#
# Coordination Sequence:
#
# PCOD9181504 Si02
#       8
#     8   8   8   8   8   8   8   8
#     4  10  19  32  53  79 104 130 164 209 257 300
#     4   9  17  29  50  79 104 127 161 207 254 299
#     4  10  19  32  53  79 104 130 164 209 257 300
#     4   9  18  33  53  76 102 132 166 206 252 301
#     4  10  21  36  52  72 101 138 176 209 246 298
#     4   9  17  31  52  77 104 131 163 205 250 301
#     4  10  21  36  52  72 101 138 176 209 246 298
#     4   9  18  33  53  76 102 132 166 206 252 301
#
# _framework density 22.631926
#
# number of rings (size 3 to 8) (size 9 to 14) (size 15 to 20)
#    0.000    2.500    0.000    2.250    0.000    5.500 
#    0.000    1.250    0.000    3.000    0.000    0.000 
#    0.000    0.000    0.000    0.000    0.000    0.000 
#
# Total GULP energy -178976.869220 kJ/mol
# GULP energy per Si atom -5593.027163 kJ/mol
# Density = 2.258042 g / cm^3
# Si number density = 22.631926 Si / 1000 Ang^3
#
#
#
# Elastic Constant Matrix: (Units=GPa)
#
#
# Indices 1 2 3 4 5 6 
#
# 1 86.8015 38.0175 11.6516 0.0000 -15.8839 0.0000
# 2 38.0175 162.1072 85.5261 0.0000 -32.2693 0.0000
# 3 11.6516 85.5261 96.8161 0.0000 -22.0835 0.0000
# 4 0.0000 0.0000 0.0000 40.8431 0.0000 -8.4588
# 5 -15.8839 -32.2693 -22.0835 0.0000 45.2401 0.0000
# 6 0.0000 0.0000 0.0000 -8.4588 0.0000 13.3648
#
#
#
# Elastic Compliance Matrix: (Units=1/GPa)
#
#
# Indices 1 2 3 4 5 6 
#
# 1 0.013452 -0.003836 0.002501 0.000000 0.003208 0.000000
# 2 -0.003836 0.013214 -0.010543 0.000000 0.002933 0.000000
# 3 0.002501 -0.010543 0.020060 0.000000 0.003150 0.000000
# 4 0.000000 0.000000 0.000000 0.028177 0.000000 0.017834
# 5 0.003208 0.002933 0.003150 0.000000 0.026860 0.000000
# 6 0.000000 0.000000 0.000000 0.017834 0.000000 0.086111
#
#
# Mechanical properties :
#
#
# Convention : Reuss Voigt Hill
#
# Bulk Modulus (GPa) = 43.53266 68.45726 55.99496
# Shear Modulus (GPa) = 22.80122 33.92490 28.36306
#
# Velocity S-wave (km/s) = 3.17753 3.87587 3.54394
# Velocity P-wave (km/s) = 5.72181 7.09532 6.44526
#
# Compressibility (1/GPa) = 0.02297126
#
# Stress axis : x y z
#
# Youngs Moduli (GPa) = 74.33936 75.67492 49.85090
#
# Poissons Ratio (x) = 0.29028 -0.12469
# Poissons Ratio (y) = 0.28515 0.52557
# Poissons Ratio (z) = -0.18595 0.79783
#
# Static dielectric constant tensor:
#      x y z
#    x 1.931930 0.000000 0.044300 
#    y 0.000000 1.765990 0.000000 
#    z 0.044300 0.000000 1.796800 
# 
# From -- ./inp_files/378538.got.cif
#   From: 2010.05.17/outbox.cif.g08.bks.cpg/sg12_190_cif.got.tgz:378538.got - 2010.06.03 13:09:07.
