data_PCOD9181985
_publ_section_title
;
Structure prediction by ZEFSAII (Michael W. Deem and Ramdas Pophale) SiO2 
 PCOD9181985
Probable space group: C 2/M
;
_chemical_formula_sum "Si O2"
_cell_formula_units_Z 48
_cell_length_a 13.541488
_cell_length_b 24.050508
_cell_length_c 12.993552
_cell_angle_alpha 90.000000
_cell_angle_beta 45.406755
_cell_angle_gamma 90.000000
_cell_volume 3013.456305
_symmetry_space_group_name_H-M "C 2/M"
_symmetry_group_IT_number 12
_symmetry_cell_setting 'monoclinic'
loop_
_space_group_symop_operation_xyz
x,y,z
-x,y,-z
-x,-y,-z
x,-y,z
1/2+x,1/2+y,z
1/2-x,1/2+y,-z
1/2-x,1/2-y,-z
1/2+x,1/2-y,z
loop_
_atom_site_type_symbol
_atom_site_label
_atom_site_fract_x
_atom_site_fract_y
_atom_site_fract_z
Si Si1 0.123561 0.269989 0.328321
Si Si2 0.564258 0.064885 0.839541
Si Si3 0.424563 0.833633 0.842157
Si Si4 0.436189 0.726435 0.160666
Si Si5 0.129090 0.164988 0.173332
Si Si6 0.379167 0.434879 0.670341
O O1 0.095321 0.316061 0.261282
O O2 0.271609 0.279207 0.273347
O O3 0.131949 0.211807 0.260138
O O4 0.000000 0.268512 0.500000
O O5 0.493799 0.107107 0.812541
O O6 0.728642 0.074275 0.729169
O O7 0.539069 0.000000 0.833894
O O8 0.500000 0.075859 0.000000
O O9 0.519081 0.786449 0.827071
O O10 0.274832 0.831892 0.006758
O O11 0.508491 0.682021 0.182691
O O12 0.500000 0.721553 0.000000
O O13 0.109793 0.105806 0.241046
O O14 0.500000 0.423349 0.500000
O O15 0.386361 0.500000 0.694333
#
# Coordination Sequence:
#
# PCOD9181985 Si02
#       6
#     8   8   8   8   8   8
#     4  11  23  35  50  79 108 132 171 215 254 300
#     4  10  19  32  55  81 102 131 171 212 255 304
#     4  11  20  33  56  77 103 136 173 211 252 303
#     4  11  19  34  54  74 103 140 170 206 256 303
#     4  11  20  33  56  78 100 140 174 205 252 310
#     4  10  21  35  52  79 110 133 163 214 263 300
#
# _framework density 15.928554
#
# number of rings (size 3 to 8) (size 9 to 14) (size 15 to 20)
#    0.000    1.333    5.000    3.000    0.000    4.000 
#    0.000    0.000    0.000    2.000    0.000    0.000 
#    0.000    0.000    0.000    0.000    0.000    0.000 
#
# Total GULP energy -134026.438363 kJ/mol
# GULP energy per Si atom -5584.434932 kJ/mol
# Density = 1.589230 g / cm^3
# Si number density = 15.928554 Si / 1000 Ang^3
#
#
#
# Elastic Constant Matrix: (Units=GPa)
#
#
# Indices 1 2 3 4 5 6 
#
# 1 125.0444 52.2255 50.4854 0.0000 -14.2309 0.0000
# 2 52.2255 62.4677 27.3109 0.0000 1.1985 0.0000
# 3 50.4854 27.3109 108.4209 0.0000 -20.0968 0.0000
# 4 0.0000 0.0000 0.0000 12.8742 0.0000 0.0339
# 5 -14.2309 1.1985 -20.0968 0.0000 26.6041 0.0000
# 6 0.0000 0.0000 0.0000 0.0339 0.0000 21.3457
#
#
#
# Elastic Compliance Matrix: (Units=1/GPa)
#
#
# Indices 1 2 3 4 5 6 
#
# 1 0.014381 -0.010902 -0.002829 0.000000 0.006046 0.000000
# 2 -0.010902 0.026826 -0.003472 0.000000 -0.009663 0.000000
# 3 -0.002829 -0.003472 0.012982 0.000000 0.008449 0.000000
# 4 0.000000 0.000000 0.000000 0.077675 0.000000 -0.000123
# 5 0.006046 -0.009663 0.008449 0.000000 0.047640 0.000000
# 6 0.000000 0.000000 0.000000 -0.000123 0.000000 0.046848
#
#
# Mechanical properties :
#
#
# Convention : Reuss Voigt Hill
#
# Bulk Modulus (GPa) = 50.55215 61.77517 56.16366
# Shear Modulus (GPa) = 18.70189 23.22556 20.96372
#
# Velocity S-wave (km/s) = 3.43025 3.82266 3.63176
# Velocity P-wave (km/s) = 6.89163 7.63875 7.27479
#
# Compressibility (1/GPa) = 0.01978155
#
# Stress axis : x y z
#
# Youngs Moduli (GPa) = 69.53673 37.27703 77.03216
#
# Poissons Ratio (x) = 0.40639 0.21796
# Poissons Ratio (y) = 0.75809 0.26747
# Poissons Ratio (z) = 0.19675 0.12943
#
# Static dielectric constant tensor:
#      x y z
#    x 1.516850 0.000000 -0.010760 
#    y 0.000000 1.530810 0.000000 
#    z -0.010760 0.000000 1.519900 
# 
# From -- ./inp_files/50583.got.cif
#   From: 2010.05.17/outbox.cif.g08.bks.cpg/sg12_26_cif.got.tgz:50583.got - 2010.06.03 13:09:07.
