data_PCOD9181353
_publ_section_title
;
Structure prediction by ZEFSAII (Michael W. Deem and Ramdas Pophale) SiO2 
 PCOD9181353
Probable space group: C 2/M
;
_chemical_formula_sum "Si O2"
_cell_formula_units_Z 64
_cell_length_a 9.013593
_cell_length_b 29.313020
_cell_length_c 17.293592
_cell_angle_alpha 90.000000
_cell_angle_beta 43.679023
_cell_angle_gamma 90.000000
_cell_volume 3155.596061
_symmetry_space_group_name_H-M "C 2/M"
_symmetry_group_IT_number 12
_symmetry_cell_setting 'monoclinic'
loop_
_space_group_symop_operation_xyz
x,y,z
-x,y,-z
-x,-y,-z
x,-y,z
1/2+x,1/2+y,z
1/2-x,1/2+y,-z
1/2-x,1/2-y,-z
1/2+x,1/2-y,z
loop_
_atom_site_type_symbol
_atom_site_label
_atom_site_fract_x
_atom_site_fract_y
_atom_site_fract_z
Si Si1 0.896653 0.191976 0.700143
Si Si2 0.179582 0.398319 0.322058
Si Si3 0.294277 0.051758 0.413259
Si Si4 0.031104 0.948203 0.667664
Si Si5 0.650875 0.900336 0.765922
Si Si6 0.527731 0.227896 0.733185
Si Si7 0.267810 0.358886 0.123951
Si Si8 0.886238 0.310872 0.467782
O O1 0.770856 0.144656 0.750491
O O2 0.736432 0.221955 0.707290
O O3 0.936460 0.220930 0.763150
O O4 0.133788 0.182598 0.577331
O O5 0.349673 0.412772 0.321824
O O6 0.282789 0.380797 0.203642
O O7 0.026801 0.441551 0.364149
O O8 0.018176 0.357886 0.407982
O O9 0.122559 0.058716 0.545996
O O10 0.296934 0.089325 0.344449
O O11 0.269546 0.000000 0.392393
O O12 0.775292 0.940299 0.762796
O O13 0.082906 0.000000 0.669792
O O14 0.397633 0.891013 0.862005
O O15 0.353676 0.189843 0.823144
O O16 0.589569 0.216136 0.621247
O O17 0.500000 0.354620 0.000000
O O18 0.000000 0.288655 0.500000
#
# Coordination Sequence:
#
# PCOD9181353 Si02
#       8
#     8   8   8   8   8   8   8   8
#     4  11  21  35  53  79 115 145 180 225 274 336
#     4  10  20  33  56  85 114 152 192 231 279 333
#     4  10  19  32  52  82 121 159 189 217 264 336
#     4  11  21  34  56  89 126 154 183 231 283 336
#     4  10  21  35  56  82 110 151 192 228 276 337
#     4  10  22  36  55  82 109 146 186 227 281 337
#     4   9  21  43  64  79 104 145 196 247 288 338
#     4  11  20  32  52  79 117 154 181 212 264 337
#
# _framework density 20.28143
#
# number of rings (size 3 to 8) (size 9 to 14) (size 15 to 20)
#    0.000    1.750    0.000    6.000    0.000    6.000 
#    0.000    3.125    0.000   14.250    0.000    0.000 
#    0.000    0.000    0.000    0.000    0.000    0.000 
#
# Total GULP energy -178676.580404 kJ/mol
# GULP energy per Si atom -5583.643138 kJ/mol
# Density = 2.023527 g / cm^3
# Si number density = 20.281430 Si / 1000 Ang^3
#
#
#
# Elastic Constant Matrix: (Units=GPa)
#
#
# Indices 1 2 3 4 5 6 
#
# 1 96.0552 20.3310 27.3558 0.0000 -28.7955 0.0000
# 2 20.3310 72.1668 15.8113 0.0000 -7.3212 0.0000
# 3 27.3558 15.8113 98.0235 0.0000 -32.5960 0.0000
# 4 0.0000 0.0000 0.0000 12.7733 0.0000 -3.0628
# 5 -28.7955 -7.3212 -32.5960 0.0000 22.0708 0.0000
# 6 0.0000 0.0000 0.0000 -3.0628 0.0000 44.3542
#
#
#
# Elastic Compliance Matrix: (Units=1/GPa)
#
#
# Indices 1 2 3 4 5 6 
#
# 1 0.019347 -0.003437 0.006229 0.000000 0.033301 0.000000
# 2 -0.003437 0.015054 -0.002554 0.000000 -0.003262 0.000000
# 3 0.006229 -0.002554 0.022197 0.000000 0.040062 0.000000
# 4 0.000000 0.000000 0.000000 0.079606 0.000000 0.005497
# 5 0.033301 -0.003262 0.040062 0.000000 0.146842 0.000000
# 6 0.000000 0.000000 0.000000 0.005497 0.000000 0.022925
#
#
# Mechanical properties :
#
#
# Convention : Reuss Voigt Hill
#
# Bulk Modulus (GPa) = 17.52099 43.69354 30.60727
# Shear Modulus (GPa) = 15.40736 29.35616 22.38176
#
# Velocity S-wave (km/s) = 2.75922 3.80865 3.32559
# Velocity P-wave (km/s) = 4.33690 6.39777 5.46535
#
# Compressibility (1/GPa) = 0.05707439
#
# Stress axis : x y z
#
# Youngs Moduli (GPa) = 51.68675 66.42926 45.05050
#
# Poissons Ratio (x) = 0.22831 -0.28061
# Poissons Ratio (y) = 0.17764 0.11505
# Poissons Ratio (z) = -0.32195 0.16965
#
# Static dielectric constant tensor:
#      x y z
#    x 1.757990 0.000000 0.003130 
#    y 0.000000 1.792710 0.000000 
#    z 0.003130 0.000000 1.675840 
# 
# From -- ./inp_files/260329.got.cif
#   From: 2010.05.17/outbox.cif.g08.bks.cpg/sg12_131_cif.got.tgz:260329.got - 2010.06.03 13:09:07.
