data_PCOD9181212
_publ_section_title
;
Structure prediction by ZEFSAII (Michael W. Deem and Ramdas Pophale) SiO2 
 PCOD9181212
Probable space group: C 2/M
;
_chemical_formula_sum "Si O2"
_cell_formula_units_Z 48
_cell_length_a 20.206198
_cell_length_b 16.149632
_cell_length_c 14.389076
_cell_angle_alpha 90.000000
_cell_angle_beta 154.462722
_cell_angle_gamma 90.000000
_cell_volume 2024.213889
_symmetry_space_group_name_H-M "C 2/M"
_symmetry_group_IT_number 12
_symmetry_cell_setting 'monoclinic'
loop_
_space_group_symop_operation_xyz
x,y,z
-x,y,-z
-x,-y,-z
x,-y,z
1/2+x,1/2+y,z
1/2-x,1/2+y,-z
1/2-x,1/2-y,-z
1/2+x,1/2-y,z
loop_
_atom_site_type_symbol
_atom_site_label
_atom_site_fract_x
_atom_site_fract_y
_atom_site_fract_z
Si Si1 0.893748 0.589191 0.038616
Si Si2 0.197952 0.093054 0.399298
Si Si3 0.263649 0.117282 0.678577
Si Si4 0.183390 0.806331 0.212947
Si Si5 0.432493 0.278711 0.124293
Si Si6 0.060214 0.857614 0.673842
O O1 0.952978 0.500000 0.148716
O O2 0.870197 0.589288 0.897406
O O3 0.716196 0.595027 0.849956
O O4 0.956829 0.680665 0.143799
O O5 0.303994 0.090628 0.625692
O O6 0.255376 0.124514 0.371539
O O7 0.076801 0.163391 0.278644
O O8 0.133709 0.000000 0.306804
O O9 0.264435 0.216963 0.685527
O O10 0.088626 0.091541 0.480024
O O11 0.193636 0.805342 0.113807
O O12 0.000000 0.811688 0.000000
O O13 0.401870 0.297796 0.192541
O O14 0.000000 0.819644 0.500000
#
# Coordination Sequence:
#
# PCOD9181212 Si02
#       6
#     8   8   8   8   8   8
#     4  10  19  32  52  78 105 134 171 211 252 300
#     4  10  19  32  54  80 104 134 173 211 249 299
#     4   9  18  32  51  75 104 135 167 212 257 294
#     4   9  18  32  52  74 103 137 167 206 255 304
#     4   9  19  33  49  75 106 134 165 207 258 300
#     4   9  18  31  51  75 100 133 171 209 253 300
#
# _framework density 23.712909
#
# number of rings (size 3 to 8) (size 9 to 14) (size 15 to 20)
#    0.000    2.667    0.000    1.500    0.000    8.667 
#    0.000    0.000    0.000   58.000    0.000    4.667 
#    0.000    0.000    0.000    0.000    0.000    0.000 
#
# Total GULP energy -133855.527271 kJ/mol
# GULP energy per Si atom -5577.313636 kJ/mol
# Density = 2.365894 g / cm^3
# Si number density = 23.712909 Si / 1000 Ang^3
#
#
#
# Elastic Constant Matrix: (Units=GPa)
#
#
# Indices 1 2 3 4 5 6 
#
# 1 122.8001 47.6221 46.2820 0.0000 -42.0278 0.0000
# 2 47.6221 179.9253 57.6534 0.0000 -36.7635 0.0000
# 3 46.2820 57.6534 94.2856 0.0000 -36.6178 0.0000
# 4 0.0000 0.0000 0.0000 16.0781 0.0000 -2.3457
# 5 -42.0278 -36.7635 -36.6178 0.0000 60.0684 0.0000
# 6 0.0000 0.0000 0.0000 -2.3457 0.0000 -33.4310
#
#
#
# Elastic Compliance Matrix: (Units=1/GPa)
#
#
# Indices 1 2 3 4 5 6 
#
# 1 0.011564 -0.000972 -0.002844 0.000000 0.005762 0.000000
# 2 -0.000972 0.007216 -0.003255 0.000000 0.001752 0.000000
# 3 -0.002844 -0.003255 0.016307 0.000000 0.005958 0.000000
# 4 0.000000 0.000000 0.000000 0.061566 0.000000 -0.004320
# 5 0.005762 0.001752 0.005958 0.000000 0.025384 0.000000
# 6 0.000000 0.000000 0.000000 -0.004320 0.000000 -0.029609
#
#
# Mechanical properties :
#
#
# Convention : Reuss Voigt Hill
#
# Bulk Modulus (GPa) = 47.74456 77.79178 62.76817
# Shear Modulus (GPa) = 44.03268 24.90666 34.46967
#
# Velocity S-wave (km/s) = 4.31386 3.24441 3.81678
# Velocity P-wave (km/s) = 6.70751 6.84922 6.77873
#
# Compressibility (1/GPa) = 0.02094480
#
# Stress axis : x y z
#
# Youngs Moduli (GPa) = 86.47215 138.57896 61.32487
#
# Poissons Ratio (x) = 0.13470 0.17443
# Poissons Ratio (y) = 0.08405 0.19960
# Poissons Ratio (z) = 0.24595 0.45105
#
# Static dielectric constant tensor:
#      x y z
#    x 1.978450 0.000000 0.031080 
#    y 0.000000 1.889640 0.000000 
#    z 0.031080 0.000000 2.037380 
# 
# From -- ./inp_files/240742.got.cif
#   From: 2010.05.17/outbox.cif.g08.bks.cpg/sg12_121_cif.got.tgz:240742.got - 2010.06.03 13:09:07.
