data_PCOD9181044
_publ_section_title
;
Structure prediction by ZEFSAII (Michael W. Deem and Ramdas Pophale) SiO2 
 PCOD9181044
Probable space group: C 2/M
;
_chemical_formula_sum "Si O2"
_cell_formula_units_Z 48
_cell_length_a 21.326430
_cell_length_b 19.127965
_cell_length_c 16.414132
_cell_angle_alpha 90.000000
_cell_angle_beta 163.810304
_cell_angle_gamma 90.000000
_cell_volume 1866.922491
_symmetry_space_group_name_H-M "C 2/M"
_symmetry_group_IT_number 12
_symmetry_cell_setting 'monoclinic'
loop_
_space_group_symop_operation_xyz
x,y,z
-x,y,-z
-x,-y,-z
x,-y,z
1/2+x,1/2+y,z
1/2-x,1/2+y,-z
1/2-x,1/2-y,-z
1/2+x,1/2-y,z
loop_
_atom_site_type_symbol
_atom_site_label
_atom_site_fract_x
_atom_site_fract_y
_atom_site_fract_z
Si Si1 0.902611 0.073387 0.704046
Si Si2 0.348375 0.383051 0.241216
Si Si3 0.048318 0.211108 0.155647
Si Si4 0.358819 0.231258 0.222513
Si Si5 0.403511 0.138545 0.790024
Si Si6 0.364043 0.077530 0.196638
O O1 0.783545 0.083903 0.468655
O O2 0.835704 0.140246 0.671888
O O3 0.166791 0.074065 0.018082
O O4 0.833226 0.000000 0.653762
O O5 0.500000 0.419572 0.500000
O O6 0.470220 0.307104 0.378880
O O7 0.268940 0.415251 0.055995
O O8 0.110453 0.371305 0.987813
O O9 0.186930 0.282753 0.336212
O O10 0.827479 0.220847 0.937991
O O11 0.000000 0.205836 0.000000
O O12 0.250000 0.250000 0.000000
O O13 0.472199 0.154475 0.351368
O O14 0.500000 0.130786 0.000000
O O15 0.475520 0.000000 0.338714
#
# Coordination Sequence:
#
# PCOD9181044 Si02
#       6
#     8   8   8   8   8   8
#     4  10  20  34  53  77 108 143 176 216 267 323
#     4  10  19  32  52  75 100 132 172 217 262 312
#     4   9  18  33  54  81 108 138 176 221 270 320
#     4   8  16  32  52  75 100 132 174 216 259 311
#     4  10  20  34  53  78 107 138 177 225 272 318
#     4   9  18  33  52  73  99 133 170 208 257 316
#
# _framework density 25.710761999999999
#
# number of rings (size 3 to 8) (size 9 to 14) (size 15 to 20)
#    0.000    2.667    0.000    1.500    0.000    1.667 
#    0.000   10.000    0.000    0.500    0.000    0.000 
#    0.000    0.000    0.000    0.000    0.000    0.500 
#
# Total GULP energy -133937.640359 kJ/mol
# GULP energy per Si atom -5580.735015 kJ/mol
# Density = 2.565224 g / cm^3
# Si number density = 25.710762 Si / 1000 Ang^3
#
#
#
# Elastic Constant Matrix: (Units=GPa)
#
#
# Indices 1 2 3 4 5 6 
#
# 1 139.9972 15.1260 13.0007 0.0001 5.7149 0.0001
# 2 15.1260 167.2881 6.9594 0.0002 5.9138 0.0001
# 3 13.0007 6.9594 25.5086 0.0010 0.9174 0.0007
# 4 0.0001 0.0002 0.0010 4.6486 0.0003 0.7920
# 5 5.7149 5.9138 0.9174 0.0003 36.0429 0.0002
# 6 0.0001 0.0001 0.0007 0.7920 0.0002 0.4086
#
#
#
# Elastic Compliance Matrix: (Units=1/GPa)
#
#
# Indices 1 2 3 4 5 6 
#
# 1 0.007581 -0.000496 -0.003692 0.000000 -0.001027 0.000004
# 2 -0.000496 0.006111 -0.001383 0.000000 -0.000889 0.000001
# 3 -0.003692 -0.001383 0.041470 0.000003 -0.000243 -0.000071
# 4 0.000000 0.000000 0.000003 0.321186 0.000000 -0.622583
# 5 -0.001027 -0.000889 -0.000243 0.000000 0.028060 -0.000012
# 6 0.000004 0.000001 -0.000071 -0.622583 -0.000012 3.654395
#
#
# Mechanical properties :
#
#
# Convention : Reuss Voigt Hill
#
# Bulk Modulus (GPa) = 22.71569 44.77402 33.74486
# Shear Modulus (GPa) = 1.22410 28.06721 14.64566
#
# Velocity S-wave (km/s) = 0.69075 3.30760 2.38928
# Velocity P-wave (km/s) = 3.08066 5.66032 4.55685
#
# Compressibility (1/GPa) = 0.04402243
#
# Stress axis : x y z
#
# Youngs Moduli (GPa) = 131.90367 163.62662 24.11385
#
# Poissons Ratio (x) = 0.08110 0.08902
# Poissons Ratio (y) = 0.06537 0.03334
# Poissons Ratio (z) = 0.48695 0.22626
#
# Static dielectric constant tensor:
#      x y z
#    x 2.073860 0.000000 0.017520 
#    y 0.000000 2.084540 0.000000 
#    z 0.017520 0.000000 2.017470 
# 
# From -- ./inp_files/62768.got.cif
#   From: 2010.05.17/outbox.cif.g08.bks.cpg/sg12_32_cif.got.tgz:62768.got - 2010.06.03 13:09:07.
