data_PCOD9181887
_publ_section_title
;
Structure prediction by ZEFSAII (Michael W. Deem and Ramdas Pophale) SiO2 
 PCOD9181887
Probable space group: C 2/M
;
_chemical_formula_sum "Si O2"
_cell_formula_units_Z 56
_cell_length_a 31.548176
_cell_length_b 11.945215
_cell_length_c 8.321681
_cell_angle_alpha 90.000000
_cell_angle_beta 118.426009
_cell_angle_gamma 90.000000
_cell_volume 2757.921106
_symmetry_space_group_name_H-M "C 2/M"
_symmetry_group_IT_number 12
_symmetry_cell_setting 'monoclinic'
loop_
_space_group_symop_operation_xyz
x,y,z
-x,y,-z
-x,-y,-z
x,-y,z
1/2+x,1/2+y,z
1/2-x,1/2+y,-z
1/2-x,1/2-y,-z
1/2+x,1/2-y,z
loop_
_atom_site_type_symbol
_atom_site_label
_atom_site_fract_x
_atom_site_fract_y
_atom_site_fract_z
Si Si1 0.127516 0.817794 0.226000
Si Si2 0.888693 0.868197 0.172411
Si Si3 0.205672 0.791104 0.811688
Si Si4 0.768808 0.124498 0.480696
Si Si5 0.361445 0.873354 0.510886
Si Si6 0.030872 0.879574 0.216469
Si Si7 0.045357 0.703125 0.497996
O O1 0.178357 0.876172 0.345204
O O2 0.133178 0.694160 0.312504
O O3 0.086412 0.872562 0.262288
O O4 0.113203 0.827553 0.015330
O O5 0.836065 0.849546 0.158359
O O6 0.926329 0.791557 0.337329
O O7 0.900610 0.000000 0.199433
O O8 0.225349 0.866269 0.701248
O O9 0.177968 0.690194 0.669275
O O10 0.250000 0.750000 0.000000
O O11 0.750000 0.250000 0.500000
O O12 0.746942 0.000000 0.477749
O O13 0.412306 0.866919 0.508232
O O14 0.348235 0.000000 0.513059
O O15 0.021574 0.778400 0.316434
O O16 0.021044 0.000000 0.275190
O O17 0.000000 0.870846 0.000000
O O18 0.000000 0.644614 0.500000
#
# Coordination Sequence:
#
# PCOD9181887 Si02
#       7
#     8   8   8   8   8   8   8
#     4  10  21  37  57  81 113 149 191 239 287 345
#     4  11  21  35  58  86 116 148 184 234 297 355
#     4  10  22  39  59  87 117 148 188 240 295 351
#     4  11  23  39  60  86 117 155 197 239 289 350
#     4   9  21  40  60  81 111 154 198 240 286 341
#     4  10  19  32  54  82 113 150 188 231 288 352
#     4  10  21  35  54  83 117 148 189 238 288 346
#
# _framework density 20.305149
#
# number of rings (size 3 to 8) (size 9 to 14) (size 15 to 20)
#    0.000    1.857    0.000    4.714    0.000    6.000 
#    0.000    2.857    0.000   14.571    0.000    0.000 
#    0.000    0.000    0.000    0.000    0.000    0.000 
#
# Total GULP energy -156239.154520 kJ/mol
# GULP energy per Si atom -5579.969804 kJ/mol
# Density = 2.025893 g / cm^3
# Si number density = 20.305149 Si / 1000 Ang^3
#
#
#
# Elastic Constant Matrix: (Units=GPa)
#
#
# Indices 1 2 3 4 5 6 
#
# 1 107.0126 28.1561 -0.8310 0.0000 0.3410 0.0000
# 2 28.1561 140.4270 21.8537 0.0000 -5.6305 0.0000
# 3 -0.8310 21.8537 48.7455 0.0000 -3.7543 0.0000
# 4 0.0000 0.0000 0.0000 -4.1826 0.0000 14.7186
# 5 0.3410 -5.6305 -3.7543 0.0000 36.6901 0.0000
# 6 0.0000 0.0000 0.0000 14.7186 0.0000 -14.5372
#
#
#
# Elastic Compliance Matrix: (Units=1/GPa)
#
#
# Indices 1 2 3 4 5 6 
#
# 1 0.009927 -0.002177 0.001121 0.000000 -0.000312 0.000000
# 2 -0.002177 0.008158 -0.003625 0.000000 0.000901 0.000000
# 3 0.001121 -0.003625 0.022291 0.000000 0.001714 0.000000
# 4 0.000000 0.000000 0.000000 0.093287 0.000000 0.094450
# 5 -0.000312 0.000901 0.001714 0.000000 0.027572 0.000000
# 6 0.000000 0.000000 0.000000 0.094450 0.000000 0.026840
#
#
# Mechanical properties :
#
#
# Convention : Reuss Voigt Hill
#
# Bulk Modulus (GPa) = 32.24340 43.83806 38.04073
# Shear Modulus (GPa) = 24.06447 20.06114 22.06280
#
# Velocity S-wave (km/s) = 3.44632 3.14663 3.29988
# Velocity P-wave (km/s) = 5.63472 5.90239 5.77011
#
# Compressibility (1/GPa) = 0.03101410
#
# Stress axis : x y z
#
# Youngs Moduli (GPa) = 100.73215 122.57875 44.86099
#
# Poissons Ratio (x) = 0.26691 -0.05031
# Poissons Ratio (y) = 0.21934 0.16263
# Poissons Ratio (z) = -0.11297 0.44436
#
# Static dielectric constant tensor:
#      x y z
#    x 1.776660 0.000000 -0.008290 
#    y 0.000000 1.721460 0.000000 
#    z -0.008290 0.000000 1.690070 
# 
# From -- ./inp_files/110555.got.cif
#   From: 2010.05.17/outbox.cif.g08.bks.cpg/sg12_56_cif.got.tgz:110555.got - 2010.06.03 13:09:07.
