data_PCOD9181225
_publ_section_title
;
Structure prediction by ZEFSAII (Michael W. Deem and Ramdas Pophale) SiO2 
 PCOD9181225
Probable space group: C 2/M
;
_chemical_formula_sum "Si O2"
_cell_formula_units_Z 64
_cell_length_a 14.656486
_cell_length_b 7.613997
_cell_length_c 24.897576
_cell_angle_alpha 90.000000
_cell_angle_beta 95.802523
_cell_angle_gamma 90.000000
_cell_volume 2764.195098
_symmetry_space_group_name_H-M "C 2/M"
_symmetry_group_IT_number 12
_symmetry_cell_setting 'monoclinic'
loop_
_space_group_symop_operation_xyz
x,y,z
-x,y,-z
-x,-y,-z
x,-y,z
1/2+x,1/2+y,z
1/2-x,1/2+y,-z
1/2-x,1/2-y,-z
1/2+x,1/2-y,z
loop_
_atom_site_type_symbol
_atom_site_label
_atom_site_fract_x
_atom_site_fract_y
_atom_site_fract_z
Si Si1 0.310426 0.706812 0.857113
Si Si2 0.579756 0.289210 0.409979
Si Si3 0.795871 0.290372 0.675831
Si Si4 0.061435 0.299026 0.232433
Si Si5 0.400567 0.215051 0.152419
Si Si6 0.528595 0.787647 0.060709
Si Si7 0.393681 0.300628 0.362565
Si Si8 0.344630 0.799575 0.476401
O O1 0.308359 0.500000 0.843921
O O2 0.371683 0.799086 0.815404
O O3 0.205428 0.770139 0.852939
O O4 0.370102 0.730209 0.914620
O O5 0.574152 0.500000 0.412501
O O6 0.669391 0.238015 0.382352
O O7 0.493555 0.217009 0.371062
O O8 0.584128 0.220583 0.470495
O O9 0.790225 0.500000 0.685531
O O10 0.874699 0.213559 0.718520
O O11 0.692492 0.219314 0.673537
O O12 0.042695 0.500000 0.247709
O O13 0.964740 0.224024 0.205938
O O14 0.454991 0.269181 0.101684
O O15 0.401491 0.000000 0.153185
O O16 0.528302 0.000000 0.060595
O O17 0.500000 0.726638 0.000000
O O18 0.404482 0.500000 0.343202
O O19 0.367467 0.307058 0.424420
O O20 0.250000 0.750000 0.500000
O O21 0.339825 0.000000 0.458216
#
# Coordination Sequence:
#
# PCOD9181225 Si02
#       8
#     8   8   8   8   8   8   8   8
#     4  10  19  32  52  78 107 140 177 224 276 314
#     4  11  23  38  57  82 112 144 176 219 273 323
#     4  10  21  38  59  80 106 142 180 222 269 321
#     4   9  19  37  57  76 103 142 184 221 265 320
#     4   8  16  32  52  75 106 141 178 221 268 315
#     4   9  18  34  54  76 107 147 184 217 260 319
#     4  10  22  39  57  81 113 144 176 220 272 320
#     4  12  23  37  59  83 108 142 181 220 267 324
#
# _framework density 23.153213000000001
#
# number of rings (size 3 to 8) (size 9 to 14) (size 15 to 20)
#    0.000    2.125    1.250    3.000    0.000    4.750 
#    0.000    5.000    0.000    0.000    0.000    0.000 
#    0.000    0.000    0.000    0.000    0.000    0.000 
#
# Total GULP energy -178690.204985 kJ/mol
# GULP energy per Si atom -5584.068906 kJ/mol
# Density = 2.310052 g / cm^3
# Si number density = 23.153213 Si / 1000 Ang^3
#
#
#
# Elastic Constant Matrix: (Units=GPa)
#
#
# Indices 1 2 3 4 5 6 
#
# 1 167.2455 -3.9538 25.0162 0.0000 31.8557 0.0000
# 2 -3.9538 69.0305 -10.7802 0.0000 1.7659 0.0000
# 3 25.0162 -10.7802 69.2906 0.0000 32.6582 0.0000
# 4 0.0000 0.0000 0.0000 10.0384 0.0000 1.1065
# 5 31.8557 1.7659 32.6582 0.0000 31.5586 0.0000
# 6 0.0000 0.0000 0.0000 1.1065 0.0000 10.7922
#
#
#
# Elastic Compliance Matrix: (Units=1/GPa)
#
#
# Indices 1 2 3 4 5 6 
#
# 1 0.007566 0.001005 0.002051 0.000000 -0.009816 0.000000
# 2 0.001005 0.015649 0.005783 0.000000 -0.007875 0.000000
# 3 0.002051 0.005783 0.030687 0.000000 -0.034151 0.000000
# 4 0.000000 0.000000 0.000000 0.100757 0.000000 -0.010331
# 5 -0.009816 -0.007875 -0.034151 0.000000 0.077377 0.000000
# 6 0.000000 0.000000 0.000000 -0.010331 0.000000 0.093719
#
#
# Mechanical properties :
#
#
# Convention : Reuss Voigt Hill
#
# Bulk Modulus (GPa) = 13.97023 36.23677 25.10350
# Shear Modulus (GPa) = 15.06318 30.16345 22.61332
#
# Velocity S-wave (km/s) = 2.55343 3.61331 3.12858
# Velocity P-wave (km/s) = 3.83930 5.75264 4.89046
#
# Compressibility (1/GPa) = 0.07158079
#
# Stress axis : x y z
#
# Youngs Moduli (GPa) = 132.17252 63.90375 32.58696
#
# Poissons Ratio (x) = -0.06421 -0.06685
# Poissons Ratio (y) = -0.13281 -0.18846
# Poissons Ratio (z) = -0.27114 -0.36958
#
# Static dielectric constant tensor:
#      x y z
#    x 1.904710 0.000000 0.053330 
#    y 0.000000 1.852580 0.000000 
#    z 0.053330 0.000000 1.911570 
# 
# From -- ./inp_files/338876.got.cif
#   From: 2010.05.17/outbox.cif.g08.bks.cpg/sg12_170_cif.got.tgz:338876.got - 2010.06.03 13:09:07.
