data_PCOD9181777
_publ_section_title
;
Structure prediction by ZEFSAII (Michael W. Deem and Ramdas Pophale) SiO2 
 PCOD9181777
Probable space group: C 2/M
;
_chemical_formula_sum "Si O2"
_cell_formula_units_Z 64
_cell_length_a 25.631841
_cell_length_b 14.662563
_cell_length_c 10.404668
_cell_angle_alpha 90.000000
_cell_angle_beta 119.614080
_cell_angle_gamma 90.000000
_cell_volume 3399.572652
_symmetry_space_group_name_H-M "C 2/M"
_symmetry_group_IT_number 12
_symmetry_cell_setting 'monoclinic'
loop_
_space_group_symop_operation_xyz
x,y,z
-x,y,-z
-x,-y,-z
x,-y,z
1/2+x,1/2+y,z
1/2-x,1/2+y,-z
1/2-x,1/2-y,-z
1/2+x,1/2-y,z
loop_
_atom_site_type_symbol
_atom_site_label
_atom_site_fract_x
_atom_site_fract_y
_atom_site_fract_z
Si Si1 0.430333 0.603126 0.959891
Si Si2 0.474113 0.894417 0.327227
Si Si3 0.209276 0.751702 0.650707
Si Si4 0.745835 0.897700 0.115499
Si Si5 0.836159 0.606667 0.226695
Si Si6 0.663446 0.712794 0.321340
Si Si7 0.133339 0.399388 0.170456
Si Si8 0.037840 0.713066 0.915914
O O1 0.412376 0.500000 0.977167
O O2 0.385000 0.642089 0.795076
O O3 0.500000 0.595823 0.000000
O O4 0.431100 0.687818 0.061874
O O5 0.500000 0.879780 0.500000
O O6 0.402577 0.880292 0.252055
O O7 0.497078 0.822931 0.249819
O O8 0.486089 0.000000 0.305543
O O9 0.211646 0.821793 0.772697
O O10 0.172786 0.666092 0.658076
O O11 0.275491 0.715196 0.689564
O O12 0.182110 0.799552 0.491481
O O13 0.694279 0.903371 0.162344
O O14 0.771215 0.000000 0.131471
O O15 0.713231 0.871077 0.943046
O O16 0.829545 0.500000 0.247741
O O17 0.638478 0.816053 0.275378
O O18 0.120752 0.500000 0.207878
O O19 0.083885 0.366970 0.008624
O O20 0.000000 0.720873 0.000000
#
# Coordination Sequence:
#
# PCOD9181777 Si02
#       8
#     8   8   8   8   8   8   8   8
#     4   9  19  36  57  79 107 145 188 233 275 323
#     4  10  21  36  54  81 116 149 180 222 280 341
#     4  10  20  34  53  77 110 142 174 227 282 330
#     4   9  17  32  52  72  97 137 181 215 262 321
#     4  10  20  34  53  75 105 145 183 216 265 332
#     4   9  20  34  51  81 110 137 178 228 283 330
#     4   9  16  29  49  71 102 137 169 210 266 328
#     4  10  19  32  54  80 105 139 188 230 273 325
#
# _framework density 18.825894999999999
#
# number of rings (size 3 to 8) (size 9 to 14) (size 15 to 20)
#    0.000    2.500    1.250    0.750    0.000    5.500 
#    0.000    3.750    0.000    0.375    0.000    0.000 
#    0.000    0.000    0.000    0.000    0.000    0.000 
#
# Total GULP energy -178190.609139 kJ/mol
# GULP energy per Si atom -5568.456536 kJ/mol
# Density = 1.878305 g / cm^3
# Si number density = 18.825895 Si / 1000 Ang^3
#
#
#
# Elastic Constant Matrix: (Units=GPa)
#
#
# Indices 1 2 3 4 5 6 
#
# 1 23.2450 19.3567 11.0800 0.0000 3.5265 0.0000
# 2 19.3567 98.9253 37.3323 0.0000 -8.6390 0.0000
# 3 11.0800 37.3323 72.8257 0.0000 -0.8962 0.0000
# 4 0.0000 0.0000 0.0000 14.3649 0.0000 -9.4660
# 5 3.5265 -8.6390 -0.8962 0.0000 17.6722 0.0000
# 6 0.0000 0.0000 0.0000 -9.4660 0.0000 -16.1102
#
#
#
# Elastic Compliance Matrix: (Units=1/GPa)
#
#
# Indices 1 2 3 4 5 6 
#
# 1 0.056529 -0.011435 -0.002948 0.000000 -0.017020 0.000000
# 2 -0.011435 0.015471 -0.006074 0.000000 0.009537 0.000000
# 3 -0.002948 -0.006074 0.017275 0.000000 -0.001505 0.000000
# 4 0.000000 0.000000 0.000000 0.050183 0.000000 -0.029487
# 5 -0.017020 0.009537 -0.001505 0.000000 0.064568 0.000000
# 6 0.000000 0.000000 0.000000 -0.029487 0.000000 -0.044747
#
#
# Mechanical properties :
#
#
# Convention : Reuss Voigt Hill
#
# Bulk Modulus (GPa) = 20.67747 36.72601 28.70174
# Shear Modulus (GPa) = 23.11448 11.66719 17.39083
#
# Velocity S-wave (km/s) = 3.50780 2.49216 3.04266
# Velocity P-wave (km/s) = 5.23580 5.27558 5.25573
#
# Compressibility (1/GPa) = 0.04836182
#
# Stress axis : x y z
#
# Youngs Moduli (GPa) = 17.68988 64.63686 57.88704
#
# Poissons Ratio (x) = 0.73911 0.17067
# Poissons Ratio (y) = 0.20228 0.35159
# Poissons Ratio (z) = 0.05215 0.39259
#
# Static dielectric constant tensor:
#      x y z
#    x 1.692850 0.000000 0.020040 
#    y 0.000000 1.700990 0.000000 
#    z 0.020040 0.000000 1.689990 
# 
# From -- ./inp_files/104642.got.cif
#   From: 2010.05.17/outbox.cif.g08.bks.cpg/sg12_53_cif.got.tgz:104642.got - 2010.06.03 13:09:07.
