data_PCOD9181024
_publ_section_title
;
Structure prediction by ZEFSAII (Michael W. Deem and Ramdas Pophale) SiO2 
 PCOD9181024
Probable space group: C 2/M
;
_chemical_formula_sum "Si O2"
_cell_formula_units_Z 56
_cell_length_a 5.128137
_cell_length_b 15.258089
_cell_length_c 36.618338
_cell_angle_alpha 90.000000
_cell_angle_beta 102.232128
_cell_angle_gamma 90.000000
_cell_volume 2800.174299
_symmetry_space_group_name_H-M "C 2/M"
_symmetry_group_IT_number 12
_symmetry_cell_setting 'monoclinic'
loop_
_space_group_symop_operation_xyz
x,y,z
-x,y,-z
-x,-y,-z
x,-y,z
1/2+x,1/2+y,z
1/2-x,1/2+y,-z
1/2-x,1/2-y,-z
1/2+x,1/2-y,z
loop_
_atom_site_type_symbol
_atom_site_label
_atom_site_fract_x
_atom_site_fract_y
_atom_site_fract_z
Si Si1 0.586359 0.191436 0.761241
Si Si2 0.417563 0.190027 0.318101
Si Si3 0.590262 0.894444 0.117451
Si Si4 0.156330 0.105612 0.161075
Si Si5 0.882282 0.307903 0.959830
Si Si6 0.345185 0.808582 0.602802
Si Si7 0.713933 0.894341 0.476822
O O1 0.293196 0.227717 0.761723
O O2 0.583947 0.144710 0.721479
O O3 0.704295 0.136886 0.797969
O O4 0.125421 0.228663 0.318130
O O5 0.536249 0.144195 0.357583
O O6 0.329597 0.863751 0.131457
O O7 0.606454 0.863481 0.076481
O O8 0.853192 0.863772 0.147053
O O9 0.588983 0.000000 0.117783
O O10 0.154408 0.000000 0.160834
O O11 0.585282 0.273406 0.958974
O O12 0.000000 0.352017 0.000000
O O13 0.551009 0.728031 0.602529
O O14 0.341216 0.862000 0.565470
O O15 0.500000 0.863060 0.500000
O O16 0.000000 0.865062 0.500000
O O17 0.709823 0.000000 0.476373
#
# Coordination Sequence:
#
# PCOD9181024 Si02
#       7
#     8   8   8   8   8   8   8
#     4  10  19  32  52  75  98 129 167 199 238 294
#     4   8  16  30  47  70  98 124 155 200 244 281
#     4  10  21  36  53  73 101 135 166 199 243 294
#     4  10  21  35  50  74 105 131 161 205 248 282
#     4  10  21  36  54  77 103 129 162 207 249 285
#     4  10  19  32  52  74  96 125 163 204 241 283
#     4  10  21  35  49  69 100 131 158 197 247 292
#
# _framework density 19.998756
#
# number of rings (size 3 to 8) (size 9 to 14) (size 15 to 20)
#    0.000    2.286    0.000    2.571    0.000    5.429 
#    0.000    0.714    0.000    5.143    0.000   18.000 
#    0.000    0.000    0.000    0.000    0.000    0.000 
#
# Total GULP energy -156244.534671 kJ/mol
# GULP energy per Si atom -5580.161953 kJ/mol
# Density = 1.995324 g / cm^3
# Si number density = 19.998756 Si / 1000 Ang^3
#
#
#
# Elastic Constant Matrix: (Units=GPa)
#
#
# Indices 1 2 3 4 5 6 
#
# 1 89.2470 1.5122 1.3872 0.0000 -1.6732 0.0000
# 2 1.5122 11.0423 9.6389 0.0000 0.8150 0.0000
# 3 1.3872 9.6389 146.1673 0.0000 -2.4863 0.0000
# 4 0.0000 0.0000 0.0000 -59.9707 0.0000 3.3196
# 5 -1.6732 0.8150 -2.4863 0.0000 33.9232 0.0000
# 6 0.0000 0.0000 0.0000 3.3196 0.0000 -6.3882
#
#
#
# Elastic Compliance Matrix: (Units=1/GPa)
#
#
# Indices 1 2 3 4 5 6 
#
# 1 0.011243 -0.001591 0.000008 0.000000 0.000593 0.000000
# 2 -0.001591 0.096579 -0.006403 0.000000 -0.002868 0.000000
# 3 0.000008 -0.006403 0.007275 0.000000 0.000687 0.000000
# 4 0.000000 0.000000 0.000000 -0.017169 0.000000 -0.008922
# 5 0.000593 -0.002868 0.000687 0.000000 0.029627 0.000000
# 6 0.000000 0.000000 0.000000 -0.008922 0.000000 -0.161174
#
#
# Mechanical properties :
#
#
# Convention : Reuss Voigt Hill
#
# Bulk Modulus (GPa) = 10.08800 30.17035 20.12917
# Shear Modulus (GPa) = 324.78740 9.10741 166.94740
#
# Velocity S-wave (km/s) = 12.75760 2.13632 9.14659
# Velocity P-wave (km/s) = 14.90180 4.60478 11.02878
#
# Compressibility (1/GPa) = 0.09912769
#
# Stress axis : x y z
#
# Youngs Moduli (GPa) = 88.94572 10.35417 137.45135
#
# Poissons Ratio (x) = 0.01647 -0.00114
# Poissons Ratio (y) = 0.14149 0.88004
# Poissons Ratio (z) = -0.00074 0.06629
#
# Static dielectric constant tensor:
#      x y z
#    x 1.692330 0.000000 0.000520 
#    y 0.000000 1.675730 0.000000 
#    z 0.000520 0.000000 1.738910 
# 
# From -- ./inp_files/371561.got.cif
#   From: 2010.05.17/outbox.cif.g08.bks.cpg/sg12_186_cif.got.tgz:371561.got - 2010.06.03 13:09:07.
