data_PCOD9181255
_publ_section_title
;
Structure prediction by ZEFSAII (Michael W. Deem and Ramdas Pophale) SiO2 
 PCOD9181255
Probable space group: C 2/M
;
_chemical_formula_sum "Si O2"
_cell_formula_units_Z 56
_cell_length_a 10.973925
_cell_length_b 22.861651
_cell_length_c 15.934792
_cell_angle_alpha 90.000000
_cell_angle_beta 35.604876
_cell_angle_gamma 90.000000
_cell_volume 2327.460577
_symmetry_space_group_name_H-M "C 2/M"
_symmetry_group_IT_number 12
_symmetry_cell_setting 'monoclinic'
loop_
_space_group_symop_operation_xyz
x,y,z
-x,y,-z
-x,-y,-z
x,-y,z
1/2+x,1/2+y,z
1/2-x,1/2+y,-z
1/2-x,1/2-y,-z
1/2+x,1/2-y,z
loop_
_atom_site_type_symbol
_atom_site_label
_atom_site_fract_x
_atom_site_fract_y
_atom_site_fract_z
Si Si1 0.961713 0.068383 0.921244
Si Si2 0.703967 0.127885 0.545108
Si Si3 0.021049 0.569637 0.817304
Si Si4 0.312540 0.156391 0.676395
Si Si5 0.183984 0.727186 0.676337
Si Si6 0.333274 0.357506 0.738093
Si Si7 0.249847 0.242748 0.869975
O O1 0.126218 0.110059 0.784059
O O2 0.988306 0.000000 0.883734
O O3 0.722208 0.086348 0.040280
O O4 0.000000 0.073345 0.000000
O O5 0.617543 0.093178 0.675125
O O6 0.533022 0.123351 0.567660
O O7 0.722437 0.194637 0.567822
O O8 0.940670 0.112346 0.388973
O O9 0.032619 0.500000 0.809732
O O10 0.154132 0.595947 0.819081
O O11 0.266991 0.207152 0.634256
O O12 0.302938 0.196652 0.766101
O O13 0.304814 0.687715 0.675818
O O14 0.931836 0.725709 0.835646
O O15 0.300561 0.311547 0.830320
O O16 0.000000 0.239628 0.000000
#
# Coordination Sequence:
#
# PCOD9181255 Si02
#       7
#     8   8   8   8   8   8   8
#     4  10  19  32  52  79 109 135 172 220 267 311
#     4  10  20  35  50  80 111 135 174 216 255 312
#     4  10  20  34  55  80 106 138 171 216 269 313
#     4  10  20  32  55  76 106 143 173 212 264 311
#     4   9  20  33  51  76 102 142 171 211 253 309
#     4  10  22  35  52  77 110 140 172 215 257 310
#     4  10  22  34  51  79 107 141 173 214 257 311
#
# _framework density 24.060555999999998
#
# number of rings (size 3 to 8) (size 9 to 14) (size 15 to 20)
#    0.000    2.143    1.429    2.143    6.000    8.571 
#    0.000    0.000    0.000    1.286    0.000    0.000 
#    0.000   12.571    0.000    0.000    0.000    0.000 
#
# Total GULP energy -156409.283310 kJ/mol
# GULP energy per Si atom -5586.045832 kJ/mol
# Density = 2.400579 g / cm^3
# Si number density = 24.060556 Si / 1000 Ang^3
#
#
#
# Elastic Constant Matrix: (Units=GPa)
#
#
# Indices 1 2 3 4 5 6 
#
# 1 85.3645 31.0336 50.8834 -0.0009 -39.8690 0.0002
# 2 31.0336 101.7569 40.9772 0.0021 -14.3632 -0.0009
# 3 50.8834 40.9772 130.9649 -0.0023 -68.2680 -0.0003
# 4 -0.0009 0.0021 -0.0023 34.5758 0.0009 0.8777
# 5 -39.8690 -14.3632 -68.2680 0.0009 48.4985 -0.0001
# 6 0.0002 -0.0009 -0.0003 0.8777 -0.0001 29.0705
#
#
#
# Elastic Compliance Matrix: (Units=1/GPa)
#
#
# Indices 1 2 3 4 5 6 
#
# 1 0.021768 -0.005713 0.006671 0.000001 0.025593 0.000000
# 2 -0.005713 0.013244 -0.008743 -0.000001 -0.013080 0.000000
# 3 0.006671 -0.008743 0.034886 0.000002 0.052001 0.000000
# 4 0.000001 -0.000001 0.000002 0.028944 0.000002 -0.000874
# 5 0.025593 -0.013080 0.052001 0.000002 0.110982 0.000000
# 6 0.000000 0.000000 0.000000 -0.000874 0.000000 0.034425
#
#
# Mechanical properties :
#
#
# Convention : Reuss Voigt Hill
#
# Bulk Modulus (GPa) = 18.40662 62.65278 40.52970
# Shear Modulus (GPa) = 17.99023 35.44177 26.71600
#
# Velocity S-wave (km/s) = 2.73739 3.84216 3.33583
# Velocity P-wave (km/s) = 4.20212 6.76603 5.63191
#
# Compressibility (1/GPa) = 0.05432828
#
# Stress axis : x y z
#
# Youngs Moduli (GPa) = 45.93913 75.50646 28.66485
#
# Poissons Ratio (x) = 0.43133 -0.19121
# Poissons Ratio (y) = 0.26243 0.25061
# Poissons Ratio (z) = -0.30644 0.66014
#
# Static dielectric constant tensor:
#      x y z
#    x 2.056900 0.000000 0.053370 
#    y 0.000000 1.865040 0.000000 
#    z 0.053370 0.000000 2.097260 
# 
# From -- ./inp_files/135477.got.cif
#   From: 2010.05.17/outbox.cif.g08.bks.cpg/sg12_68_cif.got.tgz:135477.got - 2010.06.03 13:09:07.
