data_PCOD9181680
_publ_section_title
;
Structure prediction by ZEFSAII (Michael W. Deem and Ramdas Pophale) SiO2 
 PCOD9181680
Probable space group: C 2/M
;
_chemical_formula_sum "Si O2"
_cell_formula_units_Z 48
_cell_length_a 14.397622
_cell_length_b 12.200821
_cell_length_c 18.748730
_cell_angle_alpha 90.000000
_cell_angle_beta 138.404502
_cell_angle_gamma 90.000000
_cell_volume 2186.417298
_symmetry_space_group_name_H-M "C 2/M"
_symmetry_group_IT_number 12
_symmetry_cell_setting 'monoclinic'
loop_
_space_group_symop_operation_xyz
x,y,z
-x,y,-z
-x,-y,-z
x,-y,z
1/2+x,1/2+y,z
1/2-x,1/2+y,-z
1/2-x,1/2-y,-z
1/2+x,1/2-y,z
loop_
_atom_site_type_symbol
_atom_site_label
_atom_site_fract_x
_atom_site_fract_y
_atom_site_fract_z
Si Si1 0.247303 0.877569 0.929098
Si Si2 0.896286 0.691792 0.337904
Si Si3 0.980612 0.804319 0.712710
Si Si4 0.676843 0.877823 0.557412
Si Si5 0.000377 0.371208 0.165115
Si Si6 0.627212 0.712749 0.114344
O O1 0.311949 0.792164 0.911495
O O2 0.080165 0.865083 0.827520
O O3 0.283015 0.000000 0.925069
O O4 0.332981 0.863598 0.051656
O O5 0.849375 0.705351 0.392547
O O6 0.758542 0.644929 0.219882
O O7 0.938141 0.797232 0.315306
O O8 0.044524 0.630172 0.429439
O O9 0.828794 0.854074 0.614214
O O10 0.969809 0.683547 0.741618
O O11 0.676152 0.000000 0.588596
O O12 0.038759 0.500000 0.182459
O O13 0.074144 0.293515 0.147840
O O14 0.500000 0.654280 0.000000
#
# Coordination Sequence:
#
# PCOD9181680 Si02
#       6
#     8   8   8   8   8   8
#     4   9  18  32  54  84 115 150 193 233 282 347
#     4  10  21  38  60  85 114 149 196 239 289 343
#     4  11  21  36  59  87 115 152 196 245 291 340
#     4  11  23  41  64  84 116 159 202 239 287 355
#     4  10  19  32  53  83 118 153 186 234 291 347
#     4   9  17  33  57  84 112 148 188 235 289 347
#
# _framework density 21.953723
#
# number of rings (size 3 to 8) (size 9 to 14) (size 15 to 20)
#    0.000    2.000    1.667    3.000    0.000    3.333 
#    0.000    0.000    0.000    5.000    0.000    0.000 
#    0.000    0.000    0.000    0.000    0.000    0.000 
#
# Total GULP energy -133649.193435 kJ/mol
# GULP energy per Si atom -5568.716393 kJ/mol
# Density = 2.190376 g / cm^3
# Si number density = 21.953723 Si / 1000 Ang^3
#
#
#
# Elastic Constant Matrix: (Units=GPa)
#
#
# Indices 1 2 3 4 5 6 
#
# 1 62.1533 8.3739 30.4896 0.0000 3.7834 0.0000
# 2 8.3739 43.7045 28.2832 0.0000 -3.6851 0.0000
# 3 30.4896 28.2832 178.7031 0.0000 29.6306 0.0000
# 4 0.0000 0.0000 0.0000 17.8668 0.0000 2.7898
# 5 3.7834 -3.6851 29.6306 0.0000 40.9737 0.0000
# 6 0.0000 0.0000 0.0000 2.7898 0.0000 -0.4011
#
#
#
# Elastic Compliance Matrix: (Units=1/GPa)
#
#
# Indices 1 2 3 4 5 6 
#
# 1 0.017661 -0.001541 -0.002813 0.000000 0.000265 0.000000
# 2 -0.001541 0.026956 -0.005032 0.000000 0.006206 0.000000
# 3 -0.002813 -0.005032 0.007845 0.000000 -0.005866 0.000000
# 4 0.000000 0.000000 0.000000 0.026829 0.000000 0.186623
# 5 0.000265 0.006206 -0.005866 0.000000 0.029182 0.000000
# 6 0.000000 0.000000 0.000000 0.186623 0.000000 -1.195176
#
#
# Mechanical properties :
#
#
# Convention : Reuss Voigt Hill
#
# Bulk Modulus (GPa) = 29.68352 46.53937 38.11145
# Shear Modulus (GPa) = -4.73171 26.18215 10.72522
#
# Velocity S-wave (km/s) = -1.46969 3.45716 2.21269
# Velocity P-wave (km/s) = 3.26655 6.09761 4.89138
#
# Compressibility (1/GPa) = 0.03368872
#
# Stress axis : x y z
#
# Youngs Moduli (GPa) = 56.62255 37.09725 127.46997
#
# Poissons Ratio (x) = 0.05716 0.35861
# Poissons Ratio (y) = 0.08725 0.64148
# Poissons Ratio (z) = 0.15930 0.18669
#
# Static dielectric constant tensor:
#      x y z
#    x 1.837350 0.000000 0.017250 
#    y 0.000000 1.795400 0.000000 
#    z 0.017250 0.000000 1.894640 
# 
# From -- ./inp_files/143016.got.cif
#   From: 2010.05.17/outbox.cif.g08.bks.cpg/sg12_72_cif.got.tgz:143016.got - 2010.06.03 13:09:07.
