data_PCOD9181618
_publ_section_title
;
Structure prediction by ZEFSAII (Michael W. Deem and Ramdas Pophale) SiO2 
 PCOD9181618
Probable space group: C 2/M
;
_chemical_formula_sum "Si O2"
_cell_formula_units_Z 56
_cell_length_a 29.678686
_cell_length_b 7.400954
_cell_length_c 11.514579
_cell_angle_alpha 90.000000
_cell_angle_beta 70.102549
_cell_angle_gamma 90.000000
_cell_volume 2378.200048
_symmetry_space_group_name_H-M "C 2/M"
_symmetry_group_IT_number 12
_symmetry_cell_setting 'monoclinic'
loop_
_space_group_symop_operation_xyz
x,y,z
-x,y,-z
-x,-y,-z
x,-y,z
1/2+x,1/2+y,z
1/2-x,1/2+y,-z
1/2-x,1/2-y,-z
1/2+x,1/2-y,z
loop_
_atom_site_type_symbol
_atom_site_label
_atom_site_fract_x
_atom_site_fract_y
_atom_site_fract_z
Si Si1 0.770974 0.720473 0.309789
Si Si2 0.893688 0.705429 0.846003
Si Si3 0.580549 0.285145 0.688050
Si Si4 0.297591 0.215894 0.030450
Si Si5 0.325690 0.292515 0.499895
Si Si6 0.443965 0.280855 0.040670
Si Si7 0.016081 0.717516 0.360912
O O1 0.771171 0.500000 0.313966
O O2 0.791269 0.781108 0.168195
O O3 0.715974 0.782579 0.380361
O O4 0.802019 0.785759 0.391897
O O5 0.884876 0.500000 0.813157
O O6 0.932561 0.788952 0.725429
O O7 0.842741 0.791010 0.919782
O O8 0.920613 0.703295 0.946216
O O9 0.588718 0.500000 0.686733
O O10 0.621562 0.211032 0.566229
O O11 0.582433 0.218712 0.818778
O O12 0.526950 0.257712 0.689466
O O13 0.304982 0.000000 0.033853
O O14 0.250000 0.250000 0.000000
O O15 0.332041 0.500000 0.531818
O O16 0.441211 0.500000 0.036067
O O17 0.500000 0.233428 0.000000
O O18 0.980003 0.500000 0.637879
O O19 0.000000 0.785071 0.500000
#
# Coordination Sequence:
#
# PCOD9181618 Si02
#       7
#     8   8   8   8   8   8   8
#     4   9  18  34  53  76 106 135 169 214 260 306
#     4  10  21  37  56  78 105 138 176 218 263 312
#     4  10  20  34  52  78 108 136 169 209 255 309
#     4  10  22  38  55  77 105 138 178 221 262 308
#     4   9  18  32  53  79 106 135 167 208 259 311
#     4  10  19  32  53  81 111 137 168 212 259 309
#     4  10  22  38  53  72 102 138 175 214 255 303
#
# _framework density 23.547221
#
# number of rings (size 3 to 8) (size 9 to 14) (size 15 to 20)
#    0.000    2.286    1.429    0.857    0.000    4.000 
#    0.000    0.000    0.000    0.000    0.000    0.000 
#    0.000    0.000    0.000    0.000    0.000    0.000 
#
# Total GULP energy -156450.438027 kJ/mol
# GULP energy per Si atom -5587.515644 kJ/mol
# Density = 2.349363 g / cm^3
# Si number density = 23.547221 Si / 1000 Ang^3
#
#
#
# Elastic Constant Matrix: (Units=GPa)
#
#
# Indices 1 2 3 4 5 6 
#
# 1 95.5570 -8.7089 42.6414 0.0000 -49.7763 0.0000
# 2 -8.7089 85.2724 -1.1892 0.0000 -10.6849 0.0000
# 3 42.6414 -1.1892 142.2689 0.0000 -44.0652 0.0000
# 4 0.0000 0.0000 0.0000 1.9717 0.0000 8.9732
# 5 -49.7763 -10.6849 -44.0652 0.0000 51.2247 0.0000
# 6 0.0000 0.0000 0.0000 8.9732 0.0000 18.1946
#
#
#
# Elastic Compliance Matrix: (Units=1/GPa)
#
#
# Indices 1 2 3 4 5 6 
#
# 1 0.023400 0.005452 0.000582 0.000000 0.024376 0.000000
# 2 0.005452 0.013464 0.001349 0.000000 0.009267 0.000000
# 3 0.000582 0.001349 0.009717 0.000000 0.009206 0.000000
# 4 0.000000 0.000000 0.000000 -0.407543 0.000000 0.200991
# 5 0.024376 0.009267 0.009206 0.000000 0.053061 0.000000
# 6 0.000000 0.000000 0.000000 0.200991 0.000000 -0.044163
#
#
# Mechanical properties :
#
#
# Convention : Reuss Voigt Hill
#
# Bulk Modulus (GPa) = 16.30065 43.17610 29.73838
# Shear Modulus (GPa) = -14.43495 33.63519 9.60012
#
# Velocity S-wave (km/s) = -2.47861 3.78354 2.02134
# Velocity P-wave (km/s) = 1.11973 6.12067 4.25493
#
# Compressibility (1/GPa) = 0.06134723
#
# Stress axis : x y z
#
# Youngs Moduli (GPa) = 42.73521 74.27249 102.91115
#
# Poissons Ratio (x) = -0.40496 -0.05992
# Poissons Ratio (y) = -0.23301 -0.13878
# Poissons Ratio (z) = -0.02488 -0.10016
#
# Static dielectric constant tensor:
#      x y z
#    x 1.862060 0.000000 -0.068360 
#    y 0.000000 1.859310 0.000000 
#    z -0.068360 0.000000 1.910240 
# 
# From -- ./inp_files/186438.got.cif
#   From: 2010.05.17/outbox.cif.g08.bks.cpg/sg12_94_cif.got.tgz:186438.got - 2010.06.03 13:09:07.
