data_PCOD9181016
_publ_section_title
;
Structure prediction by ZEFSAII (Michael W. Deem and Ramdas Pophale) SiO2 
 PCOD9181016
Probable space group: C 2/M
;
_chemical_formula_sum "Si O2"
_cell_formula_units_Z 40
_cell_length_a 12.489405
_cell_length_b 12.790980
_cell_length_c 12.636745
_cell_angle_alpha 90.000000
_cell_angle_beta 66.156469
_cell_angle_gamma 90.000000
_cell_volume 1846.447917
_symmetry_space_group_name_H-M "C 2/M"
_symmetry_group_IT_number 12
_symmetry_cell_setting 'monoclinic'
loop_
_space_group_symop_operation_xyz
x,y,z
-x,y,-z
-x,-y,-z
x,-y,z
1/2+x,1/2+y,z
1/2-x,1/2+y,-z
1/2-x,1/2-y,-z
1/2+x,1/2-y,z
loop_
_atom_site_type_symbol
_atom_site_label
_atom_site_fract_x
_atom_site_fract_y
_atom_site_fract_z
Si Si1 0.744408 0.668525 0.660974
Si Si2 0.890537 0.179391 0.481689
Si Si3 0.866517 0.616227 0.940298
Si Si4 0.627046 0.324140 0.929517
Si Si5 0.486077 0.115917 0.668230
O O1 0.793569 0.781567 0.603697
O O2 0.675333 0.623603 0.587936
O O3 0.658915 0.675532 0.794025
O O4 0.862593 0.613832 0.654234
O O5 0.000000 0.130368 0.500000
O O6 0.942721 0.286989 0.407939
O O7 0.887934 0.500000 0.972667
O O8 0.734520 0.621926 0.946999
O O9 0.950335 0.634950 0.804933
O O10 0.876594 0.706947 0.021672
O O11 0.500000 0.371630 0.000000
O O12 0.540221 0.000000 0.636887
#
# Coordination Sequence:
#
# PCOD9181016 Si02
#       5
#     8   8   8   8   8
#     4   9  18  30  46  72  99 127 163 201 241 292
#     4   9  17  30  49  70  96 127 161 201 247 292
#     4   9  19  34  51  76 106 132 165 207 248 297
#     4  10  19  32  52  74 102 136 169 203 247 298
#     4   9  17  31  53  77  98 124 161 205 250 294
#
# _framework density 21.663215999999998
#
# number of rings (size 3 to 8) (size 9 to 14) (size 15 to 20)
#    0.000    2.800    0.000    1.200    0.000    6.000 
#    0.000    1.000    0.000    1.800    0.000    4.200 
#    0.000    0.000    0.000    0.000    0.000    0.000 
#
# Total GULP energy -111620.314597 kJ/mol
# GULP energy per Si atom -5581.015730 kJ/mol
# Density = 2.161391 g / cm^3
# Si number density = 21.663216 Si / 1000 Ang^3
#
#
#
# Elastic Constant Matrix: (Units=GPa)
#
#
# Indices 1 2 3 4 5 6 
#
# 1 107.2935 -12.0539 15.3830 0.0000 0.9184 0.0000
# 2 -12.0539 79.7184 6.3523 0.0000 -1.8107 0.0000
# 3 15.3830 6.3523 77.1198 0.0000 -15.4190 0.0000
# 4 0.0000 0.0000 0.0000 -0.1160 0.0000 -7.0597
# 5 0.9184 -1.8107 -15.4190 0.0000 37.9550 0.0000
# 6 0.0000 0.0000 0.0000 -7.0597 0.0000 -10.2257
#
#
#
# Elastic Compliance Matrix: (Units=1/GPa)
#
#
# Indices 1 2 3 4 5 6 
#
# 1 0.009848 0.001649 -0.002320 0.000000 -0.001102 0.000000
# 2 0.001649 0.012904 -0.001390 0.000000 0.000011 0.000000
# 3 -0.002320 -0.001390 0.014739 0.000000 0.005978 0.000000
# 4 0.000000 0.000000 0.000000 0.210175 0.000000 -0.145102
# 5 -0.001102 0.000011 0.005978 0.000000 0.028803 0.000000
# 6 0.000000 0.000000 0.000000 -0.145102 0.000000 0.002385
#
#
# Mechanical properties :
#
#
# Convention : Reuss Voigt Hill
#
# Bulk Modulus (GPa) = 29.96796 31.49938 30.73367
# Shear Modulus (GPa) = 17.00111 22.48600 19.74356
#
# Velocity S-wave (km/s) = 2.80445 3.22527 3.02219
# Velocity P-wave (km/s) = 4.93459 5.33309 5.13771
#
# Compressibility (1/GPa) = 0.03336898
#
# Stress axis : x y z
#
# Youngs Moduli (GPa) = 101.54752 77.49255 67.84583
#
# Poissons Ratio (x) = -0.12778 0.15744
# Poissons Ratio (y) = -0.16744 0.09428
# Poissons Ratio (z) = 0.23564 0.10768
#
# Static dielectric constant tensor:
#      x y z
#    x 1.836610 0.000000 0.010450 
#    y 0.000000 1.790210 0.000000 
#    z 0.010450 0.000000 1.767470 
# 
# From -- ./inp_files/129117.got.cif
#   From: 2010.05.17/outbox.cif.g08.bks.cpg/sg12_65_cif.got.tgz:129117.got - 2010.06.03 13:09:07.
