data_PCOD9181052
_publ_section_title
;
Structure prediction by ZEFSAII (Michael W. Deem and Ramdas Pophale) SiO2 
 PCOD9181052
Probable space group: C 2/M
;
_chemical_formula_sum "Si O2"
_cell_formula_units_Z 64
_cell_length_a 24.577711
_cell_length_b 7.514953
_cell_length_c 18.971124
_cell_angle_alpha 90.000000
_cell_angle_beta 53.829287
_cell_angle_gamma 90.000000
_cell_volume 2828.624682
_symmetry_space_group_name_H-M "C 2/M"
_symmetry_group_IT_number 12
_symmetry_cell_setting 'monoclinic'
loop_
_space_group_symop_operation_xyz
x,y,z
-x,y,-z
-x,-y,-z
x,-y,z
1/2+x,1/2+y,z
1/2-x,1/2+y,-z
1/2-x,1/2-y,-z
1/2+x,1/2-y,z
loop_
_atom_site_type_symbol
_atom_site_label
_atom_site_fract_x
_atom_site_fract_y
_atom_site_fract_z
Si Si1 0.919514 0.793241 0.465846
Si Si2 0.939283 0.214669 0.681259
Si Si3 0.328141 0.799117 0.664386
Si Si4 0.825007 0.786339 0.415106
Si Si5 0.687617 0.286518 0.995605
Si Si6 0.402018 0.282753 0.217907
Si Si7 0.454443 0.283406 0.832766
Si Si8 0.191355 0.218275 0.831930
O O1 0.874575 0.786596 0.569599
O O2 0.877249 0.715253 0.433488
O O3 0.995393 0.723962 0.413053
O O4 0.930036 0.000000 0.439735
O O5 0.871863 0.297154 0.702019
O O6 0.954342 0.261652 0.750296
O O7 0.930060 0.000000 0.683096
O O8 0.256171 0.719865 0.737986
O O9 0.316698 0.000000 0.647935
O O10 0.750000 0.750000 0.500000
O O11 0.849384 0.725726 0.319441
O O12 0.830399 0.000000 0.409319
O O13 0.682706 0.500000 0.995541
O O14 0.696301 0.221331 0.908774
O O15 0.750000 0.250000 0.000000
O O16 0.615959 0.221311 0.080352
O O17 0.402929 0.500000 0.217766
O O18 0.477077 0.223367 0.181479
O O19 0.374321 0.229891 0.162559
O O20 0.454973 0.500000 0.835601
O O21 0.194048 0.000000 0.831054
#
# Coordination Sequence:
#
# PCOD9181052 Si02
#       8
#     8   8   8   8   8   8   8   8
#     4  10  20  34  51  73 101 136 178 219 260 308
#     4  10  19  34  53  75 102 135 175 220 262 307
#     4  11  22  34  49  74 106 141 175 213 264 319
#     4  10  19  32  52  75 103 140 178 217 261 309
#     4  10  20  35  56  83 109 136 172 213 258 315
#     4   9  16  31  53  77 105 136 170 216 265 306
#     4   9  17  31  55  81 103 133 178 220 258 309
#     4   9  19  33  50  76 110 138 165 209 267 314
#
# _framework density 22.625836
#
# number of rings (size 3 to 8) (size 9 to 14) (size 15 to 20)
#    0.000    2.250    1.250    2.250    0.000    4.000 
#    0.000    3.125    0.000    1.500    0.000    0.875 
#    0.000    0.000    0.000    0.000    0.000    0.000 
#
# Total GULP energy -178738.429692 kJ/mol
# GULP energy per Si atom -5585.575928 kJ/mol
# Density = 2.257434 g / cm^3
# Si number density = 22.625836 Si / 1000 Ang^3
#
#
#
# Elastic Constant Matrix: (Units=GPa)
#
#
# Indices 1 2 3 4 5 6 
#
# 1 157.1225 -8.0753 61.1405 0.0026 5.4911 -0.0011
# 2 -8.0753 55.8336 -0.8232 0.0030 0.9825 -0.0021
# 3 61.1405 -0.8232 118.3606 0.0094 -9.6679 -0.0049
# 4 0.0026 0.0030 0.0094 5.8870 -0.0028 -6.1196
# 5 5.4911 0.9825 -9.6679 -0.0028 35.1169 0.0024
# 6 -0.0011 -0.0021 -0.0049 -6.1196 0.0024 9.3687
#
#
#
# Elastic Compliance Matrix: (Units=1/GPa)
#
#
# Indices 1 2 3 4 5 6 
#
# 1 0.008250 0.001172 -0.004462 0.000004 -0.002551 0.000002
# 2 0.001172 0.018087 -0.000548 -0.000016 -0.000840 -0.000006
# 3 -0.004462 -0.000548 0.011057 -0.000029 0.003757 -0.000015
# 4 0.000004 -0.000016 -0.000029 0.529180 0.000011 0.345658
# 5 -0.002551 -0.000840 0.003757 0.000011 0.029933 0.000001
# 6 0.000002 -0.000006 -0.000015 0.345658 0.000001 0.332520
#
#
# Mechanical properties :
#
#
# Convention : Reuss Voigt Hill
#
# Bulk Modulus (GPa) = 33.65031 48.42229 41.03630
# Shear Modulus (GPa) = 5.28201 28.67951 16.98076
#
# Velocity S-wave (km/s) = 1.52957 3.56414 2.74250
# Velocity P-wave (km/s) = 4.24550 6.19558 5.31081
#
# Compressibility (1/GPa) = 0.02971740
#
# Stress axis : x y z
#
# Youngs Moduli (GPa) = 121.21022 55.28945 90.44301
#
# Poissons Ratio (x) = -0.06482 0.40355
# Poissons Ratio (y) = -0.14210 0.04960
# Poissons Ratio (z) = 0.54083 0.03032
#
# Static dielectric constant tensor:
#      x y z
#    x 1.825010 0.000000 -0.005860 
#    y 0.000000 1.757850 0.000000 
#    z -0.005860 0.000000 1.820590 
# 
# From -- ./inp_files/324197.got.cif
#   From: 2010.05.17/outbox.cif.g08.bks.cpg/sg12_163_cif.got.tgz:324197.got - 2010.06.03 13:09:07.
