data_PCOD9181414
_publ_section_title
;
Structure prediction by ZEFSAII (Michael W. Deem and Ramdas Pophale) SiO2 
 PCOD9181414
Probable space group: C 2/M
;
_chemical_formula_sum "Si O2"
_cell_formula_units_Z 48
_cell_length_a 13.115232
_cell_length_b 22.303603
_cell_length_c 17.398381
_cell_angle_alpha 90.000000
_cell_angle_beta 145.106300
_cell_angle_gamma 90.000000
_cell_volume 2911.375010
_symmetry_space_group_name_H-M "C 2/M"
_symmetry_group_IT_number 12
_symmetry_cell_setting 'monoclinic'
loop_
_space_group_symop_operation_xyz
x,y,z
-x,y,-z
-x,-y,-z
x,-y,z
1/2+x,1/2+y,z
1/2-x,1/2+y,-z
1/2-x,1/2-y,-z
1/2+x,1/2-y,z
loop_
_atom_site_type_symbol
_atom_site_label
_atom_site_fract_x
_atom_site_fract_y
_atom_site_fract_z
Si Si1 0.126318 0.818413 0.004554
Si Si2 0.965625 0.853074 0.351615
Si Si3 0.530313 0.264703 0.785304
Si Si4 0.139714 0.431251 0.885752
Si Si5 0.709735 0.851294 0.339031
Si Si6 0.809848 0.432506 0.902527
O O1 0.276902 0.766963 0.101431
O O2 0.226925 0.882659 0.068974
O O3 0.032703 0.806025 0.863764
O O4 0.000000 0.813008 0.000000
O O5 0.998333 0.800494 0.310918
O O6 0.823727 0.841321 0.332080
O O7 0.864324 0.903088 0.239738
O O8 0.149818 0.868040 0.507752
O O9 0.389565 0.211125 0.706122
O O10 0.143373 0.500000 0.858631
O O11 0.941888 0.402251 0.761556
O O12 0.196276 0.433322 0.009845
O O13 0.820017 0.500000 0.877151
O O14 0.000000 0.401660 0.000000
#
# Coordination Sequence:
#
# PCOD9181414 Si02
#       6
#     8   8   8   8   8   8
#     4  10  20  33  55  82 101 133 177 214 258 305
#     4  11  20  34  53  77 107 139 174 208 252 315
#     4  10  20  35  51  75 110 139 165 215 260 304
#     4  10  20  36  53  75 106 136 171 217 262 300
#     4  10  22  33  51  79 106 140 173 208 256 305
#     4  10  19  32  53  77 103 136 171 213 262 305
#
# _framework density 16.487055000000002
#
# number of rings (size 3 to 8) (size 9 to 14) (size 15 to 20)
#    0.000    1.833    3.333    1.500    0.000    1.667 
#    0.000    1.667    0.000    0.000    0.000    1.167 
#    0.000    0.000    0.000    0.000    0.000    0.000 
#
# Total GULP energy -133721.466963 kJ/mol
# GULP energy per Si atom -5571.727790 kJ/mol
# Density = 1.644953 g / cm^3
# Si number density = 16.487055 Si / 1000 Ang^3
#
#
#
# Elastic Constant Matrix: (Units=GPa)
#
#
# Indices 1 2 3 4 5 6 
#
# 1 90.8322 39.5627 40.3311 -0.0009 3.3955 0.0006
# 2 39.5627 86.2083 47.8218 -0.0009 -0.5066 0.0004
# 3 40.3311 47.8218 129.1243 -0.0058 -0.7171 0.0035
# 4 -0.0009 -0.0009 -0.0058 -89.7375 -0.0034 44.3848
# 5 3.3955 -0.5066 -0.7171 -0.0034 21.6973 0.0021
# 6 0.0006 0.0004 0.0035 44.3848 0.0021 -10.7085
#
#
#
# Elastic Compliance Matrix: (Units=1/GPa)
#
#
# Indices 1 2 3 4 5 6 
#
# 1 0.014546 -0.005238 -0.002617 0.000000 -0.002485 0.000000
# 2 -0.005238 0.016486 -0.004464 0.000000 0.001057 0.000000
# 3 -0.002617 -0.004464 0.010219 -0.000001 0.000643 -0.000001
# 4 0.000000 0.000000 -0.000001 0.010612 -0.000003 0.043986
# 5 -0.002485 0.001057 0.000643 -0.000003 0.046524 -0.000002
# 6 0.000000 0.000000 -0.000001 0.043986 -0.000002 0.088932
#
#
# Mechanical properties :
#
#
# Convention : Reuss Voigt Hill
#
# Bulk Modulus (GPa) = 60.19564 62.39956 61.29760
# Shear Modulus (GPa) = 22.98916 -3.85312 9.56802
#
# Velocity S-wave (km/s) = 3.73819 -1.53040 2.41163
# Velocity P-wave (km/s) = 7.43116 5.89974 6.70929
#
# Compressibility (1/GPa) = 0.01661250
#
# Stress axis : x y z
#
# Youngs Moduli (GPa) = 68.74839 60.65725 97.86044
#
# Poissons Ratio (x) = 0.31774 0.25611
# Poissons Ratio (y) = 0.36012 0.43682
# Poissons Ratio (z) = 0.17992 0.27076
#
# Static dielectric constant tensor:
#      x y z
#    x 1.551780 0.000000 0.003810 
#    y 0.000000 1.574040 0.000000 
#    z 0.003810 0.000000 1.555580 
# 
# From -- ./inp_files/50587.got.cif
#   From: 2010.05.17/outbox.cif.g08.bks.cpg/sg12_26_cif.got.tgz:50587.got - 2010.06.03 13:09:07.
