data_PCOD9181020
_publ_section_title
;
Structure prediction by ZEFSAII (Michael W. Deem and Ramdas Pophale) SiO2 
 PCOD9181020
Probable space group: C 2/M
;
_chemical_formula_sum "Si O2"
_cell_formula_units_Z 64
_cell_length_a 20.489536
_cell_length_b 7.566957
_cell_length_c 16.283667
_cell_angle_alpha 90.000000
_cell_angle_beta 71.078094
_cell_angle_gamma 90.000000
_cell_volume 2388.245887
_symmetry_space_group_name_H-M "C 2/M"
_symmetry_group_IT_number 12
_symmetry_cell_setting 'monoclinic'
loop_
_space_group_symop_operation_xyz
x,y,z
-x,y,-z
-x,-y,-z
x,-y,z
1/2+x,1/2+y,z
1/2-x,1/2+y,-z
1/2-x,1/2-y,-z
1/2+x,1/2-y,z
loop_
_atom_site_type_symbol
_atom_site_label
_atom_site_fract_x
_atom_site_fract_y
_atom_site_fract_z
Si Si1 0.469869 0.284506 0.403051
Si Si2 0.720269 0.799964 0.905177
Si Si3 0.518438 0.715936 0.792467
Si Si4 0.773551 0.203273 0.285052
Si Si5 0.378842 0.707796 0.646857
Si Si6 0.824245 0.212142 0.432899
Si Si7 0.428374 0.710208 0.064338
Si Si8 0.868432 0.208709 0.850498
O O1 0.473279 0.500000 0.408955
O O2 0.470961 0.233913 0.305876
O O3 0.544211 0.225745 0.408023
O O4 0.391631 0.228042 0.456020
O O5 0.724517 0.794290 0.803732
O O6 0.643080 0.737134 0.953749
O O7 0.793066 0.713947 0.902599
O O8 0.723364 0.000000 0.930242
O O9 0.517670 0.500000 0.790488
O O10 0.572010 0.771211 0.840433
O O11 0.441849 0.777361 0.851076
O O12 0.693580 0.206448 0.347644
O O13 0.818505 0.277487 0.341284
O O14 0.794173 0.000000 0.261240
O O15 0.374314 0.500000 0.625851
O O16 0.376830 0.718762 0.747655
O O17 0.750000 0.250000 0.500000
O O18 0.830938 0.000000 0.424127
O O19 0.435915 0.500000 0.063783
O O20 0.500000 0.782514 0.000000
O O21 0.866583 0.000000 0.871444
#
# Coordination Sequence:
#
# PCOD9181020 Si02
#       8
#     8   8   8   8   8   8   8   8
#     4   8  14  28  51  73  91 120 164 203 235 280
#     4  10  19  32  52  74  95 123 161 202 241 285
#     4   8  13  26  49  71  92 121 158 197 235 283
#     4  10  19  32  52  76 100 125 155 195 245 294
#     4   8  14  27  49  74  95 117 153 199 240 282
#     4  10  21  35  50  70  98 133 168 200 237 283
#     4  10  20  32  47  70 100 132 164 200 244 290
#     4   7  12  24  45  71  91 114 153 195 234 278
#
# _framework density 26.797912
#
# number of rings (size 3 to 8) (size 9 to 14) (size 15 to 20)
#    0.000    3.125    0.000    3.750    0.000    3.250 
#    0.000    1.875    0.000   14.250    0.000    0.000 
#    0.000    0.000    0.000    0.000    0.000    0.000 
#
# Total GULP energy -178742.414638 kJ/mol
# GULP energy per Si atom -5585.700457 kJ/mol
# Density = 2.673692 g / cm^3
# Si number density = 26.797912 Si / 1000 Ang^3
#
#
#
# Elastic Constant Matrix: (Units=GPa)
#
#
# Indices 1 2 3 4 5 6 
#
# 1 224.0831 2.2860 40.8795 0.0000 -18.4898 0.0000
# 2 2.2860 53.9070 3.1252 0.0000 3.8326 0.0001
# 3 40.8795 3.1252 98.6301 0.0000 -21.1968 0.0000
# 4 0.0000 0.0000 0.0000 12.3732 0.0000 -7.6569
# 5 -18.4898 3.8326 -21.1968 0.0000 59.1234 0.0000
# 6 0.0000 0.0001 0.0000 -7.6569 0.0000 12.4351
#
#
#
# Elastic Compliance Matrix: (Units=1/GPa)
#
#
# Indices 1 2 3 4 5 6 
#
# 1 0.004870 -0.000163 -0.001824 0.000000 0.000879 0.000000
# 2 -0.000163 0.018719 -0.000864 0.000000 -0.001574 0.000000
# 3 -0.001824 -0.000864 0.011714 0.000000 0.003685 0.000000
# 4 0.000000 0.000000 0.000000 0.130573 0.000000 0.080400
# 5 0.000879 -0.001574 0.003685 0.000000 0.018612 0.000000
# 6 0.000000 0.000000 0.000000 0.080400 0.000000 0.129923
#
#
# Mechanical properties :
#
#
# Convention : Reuss Voigt Hill
#
# Bulk Modulus (GPa) = 33.78272 52.13354 42.95813
# Shear Modulus (GPa) = 15.15239 38.80833 26.98036
#
# Velocity S-wave (km/s) = 2.38046 3.80963 3.17647
# Velocity P-wave (km/s) = 4.49325 6.23278 5.43309
#
# Compressibility (1/GPa) = 0.02960093
#
# Stress axis : x y z
#
# Youngs Moduli (GPa) = 205.35374 53.42057 85.36545
#
# Poissons Ratio (x) = 0.00872 0.15572
# Poissons Ratio (y) = 0.03353 0.07374
# Poissons Ratio (z) = 0.37460 0.04614
#
# Static dielectric constant tensor:
#      x y z
#    x 2.111250 0.000000 -0.038830 
#    y 0.000000 2.085800 0.000000 
#    z -0.038830 0.000000 2.220460 
# 
# From -- ./inp_files/319911.got.cif
#   From: 2010.05.17/outbox.cif.g08.bks.cpg/sg12_160_cif.got.tgz:319911.got - 2010.06.03 13:09:07.
