data_PCOD9181796
_publ_section_title
;
Structure prediction by ZEFSAII (Michael W. Deem and Ramdas Pophale) SiO2 
 PCOD9181796
Probable space group: C 2/M
;
_chemical_formula_sum "Si O2"
_cell_formula_units_Z 64
_cell_length_a 23.545448
_cell_length_b 9.282713
_cell_length_c 17.500934
_cell_angle_alpha 90.000000
_cell_angle_beta 103.763394
_cell_angle_gamma 90.000000
_cell_volume 3715.270608
_symmetry_space_group_name_H-M "C 2/M"
_symmetry_group_IT_number 12
_symmetry_cell_setting 'monoclinic'
loop_
_space_group_symop_operation_xyz
x,y,z
-x,y,-z
-x,-y,-z
x,-y,z
1/2+x,1/2+y,z
1/2-x,1/2+y,-z
1/2-x,1/2-y,-z
1/2+x,1/2-y,z
loop_
_atom_site_type_symbol
_atom_site_label
_atom_site_fract_x
_atom_site_fract_y
_atom_site_fract_z
Si Si1 0.429186 0.672399 0.392525
Si Si2 0.531437 0.170225 0.136587
Si Si3 0.344518 0.173232 0.247081
Si Si4 0.119473 0.329195 0.304041
Si Si5 0.393829 0.172449 0.097509
Si Si6 0.790610 0.171685 0.772221
Si Si7 0.121750 0.170993 0.061336
Si Si8 0.933717 0.172506 0.570463
O O1 0.422727 0.500000 0.382465
O O2 0.386768 0.753303 0.321661
O O3 0.417663 0.708330 0.477792
O O4 0.497290 0.706588 0.398186
O O5 0.566337 0.195856 0.226718
O O6 0.463279 0.204284 0.123133
O O7 0.564147 0.260861 0.082138
O O8 0.536939 0.000000 0.119827
O O9 0.363925 0.213827 0.167623
O O10 0.277062 0.210668 0.240789
O O11 0.350281 0.000000 0.254560
O O12 0.126835 0.500000 0.314671
O O13 0.175915 0.258005 0.282904
O O14 0.103039 0.255963 0.378370
O O15 0.387400 0.000000 0.085434
O O16 0.368472 0.254492 0.016579
O O17 0.825752 0.199390 0.862196
O O18 0.795015 0.000000 0.758730
O O19 0.115075 0.000000 0.050864
O O20 0.927228 0.000000 0.577937
#
# Coordination Sequence:
#
# PCOD9181796 Si02
#       8
#     8   8   8   8   8   8   8   8
#     4   9  19  35  55  80 109 138 166 201 249 304
#     4   9  18  32  49  72 104 134 160 202 259 307
#     4  10  21  37  55  74 100 136 175 213 256 304
#     4  10  19  32  54  81 103 131 176 217 248 295
#     4  10  20  33  50  73 101 132 165 206 259 310
#     4   9  20  38  54  70 100 139 173 212 262 304
#     4  10  20  33  50  73  99 130 171 212 250 299
#     4   9  18  34  55  80 111 140 162 195 253 312
#
# _framework density 17.226201
#
# number of rings (size 3 to 8) (size 9 to 14) (size 15 to 20)
#    0.000    2.500    0.000    2.625    0.000    6.500 
#    0.000    1.875    0.000    0.000    0.000    0.000 
#    0.000    0.000    0.000    0.000    0.000    0.000 
#
# Total GULP energy -178598.265333 kJ/mol
# GULP energy per Si atom -5581.195792 kJ/mol
# Density = 1.718699 g / cm^3
# Si number density = 17.226201 Si / 1000 Ang^3
#
#
#
# Elastic Constant Matrix: (Units=GPa)
#
#
# Indices 1 2 3 4 5 6 
#
# 1 99.5058 53.6265 88.3838 0.0000 -20.5182 0.0000
# 2 53.6265 42.5323 68.8083 0.0000 -14.7775 0.0000
# 3 88.3838 68.8083 145.9444 0.0000 -32.4884 0.0000
# 4 0.0000 0.0000 0.0000 35.7730 0.0000 1.3891
# 5 -20.5182 -14.7775 -32.4884 0.0000 12.9215 0.0000
# 6 0.0000 0.0000 0.0000 1.3891 0.0000 19.7659
#
#
#
# Elastic Compliance Matrix: (Units=1/GPa)
#
#
# Indices 1 2 3 4 5 6 
#
# 1 0.031820 -0.038147 0.000570 0.000000 0.008335 0.000000
# 2 -0.038147 0.145331 -0.049745 0.000000 -0.019442 0.000000
# 3 0.000570 -0.049745 0.039740 0.000000 0.043931 0.000000
# 4 0.000000 0.000000 0.000000 0.028031 0.000000 -0.001970
# 5 0.008335 -0.019442 0.043931 0.000000 0.178848 0.000000
# 6 0.000000 0.000000 0.000000 -0.001970 0.000000 0.050731
#
#
# Mechanical properties :
#
#
# Convention : Reuss Voigt Hill
#
# Bulk Modulus (GPa) = 23.67038 78.84663 51.25850
# Shear Modulus (GPa) = 7.53891 18.83636 13.18763
#
# Velocity S-wave (km/s) = 2.09426 3.31036 2.76987
# Velocity P-wave (km/s) = 4.42929 7.77702 6.32853
#
# Compressibility (1/GPa) = 0.04224689
#
# Stress axis : x y z
#
# Youngs Moduli (GPa) = 31.42637 6.88084 25.16385
#
# Poissons Ratio (x) = 0.26248 -0.01435
# Poissons Ratio (y) = 1.19882 1.25179
# Poissons Ratio (z) = -0.01792 0.34229
#
# Static dielectric constant tensor:
#      x y z
#    x 1.563360 0.000000 0.003760 
#    y 0.000000 1.569260 0.000000 
#    z 0.003760 0.000000 1.568370 
# 
# From -- ./inp_files/281318.got.cif
#   From: 2010.05.17/outbox.cif.g08.bks.cpg/sg12_141_cif.got.tgz:281318.got - 2010.06.03 13:09:07.
