data_PCOD9181538
_publ_section_title
;
Structure prediction by ZEFSAII (Michael W. Deem and Ramdas Pophale) SiO2 
 PCOD9181538
Probable space group: C 2/M
;
_chemical_formula_sum "Si O2"
_cell_formula_units_Z 40
_cell_length_a 24.874631
_cell_length_b 8.611124
_cell_length_c 12.895643
_cell_angle_alpha 90.000000
_cell_angle_beta 58.773576
_cell_angle_gamma 90.000000
_cell_volume 2362.050772
_symmetry_space_group_name_H-M "C 2/M"
_symmetry_group_IT_number 12
_symmetry_cell_setting 'monoclinic'
loop_
_space_group_symop_operation_xyz
x,y,z
-x,y,-z
-x,-y,-z
x,-y,z
1/2+x,1/2+y,z
1/2-x,1/2+y,-z
1/2-x,1/2-y,-z
1/2+x,1/2-y,z
loop_
_atom_site_type_symbol
_atom_site_label
_atom_site_fract_x
_atom_site_fract_y
_atom_site_fract_z
Si Si1 0.586736 0.185412 0.492336
Si Si2 0.551293 0.313866 0.081857
Si Si3 0.051295 0.186134 0.315557
Si Si4 0.586737 0.185412 0.834194
Si Si5 0.820359 0.814347 0.429640
O O1 0.520234 0.254161 0.598750
O O2 0.590598 0.236902 0.368636
O O3 0.641606 0.252721 0.508555
O O4 0.584737 0.000000 0.502462
O O5 0.551434 0.500000 0.069054
O O6 0.572133 0.276331 0.177868
O O7 0.479765 0.254155 0.139218
O O8 0.590598 0.236907 0.950171
O O9 0.051438 0.000000 0.328077
O O10 0.641607 0.252723 0.708236
O O11 0.584741 0.000000 0.828065
O O12 0.750000 0.750000 0.500000
O O13 0.820329 0.000000 0.429670
#
# Coordination Sequence:
#
# PCOD9181538 Si02
#       5
#     8   8   8   8   8
#     4  11  21  33  52  79 110 142 181 223 271 323
#     4  10  19  32  53  79 111 146 178 221 273 321
#     4  10  19  32  53  79 111 146 178 221 273 321
#     4  11  21  33  52  79 110 142 181 223 271 323
#     4  12  24  40  58  78 108 144 185 226 269 324
#
# _framework density 16.934436999999999
#
# number of rings (size 3 to 8) (size 9 to 14) (size 15 to 20)
#    0.000    1.200    2.000    9.000    0.000    2.400 
#    0.000    0.000    0.000    1.200    0.000    0.000 
#    0.000    0.000    0.000    0.000    0.000    0.000 
#
# Total GULP energy -111739.337673 kJ/mol
# GULP energy per Si atom -5586.966884 kJ/mol
# Density = 1.689589 g / cm^3
# Si number density = 16.934437 Si / 1000 Ang^3
#
#
#
# Elastic Constant Matrix: (Units=GPa)
#
#
# Indices 1 2 3 4 5 6 
#
# 1 100.5193 37.7224 71.1541 0.0000 9.0193 0.0000
# 2 37.7224 111.6658 44.4914 0.0000 5.8586 0.0000
# 3 71.1541 44.4914 132.3149 0.0000 18.5076 0.0000
# 4 0.0000 0.0000 0.0000 11.2947 0.0000 -8.1390
# 5 9.0193 5.8586 18.5076 0.0000 28.1092 0.0000
# 6 0.0000 0.0000 0.0000 -8.1390 0.0000 20.6936
#
#
#
# Elastic Compliance Matrix: (Units=1/GPa)
#
#
# Indices 1 2 3 4 5 6 
#
# 1 0.016596 -0.002365 -0.008209 0.000000 0.000573 0.000000
# 2 -0.002365 0.010678 -0.002328 0.000000 0.000066 0.000000
# 3 -0.008209 -0.002328 0.013568 0.000000 -0.005814 0.000000
# 4 0.000000 0.000000 0.000000 0.123555 0.000000 0.048595
# 5 0.000573 0.000066 -0.005814 0.000000 0.039206 0.000000
# 6 0.000000 0.000000 0.000000 0.048595 0.000000 0.067437
#
#
# Mechanical properties :
#
#
# Convention : Reuss Voigt Hill
#
# Bulk Modulus (GPa) = 66.50141 72.35953 69.43047
# Shear Modulus (GPa) = 16.56404 24.76164 20.66284
#
# Velocity S-wave (km/s) = 3.13090 3.82803 3.49688
# Velocity P-wave (km/s) = 7.24052 7.89686 7.57580
#
# Compressibility (1/GPa) = 0.01503728
#
# Stress axis : x y z
#
# Youngs Moduli (GPa) = 60.25653 93.64689 73.70046
#
# Poissons Ratio (x) = 0.22152 0.60503
# Poissons Ratio (y) = 0.14254 0.17156
# Poissons Ratio (z) = 0.49467 0.21799
#
# Static dielectric constant tensor:
#      x y z
#    x 1.546740 0.000000 0.035200 
#    y 0.000000 1.561280 0.000000 
#    z 0.035200 0.000000 1.587380 
# 
# From -- ./inp_files/171868.got.cif
#   From: 2010.05.17/outbox.cif.g08.bks.cpg/sg12_86_cif.got.tgz:171868.got - 2010.06.03 13:09:07.
