data_PCOD9181865
_publ_section_title
;
Structure prediction by ZEFSAII (Michael W. Deem and Ramdas Pophale) SiO2 
 PCOD9181865
Probable space group: C 2/M
;
_chemical_formula_sum "Si O2"
_cell_formula_units_Z 64
_cell_length_a 21.285101
_cell_length_b 7.742363
_cell_length_c 19.029459
_cell_angle_alpha 90.000000
_cell_angle_beta 95.876127
_cell_angle_gamma 90.000000
_cell_volume 3119.519436
_symmetry_space_group_name_H-M "C 2/M"
_symmetry_group_IT_number 12
_symmetry_cell_setting 'monoclinic'
loop_
_space_group_symop_operation_xyz
x,y,z
-x,y,-z
-x,-y,-z
x,-y,z
1/2+x,1/2+y,z
1/2-x,1/2+y,-z
1/2-x,1/2-y,-z
1/2+x,1/2-y,z
loop_
_atom_site_type_symbol
_atom_site_label
_atom_site_fract_x
_atom_site_fract_y
_atom_site_fract_z
Si Si1 0.447198 0.291021 0.049313
Si Si2 0.306758 0.704216 0.411691
Si Si3 0.458484 0.206770 0.211798
Si Si4 0.835034 0.291195 0.567607
Si Si5 0.184252 0.207602 0.030193
Si Si6 0.193844 0.790359 0.192103
Si Si7 0.913295 0.293827 0.707176
Si Si8 0.329429 0.798486 0.259927
O O1 0.446632 0.500000 0.047563
O O2 0.464182 0.237323 0.129736
O O3 0.500000 0.232002 0.000000
O O4 0.377452 0.228998 0.018679
O O5 0.303436 0.500000 0.399324
O O6 0.235031 0.769383 0.416843
O O7 0.343887 0.737819 0.488049
O O8 0.333792 0.785628 0.344374
O O9 0.519444 0.276811 0.259842
O O10 0.391575 0.278422 0.231237
O O11 0.457527 0.000000 0.223287
O O12 0.833940 0.500000 0.569054
O O13 0.885286 0.227195 0.630336
O O14 0.183618 0.268637 0.110891
O O15 0.179865 0.000000 0.032154
O O16 0.250000 0.250000 0.000000
O O17 0.138755 0.735259 0.238432
O O18 0.261902 0.726025 0.227593
O O19 0.193997 0.000000 0.192540
O O20 0.919980 0.500000 0.699587
O O21 0.327426 0.000000 0.239374
#
# Coordination Sequence:
#
# PCOD9181865 Si02
#       8
#     8   8   8   8   8   8   8   8
#     4  10  21  38  58  79 107 144 184 224 271 324
#     4  10  19  32  54  82 109 140 178 220 264 314
#     4  10  22  38  57  80 109 144 182 222 268 322
#     4   9  18  33  53  79 110 139 174 221 267 314
#     4  10  21  36  54  79 108 140 177 222 272 321
#     4  10  20  34  55  79 105 137 177 221 267 318
#     4  10  20  36  56  81 108 137 177 224 268 312
#     4  10  20  35  54  79 110 144 178 217 268 322
#
# _framework density 20.515982000000001
#
# number of rings (size 3 to 8) (size 9 to 14) (size 15 to 20)
#    0.000    2.125    1.250    1.875    0.000    5.250 
#    0.000    0.625    0.000    3.750    0.000    0.000 
#    0.000    0.000    0.000    0.000    0.000    0.000 
#
# Total GULP energy -178723.394278 kJ/mol
# GULP energy per Si atom -5585.106071 kJ/mol
# Density = 2.046929 g / cm^3
# Si number density = 20.515982 Si / 1000 Ang^3
#
#
#
# Elastic Constant Matrix: (Units=GPa)
#
#
# Indices 1 2 3 4 5 6 
#
# 1 92.9968 1.5852 9.2473 0.0000 20.9172 0.0000
# 2 1.5852 28.7731 -11.6086 0.0000 4.5871 0.0000
# 3 9.2473 -11.6086 64.9830 0.0000 27.9582 0.0000
# 4 0.0000 0.0000 0.0000 20.3155 0.0000 -3.6011
# 5 20.9172 4.5871 27.9582 0.0000 30.8161 0.0000
# 6 0.0000 0.0000 0.0000 -3.6011 0.0000 15.9686
#
#
#
# Elastic Compliance Matrix: (Units=1/GPa)
#
#
# Indices 1 2 3 4 5 6 
#
# 1 0.013321 0.003299 0.004585 0.000000 -0.013692 0.000000
# 2 0.003299 0.046662 0.019385 0.000000 -0.026772 0.000000
# 3 0.004585 0.019385 0.034084 0.000000 -0.036920 0.000000
# 4 0.000000 0.000000 0.000000 0.051273 0.000000 0.011563
# 5 -0.013692 -0.026772 -0.036920 0.000000 0.079226 0.000000
# 6 0.000000 0.000000 0.000000 0.011563 0.000000 0.065231
#
#
# Mechanical properties :
#
#
# Convention : Reuss Voigt Hill
#
# Bulk Modulus (GPa) = 6.72938 20.57784 13.65361
# Shear Modulus (GPa) = 17.55657 25.92198 21.73928
#
# Velocity S-wave (km/s) = 2.92850 3.55843 3.25872
# Velocity P-wave (km/s) = 3.83692 5.18991 4.56383
#
# Compressibility (1/GPa) = 0.14860208
#
# Stress axis : x y z
#
# Youngs Moduli (GPa) = 75.07146 21.43075 29.33960
#
# Poissons Ratio (x) = -0.07069 -0.13451
# Poissons Ratio (y) = -0.24764 -0.56874
# Poissons Ratio (z) = -0.34417 -0.41543
#
# Static dielectric constant tensor:
#      x y z
#    x 1.729840 0.000000 0.024860 
#    y 0.000000 1.763560 0.000000 
#    z 0.024860 0.000000 1.700540 
# 
# From -- ./inp_files/281404.got.cif
#   From: 2010.05.17/outbox.cif.g08.bks.cpg/sg12_141_cif.got.tgz:281404.got - 2010.06.03 13:09:07.
