data_PCOD9181579
_publ_section_title
;
Structure prediction by ZEFSAII (Michael W. Deem and Ramdas Pophale) SiO2 
 PCOD9181579
Probable space group: C 2/M
;
_chemical_formula_sum "Si O2"
_cell_formula_units_Z 56
_cell_length_a 18.550105
_cell_length_b 14.737676
_cell_length_c 9.615081
_cell_angle_alpha 90.000000
_cell_angle_beta 60.625972
_cell_angle_gamma 90.000000
_cell_volume 2290.677469
_symmetry_space_group_name_H-M "C 2/M"
_symmetry_group_IT_number 12
_symmetry_cell_setting 'monoclinic'
loop_
_space_group_symop_operation_xyz
x,y,z
-x,y,-z
-x,-y,-z
x,-y,z
1/2+x,1/2+y,z
1/2-x,1/2+y,-z
1/2-x,1/2-y,-z
1/2+x,1/2-y,z
loop_
_atom_site_type_symbol
_atom_site_label
_atom_site_fract_x
_atom_site_fract_y
_atom_site_fract_z
Si Si1 0.728468 0.105015 0.671071
Si Si2 0.675445 0.610269 0.991609
Si Si3 0.494786 0.390393 0.168101
Si Si4 0.751290 0.602772 0.649082
Si Si5 0.083998 0.649169 0.358309
Si Si6 0.914401 0.149438 0.519720
Si Si7 0.842477 0.389719 0.986859
O O1 0.729874 0.147091 0.516438
O O2 0.824409 0.106348 0.630721
O O3 0.703482 0.000000 0.677961
O O4 0.665893 0.141862 0.846476
O O5 0.677221 0.500000 0.984417
O O6 0.688256 0.642947 0.820901
O O7 0.754203 0.639062 0.004878
O O8 0.586808 0.634747 0.134529
O O9 0.484318 0.500000 0.183199
O O10 0.429914 0.349959 0.338259
O O11 0.500000 0.366312 0.000000
O O12 0.721509 0.500000 0.648285
O O13 0.836226 0.599385 0.655353
O O14 0.090330 0.750619 0.411702
O O15 0.089650 0.644850 0.185933
O O16 0.000000 0.610172 0.500000
O O17 0.000000 0.106992 0.500000
O O18 0.846599 0.500000 0.981663
#
# Coordination Sequence:
#
# PCOD9181579 Si02
#       7
#     8   8   8   8   8   8   8
#     4  10  20  35  56  84 112 137 177 230 278 326
#     4   8  14  27  49  76 103 134 174 214 256 312
#     4  10  19  32  53  80 110 146 184 221 264 314
#     4   9  18  35  60  85 107 137 182 234 279 320
#     4  10  22  39  55  77 108 144 188 227 271 331
#     4  11  23  36  52  80 119 156 185 216 261 322
#     4   9  18  34  57  79 100 134 181 231 278 323
#
# _framework density 24.446916999999999
#
# number of rings (size 3 to 8) (size 9 to 14) (size 15 to 20)
#    0.000    2.429    0.000    3.429    0.000    6.857 
#    0.000    5.000    0.000    2.571    0.000    0.000 
#    0.000    0.000    0.000    0.000    0.000    0.000 
#
# Total GULP energy -156386.757436 kJ/mol
# GULP energy per Si atom -5585.241337 kJ/mol
# Density = 2.439127 g / cm^3
# Si number density = 24.446917 Si / 1000 Ang^3
#
#
#
# Elastic Constant Matrix: (Units=GPa)
#
#
# Indices 1 2 3 4 5 6 
#
# 1 22.8369 -20.9250 1.6420 0.0000 -12.4341 0.0000
# 2 -20.9250 86.9014 17.0951 0.0000 4.9797 0.0000
# 3 1.6420 17.0951 222.9880 0.0000 -8.3857 0.0000
# 4 0.0000 0.0000 0.0000 50.8268 0.0000 7.2874
# 5 -12.4341 4.9797 -8.3857 0.0000 43.9134 0.0000
# 6 0.0000 0.0000 0.0000 7.2874 0.0000 -25.3910
#
#
#
# Elastic Compliance Matrix: (Units=1/GPa)
#
#
# Indices 1 2 3 4 5 6 
#
# 1 0.067324 0.015434 -0.001035 0.000000 0.017115 0.000000
# 2 0.015434 0.015322 -0.001198 0.000000 0.002404 0.000000
# 3 -0.001035 -0.001198 0.004611 0.000000 0.000723 0.000000
# 4 0.000000 0.000000 0.000000 0.018897 0.000000 0.005424
# 5 0.017115 0.002404 0.000723 0.000000 0.027484 0.000000
# 6 0.000000 0.000000 0.000000 0.005424 0.000000 -0.037827
#
#
# Mechanical properties :
#
#
# Convention : Reuss Voigt Hill
#
# Bulk Modulus (GPa) = 8.79834 36.48339 22.64087
# Shear Modulus (GPa) = 46.60075 36.19746 41.39911
#
# Velocity S-wave (km/s) = 4.37074 3.85210 4.11959
# Velocity P-wave (km/s) = 5.39240 5.89414 5.64884
#
# Compressibility (1/GPa) = 0.11365779
#
# Stress axis : x y z
#
# Youngs Moduli (GPa) = 14.85359 65.26774 216.86325
#
# Poissons Ratio (x) = -1.00733 0.22453
# Poissons Ratio (y) = -0.22925 0.25977
# Poissons Ratio (z) = 0.01538 0.07818
#
# Static dielectric constant tensor:
#      x y z
#    x 1.988200 0.000000 0.038670 
#    y 0.000000 1.924970 0.000000 
#    z 0.038670 0.000000 1.985510 
# 
# From -- ./inp_files/98039.got.cif
#   From: 2010.05.17/outbox.cif.g08.bks.cpg/sg12_50_cif.got.tgz:98039.got - 2010.06.03 13:09:07.
