data_PCOD9181642
_publ_section_title
;
Structure prediction by ZEFSAII (Michael W. Deem and Ramdas Pophale) SiO2 
 PCOD9181642
Probable space group: C 2/M
;
_chemical_formula_sum "Si O2"
_cell_formula_units_Z 64
_cell_length_a 16.643304
_cell_length_b 8.900879
_cell_length_c 23.312771
_cell_angle_alpha 90.000000
_cell_angle_beta 89.282192
_cell_angle_gamma 90.000000
_cell_volume 3453.283693
_symmetry_space_group_name_H-M "C 2/M"
_symmetry_group_IT_number 12
_symmetry_cell_setting 'monoclinic'
loop_
_space_group_symop_operation_xyz
x,y,z
-x,y,-z
-x,-y,-z
x,-y,z
1/2+x,1/2+y,z
1/2-x,1/2+y,-z
1/2-x,1/2-y,-z
1/2+x,1/2-y,z
loop_
_atom_site_type_symbol
_atom_site_label
_atom_site_fract_x
_atom_site_fract_y
_atom_site_fract_z
Si Si1 0.956961 0.680258 0.679325
Si Si2 0.782662 0.180056 0.440700
Si Si3 0.378438 0.181565 0.258113
Si Si4 0.948982 0.166669 0.941001
Si Si5 0.330535 0.173440 0.015444
Si Si6 0.079208 0.681638 0.870880
Si Si7 0.957798 0.678691 0.439918
Si Si8 0.784714 0.818332 0.674139
O O1 0.947990 0.500000 0.687883
O O2 0.871933 0.758515 0.693851
O O3 0.037563 0.730998 0.712938
O O4 0.980932 0.706989 0.612697
O O5 0.750000 0.250000 0.500000
O O6 0.875604 0.230039 0.433157
O O7 0.732951 0.249670 0.388349
O O8 0.775245 0.000000 0.441285
O O9 0.384365 0.219001 0.190920
O O10 0.294050 0.229256 0.287619
O O11 0.378871 0.000000 0.263364
O O12 0.999040 0.227218 0.887036
O O13 0.915531 0.000000 0.930535
O O14 0.887436 0.291759 0.961476
O O15 0.000000 0.154653 0.000000
O O16 0.364949 0.226787 0.076037
O O17 0.318730 0.000000 0.022578
O O18 0.250000 0.250000 0.000000
O O19 0.065643 0.500000 0.873391
O O20 0.937621 0.500000 0.438552
O O21 0.000000 0.711699 0.500000
O O22 0.786373 0.000000 0.671901
#
# Coordination Sequence:
#
# PCOD9181642 Si02
#       8
#     8   8   8   8   8   8   8   8
#     4  10  20  38  61  86 118 156 194 238 295 353
#     4  12  24  38  59  87 119 153 196 246 300 356
#     4   9  19  39  63  83 117 161 198 237 294 356
#     4   9  17  31  52  77 106 139 178 226 278 328
#     4  10  19  32  53  81 115 150 189 234 286 340
#     4   9  18  35  58  81 108 150 194 230 277 346
#     4  10  20  36  59  86 118 154 193 239 298 356
#     4  11  22  40  63  88 119 157 198 243 295 353
#
# _framework density 18.533086000000001
#
# number of rings (size 3 to 8) (size 9 to 14) (size 15 to 20)
#    0.000    2.000    1.250    3.000    0.000    3.750 
#    2.250    1.875    0.000    0.000    0.000    0.000 
#    0.000    0.000    0.000    0.000    0.000    0.000 
#
# Total GULP energy -178357.273049 kJ/mol
# GULP energy per Si atom -5573.664783 kJ/mol
# Density = 1.849090 g / cm^3
# Si number density = 18.533086 Si / 1000 Ang^3
#
#
#
# Elastic Constant Matrix: (Units=GPa)
#
#
# Indices 1 2 3 4 5 6 
#
# 1 124.8531 35.1711 53.2271 0.0000 -6.4167 0.0000
# 2 35.1711 42.0466 29.3203 0.0000 2.3514 0.0000
# 3 53.2271 29.3203 104.2710 0.0000 -19.6576 0.0000
# 4 0.0000 0.0000 0.0000 15.6702 0.0000 1.0794
# 5 -6.4167 2.3514 -19.6576 0.0000 19.8338 0.0000
# 6 0.0000 0.0000 0.0000 1.0794 0.0000 35.7531
#
#
#
# Elastic Compliance Matrix: (Units=1/GPa)
#
#
# Indices 1 2 3 4 5 6 
#
# 1 0.011693 -0.007197 -0.003777 0.000000 0.000893 0.000000
# 2 -0.007197 0.037816 -0.010138 0.000000 -0.016860 0.000000
# 3 -0.003777 -0.010138 0.017666 0.000000 0.017489 0.000000
# 4 0.000000 0.000000 0.000000 0.063948 0.000000 -0.001931
# 5 0.000893 -0.016860 0.017489 0.000000 0.070041 0.000000
# 6 0.000000 0.000000 0.000000 -0.001931 0.000000 0.028028
#
#
# Mechanical properties :
#
#
# Convention : Reuss Voigt Hill
#
# Bulk Modulus (GPa) = 40.07857 56.28975 48.18416
# Shear Modulus (GPa) = 17.87423 24.48158 21.17790
#
# Velocity S-wave (km/s) = 3.10893 3.63845 3.38406
# Velocity P-wave (km/s) = 5.87874 6.93467 6.42842
#
# Compressibility (1/GPa) = 0.02495099
#
# Stress axis : x y z
#
# Youngs Moduli (GPa) = 85.52273 26.44399 56.60534
#
# Poissons Ratio (x) = 0.19032 0.21378
# Poissons Ratio (y) = 0.61552 0.57387
# Poissons Ratio (z) = 0.32299 0.26809
#
# Static dielectric constant tensor:
#      x y z
#    x 1.606320 0.000000 0.018900 
#    y 0.000000 1.617800 0.000000 
#    z 0.018900 0.000000 1.612030 
# 
# From -- ./inp_files/338706.got.cif
#   From: 2010.05.17/outbox.cif.g08.bks.cpg/sg12_170_cif.got.tgz:338706.got - 2010.06.03 13:09:07.
