data_PCOD9181901
_publ_section_title
;
Structure prediction by ZEFSAII (Michael W. Deem and Ramdas Pophale) SiO2 
 PCOD9181901
Probable space group: C 2/M
;
_chemical_formula_sum "Si O2"
_cell_formula_units_Z 64
_cell_length_a 25.198371
_cell_length_b 8.678347
_cell_length_c 20.685628
_cell_angle_alpha 90.000000
_cell_angle_beta 126.185277
_cell_angle_gamma 90.000000
_cell_volume 3651.001563
_symmetry_space_group_name_H-M "C 2/M"
_symmetry_group_IT_number 12
_symmetry_cell_setting 'monoclinic'
loop_
_space_group_symop_operation_xyz
x,y,z
-x,y,-z
-x,-y,-z
x,-y,z
1/2+x,1/2+y,z
1/2-x,1/2+y,-z
1/2-x,1/2-y,-z
1/2+x,1/2-y,z
loop_
_atom_site_type_symbol
_atom_site_label
_atom_site_fract_x
_atom_site_fract_y
_atom_site_fract_z
Si Si1 0.160433 0.314949 0.740782
Si Si2 0.820244 0.815412 0.027994
Si Si3 0.303339 0.815126 0.878962
Si Si4 0.929830 0.313572 0.713385
Si Si5 0.179185 0.313896 0.469885
Si Si6 0.926948 0.184455 0.212392
Si Si7 0.838062 0.314435 0.761966
Si Si8 0.695968 0.185486 0.625154
O O1 0.163303 0.500000 0.746895
O O2 0.228797 0.246500 0.817409
O O3 0.101358 0.253349 0.741568
O O4 0.158290 0.268599 0.663598
O O5 0.876184 0.768237 0.119119
O O6 0.816436 0.000000 0.024546
O O7 0.750000 0.750000 0.000000
O O8 0.833197 0.754127 0.965362
O O9 0.340405 0.770957 0.839185
O O10 0.301299 0.000000 0.882318
O O11 0.934882 0.500000 0.715766
O O12 0.877619 0.266091 0.620532
O O13 0.897967 0.267128 0.759227
O O14 0.000616 0.243099 0.751417
O O15 0.182389 0.500000 0.469819
O O16 0.250000 0.250000 0.500000
O O17 0.166807 0.266018 0.535292
O O18 0.926147 0.000000 0.215809
O O19 0.833584 0.500000 0.755855
O O20 0.769992 0.248458 0.685034
O O21 0.699229 0.000000 0.627676
#
# Coordination Sequence:
#
# PCOD9181901 Si02
#       8
#     8   8   8   8   8   8   8   8
#     4  10  19  33  54  79 109 144 179 219 271 324
#     4  11  22  36  56  81 108 139 181 229 277 324
#     4  10  19  32  54  83 112 139 175 224 269 318
#     4  10  21  37  56  79 110 149 185 219 269 328
#     4  10  19  33  55  83 112 142 182 226 267 316
#     4  11  24  39  55  78 108 143 183 227 274 325
#     4   9  18  33  53  80 111 143 179 219 266 319
#     4   9  18  31  52  83 111 138 178 225 269 315
#
# _framework density 17.529437000000001
#
# number of rings (size 3 to 8) (size 9 to 14) (size 15 to 20)
#    0.000    2.000    2.500    1.500    0.000    3.500 
#    0.000    1.250    0.000    7.500    0.000    0.000 
#    0.000    0.000    0.000    0.000    0.000    0.000 
#
# Total GULP energy -178570.076020 kJ/mol
# GULP energy per Si atom -5580.314876 kJ/mol
# Density = 1.748954 g / cm^3
# Si number density = 17.529437 Si / 1000 Ang^3
#
#
#
# Elastic Constant Matrix: (Units=GPa)
#
#
# Indices 1 2 3 4 5 6 
#
# 1 167.5998 34.8705 81.4428 0.0000 -12.1773 0.0000
# 2 34.8705 24.5769 29.6067 0.0000 -2.8483 0.0000
# 3 81.4428 29.6067 110.0768 0.0000 -9.9912 0.0000
# 4 0.0000 0.0000 0.0000 22.9252 0.0000 2.6381
# 5 -12.1773 -2.8483 -9.9912 0.0000 30.3231 0.0000
# 6 0.0000 0.0000 0.0000 2.6381 0.0000 26.7896
#
#
#
# Elastic Compliance Matrix: (Units=1/GPa)
#
#
# Indices 1 2 3 4 5 6 
#
# 1 0.010364 -0.008072 -0.005348 0.000000 0.001642 0.000000
# 2 -0.008072 0.066481 -0.011995 0.000000 -0.000949 0.000000
# 3 -0.005348 -0.011995 0.016463 0.000000 0.002150 0.000000
# 4 0.000000 0.000000 0.000000 0.044120 0.000000 -0.004345
# 5 0.001642 -0.000949 0.002150 0.000000 0.034257 0.000000
# 6 0.000000 0.000000 0.000000 -0.004345 0.000000 0.037756
#
#
# Mechanical properties :
#
#
# Convention : Reuss Voigt Hill
#
# Bulk Modulus (GPa) = 23.54151 66.01038 44.77595
# Shear Modulus (GPa) = 18.21955 26.42981 22.32468
#
# Velocity S-wave (km/s) = 3.22742 3.88717 3.57256
# Velocity P-wave (km/s) = 5.22945 7.60825 6.52812
#
# Compressibility (1/GPa) = 0.04247816
#
# Stress axis : x y z
#
# Youngs Moduli (GPa) = 96.48647 15.04178 60.74321
#
# Poissons Ratio (x) = 0.12142 0.32485
# Poissons Ratio (y) = 0.77886 0.72861
# Poissons Ratio (z) = 0.51601 0.18042
#
# Static dielectric constant tensor:
#      x y z
#    x 1.591800 0.000000 -0.042460 
#    y 0.000000 1.591800 0.000000 
#    z -0.042460 0.000000 1.591890 
# 
# From -- ./inp_files/324253.got.cif
#   From: 2010.05.17/outbox.cif.g08.bks.cpg/sg12_163_cif.got.tgz:324253.got - 2010.06.03 13:09:07.
