data_PCOD9181922
_publ_section_title
;
Structure prediction by ZEFSAII (Michael W. Deem and Ramdas Pophale) SiO2 
 PCOD9181922
Probable space group: C 2/M
;
_chemical_formula_sum "Si O2"
_cell_formula_units_Z 48
_cell_length_a 15.283320
_cell_length_b 14.039881
_cell_length_c 24.684715
_cell_angle_alpha 90.000000
_cell_angle_beta 27.620922
_cell_angle_gamma 90.000000
_cell_volume 2455.675890
_symmetry_space_group_name_H-M "C 2/M"
_symmetry_group_IT_number 12
_symmetry_cell_setting 'monoclinic'
loop_
_space_group_symop_operation_xyz
x,y,z
-x,y,-z
-x,-y,-z
x,-y,z
1/2+x,1/2+y,z
1/2-x,1/2+y,-z
1/2-x,1/2-y,-z
1/2+x,1/2-y,z
loop_
_atom_site_type_symbol
_atom_site_label
_atom_site_fract_x
_atom_site_fract_y
_atom_site_fract_z
Si Si1 0.034033 0.748269 0.186714
Si Si2 0.962048 0.207853 0.688627
Si Si3 0.727064 0.389893 0.007217
Si Si4 0.277211 0.394208 0.623165
Si Si5 0.924093 0.389272 0.100362
Si Si6 0.168803 0.606016 0.556026
O O1 0.202431 0.672792 0.081979
O O2 0.043157 0.782755 0.243379
O O3 0.842270 0.688975 0.284593
O O4 0.062930 0.834164 0.128888
O O5 0.018069 0.309486 0.631704
O O6 0.134359 0.138098 0.578765
O O7 0.760365 0.168507 0.781875
O O8 0.687861 0.500000 0.016480
O O9 0.904648 0.385293 0.951354
O O10 0.500000 0.377660 0.500000
O O11 0.241447 0.500000 0.667026
O O12 0.208610 0.396908 0.598631
O O13 0.867554 0.500000 0.125208
O O14 0.000000 0.356673 0.000000
O O15 0.112550 0.500000 0.569292
#
# Coordination Sequence:
#
# PCOD9181922 Si02
#       6
#     8   8   8   8   8   8
#     4  10  20  34  52  79 108 144 173 214 265 319
#     4  10  19  33  53  79 109 142 174 220 264 316
#     4  10  21  35  54  81 109 141 176 217 265 313
#     4   9  18  32  52  81 111 136 170 218 268 312
#     4  10  19  32  54  84 110 132 173 225 269 308
#     4   9  19  33  52  78 105 140 179 216 264 317
#
# _framework density 19.546552999999999
#
# number of rings (size 3 to 8) (size 9 to 14) (size 15 to 20)
#    0.000    2.333    1.667    1.000    2.333    1.333 
#    0.000    0.000    0.000    6.000    0.000    0.000 
#    0.000    0.000    0.000    0.000    0.000    0.000 
#
# Total GULP energy -133979.160145 kJ/mol
# GULP energy per Si atom -5582.465006 kJ/mol
# Density = 1.950206 g / cm^3
# Si number density = 19.546553 Si / 1000 Ang^3
#
#
#
# Elastic Constant Matrix: (Units=GPa)
#
#
# Indices 1 2 3 4 5 6 
#
# 1 22.3269 -5.8051 7.0757 0.0001 1.3020 0.0000
# 2 -5.8051 112.3066 45.7976 -0.0007 -10.4148 0.0007
# 3 7.0757 45.7976 92.9141 0.0000 -2.9305 -0.0010
# 4 0.0001 -0.0007 0.0000 18.4353 -0.0005 -7.2061
# 5 1.3020 -10.4148 -2.9305 -0.0005 30.3087 0.0013
# 6 0.0000 0.0007 -0.0010 -7.2061 0.0013 12.8806
#
#
#
# Elastic Compliance Matrix: (Units=1/GPa)
#
#
# Indices 1 2 3 4 5 6 
#
# 1 0.048046 0.004878 -0.006094 -0.000001 -0.000977 -0.000001
# 2 0.004878 0.011980 -0.006172 0.000000 0.003310 -0.000001
# 3 -0.006094 -0.006172 0.014254 0.000000 -0.000481 0.000002
# 4 -0.000001 0.000000 0.000000 0.069426 -0.000001 0.038841
# 5 -0.000977 0.003310 -0.000481 -0.000001 0.034127 -0.000004
# 6 -0.000001 -0.000001 0.000002 0.038841 -0.000004 0.099366
#
#
# Mechanical properties :
#
#
# Convention : Reuss Voigt Hill
#
# Bulk Modulus (GPa) = 16.80580 35.74268 26.27424
# Shear Modulus (GPa) = 16.03541 24.35686 20.19613
#
# Velocity S-wave (km/s) = 2.86732 3.53384 3.21788
# Velocity P-wave (km/s) = 4.42476 5.91408 5.22278
#
# Compressibility (1/GPa) = 0.05950326
#
# Stress axis : x y z
#
# Youngs Moduli (GPa) = 20.81354 83.47047 70.15663
#
# Poissons Ratio (x) = -0.40717 0.42754
# Poissons Ratio (y) = -0.10153 0.43302
# Poissons Ratio (z) = 0.12684 0.51519
#
# Static dielectric constant tensor:
#      x y z
#    x 1.683170 0.000000 0.025290 
#    y 0.000000 1.717200 0.000000 
#    z 0.025290 0.000000 1.691440 
# 
# From -- ./inp_files/143872.got.cif
#   From: 2010.05.17/outbox.cif.g08.bks.cpg/sg12_72_cif.got.tgz:143872.got - 2010.06.03 13:09:07.
