data_PCOD9181895
_publ_section_title
;
Structure prediction by ZEFSAII (Michael W. Deem and Ramdas Pophale) SiO2 
 PCOD9181895
Probable space group: C 2/M
;
_chemical_formula_sum "Si O2"
_cell_formula_units_Z 48
_cell_length_a 26.087036
_cell_length_b 7.604473
_cell_length_c 25.114000
_cell_angle_alpha 90.000000
_cell_angle_beta 28.452687
_cell_angle_gamma 90.000000
_cell_volume 2373.621640
_symmetry_space_group_name_H-M "C 2/M"
_symmetry_group_IT_number 12
_symmetry_cell_setting 'monoclinic'
loop_
_space_group_symop_operation_xyz
x,y,z
-x,y,-z
-x,-y,-z
x,-y,z
1/2+x,1/2+y,z
1/2-x,1/2+y,-z
1/2-x,1/2-y,-z
1/2+x,1/2-y,z
loop_
_atom_site_type_symbol
_atom_site_label
_atom_site_fract_x
_atom_site_fract_y
_atom_site_fract_z
Si Si1 0.658228 0.714845 0.221798
Si Si2 0.569310 0.703670 0.740004
Si Si3 0.929425 0.784617 0.380499
Si Si4 0.229913 0.795304 0.382528
Si Si5 0.823967 0.290447 0.983473
Si Si6 0.122766 0.785361 0.374101
O O1 0.659244 0.500000 0.220870
O O2 0.547558 0.766116 0.293468
O O3 0.655288 0.774896 0.285525
O O4 0.759415 0.773605 0.094347
O O5 0.599450 0.500000 0.711154
O O6 0.589443 0.778732 0.662382
O O7 0.646435 0.785072 0.713766
O O8 0.443175 0.717470 0.867291
O O9 0.841612 0.722776 0.503428
O O10 0.927927 0.000000 0.379771
O O11 0.197466 0.723178 0.354528
O O12 0.198659 0.000000 0.408409
O O13 0.834743 0.500000 0.977418
O O14 0.750000 0.250000 0.000000
O O15 0.000000 0.736764 0.500000
O O16 0.125605 0.000000 0.369153
#
# Coordination Sequence:
#
# PCOD9181895 Si02
#       6
#     8   8   8   8   8   8
#     4   9  16  29  51  81 108 131 166 217 266 307
#     4  11  22  36  52  74 110 149 179 212 261 312
#     4   9  16  29  51  79 109 135 166 215 267 313
#     4  10  19  32  54  83 109 135 174 218 265 318
#     4  11  21  35  56  79 107 139 177 219 260 310
#     4   9  15  27  52  82 107 132 167 215 266 313
#
# _framework density 20.222263999999999
#
# number of rings (size 3 to 8) (size 9 to 14) (size 15 to 20)
#    0.000    2.167    3.333    1.500    0.000    0.000 
#    0.000    1.667    0.000    7.500    0.000    0.000 
#    0.000    0.000    0.000    0.000    0.000    0.000 
#
# Total GULP energy -134009.667363 kJ/mol
# GULP energy per Si atom -5583.736140 kJ/mol
# Density = 2.017624 g / cm^3
# Si number density = 20.222264 Si / 1000 Ang^3
#
#
#
# Elastic Constant Matrix: (Units=GPa)
#
#
# Indices 1 2 3 4 5 6 
#
# 1 173.8191 -2.8695 53.9451 0.0002 12.2625 0.0003
# 2 -2.8695 42.5539 -10.0133 -0.0005 5.7666 -0.0012
# 3 53.9451 -10.0133 78.3824 -0.0060 16.5145 0.0069
# 4 0.0002 -0.0005 -0.0060 10.0646 -0.0011 -4.4071
# 5 12.2625 5.7666 16.5145 -0.0011 36.9305 0.0018
# 6 0.0003 -0.0012 0.0069 -4.4071 0.0018 11.4438
#
#
#
# Elastic Compliance Matrix: (Units=1/GPa)
#
#
# Indices 1 2 3 4 5 6 
#
# 1 0.007337 -0.000709 -0.005134 -0.000002 -0.000030 0.000002
# 2 -0.000709 0.025436 0.004995 0.000005 -0.005970 0.000002
# 3 -0.005134 0.004995 0.018475 0.000008 -0.007337 -0.000006
# 4 -0.000002 0.000005 0.000008 0.119511 -0.000002 0.046024
# 5 -0.000030 -0.005970 -0.007337 -0.000002 0.031301 -0.000002
# 6 0.000002 0.000002 -0.000006 0.046024 -0.000002 0.105107
#
#
# Mechanical properties :
#
#
# Convention : Reuss Voigt Hill
#
# Bulk Modulus (GPa) = 20.18033 41.87554 31.02794
# Shear Modulus (GPa) = 15.36665 28.60067 21.98366
#
# Velocity S-wave (km/s) = 2.75960 3.76482 3.30070
# Velocity P-wave (km/s) = 4.48941 6.29691 5.46836
#
# Compressibility (1/GPa) = 0.04955320
#
# Stress axis : x y z
#
# Youngs Moduli (GPa) = 136.30002 39.31395 54.12660
#
# Poissons Ratio (x) = 0.02788 0.27787
# Poissons Ratio (y) = 0.09667 -0.27039
# Poissons Ratio (z) = 0.69973 -0.19639
#
# Static dielectric constant tensor:
#      x y z
#    x 1.696510 0.000000 0.033240 
#    y 0.000000 1.799550 0.000000 
#    z 0.033240 0.000000 1.671530 
# 
# From -- ./inp_files/172056.got.cif
#   From: 2010.05.17/outbox.cif.g08.bks.cpg/sg12_87_cif.got.tgz:172056.got - 2010.06.03 13:09:07.
