data_PCOD9181334
_publ_section_title
;
Structure prediction by ZEFSAII (Michael W. Deem and Ramdas Pophale) SiO2 
 PCOD9181334
Probable space group: C 2/M
;
_chemical_formula_sum "Si O2"
_cell_formula_units_Z 56
_cell_length_a 30.808064
_cell_length_b 11.537176
_cell_length_c 9.792178
_cell_angle_alpha 90.000000
_cell_angle_beta 122.635270
_cell_angle_gamma 90.000000
_cell_volume 2931.011396
_symmetry_space_group_name_H-M "C 2/M"
_symmetry_group_IT_number 12
_symmetry_cell_setting 'monoclinic'
loop_
_space_group_symop_operation_xyz
x,y,z
-x,y,-z
-x,-y,-z
x,-y,z
1/2+x,1/2+y,z
1/2-x,1/2+y,-z
1/2-x,1/2-y,-z
1/2+x,1/2-y,z
loop_
_atom_site_type_symbol
_atom_site_label
_atom_site_fract_x
_atom_site_fract_y
_atom_site_fract_z
Si Si1 0.447552 0.132957 0.339068
Si Si2 0.624080 0.209400 0.006875
Si Si3 0.229671 0.629569 0.039893
Si Si4 0.804863 0.130564 0.712386
Si Si5 0.618142 0.131348 0.502016
Si Si6 0.709399 0.700689 0.611445
Si Si7 0.055355 0.364873 0.138405
O O1 0.500000 0.172187 0.500000
O O2 0.408132 0.125825 0.396671
O O3 0.455753 0.000000 0.299051
O O4 0.422608 0.211478 0.180181
O O5 0.672423 0.150790 0.008077
O O6 0.647842 0.324626 0.115246
O O7 0.598704 0.145123 0.094332
O O8 0.229217 0.500000 0.969732
O O9 0.269140 0.621180 0.233165
O O10 0.250000 0.750000 0.000000
O O11 0.758385 0.218709 0.659892
O O12 0.812116 0.140870 0.561499
O O13 0.791168 0.000000 0.724849
O O14 0.666375 0.213555 0.592686
O O15 0.579190 0.179200 0.320497
O O16 0.633226 0.000000 0.486383
O O17 0.045384 0.500000 0.148877
O O18 0.000000 0.313445 0.000000
#
# Coordination Sequence:
#
# PCOD9181334 Si02
#       7
#     8   8   8   8   8   8   8
#     4  10  20  34  54  83 116 148 184 233 297 361
#     4  11  21  37  59  85 117 156 194 243 303 358
#     4  11  24  39  60  88 126 164 202 245 296 362
#     4  10  21  36  56  83 115 151 195 243 292 351
#     4  10  19  32  52  81 116 151 188 235 296 354
#     4  10  20  36  55  83 114 152 195 238 292 345
#     4  10  19  32  54  85 116 145 188 244 301 359
#
# _framework density 19.106031000000002
#
# number of rings (size 3 to 8) (size 9 to 14) (size 15 to 20)
#    0.000    1.714    1.429    3.857    0.000    6.286 
#    0.000    0.000    0.000    0.857    0.000    0.000 
#    0.000    0.000    0.000    0.000    0.000    0.000 
#
# Total GULP energy -155968.115068 kJ/mol
# GULP energy per Si atom -5570.289824 kJ/mol
# Density = 1.906255 g / cm^3
# Si number density = 19.106031 Si / 1000 Ang^3
#
#
#
# Elastic Constant Matrix: (Units=GPa)
#
#
# Indices 1 2 3 4 5 6 
#
# 1 37.4676 11.5290 9.3784 0.0000 -1.0424 0.0000
# 2 11.5290 81.8469 34.3532 0.0000 2.1631 0.0000
# 3 9.3784 34.3532 126.1074 0.0000 8.3301 0.0000
# 4 0.0000 0.0000 0.0000 24.7464 0.0000 5.1289
# 5 -1.0424 2.1631 8.3301 0.0000 28.6040 0.0000
# 6 0.0000 0.0000 0.0000 5.1289 0.0000 20.3339
#
#
#
# Elastic Compliance Matrix: (Units=1/GPa)
#
#
# Indices 1 2 3 4 5 6 
#
# 1 0.028120 -0.003479 -0.001253 0.000000 0.001653 0.000000
# 2 -0.003479 0.014226 -0.003606 0.000000 -0.000152 0.000000
# 3 -0.001253 -0.003606 0.009167 0.000000 -0.002442 0.000000
# 4 0.000000 0.000000 0.000000 0.042639 0.000000 -0.010755
# 5 0.001653 -0.000152 -0.002442 0.000000 0.035743 0.000000
# 6 0.000000 0.000000 0.000000 -0.010755 0.000000 0.051892
#
#
# Mechanical properties :
#
#
# Convention : Reuss Voigt Hill
#
# Bulk Modulus (GPa) = 28.70587 39.54924 34.12756
# Shear Modulus (GPa) = 23.80112 27.41428 25.60770
#
# Velocity S-wave (km/s) = 3.53333 3.79205 3.66497
# Velocity P-wave (km/s) = 5.63054 6.31804 5.98417
#
# Compressibility (1/GPa) = 0.03483608
#
# Stress axis : x y z
#
# Youngs Moduli (GPa) = 35.56218 70.29521 109.09047
#
# Poissons Ratio (x) = 0.24455 0.13666
# Poissons Ratio (y) = 0.12372 0.39343
# Poissons Ratio (z) = 0.04455 0.25352
#
# Static dielectric constant tensor:
#      x y z
#    x 1.714670 0.000000 -0.022020 
#    y 0.000000 1.683360 0.000000 
#    z -0.022020 0.000000 1.751970 
# 
# From -- ./inp_files/110541.got.cif
#   From: 2010.05.17/outbox.cif.g08.bks.cpg/sg12_56_cif.got.tgz:110541.got - 2010.06.03 13:09:07.
