data_PCOD9181150
_publ_section_title
;
Structure prediction by ZEFSAII (Michael W. Deem and Ramdas Pophale) SiO2 
 PCOD9181150
Probable space group: C 2/M
;
_chemical_formula_sum "Si O2"
_cell_formula_units_Z 60
_cell_length_a 17.989825
_cell_length_b 19.596273
_cell_length_c 11.058811
_cell_angle_alpha 90.000000
_cell_angle_beta 114.785224
_cell_angle_gamma 90.000000
_cell_volume 3539.484325
_symmetry_space_group_name_H-M "C 2/M"
_symmetry_group_IT_number 12
_symmetry_cell_setting 'monoclinic'
loop_
_space_group_symop_operation_xyz
x,y,z
-x,y,-z
-x,-y,-z
x,-y,z
1/2+x,1/2+y,z
1/2-x,1/2+y,-z
1/2-x,1/2-y,-z
1/2+x,1/2-y,z
loop_
_atom_site_type_symbol
_atom_site_label
_atom_site_fract_x
_atom_site_fract_y
_atom_site_fract_z
Si Si1 0.035115 0.679301 0.291679
Si Si2 0.001088 0.831487 0.355263
Si Si3 0.843484 0.919052 0.246014
Si Si4 0.849902 0.922801 0.541318
Si Si5 0.330764 0.080493 0.976224
Si Si6 0.500000 0.147124 0.000000
Si Si7 0.106314 0.578878 0.722797
Si Si8 0.335490 0.079779 0.511925
O O1 0.016647 0.753330 0.332348
O O2 0.118237 0.638513 0.380994
O O3 0.968510 0.628620 0.304575
O O4 0.022977 0.684895 0.139417
O O5 0.080415 0.872703 0.366002
O O6 0.000000 0.836408 0.500000
O O7 0.918023 0.869832 0.256740
O O8 0.840628 0.916476 0.389919
O O9 0.755210 0.894587 0.136750
O O10 0.856406 0.000000 0.222657
O O11 0.761118 0.912037 0.536968
O O12 0.876835 0.000000 0.584469
O O13 0.416266 0.107188 0.978743
O O14 0.330965 0.000000 0.953084
O O15 0.333422 0.091471 0.122922
O O16 0.078838 0.500000 0.714280
O O17 0.141653 0.587845 0.613397
O O18 0.355807 0.000000 0.561159
#
# Coordination Sequence:
#
# PCOD9181150 Si02
#       8
#     8   8   8   8   8   4   8   8
#     4  11  21  34  50  72 101 135 168 200 246 299
#     4  10  20  34  52  73 100 132 169 209 246 292
#     4   9  17  32  54  77 100 129 166 205 248 296
#     4   9  18  32  52  78 102 126 161 209 256 291
#     4   9  17  31  53  77 100 130 166 204 248 296
#     4  10  21  34  48  74 107 130 160 208 252 294
#     4   9  18  32  50  74 103 132 163 201 242 291
#     4  10  19  32  52  77 104 132 164 202 247 299
#
# _framework density 16.951620999999999
#
# number of rings (size 3 to 8) (size 9 to 14) (size 15 to 20)
#    0.000    2.400    0.000    3.000    0.000    5.867 
#    0.000    5.333    0.000    0.000    0.000    5.600 
#    0.000    0.000    0.000    0.000    0.000    0.000 
#
# Total GULP energy -167063.045447 kJ/mol
# GULP energy per Si atom -5568.768182 kJ/mol
# Density = 1.691304 g / cm^3
# Si number density = 16.951621 Si / 1000 Ang^3
#
#
#
# Elastic Constant Matrix: (Units=GPa)
#
#
# Indices 1 2 3 4 5 6 
#
# 1 74.6795 43.9719 38.4533 0.0000 10.5037 0.0000
# 2 43.9719 63.6160 34.6701 0.0000 9.7092 0.0000
# 3 38.4533 34.6701 51.6715 0.0000 14.7471 0.0000
# 4 0.0000 0.0000 0.0000 8.8617 0.0000 -10.8059
# 5 10.5037 9.7092 14.7471 0.0000 27.0789 0.0000
# 6 0.0000 0.0000 0.0000 -10.8059 0.0000 22.1710
#
#
#
# Elastic Compliance Matrix: (Units=1/GPa)
#
#
# Indices 1 2 3 4 5 6 
#
# 1 0.026403 -0.011887 -0.011801 0.000000 0.000447 0.000000
# 2 -0.011887 0.030134 -0.011373 0.000000 0.000000 0.000000
# 3 -0.011801 -0.011373 0.039423 0.000000 -0.012814 0.000000
# 4 0.000000 0.000000 0.000000 0.278160 0.000000 0.135572
# 5 0.000447 0.000000 -0.012814 0.000000 0.043734 0.000000
# 6 0.000000 0.000000 0.000000 0.135572 0.000000 0.111180
#
#
# Mechanical properties :
#
#
# Convention : Reuss Voigt Hill
#
# Bulk Modulus (GPa) = 38.70101 47.12862 42.91482
# Shear Modulus (GPa) = 8.22683 16.48044 12.35363
#
# Velocity S-wave (km/s) = 2.20537 3.12140 2.70248
# Velocity P-wave (km/s) = 5.41892 6.39164 5.92528
#
# Compressibility (1/GPa) = 0.02583912
#
# Stress axis : x y z
#
# Youngs Moduli (GPa) = 37.87426 33.18540 25.36601
#
# Poissons Ratio (x) = 0.39448 0.29934
# Poissons Ratio (y) = 0.45022 0.28848
# Poissons Ratio (z) = 0.44694 0.37740
#
# Static dielectric constant tensor:
#      x y z
#    x 1.572400 0.000000 0.016550 
#    y 0.000000 1.569730 0.000000 
#    z 0.016550 0.000000 1.593300 
# 
# From -- ./inp_files/146199.got.cif
#   From: 2010.05.17/outbox.cif.g08.bks.cpg/sg12_74_cif.got.tgz:146199.got - 2010.06.03 13:09:07.
