data_PCOD9181391
_publ_section_title
;
Structure prediction by ZEFSAII (Michael W. Deem and Ramdas Pophale) SiO2 
 PCOD9181391
Probable space group: C 2/M
;
_chemical_formula_sum "Si O2"
_cell_formula_units_Z 64
_cell_length_a 19.517958
_cell_length_b 21.446628
_cell_length_c 16.753734
_cell_angle_alpha 90.000000
_cell_angle_beta 30.066951
_cell_angle_gamma 90.000000
_cell_volume 3513.604014
_symmetry_space_group_name_H-M "C 2/M"
_symmetry_group_IT_number 12
_symmetry_cell_setting 'monoclinic'
loop_
_space_group_symop_operation_xyz
x,y,z
-x,y,-z
-x,-y,-z
x,-y,z
1/2+x,1/2+y,z
1/2-x,1/2+y,-z
1/2-x,1/2-y,-z
1/2+x,1/2-y,z
loop_
_atom_site_type_symbol
_atom_site_label
_atom_site_fract_x
_atom_site_fract_y
_atom_site_fract_z
Si Si1 0.202984 0.336466 0.855286
Si Si2 0.646598 0.570728 0.398104
Si Si3 0.438801 0.297545 0.980487
Si Si4 0.788877 0.341280 0.902123
Si Si5 0.427464 0.927904 0.881740
Si Si6 0.248470 0.930808 0.471247
Si Si7 0.350840 0.694583 0.376178
Si Si8 0.092028 0.786355 0.238748
O O1 0.241620 0.377834 0.740615
O O2 0.350717 0.314359 0.738684
O O3 0.120150 0.271488 0.938522
O O4 0.129398 0.383075 0.991492
O O5 0.500000 0.579233 0.500000
O O6 0.690682 0.500000 0.330245
O O7 0.653448 0.570993 0.487502
O O8 0.555058 0.290715 0.795322
O O9 0.500000 0.324201 0.000000
O O10 0.317697 0.339314 0.063796
O O11 0.860610 0.401642 0.866745
O O12 0.900102 0.288221 0.770667
O O13 0.698426 0.312398 0.065425
O O14 0.591841 0.924341 0.713495
O O15 0.388585 0.000000 0.933465
O O16 0.215011 0.873455 0.562709
O O17 0.230782 0.000000 0.524699
O O18 0.250000 0.750000 0.500000
O O19 0.447902 0.691580 0.355380
#
# Coordination Sequence:
#
# PCOD9181391 Si02
#       8
#     8   8   8   8   8   8   8   8
#     4  10  19  32  53  76 114 147 179 226 274 325
#     4  10  21  35  50  75 118 162 188 213 265 341
#     4  10  22  36  55  83 110 143 181 236 288 340
#     4   8  15  32  51  69 104 133 174 231 277 310
#     4  10  19  32  54  82 105 141 191 230 272 330
#     4  10  22  36  52  79 113 147 190 233 275 336
#     4  11  20  33  57  79 107 147 191 231 280 330
#     4   8  15  29  47  73  96 138 183 221 262 315
#
# _framework density 18.214915999999999
#
# number of rings (size 3 to 8) (size 9 to 14) (size 15 to 20)
#    0.000    2.375    0.000    4.875    3.500    0.000 
#    0.000    8.750    0.000    1.500    0.000    1.750 
#    0.000    0.000    0.000    0.000    0.000    0.000 
#
# Total GULP energy -178138.825382 kJ/mol
# GULP energy per Si atom -5566.838293 kJ/mol
# Density = 1.817346 g / cm^3
# Si number density = 18.214916 Si / 1000 Ang^3
#
#
#
# Elastic Constant Matrix: (Units=GPa)
#
#
# Indices 1 2 3 4 5 6 
#
# 1 71.9024 10.3506 4.1876 -0.0010 -10.2219 0.0002
# 2 10.3506 72.3454 23.8834 -0.0011 -6.8930 0.0007
# 3 4.1876 23.8834 38.9257 -0.0032 -8.7868 0.0014
# 4 -0.0010 -0.0011 -0.0032 28.9839 0.0013 3.0436
# 5 -10.2219 -6.8930 -8.7868 0.0013 16.6288 -0.0003
# 6 0.0002 0.0007 0.0014 3.0436 -0.0003 21.3362
#
#
#
# Elastic Compliance Matrix: (Units=1/GPa)
#
#
# Indices 1 2 3 4 5 6 
#
# 1 0.015440 -0.001833 0.001629 0.000000 0.009592 0.000000
# 2 -0.001833 0.017598 -0.010455 -0.000001 0.000643 0.000000
# 3 0.001629 -0.010455 0.035400 0.000003 0.015373 -0.000002
# 4 0.000000 -0.000001 0.000003 0.035027 -0.000001 -0.004997
# 5 0.009592 0.000643 0.015373 -0.000001 0.074423 0.000000
# 6 0.000000 0.000000 -0.000002 -0.004997 0.000000 0.047581
#
#
# Mechanical properties :
#
#
# Convention : Reuss Voigt Hill
#
# Bulk Modulus (GPa) = 21.22250 28.89076 25.05663
# Shear Modulus (GPa) = 19.04814 23.03991 21.04402
#
# Velocity S-wave (km/s) = 3.23730 3.56039 3.40268
# Velocity P-wave (km/s) = 5.06458 5.72689 5.40589
#
# Compressibility (1/GPa) = 0.04711980
#
# Stress axis : x y z
#
# Youngs Moduli (GPa) = 64.76523 56.82603 28.24886
#
# Poissons Ratio (x) = 0.10416 -0.04601
# Poissons Ratio (y) = 0.11871 0.29534
# Poissons Ratio (z) = -0.10549 0.59411
#
# Static dielectric constant tensor:
#      x y z
#    x 1.679540 0.000000 -0.017450 
#    y 0.000000 1.642400 0.000000 
#    z -0.017450 0.000000 1.633820 
# 
# From -- ./inp_files/285190.got.cif
#   From: 2010.05.17/outbox.cif.g08.bks.cpg/sg12_143_cif.got.tgz:285190.got - 2010.06.03 13:09:07.
