data_PCOD9181999
_publ_section_title
;
Structure prediction by ZEFSAII (Michael W. Deem and Ramdas Pophale) SiO2 
 PCOD9181999
Probable space group: C 2/M
;
_chemical_formula_sum "Si O2"
_cell_formula_units_Z 40
_cell_length_a 25.002266
_cell_length_b 13.469451
_cell_length_c 6.923570
_cell_angle_alpha 90.000000
_cell_angle_beta 37.862565
_cell_angle_gamma 90.000000
_cell_volume 1431.082476
_symmetry_space_group_name_H-M "C 2/M"
_symmetry_group_IT_number 12
_symmetry_cell_setting 'monoclinic'
loop_
_space_group_symop_operation_xyz
x,y,z
-x,y,-z
-x,-y,-z
x,-y,z
1/2+x,1/2+y,z
1/2-x,1/2+y,-z
1/2-x,1/2-y,-z
1/2+x,1/2-y,z
loop_
_atom_site_type_symbol
_atom_site_label
_atom_site_fract_x
_atom_site_fract_y
_atom_site_fract_z
Si Si1 0.030170 0.174580 0.639004
Si Si2 0.216634 0.145867 0.011971
Si Si3 0.335677 0.890129 0.180220
Si Si4 0.653904 0.669042 0.748049
Si Si5 0.591235 0.105511 0.450788
O O1 0.124457 0.122479 0.379574
O O2 0.048400 0.291043 0.636547
O O3 0.000000 0.172191 0.500000
O O4 0.944850 0.134463 0.991256
O O5 0.250000 0.250000 0.000000
O O6 0.185196 0.149851 0.879584
O O7 0.309757 0.094847 0.757316
O O8 0.350268 0.789107 0.257492
O O9 0.234179 0.878065 0.404771
O O10 0.345093 0.000000 0.238635
O O11 0.395269 0.885063 0.819925
O O12 0.546082 0.000000 0.623512
#
# Coordination Sequence:
#
# PCOD9181999 Si02
#       5
#     8   8   8   8   8
#     4   9  16  31  52  79 101 133 178 216 262 313
#     4   9  16  32  52  76 101 137 176 210 262 317
#     4  10  20  33  52  81 109 140 177 215 270 325
#     4  10  19  34  56  77 108 146 174 222 267 314
#     4  10  19  32  55  82 107 133 175 228 269 317
#
# _framework density 27.950866999999999
#
# number of rings (size 3 to 8) (size 9 to 14) (size 15 to 20)
#    0.000    2.400    6.000    0.000    0.000    2.000 
#    0.000    2.000    0.000    6.000    0.000    5.600 
#    0.000    0.000    0.000    0.000    0.000    0.000 
#
# Total GULP energy -111767.480129 kJ/mol
# GULP energy per Si atom -5588.374006 kJ/mol
# Density = 2.788725 g / cm^3
# Si number density = 27.950867 Si / 1000 Ang^3
#
#
#
# Elastic Constant Matrix: (Units=GPa)
#
#
# Indices 1 2 3 4 5 6 
#
# 1 125.5350 -9.4877 24.6840 0.0000 -34.9473 0.0000
# 2 -9.4877 101.3678 -4.8655 0.0000 1.2719 0.0000
# 3 24.6840 -4.8655 189.6709 0.0000 -45.3307 0.0000
# 4 0.0000 0.0000 0.0000 5.6109 0.0000 0.4212
# 5 -34.9473 1.2719 -45.3307 0.0000 57.9322 0.0000
# 6 0.0000 0.0000 0.0000 0.4212 0.0000 1.5017
#
#
#
# Elastic Compliance Matrix: (Units=1/GPa)
#
#
# Indices 1 2 3 4 5 6 
#
# 1 0.009648 0.000837 0.000188 0.000000 0.005949 0.000000
# 2 0.000837 0.009950 0.000264 0.000000 0.000493 0.000000
# 3 0.000188 0.000264 0.006495 0.000000 0.005189 0.000000
# 4 0.000000 0.000000 0.000000 0.182059 0.000000 -0.051062
# 5 0.005949 0.000493 0.005189 0.000000 0.024900 0.000000
# 6 0.000000 0.000000 0.000000 -0.051062 0.000000 0.680221
#
#
# Mechanical properties :
#
#
# Convention : Reuss Voigt Hill
#
# Bulk Modulus (GPa) = 34.87783 48.58170 41.72977
# Shear Modulus (GPa) = 5.43329 40.09181 22.76255
#
# Velocity S-wave (km/s) = 1.39574 3.79141 2.85683
# Velocity P-wave (km/s) = 3.88623 6.04857 5.08370
#
# Compressibility (1/GPa) = 0.02867151
#
# Stress axis : x y z
#
# Youngs Moduli (GPa) = 103.64464 100.50321 153.96633
#
# Poissons Ratio (x) = -0.08416 -0.02888
# Poissons Ratio (y) = -0.08679 -0.04068
# Poissons Ratio (z) = -0.01944 -0.02655
#
# Static dielectric constant tensor:
#      x y z
#    x 2.269190 0.000000 0.064340 
#    y 0.000000 2.217690 0.000000 
#    z 0.064340 0.000000 2.269760 
# 
# From -- ./inp_files/112424.got.cif
#   From: 2010.05.17/outbox.cif.g08.bks.cpg/sg12_57_cif.got.tgz:112424.got - 2010.06.03 13:09:07.
