data_PCOD9181610
_publ_section_title
;
Structure prediction by ZEFSAII (Michael W. Deem and Ramdas Pophale) SiO2 
 PCOD9181610
Probable space group: C 2/M
;
_chemical_formula_sum "Si O2"
_cell_formula_units_Z 64
_cell_length_a 25.374298
_cell_length_b 9.453539
_cell_length_c 15.628843
_cell_angle_alpha 90.000000
_cell_angle_beta 72.907218
_cell_angle_gamma 90.000000
_cell_volume 3583.405571
_symmetry_space_group_name_H-M "C 2/M"
_symmetry_group_IT_number 12
_symmetry_cell_setting 'monoclinic'
loop_
_space_group_symop_operation_xyz
x,y,z
-x,y,-z
-x,-y,-z
x,-y,z
1/2+x,1/2+y,z
1/2-x,1/2+y,-z
1/2-x,1/2-y,-z
1/2+x,1/2-y,z
loop_
_atom_site_type_symbol
_atom_site_label
_atom_site_fract_x
_atom_site_fract_y
_atom_site_fract_z
Si Si1 0.694457 0.840429 0.300678
Si Si2 0.236362 0.161670 0.128049
Si Si3 0.788104 0.835379 0.544739
Si Si4 0.503464 0.668481 0.272773
Si Si5 0.082671 0.836749 0.550331
Si Si6 0.165824 0.836835 0.986523
Si Si7 0.936353 0.338999 0.606424
Si Si8 0.964009 0.828594 0.934682
O O1 0.707243 0.770013 0.204992
O O2 0.718143 0.737058 0.360735
O O3 0.629220 0.845051 0.347118
O O4 0.716215 0.000000 0.296976
O O5 0.198433 0.159795 0.061214
O O6 0.238812 0.000000 0.158433
O O7 0.297298 0.225103 0.082977
O O8 0.750000 0.750000 0.500000
O O9 0.851728 0.821774 0.484948
O O10 0.774243 0.000000 0.553854
O O11 0.515915 0.500000 0.269010
O O12 0.442830 0.688226 0.343615
O O13 0.540091 0.748573 0.325965
O O14 0.513382 0.716807 0.170158
O O15 0.057960 0.735143 0.489101
O O16 0.069256 0.000000 0.533401
O O17 0.101434 0.795952 0.026086
O O18 0.167840 0.000000 0.951981
O O19 0.957532 0.500000 0.597513
O O20 0.967663 0.000000 0.932959
O O21 0.000000 0.779524 0.000000
#
# Coordination Sequence:
#
# PCOD9181610 Si02
#       8
#     8   8   8   8   8   8   8   8
#     4  10  20  34  52  77 106 138 177 217 263 321
#     4  10  19  32  53  81 110 137 172 221 277 331
#     4  10  20  36  54  74 105 142 179 218 262 310
#     4  10  19  33  54  78 105 139 179 220 262 312
#     4   9  19  34  52  77 108 141 178 217 261 315
#     4   9  18  33  53  78 107 140 175 221 276 326
#     4  10  20  32  51  80 112 140 171 214 268 322
#     4   9  18  34  55  78 104 139 187 230 265 311
#
# _framework density 17.860105000000001
#
# number of rings (size 3 to 8) (size 9 to 14) (size 15 to 20)
#    0.000    2.375    0.000    2.625    0.000    5.500 
#    2.250    0.625    0.000    1.500    0.000    0.000 
#    0.000    0.000    0.000    0.000    0.000    0.000 
#
# Total GULP energy -178299.117909 kJ/mol
# GULP energy per Si atom -5571.847435 kJ/mol
# Density = 1.781945 g / cm^3
# Si number density = 17.860105 Si / 1000 Ang^3
#
#
#
# Elastic Constant Matrix: (Units=GPa)
#
#
# Indices 1 2 3 4 5 6 
#
# 1 52.4895 37.9467 23.1848 0.0000 2.6096 0.0000
# 2 37.9467 91.3516 27.9837 0.0000 -1.1287 0.0000
# 3 23.1848 27.9837 69.6157 0.0000 -4.7948 0.0000
# 4 0.0000 0.0000 0.0000 19.3972 0.0000 -3.1121
# 5 2.6096 -1.1287 -4.7948 0.0000 22.2539 0.0000
# 6 0.0000 0.0000 0.0000 -3.1121 0.0000 23.1663
#
#
#
# Elastic Compliance Matrix: (Units=1/GPa)
#
#
# Indices 1 2 3 4 5 6 
#
# 1 0.029554 -0.010509 -0.005982 0.000000 -0.005288 0.000000
# 2 -0.010509 0.016226 -0.002924 0.000000 0.001425 0.000000
# 3 -0.005982 -0.002924 0.017835 0.000000 0.004396 0.000000
# 4 0.000000 0.000000 0.000000 0.052689 0.000000 0.007078
# 5 -0.005288 0.001425 0.004396 0.000000 0.046575 0.000000
# 6 0.000000 0.000000 0.000000 0.007078 0.000000 0.044117
#
#
# Mechanical properties :
#
#
# Convention : Reuss Voigt Hill
#
# Bulk Modulus (GPa) = 40.34973 43.52079 41.93526
# Shear Modulus (GPa) = 19.67808 21.25293 20.46551
#
# Velocity S-wave (km/s) = 3.32292 3.45333 3.38875
# Velocity P-wave (km/s) = 6.11257 6.34990 6.23236
#
# Compressibility (1/GPa) = 0.02478332
#
# Stress axis : x y z
#
# Youngs Moduli (GPa) = 33.83589 61.63121 56.06910
#
# Poissons Ratio (x) = 0.64771 0.33543
# Poissons Ratio (y) = 0.35559 0.16395
# Poissons Ratio (z) = 0.20242 0.18021
#
# Static dielectric constant tensor:
#      x y z
#    x 1.655700 0.000000 0.031520 
#    y 0.000000 1.630920 0.000000 
#    z 0.031520 0.000000 1.710280 
# 
# From -- ./inp_files/243747.got.cif
#   From: 2010.05.17/outbox.cif.g08.bks.cpg/sg12_122_cif.got.tgz:243747.got - 2010.06.03 13:09:07.
