data_PCOD9181630
_publ_section_title
;
Structure prediction by ZEFSAII (Michael W. Deem and Ramdas Pophale) SiO2 
 PCOD9181630
Probable space group: C 2/M
;
_chemical_formula_sum "Si O2"
_cell_formula_units_Z 56
_cell_length_a 19.631189
_cell_length_b 8.854979
_cell_length_c 31.387127
_cell_angle_alpha 90.000000
_cell_angle_beta 148.303215
_cell_angle_gamma 90.000000
_cell_volume 2866.787722
_symmetry_space_group_name_H-M "C 2/M"
_symmetry_group_IT_number 12
_symmetry_cell_setting 'monoclinic'
loop_
_space_group_symop_operation_xyz
x,y,z
-x,y,-z
-x,-y,-z
x,-y,z
1/2+x,1/2+y,z
1/2-x,1/2+y,-z
1/2-x,1/2-y,-z
1/2+x,1/2-y,z
loop_
_atom_site_type_symbol
_atom_site_label
_atom_site_fract_x
_atom_site_fract_y
_atom_site_fract_z
Si Si1 0.269839 0.678272 0.582936
Si Si2 0.945594 0.820483 0.805467
Si Si3 0.677934 0.321114 0.860802
Si Si4 0.800256 0.177102 0.365347
Si Si5 0.453345 0.179670 0.288950
Si Si6 0.005686 0.680109 0.594195
Si Si7 0.650604 0.680038 0.981321
O O1 0.299419 0.500000 0.597619
O O2 0.219653 0.725608 0.602788
O O3 0.400106 0.768856 0.643202
O O4 0.148414 0.709323 0.487418
O O5 0.821922 0.720942 0.729259
O O6 0.054948 0.791939 0.827150
O O7 0.913930 0.000000 0.786701
O O8 0.010977 0.788052 0.886056
O O9 0.694620 0.500000 0.868148
O O10 0.640485 0.256963 0.795009
O O11 0.803750 0.246954 0.949597
O O12 0.927245 0.227273 0.407471
O O13 0.801698 0.000000 0.376064
O O14 0.432028 0.218313 0.327120
O O15 0.443752 0.000000 0.279245
O O16 0.022269 0.500000 0.595344
O O17 0.666210 0.500000 0.990107
O O18 0.750000 0.750000 0.000000
#
# Coordination Sequence:
#
# PCOD9181630 Si02
#       7
#     8   8   8   8   8   8   8
#     4  11  22  39  61  82 110 147 186 232 285 336
#     4   9  18  33  53  78 111 148 183 222 277 332
#     4  10  19  32  53  81 113 149 182 222 278 333
#     4  12  24  36  57  85 113 147 189 235 277 327
#     4  11  22  37  59  85 112 145 188 234 278 332
#     4  10  24  42  58  79 111 151 188 229 285 339
#     4   9  17  29  49  78 111 144 181 228 276 326
#
# _framework density 19.53406
#
# number of rings (size 3 to 8) (size 9 to 14) (size 15 to 20)
#    0.000    1.714    1.429    4.714    0.000    6.857 
#    0.000    0.000    0.000    0.857    0.000    6.000 
#    0.000    0.000    0.000    0.000    0.000    0.000 
#
# Total GULP energy -156402.909633 kJ/mol
# GULP energy per Si atom -5585.818201 kJ/mol
# Density = 1.948960 g / cm^3
# Si number density = 19.534060 Si / 1000 Ang^3
#
#
#
# Elastic Constant Matrix: (Units=GPa)
#
#
# Indices 1 2 3 4 5 6 
#
# 1 22.3521 -5.3965 -9.8899 0.0000 -8.5732 0.0000
# 2 -5.3965 21.1142 18.0093 0.0000 -2.1022 0.0000
# 3 -9.8899 18.0093 92.7856 0.0000 -19.9244 0.0000
# 4 0.0000 0.0000 0.0000 33.7686 0.0000 2.9982
# 5 -8.5732 -2.1022 -19.9244 0.0000 20.3351 0.0000
# 6 0.0000 0.0000 0.0000 2.9982 0.0000 19.2122
#
#
#
# Elastic Compliance Matrix: (Units=1/GPa)
#
#
# Indices 1 2 3 4 5 6 
#
# 1 0.072110 0.009522 0.015929 0.000000 0.046993 0.000000
# 2 0.009522 0.058648 -0.010390 0.000000 -0.000103 0.000000
# 3 0.015929 -0.010390 0.019888 0.000000 0.025128 0.000000
# 4 0.000000 0.000000 0.000000 0.030029 0.000000 -0.004686
# 5 0.046993 -0.000103 0.025128 0.000000 0.093598 0.000000
# 6 0.000000 0.000000 0.000000 -0.004686 0.000000 0.052781
#
#
# Mechanical properties :
#
#
# Convention : Reuss Voigt Hill
#
# Bulk Modulus (GPa) = 5.53197 15.74419 10.63808
# Shear Modulus (GPa) = 13.99824 23.56513 18.78169
#
# Velocity S-wave (km/s) = 2.67986 3.47704 3.10414
# Velocity P-wave (km/s) = 3.52330 4.91905 4.27848
#
# Compressibility (1/GPa) = 0.18076736
#
# Stress axis : x y z
#
# Youngs Moduli (GPa) = 13.86774 17.05101 50.28170
#
# Poissons Ratio (x) = -0.16237 -0.80093
# Poissons Ratio (y) = -0.13205 0.52245
# Poissons Ratio (z) = -0.22090 0.17717
#
# Static dielectric constant tensor:
#      x y z
#    x 1.671580 0.000000 -0.009190 
#    y 0.000000 1.644390 0.000000 
#    z -0.009190 0.000000 1.733510 
# 
# From -- ./inp_files/345667.got.cif
#   From: 2010.05.17/outbox.cif.g08.bks.cpg/sg12_173_cif.got.tgz:345667.got - 2010.06.03 13:09:07.
