data_PCOD9181753
_publ_section_title
;
Structure prediction by ZEFSAII (Michael W. Deem and Ramdas Pophale) SiO2 
 PCOD9181753
Probable space group: C 2/M
;
_chemical_formula_sum "Si O2"
_cell_formula_units_Z 64
_cell_length_a 21.207500
_cell_length_b 7.777499
_cell_length_c 22.933182
_cell_angle_alpha 90.000000
_cell_angle_beta 56.434371
_cell_angle_gamma 90.000000
_cell_volume 3151.887270
_symmetry_space_group_name_H-M "C 2/M"
_symmetry_group_IT_number 12
_symmetry_cell_setting 'monoclinic'
loop_
_space_group_symop_operation_xyz
x,y,z
-x,y,-z
-x,-y,-z
x,-y,z
1/2+x,1/2+y,z
1/2-x,1/2+y,-z
1/2-x,1/2-y,-z
1/2+x,1/2-y,z
loop_
_atom_site_type_symbol
_atom_site_label
_atom_site_fract_x
_atom_site_fract_y
_atom_site_fract_z
Si Si1 0.448491 0.791686 0.971794
Si Si2 0.684409 0.299113 0.211001
Si Si3 0.734115 0.292395 0.416276
Si Si4 0.127254 0.793740 0.569799
Si Si5 0.713962 0.788992 0.735721
Si Si6 0.959240 0.707579 0.187992
Si Si7 0.515580 0.707019 0.288415
Si Si8 0.273075 0.700288 0.053633
O O1 0.486455 0.732222 0.891936
O O2 0.448989 0.000000 0.971940
O O3 0.500000 0.734649 0.000000
O O4 0.361429 0.737294 0.019525
O O5 0.676042 0.500000 0.230235
O O6 0.741774 0.227285 0.229912
O O7 0.600115 0.223852 0.254340
O O8 0.721721 0.289608 0.128446
O O9 0.730642 0.500000 0.417192
O O10 0.809359 0.243415 0.413659
O O11 0.662983 0.228597 0.490824
O O12 0.743651 0.234573 0.345120
O O13 0.047459 0.726169 0.634108
O O14 0.120718 0.000000 0.567931
O O15 0.626776 0.732226 0.777913
O O16 0.711714 0.000000 0.737404
O O17 0.958393 0.500000 0.186037
O O18 0.988410 0.757380 0.236651
O O19 0.517613 0.500000 0.293417
O O20 0.258915 0.500000 0.067908
O O21 0.250000 0.750000 0.000000
#
# Coordination Sequence:
#
# PCOD9181753 Si02
#       8
#     8   8   8   8   8   8   8   8
#     4  10  21  38  60  84 111 143 179 225 278 333
#     4  10  21  38  57  76 106 144 179 219 272 330
#     4   9  16  29  51  76 103 138 178 215 255 310
#     4   9  17  29  47  76 109 137 171 217 265 309
#     4   9  17  32  54  79 104 138 180 217 257 312
#     4  10  19  32  54  79 101 131 176 219 256 310
#     4  10  20  33  50  76 107 138 171 217 270 314
#     4  12  25  41  60  82 109 144 187 232 277 331
#
# _framework density 20.305294
#
# number of rings (size 3 to 8) (size 9 to 14) (size 15 to 20)
#    0.000    2.125    1.250    2.625    0.000    5.250 
#    0.000    3.125    0.000    3.750    0.000    0.000 
#    0.000    6.000    0.000    0.000    0.000    0.000 
#
# Total GULP energy -178676.442119 kJ/mol
# GULP energy per Si atom -5583.638816 kJ/mol
# Density = 2.025908 g / cm^3
# Si number density = 20.305294 Si / 1000 Ang^3
#
#
#
# Elastic Constant Matrix: (Units=GPa)
#
#
# Indices 1 2 3 4 5 6 
#
# 1 103.1409 -3.7438 23.7613 0.0003 -19.2892 0.0025
# 2 -3.7438 27.5429 -12.1155 0.0007 -2.8743 0.0011
# 3 23.7613 -12.1155 96.5299 -0.0002 -26.7988 0.0017
# 4 0.0003 0.0007 -0.0002 6.8739 0.0000 9.3363
# 5 -19.2892 -2.8743 -26.7988 0.0000 27.2920 -0.0002
# 6 0.0025 0.0011 0.0017 9.3363 -0.0002 14.3533
#
#
#
# Elastic Compliance Matrix: (Units=1/GPa)
#
#
# Indices 1 2 3 4 5 6 
#
# 1 0.011333 0.002237 -0.000302 0.000018 0.007949 -0.000014
# 2 0.002237 0.042000 0.008782 0.000014 0.014627 -0.000013
# 3 -0.000302 0.008782 0.016131 0.000023 0.016551 -0.000017
# 4 0.000018 0.000014 0.000023 1.248617 0.000031 -0.812184
# 5 0.007949 0.014627 0.016551 0.000031 0.060051 -0.000024
# 6 -0.000014 -0.000013 -0.000017 -0.812184 -0.000024 0.597970
#
#
# Mechanical properties :
#
#
# Convention : Reuss Voigt Hill
#
# Bulk Modulus (GPa) = 11.00145 27.00196 19.00171
# Shear Modulus (GPa) = 2.51893 24.32462 13.42178
#
# Velocity S-wave (km/s) = 1.11500 3.46489 2.57378
# Velocity P-wave (km/s) = 2.66222 5.41610 4.26741
#
# Compressibility (1/GPa) = 0.09089709
#
# Stress axis : x y z
#
# Youngs Moduli (GPa) = 88.23943 23.80930 61.99301
#
# Poissons Ratio (x) = -0.05326 0.01873
# Poissons Ratio (y) = -0.19739 -0.54440
# Poissons Ratio (z) = 0.02666 -0.20909
#
# Static dielectric constant tensor:
#      x y z
#    x 1.693380 0.000000 -0.023140 
#    y 0.000000 1.751410 0.000000 
#    z -0.023140 0.000000 1.708660 
# 
# From -- ./inp_files/319795.got.cif
#   From: 2010.05.17/outbox.cif.g08.bks.cpg/sg12_160_cif.got.tgz:319795.got - 2010.06.03 13:09:07.
