data_PCOD9181987
_publ_section_title
;
Structure prediction by ZEFSAII (Michael W. Deem and Ramdas Pophale) SiO2 
 PCOD9181987
Probable space group: C 2/M
;
_chemical_formula_sum "Si O2"
_cell_formula_units_Z 48
_cell_length_a 20.990962
_cell_length_b 7.568543
_cell_length_c 17.167272
_cell_angle_alpha 90.000000
_cell_angle_beta 70.523706
_cell_angle_gamma 90.000000
_cell_volume 2571.319564
_symmetry_space_group_name_H-M "C 2/M"
_symmetry_group_IT_number 12
_symmetry_cell_setting 'monoclinic'
loop_
_space_group_symop_operation_xyz
x,y,z
-x,y,-z
-x,-y,-z
x,-y,z
1/2+x,1/2+y,z
1/2-x,1/2+y,-z
1/2-x,1/2-y,-z
1/2+x,1/2-y,z
loop_
_atom_site_type_symbol
_atom_site_label
_atom_site_fract_x
_atom_site_fract_y
_atom_site_fract_z
Si Si1 0.174271 0.284571 0.768307
Si Si2 0.944174 0.798169 0.761200
Si Si3 0.945818 0.000000 0.909010
Si Si4 0.090783 0.699967 0.652258
Si Si5 0.574705 0.705108 0.483791
Si Si6 0.830225 0.784854 0.690828
Si Si7 0.101705 0.000000 0.899335
O O1 0.167892 0.500000 0.779633
O O2 0.136783 0.229803 0.703381
O O3 0.252763 0.232335 0.731101
O O4 0.138690 0.173635 0.850920
O O5 0.879361 0.730106 0.741615
O O6 0.013527 0.702281 0.713845
O O7 0.956624 0.000000 0.726089
O O8 0.932499 0.832440 0.857526
O O9 0.025026 0.000000 0.897817
O O10 0.904147 0.000000 0.005033
O O11 0.113129 0.500000 0.629917
O O12 0.092803 0.786901 0.566988
O O13 0.500000 0.784933 0.500000
O O14 0.569051 0.500000 0.463361
O O15 0.632277 0.777375 0.403067
O O16 0.827237 0.000000 0.692162
#
# Coordination Sequence:
#
# PCOD9181987 Si02
#       7
#     8   8   4   8   8   8   4
#     4  10  22  39  58  82 118 157 185 229 293 347
#     4   9  16  35  60  77 104 148 184 230 277 334
#     4   9  20  34  68  90 107 133 200 239 282 346
#     4  11  21  33  51  81 117 148 188 235 281 331
#     4  10  19  32  55  81 105 148 200 235 274 326
#     4   9  18  35  57  78 109 153 190 228 283 336
#     4  11  20  40  62  93 111 146 185 245 290 346
#
# _framework density 18.667458
#
# number of rings (size 3 to 8) (size 9 to 14) (size 15 to 20)
#    0.500    1.667    3.333    0.500    1.167    1.000 
#    3.000    3.333    0.000    0.000    0.000    0.000 
#    0.000    0.000    0.000    0.000    0.000    0.000 
#
# Total GULP energy -133714.336055 kJ/mol
# GULP energy per Si atom -5571.430669 kJ/mol
# Density = 1.862497 g / cm^3
# Si number density = 18.667458 Si / 1000 Ang^3
#
#
#
# Elastic Constant Matrix: (Units=GPa)
#
#
# Indices 1 2 3 4 5 6 
#
# 1 148.2421 11.4834 85.7998 0.0000 -4.1088 0.0000
# 2 11.4834 49.3524 23.4050 0.0000 -5.8410 0.0000
# 3 85.7998 23.4050 178.8711 0.0000 1.6258 0.0000
# 4 0.0000 0.0000 0.0000 3.7076 0.0000 -7.2846
# 5 -4.1088 -5.8410 1.6258 0.0000 27.0637 0.0000
# 6 0.0000 0.0000 0.0000 -7.2846 0.0000 8.0130
#
#
#
# Elastic Compliance Matrix: (Units=1/GPa)
#
#
# Indices 1 2 3 4 5 6 
#
# 1 0.009417 0.000176 -0.004556 0.000000 0.001741 0.000000
# 2 0.000176 0.022258 -0.003042 0.000000 0.005013 0.000000
# 3 -0.004556 -0.003042 0.008191 0.000000 -0.001840 0.000000
# 4 0.000000 0.000000 0.000000 -0.343081 0.000000 -0.311894
# 5 0.001741 0.005013 -0.001840 0.000000 0.038407 0.000000
# 6 0.000000 0.000000 0.000000 -0.311894 0.000000 -0.158744
#
#
# Mechanical properties :
#
#
# Convention : Reuss Voigt Hill
#
# Bulk Modulus (GPa) = 39.96730 68.64911 54.30820
# Shear Modulus (GPa) = -12.48854 24.80867 6.16007
#
# Velocity S-wave (km/s) = -2.58931 3.64947 1.81853
# Velocity P-wave (km/s) = 3.53797 7.39005 5.79353
#
# Compressibility (1/GPa) = 0.02502046
#
# Stress axis : x y z
#
# Youngs Moduli (GPa) = 106.18699 44.92844 122.08786
#
# Poissons Ratio (x) = -0.00789 0.55624
# Poissons Ratio (y) = -0.01864 0.37141
# Poissons Ratio (z) = 0.48379 0.13668
#
# Static dielectric constant tensor:
#      x y z
#    x 1.646560 0.000000 0.016140 
#    y 0.000000 1.686800 0.000000 
#    z 0.016140 0.000000 1.627950 
# 
# From -- ./inp_files/230007.got.cif
#   From: 2010.05.17/outbox.cif.g08.bks.cpg/sg12_116_cif.got.tgz:230007.got - 2010.06.03 13:09:07.
