data_PCOD9181904
_publ_section_title
;
Structure prediction by ZEFSAII (Michael W. Deem and Ramdas Pophale) SiO2 
 PCOD9181904
Probable space group: C 2/M
;
_chemical_formula_sum "Si O2"
_cell_formula_units_Z 48
_cell_length_a 25.444531
_cell_length_b 7.664179
_cell_length_c 13.930635
_cell_angle_alpha 90.000000
_cell_angle_beta 128.193140
_cell_angle_gamma 90.000000
_cell_volume 2135.086050
_symmetry_space_group_name_H-M "C 2/M"
_symmetry_group_IT_number 12
_symmetry_cell_setting 'monoclinic'
loop_
_space_group_symop_operation_xyz
x,y,z
-x,y,-z
-x,-y,-z
x,-y,z
1/2+x,1/2+y,z
1/2-x,1/2+y,-z
1/2-x,1/2-y,-z
1/2+x,1/2-y,z
loop_
_atom_site_type_symbol
_atom_site_label
_atom_site_fract_x
_atom_site_fract_y
_atom_site_fract_z
Si Si1 0.928296 0.788268 0.963729
Si Si2 0.671705 0.797015 0.314944
Si Si3 0.203403 0.790125 0.650331
Si Si4 0.802104 0.209805 0.142825
Si Si5 0.583595 0.792940 0.390447
Si Si6 0.932185 0.793582 0.186156
O O1 0.924777 0.724742 0.069196
O O2 0.923931 0.000000 0.957012
O O3 0.870840 0.715681 0.830808
O O4 0.000000 0.740108 0.000000
O O5 0.743878 0.719975 0.368994
O O6 0.625965 0.718626 0.347568
O O7 0.681479 0.000000 0.351128
O O8 0.217225 0.723792 0.773331
O O9 0.128469 0.748641 0.533137
O O10 0.211165 0.000000 0.659088
O O11 0.874811 0.276328 0.191223
O O12 0.805222 0.000000 0.155363
O O13 0.750000 0.250000 0.000000
O O14 0.507977 0.728137 0.306136
O O15 0.578673 0.000000 0.373219
O O16 0.919970 0.000000 0.164753
#
# Coordination Sequence:
#
# PCOD9181904 Si02
#       6
#     8   8   8   8   8   8
#     4  10  19  32  54  83 112 146 184 223 275 332
#     4  10  21  36  56  83 115 148 186 233 283 331
#     4  10  22  40  59  81 112 151 189 228 279 337
#     4  10  22  40  63  87 112 146 187 229 279 334
#     4  11  23  37  56  85 114 147 190 234 281 329
#     4  10  21  38  58  83 116 151 186 228 278 335
#
# _framework density 22.481529999999999
#
# number of rings (size 3 to 8) (size 9 to 14) (size 15 to 20)
#    0.000    1.833    1.667    2.000    0.000    4.333 
#    0.000    3.333    0.000    0.000    0.000    0.000 
#    0.000    0.000    0.000    0.000    0.000    0.000 
#
# Total GULP energy -134143.423873 kJ/mol
# GULP energy per Si atom -5589.309328 kJ/mol
# Density = 2.243036 g / cm^3
# Si number density = 22.481530 Si / 1000 Ang^3
#
#
#
# Elastic Constant Matrix: (Units=GPa)
#
#
# Indices 1 2 3 4 5 6 
#
# 1 123.4376 8.7193 26.8648 0.0000 12.0850 0.0000
# 2 8.7193 40.4968 -21.0273 0.0000 -4.0842 0.0000
# 3 26.8648 -21.0273 100.5121 0.0000 10.0510 0.0000
# 4 0.0000 0.0000 0.0000 29.6744 0.0000 1.8992
# 5 12.0850 -4.0842 10.0510 0.0000 29.8796 0.0000
# 6 0.0000 0.0000 0.0000 1.8992 0.0000 -3.6958
#
#
#
# Elastic Compliance Matrix: (Units=1/GPa)
#
#
# Indices 1 2 3 4 5 6 
#
# 1 0.009350 -0.003896 -0.002983 0.000000 -0.003311 0.000000
# 2 -0.003896 0.029430 0.006869 0.000000 0.003288 0.000000
# 3 -0.002983 0.006869 0.012385 0.000000 -0.002021 0.000000
# 4 0.000000 0.000000 0.000000 0.032626 0.000000 0.016766
# 5 -0.003311 0.003288 -0.002021 0.000000 0.035936 0.000000
# 6 0.000000 0.000000 0.000000 0.016766 0.000000 -0.261961
#
#
# Mechanical properties :
#
#
# Convention : Reuss Voigt Hill
#
# Bulk Modulus (GPa) = 19.55149 32.61779 26.08464
# Shear Modulus (GPa) = -39.94711 27.83094 -6.05808
#
# Velocity S-wave (km/s) = -4.21989 3.52226 -1.64333
# Velocity P-wave (km/s) = 3.87655 5.57512 2.83322
#
# Compressibility (1/GPa) = 0.05114701
#
# Stress axis : x y z
#
# Youngs Moduli (GPa) = 106.95432 33.97837 80.73961
#
# Poissons Ratio (x) = 0.13237 0.24084
# Poissons Ratio (y) = 0.41668 -0.55463
# Poissons Ratio (z) = 0.31904 -0.23341
#
# Static dielectric constant tensor:
#      x y z
#    x 1.896240 0.000000 -0.011320 
#    y 0.000000 1.837530 0.000000 
#    z -0.011320 0.000000 1.791720 
# 
# From -- ./inp_files/244835.got.cif
#   From: 2010.05.17/outbox.cif.g08.bks.cpg/sg12_123_cif.got.tgz:244835.got - 2010.06.03 13:09:07.
