data_PCOD9181400
_publ_section_title
;
Structure prediction by ZEFSAII (Michael W. Deem and Ramdas Pophale) SiO2 
 PCOD9181400
Probable space group: C 2/M
;
_chemical_formula_sum "Si O2"
_cell_formula_units_Z 56
_cell_length_a 14.774662
_cell_length_b 9.613472
_cell_length_c 27.285290
_cell_angle_alpha 90.000000
_cell_angle_beta 53.534432
_cell_angle_gamma 90.000000
_cell_volume 3116.722368
_symmetry_space_group_name_H-M "C 2/M"
_symmetry_group_IT_number 12
_symmetry_cell_setting 'monoclinic'
loop_
_space_group_symop_operation_xyz
x,y,z
-x,y,-z
-x,-y,-z
x,-y,z
1/2+x,1/2+y,z
1/2-x,1/2+y,-z
1/2-x,1/2-y,-z
1/2+x,1/2-y,z
loop_
_atom_site_type_symbol
_atom_site_label
_atom_site_fract_x
_atom_site_fract_y
_atom_site_fract_z
Si Si1 0.158807 0.833799 0.091411
Si Si2 0.915886 0.159486 0.687071
Si Si3 0.581076 0.159140 0.568644
Si Si4 0.217865 0.662423 0.679211
Si Si5 0.824404 0.840531 0.544053
Si Si6 0.506011 0.335782 0.231786
Si Si7 0.113718 0.833953 0.992852
O O1 0.107721 0.809210 0.053556
O O2 0.072027 0.792338 0.161845
O O3 0.179546 0.000000 0.089092
O O4 0.275847 0.751141 0.058847
O O5 0.793493 0.171770 0.703084
O O6 0.997955 0.262931 0.632244
O O7 0.918271 0.183094 0.744162
O O8 0.955315 0.000000 0.665441
O O9 0.703782 0.158584 0.555038
O O10 0.594923 0.244225 0.513899
O O11 0.547262 0.000000 0.571135
O O12 0.189643 0.500000 0.678806
O O13 0.295019 0.707857 0.608342
O O14 0.106969 0.751656 0.721336
O O15 0.865355 0.000000 0.532372
O O16 0.480034 0.500000 0.235693
O O17 0.131273 0.000000 0.980075
O O18 0.000000 0.795771 0.000000
#
# Coordination Sequence:
#
# PCOD9181400 Si02
#       7
#     8   8   8   8   8   8   8
#     4   9  19  35  54  79 111 143 176 213 258 306
#     4  10  21  36  54  75 103 138 174 213 265 319
#     4  10  19  32  53  77 100 130 172 218 265 316
#     4  10  21  37  55  76 102 137 178 217 259 316
#     4   9  18  33  52  73  99 132 170 214 267 318
#     4  10  21  37  55  77 108 142 174 216 262 305
#     4   9  18  34  56  82 111 142 177 215 254 300
#
# _framework density 17.967593999999998
#
# number of rings (size 3 to 8) (size 9 to 14) (size 15 to 20)
#    0.000    2.429    1.429    0.429    0.000    4.286 
#    0.000    2.857    0.000    0.000    0.000    0.000 
#    0.000    0.000    0.000    0.000    0.000    0.000 
#
# Total GULP energy -156224.257487 kJ/mol
# GULP energy per Si atom -5579.437767 kJ/mol
# Density = 1.792670 g / cm^3
# Si number density = 17.967594 Si / 1000 Ang^3
#
#
#
# Elastic Constant Matrix: (Units=GPa)
#
#
# Indices 1 2 3 4 5 6 
#
# 1 75.6986 27.3386 30.7183 0.0000 11.5216 0.0000
# 2 27.3386 45.8137 40.8667 0.0000 7.9250 0.0000
# 3 30.7183 40.8667 105.6441 0.0000 12.4925 0.0000
# 4 0.0000 0.0000 0.0000 28.2650 0.0000 -7.8709
# 5 11.5216 7.9250 12.4925 0.0000 9.9566 0.0000
# 6 0.0000 0.0000 0.0000 -7.8709 0.0000 13.5080
#
#
#
# Elastic Compliance Matrix: (Units=1/GPa)
#
#
# Indices 1 2 3 4 5 6 
#
# 1 0.018537 -0.008074 -0.000575 0.000000 -0.014302 0.000000
# 2 -0.008074 0.038146 -0.011652 0.000000 -0.006400 0.000000
# 3 -0.000575 -0.011652 0.015224 0.000000 -0.009161 0.000000
# 4 0.000000 0.000000 0.000000 0.042232 0.000000 0.024608
# 5 -0.014302 -0.006400 -0.009161 0.000000 0.133574 0.000000
# 6 0.000000 0.000000 0.000000 0.024608 0.000000 0.088369
#
#
# Mechanical properties :
#
#
# Convention : Reuss Voigt Hill
#
# Bulk Modulus (GPa) = 31.94496 47.22264 39.58380
# Shear Modulus (GPa) = 12.91595 18.89477 15.90536
#
# Velocity S-wave (km/s) = 2.68404 3.24636 2.97850
# Velocity P-wave (km/s) = 5.23672 6.35539 5.82298
#
# Compressibility (1/GPa) = 0.03130384
#
# Stress axis : x y z
#
# Youngs Moduli (GPa) = 53.94750 26.21483 65.68737
#
# Poissons Ratio (x) = 0.21167 0.03779
# Poissons Ratio (y) = 0.43559 0.76537
# Poissons Ratio (z) = 0.03104 0.30545
#
# Static dielectric constant tensor:
#      x y z
#    x 1.618860 0.000000 0.027620 
#    y 0.000000 1.612900 0.000000 
#    z 0.027620 0.000000 1.595980 
# 
# From -- ./inp_files/338494.got.cif
#   From: 2010.05.17/outbox.cif.g08.bks.cpg/sg12_170_cif.got.tgz:338494.got - 2010.06.03 13:09:07.
