data_PCOD9181956
_publ_section_title
;
Structure prediction by ZEFSAII (Michael W. Deem and Ramdas Pophale) SiO2 
 PCOD9181956
Probable space group: C 2/M
;
_chemical_formula_sum "Si O2"
_cell_formula_units_Z 48
_cell_length_a 19.263876
_cell_length_b 11.699528
_cell_length_c 22.902961
_cell_angle_alpha 90.000000
_cell_angle_beta 156.529895
_cell_angle_gamma 90.000000
_cell_volume 2055.804507
_symmetry_space_group_name_H-M "C 2/M"
_symmetry_group_IT_number 12
_symmetry_cell_setting 'monoclinic'
loop_
_space_group_symop_operation_xyz
x,y,z
-x,y,-z
-x,-y,-z
x,-y,z
1/2+x,1/2+y,z
1/2-x,1/2+y,-z
1/2-x,1/2-y,-z
1/2+x,1/2-y,z
loop_
_atom_site_type_symbol
_atom_site_label
_atom_site_fract_x
_atom_site_fract_y
_atom_site_fract_z
Si Si1 0.620123 0.878529 0.036397
Si Si2 0.073245 0.631415 0.816657
Si Si3 0.319427 0.822980 0.334902
Si Si4 0.760254 0.134935 0.373038
Si Si5 0.053986 0.236132 0.681948
Si Si6 0.562069 0.626896 0.938247
O O1 0.821624 0.870794 0.209834
O O2 0.586687 0.749429 0.988177
O O3 0.590988 0.000000 0.980392
O O4 0.500000 0.885528 0.000000
O O5 0.031144 0.500000 0.770817
O O6 0.939671 0.663343 0.764361
O O7 0.028955 0.702948 0.724548
O O8 0.281879 0.635270 0.989471
O O9 0.500000 0.868772 0.500000
O O10 0.304747 0.691333 0.345467
O O11 0.340850 0.819313 0.281938
O O12 0.146752 0.877049 0.229204
O O13 0.882380 0.196418 0.515259
O O14 0.787735 0.000000 0.393830
O O15 0.601483 0.500000 0.996256
#
# Coordination Sequence:
#
# PCOD9181956 Si02
#       6
#     8   8   8   8   8   8
#     4  10  19  32  54  86 118 146 187 244 294 344
#     4   9  20  37  60  86 113 152 200 245 293 351
#     4  10  22  36  54  85 115 154 194 245 296 350
#     4  10  21  37  57  83 119 159 195 239 296 356
#     4  10  19  35  57  87 117 152 190 244 294 354
#     4  10  21  38  58  82 116 156 198 243 292 355
#
# _framework density 23.348524000000001
#
# number of rings (size 3 to 8) (size 9 to 14) (size 15 to 20)
#    0.000    2.167    1.667    1.000    0.000    6.333 
#    0.000    2.500    0.000    5.000    0.000    0.000 
#    0.000    0.000    0.000    0.000    0.000    0.000 
#
# Total GULP energy -133702.623718 kJ/mol
# GULP energy per Si atom -5570.942655 kJ/mol
# Density = 2.329538 g / cm^3
# Si number density = 23.348524 Si / 1000 Ang^3
#
#
#
# Elastic Constant Matrix: (Units=GPa)
#
#
# Indices 1 2 3 4 5 6 
#
# 1 66.5513 26.9508 13.3414 -0.0001 10.2763 0.0001
# 2 26.9508 143.9674 28.7544 -0.0012 8.2186 -0.0003
# 3 13.3414 28.7544 126.5468 0.0046 20.0036 0.0008
# 4 -0.0001 -0.0012 0.0046 27.9822 0.0009 12.5205
# 5 10.2763 8.2186 20.0036 0.0009 37.1215 -0.0002
# 6 0.0001 -0.0003 0.0008 12.5205 -0.0002 39.7488
#
#
#
# Elastic Compliance Matrix: (Units=1/GPa)
#
#
# Indices 1 2 3 4 5 6 
#
# 1 0.016861 -0.002834 -0.000541 0.000000 -0.003749 0.000000
# 2 -0.002834 0.007774 -0.001442 0.000001 -0.000159 0.000000
# 3 -0.000541 -0.001442 0.008978 -0.000002 -0.004369 0.000000
# 4 0.000000 0.000001 -0.000002 0.041600 -0.000001 -0.013104
# 5 -0.003749 -0.000159 -0.004369 -0.000001 0.030366 0.000000
# 6 0.000000 0.000000 0.000000 -0.013104 0.000000 0.029286
#
#
# Mechanical properties :
#
#
# Convention : Reuss Voigt Hill
#
# Bulk Modulus (GPa) = 41.70687 52.79540 47.25114
# Shear Modulus (GPa) = 32.78869 38.83844 35.81356
#
# Velocity S-wave (km/s) = 3.75148 4.08293 3.92071
# Velocity P-wave (km/s) = 6.05528 6.69986 6.38570
#
# Compressibility (1/GPa) = 0.02397687
#
# Stress axis : x y z
#
# Youngs Moduli (GPa) = 59.30816 128.63746 111.38889
#
# Poissons Ratio (x) = 0.36460 0.06026
# Poissons Ratio (y) = 0.16810 0.16067
# Poissons Ratio (z) = 0.03209 0.18555
#
# Static dielectric constant tensor:
#      x y z
#    x 1.856230 0.000000 -0.001810 
#    y 0.000000 1.895220 0.000000 
#    z -0.001810 0.000000 1.987380 
# 
# From -- ./inp_files/327960.got.cif
#   From: 2010.05.17/outbox.cif.g08.bks.cpg/sg12_164_cif.got.tgz:327960.got - 2010.06.03 13:09:07.
