data_PCOD9181407
_publ_section_title
;
Structure prediction by ZEFSAII (Michael W. Deem and Ramdas Pophale) SiO2 
 PCOD9181407
Probable space group: C 2/M
;
_chemical_formula_sum "Si O2"
_cell_formula_units_Z 56
_cell_length_a 25.826094
_cell_length_b 7.874185
_cell_length_c 17.009404
_cell_angle_alpha 90.000000
_cell_angle_beta 124.434433
_cell_angle_gamma 90.000000
_cell_volume 2852.911541
_symmetry_space_group_name_H-M "C 2/M"
_symmetry_group_IT_number 12
_symmetry_cell_setting 'monoclinic'
loop_
_space_group_symop_operation_xyz
x,y,z
-x,y,-z
-x,-y,-z
x,-y,z
1/2+x,1/2+y,z
1/2-x,1/2+y,-z
1/2-x,1/2-y,-z
1/2+x,1/2-y,z
loop_
_atom_site_type_symbol
_atom_site_label
_atom_site_fract_x
_atom_site_fract_y
_atom_site_fract_z
Si Si1 0.252393 0.794985 0.876288
Si Si2 0.971063 0.794606 0.557044
Si Si3 0.989276 0.699902 0.237572
Si Si4 0.727785 0.799621 0.282391
Si Si5 0.332728 0.293110 0.490562
Si Si6 0.126258 0.199406 0.305065
Si Si7 0.149385 0.295139 0.908564
O O1 0.260809 0.729763 0.794960
O O2 0.186679 0.750141 0.861039
O O3 0.256696 0.000000 0.878291
O O4 0.307272 0.732909 0.982230
O O5 0.005173 0.727309 0.663961
O O6 0.897828 0.750212 0.503021
O O7 0.000000 0.735359 0.500000
O O8 0.975380 0.000000 0.563351
O O9 0.991468 0.500000 0.223020
O O10 0.052035 0.776340 0.253328
O O11 0.921955 0.768662 0.152123
O O12 0.774811 0.729136 0.389422
O O13 0.657918 0.778715 0.255854
O O14 0.741671 0.000000 0.289381
O O15 0.329620 0.500000 0.492689
O O16 0.340349 0.230554 0.586672
O O17 0.138675 0.000000 0.311748
O O18 0.146992 0.500000 0.910692
#
# Coordination Sequence:
#
# PCOD9181407 Si02
#       7
#     8   8   8   8   8   8   8
#     4   9  19  34  55  80 103 132 170 212 257 308
#     4   9  18  31  49  74 106 135 168 211 251 298
#     4  10  20  34  53  73 101 138 173 209 255 306
#     4  10  19  32  53  77 102 131 171 212 254 304
#     4   8  16  30  47  72 102 133 166 203 247 298
#     4  10  20  35  52  73 103 136 173 211 254 304
#     4   9  19  36  54  76 106 135 167 211 260 306
#
# _framework density 19.629069999999999
#
# number of rings (size 3 to 8) (size 9 to 14) (size 15 to 20)
#    0.000    2.714    0.000    2.143    2.000    2.000 
#    0.000    3.571    0.000    4.286    0.000    0.000 
#    0.000    0.000    0.000    0.000    0.000    0.000 
#
# Total GULP energy -156183.502729 kJ/mol
# GULP energy per Si atom -5577.982240 kJ/mol
# Density = 1.958439 g / cm^3
# Si number density = 19.629070 Si / 1000 Ang^3
#
#
#
# Elastic Constant Matrix: (Units=GPa)
#
#
# Indices 1 2 3 4 5 6 
#
# 1 101.0476 -3.3555 71.4151 0.0000 -7.2811 0.0000
# 2 -3.3555 18.4848 4.0306 0.0000 -2.3203 0.0000
# 3 71.4151 4.0306 76.1521 0.0000 5.9769 0.0000
# 4 0.0000 0.0000 0.0000 12.7458 0.0000 0.8573
# 5 -7.2811 -2.3203 5.9769 0.0000 30.5313 0.0000
# 6 0.0000 0.0000 0.0000 0.8573 0.0000 22.8711
#
#
#
# Elastic Compliance Matrix: (Units=1/GPa)
#
#
# Indices 1 2 3 4 5 6 
#
# 1 0.040381 0.018501 -0.040334 0.000000 0.018932 0.000000
# 2 0.018501 0.063908 -0.021795 0.000000 0.013536 0.000000
# 3 -0.040334 -0.021795 0.053822 0.000000 -0.021812 0.000000
# 4 0.000000 0.000000 0.000000 0.078656 0.000000 -0.002948
# 5 0.018932 0.013536 -0.021812 0.000000 0.042567 0.000000
# 6 0.000000 0.000000 0.000000 -0.002948 0.000000 0.043834
#
#
# Mechanical properties :
#
#
# Convention : Reuss Voigt Hill
#
# Bulk Modulus (GPa) = 14.11329 37.76276 25.93802
# Shear Modulus (GPa) = 11.51959 21.46925 16.49442
#
# Velocity S-wave (km/s) = 2.42516 3.31077 2.90195
# Velocity P-wave (km/s) = 3.87910 5.82193 4.94683
#
# Compressibility (1/GPa) = 0.07085521
#
# Stress axis : x y z
#
# Youngs Moduli (GPa) = 24.76415 15.64739 18.57964
#
# Poissons Ratio (x) = -0.28950 0.74940
# Poissons Ratio (y) = -0.45817 0.40495
# Poissons Ratio (z) = 0.99884 0.34104
#
# Static dielectric constant tensor:
#      x y z
#    x 1.680400 0.000000 0.009560 
#    y 0.000000 1.710330 0.000000 
#    z 0.009560 0.000000 1.696720 
# 
# From -- ./inp_files/238907.got.cif
#   From: 2010.05.17/outbox.cif.g08.bks.cpg/sg12_120_cif.got.tgz:238907.got - 2010.06.03 13:09:07.
