data_PCOD9181496
_publ_section_title
;
Structure prediction by ZEFSAII (Michael W. Deem and Ramdas Pophale) SiO2 
 PCOD9181496
Probable space group: C 2/M
;
_chemical_formula_sum "Si O2"
_cell_formula_units_Z 44
_cell_length_a 12.033451
_cell_length_b 19.578643
_cell_length_c 9.203169
_cell_angle_alpha 90.000000
_cell_angle_beta 62.272252
_cell_angle_gamma 90.000000
_cell_volume 1919.270026
_symmetry_space_group_name_H-M "C 2/M"
_symmetry_group_IT_number 12
_symmetry_cell_setting 'monoclinic'
loop_
_space_group_symop_operation_xyz
x,y,z
-x,y,-z
-x,-y,-z
x,-y,z
1/2+x,1/2+y,z
1/2-x,1/2+y,-z
1/2-x,1/2-y,-z
1/2+x,1/2-y,z
loop_
_atom_site_type_symbol
_atom_site_label
_atom_site_fract_x
_atom_site_fract_y
_atom_site_fract_z
Si Si1 0.234566 0.350462 0.462243
Si Si2 0.037698 0.758922 0.662819
Si Si3 0.827727 0.864862 0.739730
Si Si4 0.722819 0.000000 0.458263
Si Si5 0.520806 0.500000 0.317338
Si Si6 0.001952 0.500000 0.176415
Si Si7 0.093055 0.642621 0.078185
O O1 0.124742 0.294871 0.522741
O O2 0.358712 0.310910 0.330232
O O3 0.266284 0.368016 0.614784
O O4 0.197772 0.423092 0.415869
O O5 0.933709 0.808436 0.661751
O O6 0.956073 0.708086 0.809250
O O7 0.896008 0.933102 0.755515
O O8 0.727144 0.847820 0.923479
O O9 0.634433 0.000000 0.660462
O O10 0.876436 0.000000 0.354891
O O11 0.500000 0.500000 0.500000
O O12 0.073470 0.570268 0.172025
O O13 0.000000 0.500000 0.000000
O O14 0.000000 0.636694 0.000000
#
# Coordination Sequence:
#
# PCOD9181496 Si02
#       7
#     8   8   8   4   4   4   8
#     4  11  21  36  56  84 116 139 183 232 275 329
#     4  11  22  34  53  83 114 149 180 218 286 331
#     4  12  21  37  55  83 119 144 184 229 272 335
#     4  12  18  36  56  79 113 141 177 234 282 331
#     4  12  21  30  56  88 106 145 178 228 288 325
#     4  10  19  32  53  78 110 149 173 223 283 332
#     4  11  21  36  53  79 117 149 182 222 277 332
#
# _framework density 22.925381999999999
#
# number of rings (size 3 to 8) (size 9 to 14) (size 15 to 20)
#    0.000    0.727    7.273    2.727    0.000    0.000 
#    0.000    0.000    0.000    0.000    0.000   29.273 
#    0.000    0.000    0.000    0.000    0.000    0.000 
#
# Total GULP energy -122665.576466 kJ/mol
# GULP energy per Si atom -5575.708021 kJ/mol
# Density = 2.287320 g / cm^3
# Si number density = 22.925382 Si / 1000 Ang^3
#
#
#
# Elastic Constant Matrix: (Units=GPa)
#
#
# Indices 1 2 3 4 5 6 
#
# 1 78.2351 48.1768 43.9098 0.0000 -25.4694 0.0000
# 2 48.1768 220.7122 68.1932 0.0000 -22.6680 0.0000
# 3 43.9098 68.1932 134.6318 0.0000 -53.0895 0.0000
# 4 0.0000 0.0000 0.0000 45.7363 0.0000 -17.9809
# 5 -25.4694 -22.6680 -53.0895 0.0000 41.2188 0.0000
# 6 0.0000 0.0000 0.0000 -17.9809 0.0000 20.7718
#
#
#
# Elastic Compliance Matrix: (Units=1/GPa)
#
#
# Indices 1 2 3 4 5 6 
#
# 1 0.017694 -0.002639 -0.001413 0.000000 0.007663 0.000000
# 2 -0.002639 0.005790 -0.002966 0.000000 -0.002266 0.000000
# 3 -0.001413 -0.002966 0.017076 0.000000 0.019490 0.000000
# 4 0.000000 0.000000 0.000000 0.033144 0.000000 0.028691
# 5 0.007663 -0.002266 0.019490 0.000000 0.052852 0.000000
# 6 0.000000 0.000000 0.000000 0.028691 0.000000 0.072978
#
#
# Mechanical properties :
#
#
# Convention : Reuss Voigt Hill
#
# Bulk Modulus (GPa) = 37.69869 83.79317 60.74593
# Shear Modulus (GPa) = 22.48073 39.76535 31.12304
#
# Velocity S-wave (km/s) = 3.13486 4.16932 3.68853
# Velocity P-wave (km/s) = 5.43902 7.73352 6.68544
#
# Compressibility (1/GPa) = 0.02652612
#
# Stress axis : x y z
#
# Youngs Moduli (GPa) = 56.51477 172.69906 58.56086
#
# Poissons Ratio (x) = 0.45573 0.08273
# Poissons Ratio (y) = 0.14913 0.17369
# Poissons Ratio (z) = 0.07984 0.51222
#
# Static dielectric constant tensor:
#      x y z
#    x 1.859040 0.000000 0.043490 
#    y 0.000000 1.913290 0.000000 
#    z 0.043490 0.000000 1.806430 
# 
# From -- ./inp_files/145363.got.cif
#   From: 2010.05.17/outbox.cif.g08.bks.cpg/sg12_73_cif.got.tgz:145363.got - 2010.06.03 13:09:07.
