data_PCOD9181751
_publ_section_title
;
Structure prediction by ZEFSAII (Michael W. Deem and Ramdas Pophale) SiO2 
 PCOD9181751
Probable space group: C 2/M
;
_chemical_formula_sum "Si O2"
_cell_formula_units_Z 32
_cell_length_a 10.475358
_cell_length_b 20.794686
_cell_length_c 10.835535
_cell_angle_alpha 90.000000
_cell_angle_beta 142.599212
_cell_angle_gamma 90.000000
_cell_volume 1433.629487
_symmetry_space_group_name_H-M "C 2/M"
_symmetry_group_IT_number 12
_symmetry_cell_setting 'monoclinic'
loop_
_space_group_symop_operation_xyz
x,y,z
-x,y,-z
-x,-y,-z
x,-y,z
1/2+x,1/2+y,z
1/2-x,1/2+y,-z
1/2-x,1/2-y,-z
1/2+x,1/2-y,z
loop_
_atom_site_type_symbol
_atom_site_label
_atom_site_fract_x
_atom_site_fract_y
_atom_site_fract_z
Si Si1 0.620211 0.572664 0.902361
Si Si2 0.767687 0.622947 0.270179
Si Si3 0.085463 0.741342 0.226439
Si Si4 0.658758 0.691167 0.766546
O O1 0.689519 0.500000 0.932202
O O2 0.755138 0.606385 0.115737
O O3 0.385694 0.573378 0.778884
O O4 0.618200 0.619853 0.784426
O O5 0.663776 0.691535 0.225468
O O6 0.000000 0.621156 0.500000
O O7 0.269297 0.693935 0.320468
O O8 0.016766 0.759765 0.312550
O O9 0.871073 0.714581 0.001550
#
# Coordination Sequence:
#
# PCOD9181751 Si02
#       4
#     8   8   8   8
#     4  10  20  33  49  72 105 141 172 208 252 299
#     4  10  19  32  54  79 100 130 174 221 263 300
#     4   9  16  30  52  76 103 130 163 213 264 297
#     4   9  16  31  54  75 104 138 167 210 257 304
#
# _framework density 22.320969000000002
#
# number of rings (size 3 to 8) (size 9 to 14) (size 15 to 20)
#    0.000    2.500    0.000    9.000    0.000    2.000 
#    0.000   13.750    0.000    0.000    0.000    0.000 
#    0.000   70.000    0.000    0.000    0.000    0.000 
#
# Total GULP energy -89277.682988 kJ/mol
# GULP energy per Si atom -5579.855187 kJ/mol
# Density = 2.227017 g / cm^3
# Si number density = 22.320969 Si / 1000 Ang^3
#
#
#
# Elastic Constant Matrix: (Units=GPa)
#
#
# Indices 1 2 3 4 5 6 
#
# 1 133.4234 25.1009 22.4492 0.0000 5.4280 0.0000
# 2 25.1009 109.8350 2.5044 0.0000 0.7325 0.0000
# 3 22.4492 2.5044 99.9651 0.0000 8.0683 0.0000
# 4 0.0000 0.0000 0.0000 10.2227 0.0000 3.7151
# 5 5.4280 0.7325 8.0683 0.0000 33.1755 0.0000
# 6 0.0000 0.0000 0.0000 3.7151 0.0000 15.6725
#
#
#
# Elastic Compliance Matrix: (Units=1/GPa)
#
#
# Indices 1 2 3 4 5 6 
#
# 1 0.008162 -0.001820 -0.001716 0.000000 -0.000878 0.000000
# 2 -0.001820 0.009516 0.000167 0.000000 0.000047 0.000000
# 3 -0.001716 0.000167 0.010570 0.000000 -0.002293 0.000000
# 4 0.000000 0.000000 0.000000 0.107044 0.000000 -0.025375
# 5 -0.000878 0.000047 -0.002293 0.000000 0.030843 0.000000
# 6 0.000000 0.000000 0.000000 -0.025375 0.000000 0.069821
#
#
# Mechanical properties :
#
#
# Convention : Reuss Voigt Hill
#
# Bulk Modulus (GPa) = 46.49462 49.25916 47.87689
# Shear Modulus (GPa) = 20.01076 31.35873 25.68474
#
# Velocity S-wave (km/s) = 2.99741 3.75227 3.39588
# Velocity P-wave (km/s) = 5.73189 6.39446 6.07222
#
# Compressibility (1/GPa) = 0.02150787
#
# Stress axis : x y z
#
# Youngs Moduli (GPa) = 122.52055 105.08126 94.60833
#
# Poissons Ratio (x) = 0.19128 0.16239
# Poissons Ratio (y) = 0.22302 -0.01576
# Poissons Ratio (z) = 0.21030 -0.01750
#
# Static dielectric constant tensor:
#      x y z
#    x 1.924690 0.000000 -0.031270 
#    y 0.000000 1.827080 0.000000 
#    z -0.031270 0.000000 1.909860 
# 
# From -- ./inp_files/207081.got.cif
#   From: 2010.05.17/outbox.cif.g08.bks.cpg/sg12_104_cif.got.tgz:207081.got - 2010.06.03 13:09:07.
