data_PCOD9181608
_publ_section_title
;
Structure prediction by ZEFSAII (Michael W. Deem and Ramdas Pophale) SiO2 
 PCOD9181608
Probable space group: C 2/M
;
_chemical_formula_sum "Si O2"
_cell_formula_units_Z 56
_cell_length_a 24.890553
_cell_length_b 9.031005
_cell_length_c 13.574167
_cell_angle_alpha 90.000000
_cell_angle_beta 84.982954
_cell_angle_gamma 90.000000
_cell_volume 3039.601980
_symmetry_space_group_name_H-M "C 2/M"
_symmetry_group_IT_number 12
_symmetry_cell_setting 'monoclinic'
loop_
_space_group_symop_operation_xyz
x,y,z
-x,y,-z
-x,-y,-z
x,-y,z
1/2+x,1/2+y,z
1/2-x,1/2+y,-z
1/2-x,1/2-y,-z
1/2+x,1/2-y,z
loop_
_atom_site_type_symbol
_atom_site_label
_atom_site_fract_x
_atom_site_fract_y
_atom_site_fract_z
Si Si1 0.303332 0.175987 0.037069
Si Si2 0.189931 0.674029 0.301293
Si Si3 0.022155 0.823799 0.266287
Si Si4 0.083633 0.678180 0.663757
Si Si5 0.199477 0.323636 0.728429
Si Si6 0.917044 0.674619 0.563455
Si Si7 0.627077 0.322731 0.130949
O O1 0.353785 0.247200 0.972328
O O2 0.301817 0.000000 0.020190
O O3 0.250000 0.250000 0.000000
O O4 0.304483 0.201892 0.153583
O O5 0.193584 0.500000 0.276545
O O6 0.248088 0.738244 0.317942
O O7 0.145293 0.691041 0.393804
O O8 0.166277 0.761247 0.210764
O O9 0.047910 0.764952 0.364229
O O10 0.066467 0.786058 0.175817
O O11 0.964069 0.749602 0.265578
O O12 0.017076 0.000000 0.270494
O O13 0.080268 0.500000 0.671357
O O14 0.143294 0.722257 0.688295
O O15 0.075429 0.718956 0.550513
O O16 0.206721 0.500000 0.711440
O O17 0.930954 0.500000 0.571065
O O18 0.632733 0.500000 0.124388
#
# Coordination Sequence:
#
# PCOD9181608 Si02
#       7
#     8   8   8   8   8   8   8
#     4  11  21  34  56  83 109 139 178 221 268 321
#     4  10  19  32  53  81 109 139 177 221 267 318
#     4  10  21  36  56  82 109 138 179 228 271 312
#     4  10  21  38  56  75 107 149 183 217 264 320
#     4  10  22  37  53  77 111 145 177 217 269 323
#     4   9  19  35  56  81 107 140 183 222 262 318
#     4  10  20  35  55  80 109 139 175 223 272 318
#
# _framework density 18.423465
#
# number of rings (size 3 to 8) (size 9 to 14) (size 15 to 20)
#    0.000    2.000    1.429    2.143    0.000    6.286 
#    0.000    0.714    0.000    4.286    0.000    0.000 
#    0.000    0.000    0.000    0.000    0.000    0.000 
#
# Total GULP energy -156371.497564 kJ/mol
# GULP energy per Si atom -5584.696342 kJ/mol
# Density = 1.838153 g / cm^3
# Si number density = 18.423465 Si / 1000 Ang^3
#
#
#
# Elastic Constant Matrix: (Units=GPa)
#
#
# Indices 1 2 3 4 5 6 
#
# 1 105.0592 28.2083 3.7794 0.0000 -18.6175 0.0000
# 2 28.2083 37.9416 15.6537 0.0000 -12.3648 0.0000
# 3 3.7794 15.6537 23.9186 0.0000 -17.2476 0.0000
# 4 0.0000 0.0000 0.0000 17.0290 0.0000 -3.2614
# 5 -18.6175 -12.3648 -17.2476 0.0000 20.9577 0.0000
# 6 0.0000 0.0000 0.0000 -3.2614 0.0000 35.4487
#
#
#
# Elastic Compliance Matrix: (Units=1/GPa)
#
#
# Indices 1 2 3 4 5 6 
#
# 1 0.018384 -0.015826 0.030735 0.000000 0.032288 0.000000
# 2 -0.015826 0.049907 -0.046898 0.000000 -0.023209 0.000000
# 3 0.030735 -0.046898 0.165734 0.000000 0.136028 0.000000
# 4 0.000000 0.000000 0.000000 0.059777 0.000000 0.005500
# 5 0.032288 -0.023209 0.136028 0.000000 0.174651 0.000000
# 6 0.000000 0.000000 0.000000 0.005500 0.000000 0.028716
#
#
# Mechanical properties :
#
#
# Convention : Reuss Voigt Hill
#
# Bulk Modulus (GPa) = 5.88068 29.13356 17.50712
# Shear Modulus (GPa) = 8.09287 22.63897 15.36592
#
# Velocity S-wave (km/s) = 2.09815 3.50924 2.89111
# Velocity P-wave (km/s) = 3.01140 5.68043 4.54620
#
# Compressibility (1/GPa) = 0.17004825
#
# Stress axis : x y z
#
# Youngs Moduli (GPa) = 54.39569 20.03712 6.03377
#
# Poissons Ratio (x) = 0.31711 -0.18545
# Poissons Ratio (y) = 0.86086 0.28297
# Poissons Ratio (z) = -1.67187 0.93970
#
# Static dielectric constant tensor:
#      x y z
#    x 1.641970 0.000000 -0.021390 
#    y 0.000000 1.614520 0.000000 
#    z -0.021390 0.000000 1.621960 
# 
# From -- ./inp_files/230864.got.cif
#   From: 2010.05.17/outbox.cif.g08.bks.cpg/sg12_116_cif.got.tgz:230864.got - 2010.06.03 13:09:07.
