data_PCOD9181264
_publ_section_title
;
Structure prediction by ZEFSAII (Michael W. Deem and Ramdas Pophale) SiO2 
 PCOD9181264
Probable space group: C 2/M
;
_chemical_formula_sum "Si O2"
_cell_formula_units_Z 64
_cell_length_a 20.946322
_cell_length_b 8.872908
_cell_length_c 24.922632
_cell_angle_alpha 90.000000
_cell_angle_beta 52.739101
_cell_angle_gamma 90.000000
_cell_volume 3686.540305
_symmetry_space_group_name_H-M "C 2/M"
_symmetry_group_IT_number 12
_symmetry_cell_setting 'monoclinic'
loop_
_space_group_symop_operation_xyz
x,y,z
-x,y,-z
-x,-y,-z
x,-y,z
1/2+x,1/2+y,z
1/2-x,1/2+y,-z
1/2-x,1/2-y,-z
1/2+x,1/2-y,z
loop_
_atom_site_type_symbol
_atom_site_label
_atom_site_fract_x
_atom_site_fract_y
_atom_site_fract_z
Si Si1 0.406455 0.818613 0.784217
Si Si2 0.044710 0.181244 0.351274
Si Si3 0.173750 0.319500 0.768132
Si Si4 0.012440 0.681470 0.145527
Si Si5 0.070192 0.181241 0.005793
Si Si6 0.178642 0.678822 0.361937
Si Si7 0.221356 0.181047 0.858007
Si Si8 0.077217 0.826534 0.500531
O O1 0.448263 0.739867 0.712448
O O2 0.444322 0.772255 0.821529
O O3 0.311741 0.783651 0.829575
O O4 0.414965 0.000000 0.774463
O O5 0.117511 0.252385 0.348686
O O6 0.961479 0.222995 0.423508
O O7 0.051782 0.000000 0.350450
O O8 0.180236 0.500000 0.762362
O O9 0.234588 0.246510 0.694870
O O10 0.200355 0.262186 0.813197
O O11 0.081330 0.275399 0.806254
O O12 0.016262 0.500000 0.140199
O O13 0.053737 0.748557 0.071853
O O14 0.066844 0.000000 0.012136
O O15 0.155220 0.222338 0.936087
O O16 0.000000 0.227695 0.000000
O O17 0.179280 0.500000 0.355992
O O18 0.143660 0.727406 0.437442
O O19 0.215951 0.000000 0.852112
O O20 0.000000 0.825257 0.500000
O O21 0.104663 0.000000 0.490172
#
# Coordination Sequence:
#
# PCOD9181264 Si02
#       8
#     8   8   8   8   8   8   8   8
#     4  10  21  37  55  78 111 146 182 223 270 321
#     4  10  19  32  52  79 110 144 181 219 266 319
#     4  11  21  34  54  78 107 141 183 227 270 320
#     4  10  23  39  55  79 109 144 183 225 272 323
#     4  10  20  35  56  81 109 140 179 225 273 324
#     4  11  20  30  50  80 110 140 179 225 269 318
#     4  10  20  35  56  80 106 140 180 223 272 321
#     4   8  16  30  47  73 110 143 174 219 268 315
#
# _framework density 17.360451000000001
#
# number of rings (size 3 to 8) (size 9 to 14) (size 15 to 20)
#    0.000    2.000    2.500    2.625    0.000    5.000 
#    0.000    0.000    0.000    0.750    0.000    0.000 
#    0.000    0.000    0.000    0.000    0.000    0.000 
#
# Total GULP energy -178591.213999 kJ/mol
# GULP energy per Si atom -5580.975437 kJ/mol
# Density = 1.732094 g / cm^3
# Si number density = 17.360451 Si / 1000 Ang^3
#
#
#
# Elastic Constant Matrix: (Units=GPa)
#
#
# Indices 1 2 3 4 5 6 
#
# 1 103.6657 38.3712 75.2447 -0.0001 4.6748 0.0001
# 2 38.3712 45.8405 59.4116 -0.0002 -3.7844 -0.0001
# 3 75.2447 59.4116 190.0334 0.0000 1.0735 0.0000
# 4 -0.0001 -0.0002 0.0000 32.7975 0.0000 4.8815
# 5 4.6748 -3.7844 1.0735 0.0000 22.1198 -0.0001
# 6 0.0001 -0.0001 0.0000 4.8815 -0.0001 16.0101
#
#
#
# Elastic Compliance Matrix: (Units=1/GPa)
#
#
# Indices 1 2 3 4 5 6 
#
# 1 0.015668 -0.009246 -0.003286 0.000000 -0.004734 0.000000
# 2 -0.009246 0.043195 -0.009899 0.000000 0.009825 0.000000
# 3 -0.003286 -0.009899 0.009666 0.000000 -0.001468 0.000000
# 4 0.000000 0.000000 0.000000 0.031940 0.000000 -0.009738
# 5 -0.004734 0.009825 -0.001468 0.000000 0.047961 0.000000
# 6 0.000000 0.000000 0.000000 -0.009738 0.000000 0.065430
#
#
# Mechanical properties :
#
#
# Convention : Reuss Voigt Hill
#
# Bulk Modulus (GPa) = 42.25423 76.17720 59.21571
# Shear Modulus (GPa) = 18.75399 25.28631 22.02015
#
# Velocity S-wave (km/s) = 3.29031 3.82061 3.56534
# Velocity P-wave (km/s) = 6.23114 7.96478 7.15069
#
# Compressibility (1/GPa) = 0.02366627
#
# Stress axis : x y z
#
# Youngs Moduli (GPa) = 63.82614 23.15096 103.45144
#
# Poissons Ratio (x) = 0.21406 0.33995
# Poissons Ratio (y) = 0.59017 1.02403
# Poissons Ratio (z) = 0.20974 0.22916
#
# Static dielectric constant tensor:
#      x y z
#    x 1.564890 0.000000 -0.007380 
#    y 0.000000 1.583600 0.000000 
#    z -0.007380 0.000000 1.597650 
# 
# From -- ./inp_files/365183.got.cif
#   From: 2010.05.17/outbox.cif.g08.bks.cpg/sg12_183_cif.got.tgz:365183.got - 2010.06.03 13:09:07.
