data_PCOD9181529
_publ_section_title
;
Structure prediction by ZEFSAII (Michael W. Deem and Ramdas Pophale) SiO2 
 PCOD9181529
Probable space group: C 2/M
;
_chemical_formula_sum "Si O2"
_cell_formula_units_Z 64
_cell_length_a 28.325591
_cell_length_b 13.996846
_cell_length_c 10.033551
_cell_angle_alpha 90.000000
_cell_angle_beta 61.953197
_cell_angle_gamma 90.000000
_cell_volume 3510.831111
_symmetry_space_group_name_H-M "C 2/M"
_symmetry_group_IT_number 12
_symmetry_cell_setting 'monoclinic'
loop_
_space_group_symop_operation_xyz
x,y,z
-x,y,-z
-x,-y,-z
x,-y,z
1/2+x,1/2+y,z
1/2-x,1/2+y,-z
1/2-x,1/2-y,-z
1/2+x,1/2-y,z
loop_
_atom_site_type_symbol
_atom_site_label
_atom_site_fract_x
_atom_site_fract_y
_atom_site_fract_z
Si Si1 0.365752 0.889943 0.090541
Si Si2 0.784930 0.608558 0.943241
Si Si3 0.720914 0.775879 0.673717
Si Si4 0.121649 0.891112 0.512762
Si Si5 0.448853 0.719552 0.969130
Si Si6 0.693967 0.302529 0.222228
Si Si7 0.496777 0.610611 0.659866
Si Si8 0.649227 0.612127 0.775640
O O1 0.325704 0.885832 0.015876
O O2 0.415761 0.818854 0.005713
O O3 0.380961 0.000000 0.090755
O O4 0.329106 0.848437 0.259635
O O5 0.786108 0.500000 0.891924
O O6 0.804712 0.692371 0.820857
O O7 0.724273 0.637149 0.067886
O O8 0.750000 0.750000 0.500000
O O9 0.766187 0.817878 0.707430
O O10 0.695852 0.679343 0.770091
O O11 0.137982 0.834159 0.358596
O O12 0.058586 0.889655 0.621496
O O13 0.146649 0.862545 0.621409
O O14 0.138617 0.000000 0.464141
O O15 0.465977 0.679773 0.801658
O O16 0.500000 0.726809 0.000000
O O17 0.406576 0.643844 0.085900
O O18 0.500000 0.638026 0.500000
O O19 0.476673 0.500000 0.693772
O O20 0.658334 0.500000 0.778392
#
# Coordination Sequence:
#
# PCOD9181529 Si02
#       8
#     8   8   8   8   8   8   8   8
#     4   9  21  38  56  77 105 144 184 223 267 318
#     4   9  19  36  54  76 104 144 184 216 266 320
#     4  10  19  33  51  80 111 139 177 218 265 317
#     4  10  19  32  53  79 108 141 176 217 273 333
#     4  11  21  36  60  82 107 141 184 233 273 323
#     4  10  19  32  56  77 108 142 178 225 261 320
#     4  10  22  37  55  84 115 143 176 221 282 339
#     4  10  20  33  52  79 110 142 175 215 271 332
#
# _framework density 18.229303000000002
#
# number of rings (size 3 to 8) (size 9 to 14) (size 15 to 20)
#    0.000    2.125    2.500    0.750    1.750    2.250 
#    0.000    0.000    0.000    1.125    0.000    0.000 
#    0.000    0.000    0.000    0.000    0.000    0.000 
#
# Total GULP energy -178290.934156 kJ/mol
# GULP energy per Si atom -5571.591692 kJ/mol
# Density = 1.818781 g / cm^3
# Si number density = 18.229303 Si / 1000 Ang^3
#
#
#
# Elastic Constant Matrix: (Units=GPa)
#
#
# Indices 1 2 3 4 5 6 
#
# 1 30.6864 9.6826 12.0469 0.0000 -11.6819 0.0000
# 2 9.6826 107.3062 56.9616 0.0000 -15.7419 0.0000
# 3 12.0469 56.9616 118.0356 0.0000 -16.0754 0.0000
# 4 0.0000 0.0000 0.0000 21.9924 0.0000 3.6116
# 5 -11.6819 -15.7419 -16.0754 0.0000 22.6150 0.0000
# 6 0.0000 0.0000 0.0000 3.6116 0.0000 19.1672
#
#
#
# Elastic Compliance Matrix: (Units=1/GPa)
#
#
# Indices 1 2 3 4 5 6 
#
# 1 0.040782 0.000030 -0.001445 0.000000 0.020060 0.000000
# 2 0.000030 0.013038 -0.005599 0.000000 0.005111 0.000000
# 3 -0.001445 -0.005599 0.011835 0.000000 0.003769 0.000000
# 4 0.000000 0.000000 0.000000 0.046922 0.000000 -0.008841
# 5 0.020060 0.005111 0.003769 0.000000 0.060818 0.000000
# 6 0.000000 0.000000 0.000000 -0.008841 0.000000 0.053839
#
#
# Mechanical properties :
#
#
# Convention : Reuss Voigt Hill
#
# Bulk Modulus (GPa) = 19.36952 45.93450 32.65201
# Shear Modulus (GPa) = 19.34458 24.57739 21.96098
#
# Velocity S-wave (km/s) = 3.26111 3.67582 3.47466
# Velocity P-wave (km/s) = 4.98280 6.57787 5.83510
#
# Compressibility (1/GPa) = 0.05162750
#
# Stress axis : x y z
#
# Youngs Moduli (GPa) = 24.52059 76.69657 84.49712
#
# Poissons Ratio (x) = -0.00229 0.12207
# Poissons Ratio (y) = -0.00073 0.47310
# Poissons Ratio (z) = 0.03542 0.42942
#
# Static dielectric constant tensor:
#      x y z
#    x 1.666360 0.000000 0.012250 
#    y 0.000000 1.621990 0.000000 
#    z 0.012250 0.000000 1.655000 
# 
# From -- ./inp_files/111608.got.cif
#   From: 2010.05.17/outbox.cif.g08.bks.cpg/sg12_56_cif.got.tgz:111608.got - 2010.06.03 13:09:07.
