data_PCOD9181029
_publ_section_title
;
Structure prediction by ZEFSAII (Michael W. Deem and Ramdas Pophale) SiO2 
 PCOD9181029
Probable space group: C 2/M
;
_chemical_formula_sum "Si O2"
_cell_formula_units_Z 56
_cell_length_a 34.046904
_cell_length_b 7.353845
_cell_length_c 16.335236
_cell_angle_alpha 90.000000
_cell_angle_beta 142.348359
_cell_angle_gamma 90.000000
_cell_volume 2498.380007
_symmetry_space_group_name_H-M "C 2/M"
_symmetry_group_IT_number 12
_symmetry_cell_setting 'monoclinic'
loop_
_space_group_symop_operation_xyz
x,y,z
-x,y,-z
-x,-y,-z
x,-y,z
1/2+x,1/2+y,z
1/2-x,1/2+y,-z
1/2-x,1/2-y,-z
1/2+x,1/2-y,z
loop_
_atom_site_type_symbol
_atom_site_label
_atom_site_fract_x
_atom_site_fract_y
_atom_site_fract_z
Si Si1 0.506663 0.277277 0.105554
Si Si2 0.292032 0.219900 0.872366
Si Si3 0.146912 0.792374 0.371531
Si Si4 0.065523 0.210219 0.855159
Si Si5 0.805119 0.783432 0.158304
Si Si6 0.277796 0.221118 0.664202
Si Si7 0.552385 0.723004 0.654107
O O1 0.505590 0.500000 0.099715
O O2 0.575877 0.215375 0.253903
O O3 0.455823 0.216602 0.091016
O O4 0.500000 0.216813 0.000000
O O5 0.228156 0.283206 0.813259
O O6 0.293619 0.278790 0.781324
O O7 0.292202 0.000000 0.873938
O O8 0.357379 0.280551 0.023455
O O9 0.206734 0.714126 0.520457
O O10 0.171661 0.789264 0.318857
O O11 0.140436 0.000000 0.389374
O O12 0.038963 0.285022 0.725381
O O13 0.045416 0.000000 0.823834
O O14 0.875755 0.714932 0.252345
O O15 0.812447 0.000000 0.177792
O O16 0.750000 0.750000 0.000000
O O17 0.278453 0.000000 0.660565
O O18 0.500000 0.776881 0.500000
O O19 0.552666 0.500000 0.656519
#
# Coordination Sequence:
#
# PCOD9181029 Si02
#       7
#     8   8   8   8   8   8   8
#     4   9  17  28  45  71  98 123 157 201 245 287
#     4  10  20  32  49  73 101 130 162 203 251 300
#     4   9  17  31  49  68  96 130 163 203 246 290
#     4  10  19  32  52  74  97 129 167 207 248 298
#     4  10  19  33  53  75 101 132 166 207 253 302
#     4   9  18  31  47  70  97 128 164 200 245 297
#     4   9  18  32  51  77 104 129 164 211 258 301
#
# _framework density 22.414524
#
# number of rings (size 3 to 8) (size 9 to 14) (size 15 to 20)
#    0.000    2.571    1.429    0.857    0.000    2.857 
#    0.000    6.429    0.000    4.286    0.000    2.000 
#    0.000    0.000    0.000    0.000    0.000    0.000 
#
# Total GULP energy -156265.746686 kJ/mol
# GULP energy per Si atom -5580.919525 kJ/mol
# Density = 2.236351 g / cm^3
# Si number density = 22.414524 Si / 1000 Ang^3
#
#
#
# Elastic Constant Matrix: (Units=GPa)
#
#
# Indices 1 2 3 4 5 6 
#
# 1 113.6256 -3.8007 70.9292 0.0000 -3.1358 0.0000
# 2 -3.8007 83.5426 -4.7685 0.0000 -0.5535 -0.0002
# 3 70.9292 -4.7685 100.1403 0.0000 -9.0333 0.0000
# 4 0.0000 0.0000 0.0000 2.6364 0.0000 5.1871
# 5 -3.1358 -0.5535 -9.0333 0.0000 44.4968 0.0000
# 6 0.0000 -0.0002 0.0000 5.1871 0.0000 -34.5769
#
#
#
# Elastic Compliance Matrix: (Units=1/GPa)
#
#
# Indices 1 2 3 4 5 6 
#
# 1 0.015837 0.000066 -0.011321 0.000000 -0.001181 0.000000
# 2 0.000066 0.012006 0.000549 0.000000 0.000265 0.000000
# 3 -0.011321 0.000549 0.018294 0.000000 0.002923 0.000000
# 4 0.000000 0.000000 0.000000 0.292869 0.000000 0.043935
# 5 -0.001181 0.000265 0.002923 0.000000 0.022987 0.000000
# 6 0.000000 0.000000 0.000000 0.043935 0.000000 -0.022330
#
#
# Mechanical properties :
#
#
# Convention : Reuss Voigt Hill
#
# Bulk Modulus (GPa) = 40.44335 46.89206 43.66770
# Shear Modulus (GPa) = 13.53849 18.17450 15.85649
#
# Velocity S-wave (km/s) = 2.46032 2.85061 2.66262
# Velocity P-wave (km/s) = 5.11404 5.63919 5.38302
#
# Compressibility (1/GPa) = 0.02472595
#
# Stress axis : x y z
#
# Youngs Moduli (GPa) = 63.14157 83.29145 54.66147
#
# Poissons Ratio (x) = -0.00554 0.61882
# Poissons Ratio (y) = -0.00420 -0.02998
# Poissons Ratio (z) = 0.71483 -0.04569
#
# Static dielectric constant tensor:
#      x y z
#    x 1.824700 0.000000 -0.006080 
#    y 0.000000 1.859490 0.000000 
#    z -0.006080 0.000000 1.798900 
# 
# From -- ./inp_files/250599.got.cif
#   From: 2010.05.17/outbox.cif.g08.bks.cpg/sg12_126_cif.got.tgz:250599.got - 2010.06.03 13:09:07.
