data_PCOD9181903
_publ_section_title
;
Structure prediction by ZEFSAII (Michael W. Deem and Ramdas Pophale) SiO2 
 PCOD9181903
Probable space group: C 2/M
;
_chemical_formula_sum "Si O2"
_cell_formula_units_Z 56
_cell_length_a 29.630876
_cell_length_b 8.978671
_cell_length_c 13.525707
_cell_angle_alpha 90.000000
_cell_angle_beta 123.285884
_cell_angle_gamma 90.000000
_cell_volume 3008.104933
_symmetry_space_group_name_H-M "C 2/M"
_symmetry_group_IT_number 12
_symmetry_cell_setting 'monoclinic'
loop_
_space_group_symop_operation_xyz
x,y,z
-x,y,-z
-x,-y,-z
x,-y,z
1/2+x,1/2+y,z
1/2-x,1/2+y,-z
1/2-x,1/2-y,-z
1/2+x,1/2-y,z
loop_
_atom_site_type_symbol
_atom_site_label
_atom_site_fract_x
_atom_site_fract_y
_atom_site_fract_z
Si Si1 0.944588 0.678457 0.723414
Si Si2 0.770812 0.822144 0.789846
Si Si3 0.446260 0.179377 0.494200
Si Si4 0.561748 0.821665 0.944470
Si Si5 0.336999 0.677402 0.282917
Si Si6 0.624711 0.678245 0.202028
Si Si7 0.653797 0.321874 0.933790
O O1 0.937949 0.500000 0.723603
O O2 0.950210 0.716152 0.614984
O O3 0.895243 0.758515 0.718177
O O4 0.000269 0.718573 0.845969
O O5 0.713907 0.741169 0.719025
O O6 0.814596 0.780728 0.758796
O O7 0.762559 0.000000 0.776111
O O8 0.800630 0.787007 0.929936
O O9 0.500000 0.226202 0.500000
O O10 0.392907 0.252615 0.385794
O O11 0.442004 0.000000 0.480318
O O12 0.600430 0.765882 0.902769
O O13 0.565081 0.000000 0.958322
O O14 0.585199 0.745818 0.070827
O O15 0.338987 0.500000 0.294577
O O16 0.329849 0.714540 0.157941
O O17 0.620906 0.500000 0.194772
O O18 0.643450 0.500000 0.928091
#
# Coordination Sequence:
#
# PCOD9181903 Si02
#       7
#     8   8   8   8   8   8   8
#     4  10  21  36  55  80 108 142 185 226 264 315
#     4   9  19  36  55  77 108 144 180 218 265 324
#     4  10  22  41  61  80 107 144 183 221 264 317
#     4  10  19  32  54  83 112 143 181 222 266 320
#     4  11  22  35  55  83 111 141 180 226 274 320
#     4  10  21  36  55  81 112 144 178 220 272 324
#     4   9  19  34  52  80 115 145 177 220 270 323
#
# _framework density 18.616371000000001
#
# number of rings (size 3 to 8) (size 9 to 14) (size 15 to 20)
#    0.000    2.143    0.000    3.857    0.000    8.857 
#    0.000    0.714    0.000    0.000    0.000    0.000 
#    0.000    0.000    0.000    0.000    0.000    0.000 
#
# Total GULP energy -156369.261814 kJ/mol
# GULP energy per Si atom -5584.616493 kJ/mol
# Density = 1.857400 g / cm^3
# Si number density = 18.616371 Si / 1000 Ang^3
#
#
#
# Elastic Constant Matrix: (Units=GPa)
#
#
# Indices 1 2 3 4 5 6 
#
# 1 187.7473 58.9183 73.0580 0.0000 2.0045 0.0000
# 2 58.9183 26.9407 28.4826 0.0000 0.3685 0.0000
# 3 73.0580 28.4826 47.8977 0.0000 2.3801 0.0000
# 4 0.0000 0.0000 0.0000 25.6016 0.0000 -1.2507
# 5 2.0045 0.3685 2.3801 0.0000 29.8263 0.0000
# 6 0.0000 0.0000 0.0000 -1.2507 0.0000 32.6065
#
#
#
# Elastic Compliance Matrix: (Units=1/GPa)
#
#
# Indices 1 2 3 4 5 6 
#
# 1 0.019093 -0.029534 -0.011560 0.000000 0.000004 0.000000
# 2 -0.029534 0.146020 -0.041960 0.000000 0.003529 0.000000
# 3 -0.011560 -0.041960 0.063649 0.000000 -0.003784 0.000000
# 4 0.000000 0.000000 0.000000 0.039133 0.000000 0.001501
# 5 0.000004 0.003529 -0.003784 0.000000 0.033786 0.000000
# 6 0.000000 0.000000 0.000000 0.001501 0.000000 0.030726
#
#
# Mechanical properties :
#
#
# Convention : Reuss Voigt Hill
#
# Bulk Modulus (GPa) = 15.96009 64.83370 40.39690
# Shear Modulus (GPa) = 9.62652 24.41534 17.02093
#
# Velocity S-wave (km/s) = 2.27645 3.62539 3.02702
# Velocity P-wave (km/s) = 3.93718 7.24061 5.82785
#
# Compressibility (1/GPa) = 0.06265628
#
# Stress axis : x y z
#
# Youngs Moduli (GPa) = 52.37610 6.84837 15.71105
#
# Poissons Ratio (x) = 0.20226 0.18162
# Poissons Ratio (y) = 1.54685 0.65923
# Poissons Ratio (z) = 0.60546 0.28735
#
# Static dielectric constant tensor:
#      x y z
#    x 1.642590 0.000000 -0.017710 
#    y 0.000000 1.617890 0.000000 
#    z -0.017710 0.000000 1.628050 
# 
# From -- ./inp_files/248594.got.cif
#   From: 2010.05.17/outbox.cif.g08.bks.cpg/sg12_125_cif.got.tgz:248594.got - 2010.06.03 13:09:07.
