data_PCOD9181536
_publ_section_title
;
Structure prediction by ZEFSAII (Michael W. Deem and Ramdas Pophale) SiO2 
 PCOD9181536
Probable space group: C 2/M
;
_chemical_formula_sum "Si O2"
_cell_formula_units_Z 40
_cell_length_a 29.221137
_cell_length_b 8.899841
_cell_length_c 12.974289
_cell_angle_alpha 90.000000
_cell_angle_beta 136.535487
_cell_angle_gamma 90.000000
_cell_volume 2321.087435
_symmetry_space_group_name_H-M "C 2/M"
_symmetry_group_IT_number 12
_symmetry_cell_setting 'monoclinic'
loop_
_space_group_symop_operation_xyz
x,y,z
-x,y,-z
-x,-y,-z
x,-y,z
1/2+x,1/2+y,z
1/2-x,1/2+y,-z
1/2-x,1/2-y,-z
1/2+x,1/2-y,z
loop_
_atom_site_type_symbol
_atom_site_label
_atom_site_fract_x
_atom_site_fract_y
_atom_site_fract_z
Si Si1 0.318545 0.821277 0.570588
Si Si2 0.645085 0.179093 0.018615
Si Si3 0.801227 0.821524 0.326381
Si Si4 0.323123 0.320056 0.135032
Si Si5 0.422575 0.321615 0.896721
O O1 0.250000 0.750000 0.500000
O O2 0.325273 0.771769 0.463022
O O3 0.377588 0.756320 0.736470
O O4 0.315371 0.000000 0.575437
O O5 0.722305 0.208014 0.178278
O O6 0.598878 0.252833 0.028944
O O7 0.636764 0.000000 0.001588
O O8 0.634687 0.249065 0.888290
O O9 0.838896 0.788044 0.280490
O O10 0.807473 0.000000 0.357681
O O11 0.319846 0.500000 0.118197
O O12 0.250000 0.250000 0.000000
O O13 0.409271 0.500000 0.875195
O O14 0.500000 0.297281 0.000000
#
# Coordination Sequence:
#
# PCOD9181536 Si02
#       5
#     8   8   8   8   8
#     4  12  23  35  56  82 112 147 183 228 277 326
#     4  10  19  32  53  79 110 145 181 224 273 328
#     4   9  18  32  51  79 111 143 180 223 273 324
#     4   9  17  29  48  75 109 143 179 224 272 323
#     4  11  24  40  58  80 109 147 188 229 277 333
#
# _framework density 17.233301000000001
#
# number of rings (size 3 to 8) (size 9 to 14) (size 15 to 20)
#    0.000    1.800    2.000    4.800    0.000    5.600 
#    0.000    0.000    0.000    1.200    0.000    8.400 
#    0.000    0.000    0.000    0.000    0.000    0.000 
#
# Total GULP energy -111618.907655 kJ/mol
# GULP energy per Si atom -5580.945383 kJ/mol
# Density = 1.719408 g / cm^3
# Si number density = 17.233301 Si / 1000 Ang^3
#
#
#
# Elastic Constant Matrix: (Units=GPa)
#
#
# Indices 1 2 3 4 5 6 
#
# 1 130.0331 88.2760 69.1740 0.0000 -38.7355 0.0000
# 2 88.2760 118.5864 72.3639 0.0000 -19.2797 0.0000
# 3 69.1740 72.3639 85.0641 0.0000 -24.4742 0.0000
# 4 0.0000 0.0000 0.0000 26.9042 0.0000 -7.8891
# 5 -38.7355 -19.2797 -24.4742 0.0000 29.9597 0.0000
# 6 0.0000 0.0000 0.0000 -7.8891 0.0000 29.6185
#
#
#
# Elastic Compliance Matrix: (Units=1/GPa)
#
#
# Indices 1 2 3 4 5 6 
#
# 1 0.023951 -0.012916 -0.002577 0.000000 0.020550 0.000000
# 2 -0.012916 0.024532 -0.013895 0.000000 -0.012262 0.000000
# 3 -0.002577 -0.013895 0.028943 0.000000 0.011370 0.000000
# 4 0.000000 0.000000 0.000000 0.040318 0.000000 0.010739
# 5 0.020550 -0.012262 0.011370 0.000000 0.061345 0.000000
# 6 0.000000 0.000000 0.000000 0.010739 0.000000 0.036623
#
#
# Mechanical properties :
#
#
# Convention : Reuss Voigt Hill
#
# Bulk Modulus (GPa) = 53.61463 88.14571 70.88017
# Shear Modulus (GPa) = 17.81234 24.22113 21.01673
#
# Velocity S-wave (km/s) = 3.21845 3.75305 3.49598
# Velocity P-wave (km/s) = 6.70745 8.36899 7.58386
#
# Compressibility (1/GPa) = 0.01865162
#
# Stress axis : x y z
#
# Youngs Moduli (GPa) = 41.75211 40.76262 34.55040
#
# Poissons Ratio (x) = 0.52647 0.08904
# Poissons Ratio (y) = 0.53925 0.48007
# Poissons Ratio (z) = 0.10760 0.56639
#
# Static dielectric constant tensor:
#      x y z
#    x 1.387890 0.000000 -0.021840 
#    y 0.000000 1.570010 0.000000 
#    z -0.021840 0.000000 1.570230 
# 
# From -- ./inp_files/162376.got.cif
#   From: 2010.05.17/outbox.cif.g08.bks.cpg/sg12_82_cif.got.tgz:162376.got - 2010.06.03 13:09:07.
