data_PCOD9181943
_publ_section_title
;
Structure prediction by ZEFSAII (Michael W. Deem and Ramdas Pophale) SiO2 
 PCOD9181943
Probable space group: C 2/M
;
_chemical_formula_sum "Si O2"
_cell_formula_units_Z 48
_cell_length_a 14.548108
_cell_length_b 13.836761
_cell_length_c 23.987332
_cell_angle_alpha 90.000000
_cell_angle_beta 32.201607
_cell_angle_gamma 90.000000
_cell_volume 2573.170892
_symmetry_space_group_name_H-M "C 2/M"
_symmetry_group_IT_number 12
_symmetry_cell_setting 'monoclinic'
loop_
_space_group_symop_operation_xyz
x,y,z
-x,y,-z
-x,-y,-z
x,-y,z
1/2+x,1/2+y,z
1/2-x,1/2+y,-z
1/2-x,1/2-y,-z
1/2+x,1/2-y,z
loop_
_atom_site_type_symbol
_atom_site_label
_atom_site_fract_x
_atom_site_fract_y
_atom_site_fract_z
Si Si1 0.507925 0.113929 0.780624
Si Si2 0.788335 0.895891 0.458536
Si Si3 0.818000 0.391045 0.611178
Si Si4 0.402929 0.389503 0.990736
Si Si5 0.501238 0.209325 0.664316
Si Si6 0.642273 0.265081 0.795227
O O1 0.541435 0.177009 0.707204
O O2 0.600083 0.163997 0.786429
O O3 0.553545 0.000000 0.749886
O O4 0.301692 0.118408 0.896050
O O5 0.783025 0.898629 0.394626
O O6 0.596128 0.873926 0.579718
O O7 0.910813 0.805535 0.406391
O O8 0.846309 0.000000 0.450560
O O9 0.854188 0.500000 0.613090
O O10 0.711871 0.333112 0.710277
O O11 0.000000 0.344169 0.500000
O O12 0.441984 0.500000 0.951901
O O13 0.476922 0.312319 0.909362
O O14 0.500000 0.376680 0.000000
O O15 0.299171 0.227295 0.758867
#
# Coordination Sequence:
#
# PCOD9181943 Si02
#       6
#     8   8   8   8   8   8
#     4  11  24  41  59  88 123 157 196 243 297 354
#     4  10  21  37  56  84 120 154 195 245 291 343
#     4  10  19  32  54  85 114 141 187 244 292 338
#     4  10  21  38  63  91 116 147 197 251 297 348
#     4  11  22  37  61  85 119 161 200 237 293 354
#     4  12  22  37  62  87 117 156 195 241 296 352
#
# _framework density 18.654028
#
# number of rings (size 3 to 8) (size 9 to 14) (size 15 to 20)
#    0.000    1.333    5.000    1.500    0.000    2.000 
#    0.000    0.000    0.000    4.000    0.000    0.000 
#    0.000    0.000    0.000    0.000    0.000    0.000 
#
# Total GULP energy -133729.651500 kJ/mol
# GULP energy per Si atom -5572.068813 kJ/mol
# Density = 1.861157 g / cm^3
# Si number density = 18.654028 Si / 1000 Ang^3
#
#
#
# Elastic Constant Matrix: (Units=GPa)
#
#
# Indices 1 2 3 4 5 6 
#
# 1 37.9258 18.1766 -3.2460 0.0001 9.6545 0.0000
# 2 18.1766 107.7400 27.0071 -0.0003 5.1230 0.0001
# 3 -3.2460 27.0071 51.8393 -0.0013 0.8884 0.0006
# 4 0.0001 -0.0003 -0.0013 20.2718 0.0000 3.3982
# 5 9.6545 5.1230 0.8884 0.0000 18.6613 0.0001
# 6 0.0000 0.0001 0.0006 3.3982 0.0001 8.9762
#
#
#
# Elastic Compliance Matrix: (Units=1/GPa)
#
#
# Indices 1 2 3 4 5 6 
#
# 1 0.034040 -0.006418 0.005751 0.000000 -0.016122 0.000000
# 2 -0.006418 0.012020 -0.006670 0.000000 0.000338 0.000000
# 3 0.005751 -0.006670 0.023164 0.000002 -0.002247 -0.000002
# 4 0.000000 0.000000 0.000002 0.052672 0.000000 -0.019940
# 5 -0.016122 0.000338 -0.002247 0.000000 0.061942 0.000000
# 6 0.000000 0.000000 -0.000002 -0.019940 0.000000 0.118954
#
#
# Mechanical properties :
#
#
# Convention : Reuss Voigt Hill
#
# Bulk Modulus (GPa) = 18.33153 31.26451 24.79802
# Shear Modulus (GPa) = 14.89652 19.95303 17.42477
#
# Velocity S-wave (km/s) = 2.82896 3.27408 3.05962
# Velocity P-wave (km/s) = 4.52981 5.57578 5.07979
#
# Compressibility (1/GPa) = 0.05455081
#
# Stress axis : x y z
#
# Youngs Moduli (GPa) = 29.37756 83.19314 43.17064
#
# Poissons Ratio (x) = 0.53392 -0.24829
# Poissons Ratio (y) = 0.18854 0.28794
# Poissons Ratio (z) = -0.16896 0.55489
#
# Static dielectric constant tensor:
#      x y z
#    x 1.675430 0.000000 -0.014590 
#    y 0.000000 1.687690 0.000000 
#    z -0.014590 0.000000 1.635560 
# 
# From -- ./inp_files/143184.got.cif
#   From: 2010.05.17/outbox.cif.g08.bks.cpg/sg12_72_cif.got.tgz:143184.got - 2010.06.03 13:09:07.
