data_PCOD9181821
_publ_section_title
;
Structure prediction by ZEFSAII (Michael W. Deem and Ramdas Pophale) SiO2 
 PCOD9181821
Probable space group: C 2/M
;
_chemical_formula_sum "Si O2"
_cell_formula_units_Z 52
_cell_length_a 13.382421
_cell_length_b 21.970738
_cell_length_c 14.505860
_cell_angle_alpha 90.000000
_cell_angle_beta 137.692994
_cell_angle_gamma 90.000000
_cell_volume 2870.809061
_symmetry_space_group_name_H-M "C 2/M"
_symmetry_group_IT_number 12
_symmetry_cell_setting 'monoclinic'
loop_
_space_group_symop_operation_xyz
x,y,z
-x,y,-z
-x,-y,-z
x,-y,z
1/2+x,1/2+y,z
1/2-x,1/2+y,-z
1/2-x,1/2-y,-z
1/2+x,1/2-y,z
loop_
_atom_site_type_symbol
_atom_site_label
_atom_site_fract_x
_atom_site_fract_y
_atom_site_fract_z
Si Si1 0.357061 0.251226 0.772631
Si Si2 0.333037 0.568925 0.390389
Si Si3 0.803102 0.662551 0.572321
Si Si4 0.564056 0.222690 0.645778
Si Si5 0.500000 0.849036 0.000000
Si Si6 0.257078 0.430277 0.123626
Si Si7 0.497881 0.331282 0.259726
O O1 0.288521 0.219848 0.632949
O O2 0.236135 0.290775 0.744365
O O3 0.409126 0.195919 0.871617
O O4 0.489541 0.292962 0.825632
O O5 0.500000 0.596808 0.500000
O O6 0.350427 0.500000 0.437681
O O7 0.220654 0.605199 0.377738
O O8 0.277741 0.567213 0.248452
O O9 0.666796 0.656427 0.408024
O O10 0.958507 0.675074 0.627152
O O11 0.500000 0.231662 0.500000
O O12 0.562411 0.285219 0.703087
O O13 0.606753 0.891574 0.011311
O O14 0.250700 0.500000 0.085634
O O15 0.395674 0.390379 0.183001
#
# Coordination Sequence:
#
# PCOD9181821 Si02
#       7
#     8   8   8   8   4   8   8
#     4  11  22  35  51  83 110 150 177 221 277 320
#     4  10  19  32  54  81 108 138 180 228 277 326
#     4  11  19  31  56  81 110 138 174 227 281 336
#     4  11  18  32  53  79 109 142 174 218 276 332
#     4  12  23  38  56  72 119 146 186 232 264 330
#     4  11  23  37  55  79 110 149 185 228 272 320
#     4  11  20  33  58  82 111 135 179 230 278 338
#
# _framework density 18.113361000000001
#
# number of rings (size 3 to 8) (size 9 to 14) (size 15 to 20)
#    0.000    1.077    7.692    1.154    0.000    0.615 
#    0.000    0.000    0.000    1.385    0.000    0.538 
#    0.000    0.000    0.000    0.000    0.000    0.000 
#
# Total GULP energy -144969.504102 kJ/mol
# GULP energy per Si atom -5575.750158 kJ/mol
# Density = 1.807213 g / cm^3
# Si number density = 18.113361 Si / 1000 Ang^3
#
#
#
# Elastic Constant Matrix: (Units=GPa)
#
#
# Indices 1 2 3 4 5 6 
#
# 1 117.4814 63.9162 18.0143 0.0000 20.5948 0.0000
# 2 63.9162 108.2553 12.6894 0.0000 22.5380 0.0000
# 3 18.0143 12.6894 32.5238 0.0000 19.8572 0.0000
# 4 0.0000 0.0000 0.0000 13.0967 0.0000 3.6126
# 5 20.5948 22.5380 19.8572 0.0000 19.7959 0.0000
# 6 0.0000 0.0000 0.0000 3.6126 0.0000 21.6071
#
#
#
# Elastic Compliance Matrix: (Units=1/GPa)
#
#
# Indices 1 2 3 4 5 6 
#
# 1 0.013193 -0.006772 -0.002561 0.000000 -0.003447 0.000000
# 2 -0.006772 0.016846 0.011835 0.000000 -0.024006 0.000000
# 3 -0.002561 0.011835 0.088108 0.000000 -0.099191 0.000000
# 4 0.000000 0.000000 0.000000 0.080047 0.000000 -0.013383
# 5 -0.003447 -0.024006 -0.099191 0.000000 0.180932 0.000000
# 6 0.000000 0.000000 0.000000 -0.013383 0.000000 0.048519
#
#
# Mechanical properties :
#
#
# Convention : Reuss Voigt Hill
#
# Bulk Modulus (GPa) = 8.12000 49.72226 28.92113
# Shear Modulus (GPa) = 10.78307 21.80932 16.29619
#
# Velocity S-wave (km/s) = 2.44254 3.47370 3.00272
# Velocity P-wave (km/s) = 3.52807 6.60295 5.29369
#
# Compressibility (1/GPa) = 0.12315277
#
# Stress axis : x y z
#
# Youngs Moduli (GPa) = 75.79738 59.36043 11.34970
#
# Poissons Ratio (x) = 0.40196 0.02906
# Poissons Ratio (y) = 0.51327 -0.13432
# Poissons Ratio (z) = 0.19409 -0.70253
#
# Static dielectric constant tensor:
#      x y z
#    x 1.642950 0.000000 0.015970 
#    y 0.000000 1.640080 0.000000 
#    z 0.015970 0.000000 1.688350 
# 
# From -- ./inp_files/271965.got.cif
#   From: 2010.05.17/outbox.cif.g08.bks.cpg/sg12_136_cif.got.tgz:271965.got - 2010.06.03 13:09:07.
