data_PCOD9181569
_publ_section_title
;
Structure prediction by ZEFSAII (Michael W. Deem and Ramdas Pophale) SiO2 
 PCOD9181569
Probable space group: C 2/M
;
_chemical_formula_sum "Si O2"
_cell_formula_units_Z 40
_cell_length_a 22.286443
_cell_length_b 13.498760
_cell_length_c 15.269435
_cell_angle_alpha 90.000000
_cell_angle_beta 151.451605
_cell_angle_gamma 90.000000
_cell_volume 2195.307883
_symmetry_space_group_name_H-M "C 2/M"
_symmetry_group_IT_number 12
_symmetry_cell_setting 'monoclinic'
loop_
_space_group_symop_operation_xyz
x,y,z
-x,y,-z
-x,-y,-z
x,-y,z
1/2+x,1/2+y,z
1/2-x,1/2+y,-z
1/2-x,1/2-y,-z
1/2+x,1/2-y,z
loop_
_atom_site_type_symbol
_atom_site_label
_atom_site_fract_x
_atom_site_fract_y
_atom_site_fract_z
Si Si1 0.727376 0.883296 0.460146
Si Si2 0.316344 0.617312 0.955197
Si Si3 0.142384 0.118782 0.185145
Si Si4 0.962527 0.614012 0.350439
Si Si5 0.555383 0.257563 0.321524
O O1 0.788785 0.863445 0.635304
O O2 0.599119 0.821544 0.303185
O O3 0.828989 0.835257 0.525212
O O4 0.711533 0.000000 0.427140
O O5 0.350261 0.500000 0.000202
O O6 0.292857 0.646355 0.823285
O O7 0.188001 0.627881 0.844262
O O8 0.431729 0.681522 0.137438
O O9 0.133802 0.000000 0.171494
O O10 0.000000 0.158194 0.000000
O O11 0.993872 0.500000 0.363971
O O12 0.000000 0.623059 0.500000
O O13 0.027721 0.693183 0.371938
#
# Coordination Sequence:
#
# PCOD9181569 Si02
#       5
#     8   8   8   8   8
#     4  10  20  33  51  78 110 139 170 213 258 301
#     4  10  19  32  53  80 109 137 169 211 257 307
#     4   9  15  28  50  75 103 131 163 206 257 303
#     4  10  21  37  55  77 105 133 168 219 269 309
#     4  11  20  31  51  80 107 137 172 211 257 312
#
# _framework density 18.220679000000001
#
# number of rings (size 3 to 8) (size 9 to 14) (size 15 to 20)
#    0.000    2.000    2.000    3.000    0.000    3.200 
#    0.000    0.000    0.000    2.400    0.000   61.600 
#    0.000    0.000    0.000    0.000    0.000    0.000 
#
# Total GULP energy -111510.716657 kJ/mol
# GULP energy per Si atom -5575.535833 kJ/mol
# Density = 1.817921 g / cm^3
# Si number density = 18.220679 Si / 1000 Ang^3
#
#
#
# Elastic Constant Matrix: (Units=GPa)
#
#
# Indices 1 2 3 4 5 6 
#
# 1 88.9958 52.5048 22.3930 0.0000 10.7502 0.0000
# 2 52.5048 126.5163 41.4865 0.0000 17.2382 0.0000
# 3 22.3930 41.4865 65.1954 0.0000 17.1893 0.0000
# 4 0.0000 0.0000 0.0000 25.6639 0.0000 3.4766
# 5 10.7502 17.2382 17.1893 0.0000 19.7721 0.0000
# 6 0.0000 0.0000 0.0000 3.4766 0.0000 39.2067
#
#
#
# Elastic Compliance Matrix: (Units=1/GPa)
#
#
# Indices 1 2 3 4 5 6 
#
# 1 0.015086 -0.005609 -0.000959 0.000000 -0.002479 0.000000
# 2 -0.005609 0.012340 -0.005051 0.000000 -0.003318 0.000000
# 3 -0.000959 -0.005051 0.022813 0.000000 -0.014907 0.000000
# 4 0.000000 0.000000 0.000000 0.039439 0.000000 -0.003497
# 5 -0.002479 -0.003318 -0.014907 0.000000 0.067776 0.000000
# 6 0.000000 0.000000 0.000000 -0.003497 0.000000 0.025816
#
#
# Mechanical properties :
#
#
# Convention : Reuss Voigt Hill
#
# Bulk Modulus (GPa) = 37.03602 57.05289 47.04446
# Shear Modulus (GPa) = 23.20088 27.88342 25.54215
#
# Velocity S-wave (km/s) = 3.57224 3.91617 3.74815
# Velocity P-wave (km/s) = 6.11433 7.19921 6.67884
#
# Compressibility (1/GPa) = 0.02700074
#
# Stress axis : x y z
#
# Youngs Moduli (GPa) = 66.28610 81.03621 43.83500
#
# Poissons Ratio (x) = 0.45449 0.04205
# Poissons Ratio (y) = 0.37177 0.22143
# Poissons Ratio (z) = 0.06359 0.40935
#
# Static dielectric constant tensor:
#      x y z
#    x 1.660930 0.000000 0.031490 
#    y 0.000000 1.627880 0.000000 
#    z 0.031490 0.000000 1.672050 
# 
# From -- ./inp_files/141910.got.cif
#   From: 2010.05.17/outbox.cif.g08.bks.cpg/sg12_71_cif.got.tgz:141910.got - 2010.06.03 13:09:07.
