data_PCOD9181039
_publ_section_title
;
Structure prediction by ZEFSAII (Michael W. Deem and Ramdas Pophale) SiO2 
 PCOD9181039
Probable space group: C 2/M
;
_chemical_formula_sum "Si O2"
_cell_formula_units_Z 56
_cell_length_a 14.617576
_cell_length_b 9.486760
_cell_length_c 25.247458
_cell_angle_alpha 90.000000
_cell_angle_beta 47.177113
_cell_angle_gamma 90.000000
_cell_volume 2567.949151
_symmetry_space_group_name_H-M "C 2/M"
_symmetry_group_IT_number 12
_symmetry_cell_setting 'monoclinic'
loop_
_space_group_symop_operation_xyz
x,y,z
-x,y,-z
-x,-y,-z
x,-y,z
1/2+x,1/2+y,z
1/2-x,1/2+y,-z
1/2-x,1/2-y,-z
1/2+x,1/2-y,z
loop_
_atom_site_type_symbol
_atom_site_label
_atom_site_fract_x
_atom_site_fract_y
_atom_site_fract_z
Si Si1 0.115465 0.159611 0.919544
Si Si2 0.007523 0.159536 0.206652
Si Si3 0.106679 0.161366 0.504558
Si Si4 0.930653 0.340532 0.641894
Si Si5 0.717582 0.341178 0.214029
Si Si6 0.675504 0.840973 0.072264
Si Si7 0.723672 0.340172 0.632286
O O1 0.160816 0.261632 0.855503
O O2 0.230705 0.148288 0.914820
O O3 0.085156 0.000000 0.912904
O O4 0.000000 0.212690 0.000000
O O5 0.122844 0.147941 0.201848
O O6 0.054722 0.258875 0.141253
O O7 0.892374 0.213510 0.287246
O O8 0.975805 0.000000 0.200937
O O9 0.226350 0.239046 0.432985
O O10 0.000000 0.158597 0.500000
O O11 0.047772 0.251461 0.575242
O O12 0.131604 0.000000 0.509522
O O13 0.961652 0.500000 0.646907
O O14 0.853842 0.254535 0.715591
O O15 0.838357 0.351643 0.628026
O O16 0.741923 0.500000 0.224006
O O17 0.648966 0.000000 0.063957
O O18 0.750000 0.750000 0.000000
O O19 0.693278 0.500000 0.625754
#
# Coordination Sequence:
#
# PCOD9181039 Si02
#       7
#     8   8   8   8   8   8   8
#     4   9  19  36  55  73  96 130 169 204 241 290
#     4   9  19  36  54  72  99 133 166 202 245 292
#     4   9  17  30  49  74 103 130 160 204 252 291
#     4  10  19  32  52  75 100 131 167 204 242 292
#     4  10  20  34  52  74 102 132 162 202 250 294
#     4  10  20  34  53  75 100 130 164 203 246 293
#     4   9  18  33  53  75  98 129 168 205 243 290
#
# _framework density 21.807285
#
# number of rings (size 3 to 8) (size 9 to 14) (size 15 to 20)
#    0.000    2.571    0.000    1.714    0.000    5.429 
#    0.000    6.429    0.000    0.000    0.000    0.000 
#    0.000    0.000    0.000    0.000    0.000    0.000 
#
# Total GULP energy -156396.355450 kJ/mol
# GULP energy per Si atom -5585.584123 kJ/mol
# Density = 2.175765 g / cm^3
# Si number density = 21.807285 Si / 1000 Ang^3
#
#
#
# Elastic Constant Matrix: (Units=GPa)
#
#
# Indices 1 2 3 4 5 6 
#
# 1 41.3719 -0.5013 -1.9733 0.0000 -4.0771 0.0000
# 2 -0.5013 202.7221 151.8475 0.0000 8.3414 0.0000
# 3 -1.9733 151.8475 246.1789 0.0000 -13.9201 0.0000
# 4 0.0000 0.0000 0.0000 22.4812 0.0000 4.2399
# 5 -4.0771 8.3414 -13.9201 0.0000 25.0554 0.0000
# 6 0.0000 0.0000 0.0000 4.2399 0.0000 5.1053
#
#
#
# Elastic Compliance Matrix: (Units=1/GPa)
#
#
# Indices 1 2 3 4 5 6 
#
# 1 0.024693 -0.000924 0.001045 0.000000 0.004906 0.000000
# 2 -0.000924 0.010317 -0.006787 0.000000 -0.007356 0.000000
# 3 0.001045 -0.006787 0.008666 0.000000 0.007244 0.000000
# 4 0.000000 0.000000 0.000000 0.052742 0.000000 -0.043801
# 5 0.004906 -0.007356 0.007244 0.000000 0.047184 0.000000
# 6 0.000000 0.000000 0.000000 -0.043801 0.000000 0.232250
#
#
# Mechanical properties :
#
#
# Convention : Reuss Voigt Hill
#
# Bulk Modulus (GPa) = 32.95393 87.66877 60.31135
# Shear Modulus (GPa) = 12.52195 33.25507 22.88851
#
# Velocity S-wave (km/s) = 2.39887 3.90930 3.24324
# Velocity P-wave (km/s) = 4.77671 7.78882 6.46075
#
# Compressibility (1/GPa) = 0.03034540
#
# Stress axis : x y z
#
# Youngs Moduli (GPa) = 40.49712 96.92686 115.38694
#
# Poissons Ratio (x) = 0.08952 -0.12059
# Poissons Ratio (y) = 0.03740 0.78314
# Poissons Ratio (z) = -0.04232 0.65785
#
# Static dielectric constant tensor:
#      x y z
#    x 1.842640 0.000000 0.001390 
#    y 0.000000 1.796840 0.000000 
#    z 0.001390 0.000000 1.756110 
# 
# From -- ./inp_files/237851.got.cif
#   From: 2010.05.17/outbox.cif.g08.bks.cpg/sg12_119_cif.got.tgz:237851.got - 2010.06.03 13:09:07.
