data_PCOD9181961
_publ_section_title
;
Structure prediction by ZEFSAII (Michael W. Deem and Ramdas Pophale) SiO2 
 PCOD9181961
Probable space group: C 2/M
;
_chemical_formula_sum "Si O2"
_cell_formula_units_Z 52
_cell_length_a 20.003352
_cell_length_b 7.485283
_cell_length_c 18.853743
_cell_angle_alpha 90.000000
_cell_angle_beta 40.299229
_cell_angle_gamma 90.000000
_cell_volume 1825.848933
_symmetry_space_group_name_H-M "C 2/M"
_symmetry_group_IT_number 12
_symmetry_cell_setting 'monoclinic'
loop_
_space_group_symop_operation_xyz
x,y,z
-x,y,-z
-x,-y,-z
x,-y,z
1/2+x,1/2+y,z
1/2-x,1/2+y,-z
1/2-x,1/2-y,-z
1/2+x,1/2-y,z
loop_
_atom_site_type_symbol
_atom_site_label
_atom_site_fract_x
_atom_site_fract_y
_atom_site_fract_z
Si Si1 0.734768 0.500000 0.764536
Si Si2 0.987348 0.789925 0.090454
Si Si3 0.891823 0.285564 0.874385
Si Si4 0.220463 0.792878 0.170542
Si Si5 0.492122 0.288248 0.585243
Si Si6 0.779774 0.297925 0.334093
Si Si7 0.605416 0.213262 0.626892
O O1 0.708095 0.656255 0.845941
O O2 0.768332 0.656616 0.679672
O O3 0.895933 0.691441 0.205837
O O4 0.085529 0.771722 0.063157
O O5 0.950166 0.000000 0.117597
O O6 0.000000 0.725848 0.000000
O O7 0.887624 0.500000 0.875699
O O8 0.801250 0.215464 0.896219
O O9 0.997691 0.220926 0.749374
O O10 0.109734 0.720891 0.292041
O O11 0.240433 0.000000 0.172575
O O12 0.500000 0.215529 0.500000
O O13 0.476927 0.500000 0.592646
O O14 0.589968 0.258146 0.557076
O O15 0.737482 0.500000 0.366983
O O16 0.804680 0.224070 0.392973
O O17 0.607775 0.000000 0.631166
#
# Coordination Sequence:
#
# PCOD9181961 Si02
#       7
#     4   8   8   8   8   8   8
#     4  12  22  36  56  78 106 148 190 218 260 314
#     4  10  19  32  54  87 115 139 171 223 281 323
#     4   9  16  30  51  79 110 134 174 222 271 320
#     4  10  20  35  55  81 109 142 182 225 266 318
#     4   9  18  31  52  84 111 136 169 223 282 323
#     4  10  21  36  55  82 108 141 184 224 264 320
#     4   8  16  29  49  78 106 130 171 219 269 318
#
# _framework density 28.479901000000002
#
# number of rings (size 3 to 8) (size 9 to 14) (size 15 to 20)
#    0.000    2.462    1.538    2.308    2.154    3.385 
#    0.000    0.000    0.000    1.846    0.000    0.000 
#    0.000    0.000    0.000    0.000    0.000    0.000 
#
# Total GULP energy -145239.783584 kJ/mol
# GULP energy per Si atom -5586.145522 kJ/mol
# Density = 2.841508 g / cm^3
# Si number density = 28.479901 Si / 1000 Ang^3
#
#
#
# Elastic Constant Matrix: (Units=GPa)
#
#
# Indices 1 2 3 4 5 6 
#
# 1 113.4445 13.6968 97.0261 0.0026 45.1091 -0.0002
# 2 13.6968 180.9314 32.5932 0.0031 27.1120 -0.0007
# 3 97.0261 32.5932 135.8949 -0.0001 56.2259 0.0001
# 4 0.0026 0.0031 -0.0001 21.9743 -0.0009 21.4351
# 5 45.1091 27.1120 56.2259 -0.0009 68.2421 0.0001
# 6 -0.0002 -0.0007 0.0001 21.4351 0.0001 27.7475
#
#
#
# Elastic Compliance Matrix: (Units=1/GPa)
#
#
# Indices 1 2 3 4 5 6 
#
# 1 0.023312 0.001528 -0.015755 -0.000014 -0.003036 0.000011
# 2 0.001528 0.006018 -0.001710 -0.000005 -0.001992 0.000004
# 3 -0.015755 -0.001710 0.021889 0.000009 -0.006941 -0.000007
# 4 -0.000014 -0.000005 0.000009 0.184649 0.000007 -0.142642
# 5 -0.003036 -0.001992 -0.006941 0.000007 0.023171 -0.000005
# 6 0.000011 0.000004 -0.000007 -0.142642 -0.000005 0.146231
#
#
# Mechanical properties :
#
#
# Convention : Reuss Voigt Hill
#
# Bulk Modulus (GPa) = 51.69069 79.65588 65.67329
# Shear Modulus (GPa) = 11.27158 42.72309 26.99734
#
# Velocity S-wave (km/s) = 1.99156 3.87733 3.08221
# Velocity P-wave (km/s) = 4.84538 6.93360 5.98133
#
# Compressibility (1/GPa) = 0.01934584
#
# Stress axis : x y z
#
# Youngs Moduli (GPa) = 42.89562 166.17245 45.68412
#
# Poissons Ratio (x) = -0.25396 0.71975
# Poissons Ratio (y) = -0.06556 0.07814
# Poissons Ratio (z) = 0.67581 0.28422
#
# Static dielectric constant tensor:
#      x y z
#    x 108.043160 -0.000150 -23.750140 
#    y -0.000150 2.061540 0.000030 
#    z -23.750140 0.000030 7.624560 
# 
# From -- ./inp_files/280110.got.cif
#   From: 2010.05.17/outbox.cif.g08.bks.cpg/sg12_141_cif.got.tgz:280110.got - 2010.06.03 13:09:07.
