data_PCOD9181740
_publ_section_title
;
Structure prediction by ZEFSAII (Michael W. Deem and Ramdas Pophale) SiO2 
 PCOD9181740
Probable space group: C 2/M
;
_chemical_formula_sum "Si O2"
_cell_formula_units_Z 48
_cell_length_a 12.961485
_cell_length_b 13.864732
_cell_length_c 26.295511
_cell_angle_alpha 90.000000
_cell_angle_beta 149.775642
_cell_angle_gamma 90.000000
_cell_volume 2378.757301
_symmetry_space_group_name_H-M "C 2/M"
_symmetry_group_IT_number 12
_symmetry_cell_setting 'monoclinic'
loop_
_space_group_symop_operation_xyz
x,y,z
-x,y,-z
-x,-y,-z
x,-y,z
1/2+x,1/2+y,z
1/2-x,1/2+y,-z
1/2-x,1/2-y,-z
1/2+x,1/2-y,z
loop_
_atom_site_type_symbol
_atom_site_label
_atom_site_fract_x
_atom_site_fract_y
_atom_site_fract_z
Si Si1 0.705898 0.246560 0.675188
Si Si2 0.870322 0.614312 0.823677
Si Si3 0.890356 0.105736 0.507903
Si Si4 0.189703 0.609214 0.041250
Si Si5 0.572342 0.714794 0.774523
Si Si6 0.904431 0.390212 0.282499
O O1 0.842856 0.330085 0.759638
O O2 0.489856 0.300940 0.576380
O O3 0.690482 0.159500 0.708156
O O4 0.826303 0.214608 0.675894
O O5 0.871700 0.500000 0.818452
O O6 0.677762 0.645476 0.777547
O O7 0.079101 0.641614 0.942450
O O8 0.648722 0.111714 0.396372
O O9 0.000000 0.102927 0.500000
O O10 0.933635 0.000000 0.551322
O O11 0.273007 0.500000 0.070876
O O12 0.344104 0.679749 0.135382
O O13 0.000000 0.602497 0.000000
O O14 0.638497 0.820315 0.783347
O O15 0.839034 0.500000 0.247194
#
# Coordination Sequence:
#
# PCOD9181740 Si02
#       6
#     8   8   8   8   8   8
#     4  11  21  33  56  82 106 136 174 218 262 311
#     4   9  19  35  55  80 106 135 177 219 257 305
#     4  10  19  35  58  78 102 137 177 215 258 311
#     4   8  15  31  54  77 104 137 172 215 260 303
#     4  10  19  32  54  78 103 138 175 213 257 308
#     4  10  22  37  52  76 110 143 172 212 262 311
#
# _framework density 20.178604
#
# number of rings (size 3 to 8) (size 9 to 14) (size 15 to 20)
#    0.000    2.333    1.667    2.500    0.000    2.667 
#    0.000    0.000    0.000   14.000    0.000    0.000 
#    0.000    0.000    0.000    0.000    0.000    0.000 
#
# Total GULP energy -133752.670528 kJ/mol
# GULP energy per Si atom -5573.027939 kJ/mol
# Density = 2.013268 g / cm^3
# Si number density = 20.178604 Si / 1000 Ang^3
#
#
#
# Elastic Constant Matrix: (Units=GPa)
#
#
# Indices 1 2 3 4 5 6 
#
# 1 50.5716 15.1970 -10.2170 0.0000 11.1108 0.0000
# 2 15.1970 105.0625 25.4643 -0.0001 5.0063 -0.0001
# 3 -10.2170 25.4643 40.2587 0.0007 -3.7801 0.0010
# 4 0.0000 -0.0001 0.0007 28.6361 0.0001 -0.4157
# 5 11.1108 5.0063 -3.7801 0.0001 21.6713 0.0000
# 6 0.0000 -0.0001 0.0010 -0.4157 0.0000 9.2478
#
#
#
# Elastic Compliance Matrix: (Units=1/GPa)
#
#
# Indices 1 2 3 4 5 6 
#
# 1 0.025422 -0.005337 0.008865 0.000000 -0.010254 -0.000001
# 2 -0.005337 0.012696 -0.009560 0.000000 -0.001864 0.000001
# 3 0.008865 -0.009560 0.033465 -0.000001 0.003501 -0.000004
# 4 0.000000 0.000000 -0.000001 0.034944 0.000000 0.001571
# 5 -0.010254 -0.001864 0.003501 0.000000 0.052443 -0.000001
# 6 -0.000001 0.000001 -0.000004 0.001571 -0.000001 0.108204
#
#
# Mechanical properties :
#
#
# Convention : Reuss Voigt Hill
#
# Bulk Modulus (GPa) = 16.80186 28.53127 22.66657
# Shear Modulus (GPa) = 16.71811 22.94094 19.82952
#
# Velocity S-wave (km/s) = 2.88150 3.37544 3.13821
# Velocity P-wave (km/s) = 4.40629 5.41863 4.93847
#
# Compressibility (1/GPa) = 0.05951722
#
# Stress axis : x y z
#
# Youngs Moduli (GPa) = 39.33662 78.76472 29.88234
#
# Poissons Ratio (x) = 0.42037 -0.26489
# Poissons Ratio (y) = 0.20994 0.28567
# Poissons Ratio (z) = -0.34870 0.75299
#
# Static dielectric constant tensor:
#      x y z
#    x 1.712810 0.000000 0.006210 
#    y 0.000000 1.731340 0.000000 
#    z 0.006210 0.000000 1.771100 
# 
# From -- ./inp_files/245847.got.cif
#   From: 2010.05.17/outbox.cif.g08.bks.cpg/sg12_123_cif.got.tgz:245847.got - 2010.06.03 13:09:07.
