data_PCOD9181260
_publ_section_title
;
Structure prediction by ZEFSAII (Michael W. Deem and Ramdas Pophale) SiO2 
 PCOD9181260
Probable space group: C 2/M
;
_chemical_formula_sum "Si O2"
_cell_formula_units_Z 58
_cell_length_a 24.197189
_cell_length_b 7.456399
_cell_length_c 18.194036
_cell_angle_alpha 90.000000
_cell_angle_beta 56.576767
_cell_angle_gamma 90.000000
_cell_volume 2739.771073
_symmetry_space_group_name_H-M "C 2/M"
_symmetry_group_IT_number 12
_symmetry_cell_setting 'monoclinic'
loop_
_space_group_symop_operation_xyz
x,y,z
-x,y,-z
-x,-y,-z
x,-y,z
1/2+x,1/2+y,z
1/2-x,1/2+y,-z
1/2-x,1/2-y,-z
1/2+x,1/2-y,z
loop_
_atom_site_type_symbol
_atom_site_label
_atom_site_fract_x
_atom_site_fract_y
_atom_site_fract_z
Si Si1 0.671099 0.209658 0.815832
Si Si2 0.000000 0.000000 0.000000
Si Si3 0.839217 0.210706 0.497503
Si Si4 0.809921 0.283681 0.358585
Si Si5 0.579215 0.781037 0.017848
Si Si6 0.928530 0.295311 0.562883
Si Si7 0.679538 0.782021 0.243457
Si Si8 0.174943 0.286349 0.080742
O O1 0.664456 0.284711 0.738450
O O2 0.625345 0.279979 0.914675
O O3 0.747703 0.226387 0.783002
O O4 0.654601 0.000000 0.823922
O O5 0.984679 0.839463 0.949240
O O6 0.849092 0.236507 0.403551
O O7 0.765662 0.279733 0.572171
O O8 0.892407 0.297923 0.511105
O O9 0.840294 0.000000 0.512708
O O10 0.807413 0.500000 0.356547
O O11 0.569352 0.000000 0.024359
O O12 0.621099 0.730161 0.059748
O O13 0.940166 0.500000 0.580015
O O14 0.876650 0.217271 0.659233
O O15 0.000000 0.208784 0.500000
O O16 0.667164 0.718382 0.169453
O O17 0.680102 0.000000 0.243847
O O18 0.168156 0.500000 0.089230
O O19 0.250000 0.250000 0.000000
#
# Coordination Sequence:
#
# PCOD9181260 Si02
#       8
#     8   2   8   8   8   8   8   8
#     4  10  19  34  57  89 119 150 195 252 309 360
#     4  12  26  44  68  86 128 180 214 246 308 402
#     4  10  19  32  52  79 109 143 188 240 295 347
#     4   9  18  32  52  79 112 144 184 238 302 351
#     4  10  23  42  64  94 128 169 214 260 312 379
#     4  10  21  37  55  77 112 158 201 240 298 373
#     4  10  20  33  56  88 118 152 197 253 309 371
#     4  10  20  34  59  93 128 155 198 265 323 369
#
# _framework density 21.169651000000002
#
# number of rings (size 3 to 8) (size 9 to 14) (size 15 to 20)
#    0.000    2.069    2.759    0.621    1.931    1.379 
#    0.000    1.379    0.000    4.966    0.000    0.000 
#    0.000    0.000    0.000    0.000    0.000    0.000 
#
# Total GULP energy -161593.709944 kJ/mol
# GULP energy per Si atom -5572.196895 kJ/mol
# Density = 2.112147 g / cm^3
# Si number density = 21.169651 Si / 1000 Ang^3
#
#
#
# Elastic Constant Matrix: (Units=GPa)
#
#
# Indices 1 2 3 4 5 6 
#
# 1 102.7121 -2.0329 36.7915 0.0001 27.2729 -0.0005
# 2 -2.0329 76.6294 -6.2814 0.0053 5.4388 0.0011
# 3 36.7915 -6.2814 103.6858 -0.0001 28.9319 0.0000
# 4 0.0001 0.0053 -0.0001 4.4082 0.0000 0.6800
# 5 27.2729 5.4388 28.9319 0.0000 37.0489 0.0000
# 6 -0.0005 0.0011 0.0000 0.6800 0.0000 15.6233
#
#
#
# Elastic Compliance Matrix: (Units=1/GPa)
#
#
# Indices 1 2 3 4 5 6 
#
# 1 0.012585 0.000680 -0.002316 -0.000001 -0.007556 0.000000
# 2 0.000680 0.013466 0.001618 -0.000016 -0.003741 0.000000
# 3 -0.002316 0.001618 0.012984 -0.000002 -0.008672 0.000000
# 4 -0.000001 -0.000016 -0.000002 0.228385 0.000005 -0.009941
# 5 -0.007556 -0.003741 -0.008672 0.000005 0.039875 0.000000
# 6 0.000000 0.000000 0.000000 -0.009941 0.000000 0.064440
#
#
# Mechanical properties :
#
#
# Convention : Reuss Voigt Hill
#
# Bulk Modulus (GPa) = 25.64073 37.77574 31.70824
# Shear Modulus (GPa) = 12.99476 28.38607 20.69042
#
# Velocity S-wave (km/s) = 2.48027 3.66578 3.12967
# Velocity P-wave (km/s) = 4.51006 5.98334 5.29816
#
# Compressibility (1/GPa) = 0.03900044
#
# Stress axis : x y z
#
# Youngs Moduli (GPa) = 79.45779 74.26062 77.01630
#
# Poissons Ratio (x) = -0.05052 0.17839
# Poissons Ratio (y) = -0.05405 -0.12464
# Poissons Ratio (z) = 0.18405 -0.12018
#
# Static dielectric constant tensor:
#      x y z
#    x 1.737820 0.000000 -0.010150 
#    y 0.000000 1.802870 0.000000 
#    z -0.010150 0.000000 1.803120 
# 
# From -- ./inp_files/282156.got.cif
#   From: 2010.05.17/outbox.cif.g08.bks.cpg/sg12_142_cif.got.tgz:282156.got - 2010.06.03 13:09:07.
