data_PCOD9181660
_publ_section_title
;
Structure prediction by ZEFSAII (Michael W. Deem and Ramdas Pophale) SiO2 
 PCOD9181660
Probable space group: C 2/M
;
_chemical_formula_sum "Si O2"
_cell_formula_units_Z 56
_cell_length_a 26.148775
_cell_length_b 12.761372
_cell_length_c 13.351849
_cell_angle_alpha 90.000000
_cell_angle_beta 41.381985
_cell_angle_gamma 90.000000
_cell_volume 2945.381182
_symmetry_space_group_name_H-M "C 2/M"
_symmetry_group_IT_number 12
_symmetry_cell_setting 'monoclinic'
loop_
_space_group_symop_operation_xyz
x,y,z
-x,y,-z
-x,-y,-z
x,-y,z
1/2+x,1/2+y,z
1/2-x,1/2+y,-z
1/2-x,1/2-y,-z
1/2+x,1/2-y,z
loop_
_atom_site_type_symbol
_atom_site_label
_atom_site_fract_x
_atom_site_fract_y
_atom_site_fract_z
Si Si1 0.070930 0.880651 0.319420
Si Si2 0.966547 0.721134 0.798788
Si Si3 0.749213 0.877715 0.343545
Si Si4 0.674713 0.885957 0.063481
Si Si5 0.888583 0.375567 0.311929
Si Si6 0.294096 0.766527 0.793105
Si Si7 0.916394 0.217891 0.093410
O O1 0.042617 0.819930 0.261672
O O2 0.137261 0.812445 0.276260
O O3 0.000000 0.884845 0.500000
O O4 0.096423 0.000000 0.259873
O O5 0.051928 0.679773 0.698224
O O6 0.915858 0.630835 0.821236
O O7 0.928100 0.748248 0.961871
O O8 0.698066 0.860755 0.518374
O O9 0.714257 0.804946 0.307255
O O10 0.840003 0.851642 0.219896
O O11 0.740133 0.000000 0.329859
O O12 0.717690 0.795260 0.939327
O O13 0.699839 0.000000 0.993141
O O14 0.695554 0.865026 0.148084
O O15 0.904151 0.500000 0.282662
O O16 0.903124 0.318174 0.185147
O O17 0.000000 0.169301 0.000000
#
# Coordination Sequence:
#
# PCOD9181660 Si02
#       7
#     8   8   8   8   8   8   8
#     4  10  21  37  58  86 123 161 193 232 285 349
#     4  10  20  37  59  88 115 153 193 241 290 341
#     4  11  22  39  60  85 118 158 196 241 301 355
#     4  10  19  32  53  82 114 146 187 236 285 339
#     4  10  22  39  62  86 116 154 196 249 302 351
#     4  10  20  35  53  83 116 151 192 234 284 344
#     4  10  22  40  60  85 113 149 195 250 298 352
#
# _framework density 19.012819
#
# number of rings (size 3 to 8) (size 9 to 14) (size 15 to 20)
#    0.000    1.857    1.429    2.571    0.000    4.000 
#    0.000    2.143    0.000   15.429    0.000    0.000 
#    0.000    0.000    0.000    0.000    0.000    0.000 
#
# Total GULP energy -156165.950356 kJ/mol
# GULP energy per Si atom -5577.355370 kJ/mol
# Density = 1.896955 g / cm^3
# Si number density = 19.012819 Si / 1000 Ang^3
#
#
#
# Elastic Constant Matrix: (Units=GPa)
#
#
# Indices 1 2 3 4 5 6 
#
# 1 90.5626 40.3957 37.9278 0.0000 2.2325 0.0000
# 2 40.3957 96.2257 28.4105 0.0000 3.8148 0.0000
# 3 37.9278 28.4105 96.0502 0.0000 -4.0707 0.0000
# 4 0.0000 0.0000 0.0000 3.8657 0.0000 8.1011
# 5 2.2325 3.8148 -4.0707 0.0000 33.4971 0.0000
# 6 0.0000 0.0000 0.0000 8.1011 0.0000 14.5048
#
#
#
# Elastic Compliance Matrix: (Units=1/GPa)
#
#
# Indices 1 2 3 4 5 6 
#
# 1 0.015209 -0.004996 -0.004570 0.000000 -0.001000 0.000000
# 2 -0.004996 0.013126 -0.001969 0.000000 -0.001401 0.000000
# 3 -0.004570 -0.001969 0.012887 0.000000 0.002095 0.000000
# 4 0.000000 0.000000 0.000000 -1.517696 0.000000 0.847651
# 5 -0.001000 -0.001401 0.002095 0.000000 0.030334 0.000000
# 6 0.000000 0.000000 0.000000 0.847651 0.000000 -0.404480
#
#
# Mechanical properties :
#
#
# Convention : Reuss Voigt Hill
#
# Bulk Modulus (GPa) = 55.09079 55.14517 55.11798
# Shear Modulus (GPa) = -2.74499 22.11382 9.68441
#
# Velocity S-wave (km/s) = -1.20287 3.41413 2.25935
# Velocity P-wave (km/s) = 5.20666 6.67899 5.98825
#
# Compressibility (1/GPa) = 0.01815185
#
# Stress axis : x y z
#
# Youngs Moduli (GPa) = 65.74954 76.18198 77.59602
#
# Poissons Ratio (x) = 0.38059 0.35465
# Poissons Ratio (y) = 0.32847 0.15281
# Poissons Ratio (z) = 0.30050 0.15003
#
# Static dielectric constant tensor:
#      x y z
#    x 1.679480 0.000000 -0.033270 
#    y 0.000000 1.645610 0.000000 
#    z -0.033270 0.000000 1.676770 
# 
# From -- ./inp_files/223111.got.cif
#   From: 2010.05.17/outbox.cif.g08.bks.cpg/sg12_112_cif.got.tgz:223111.got - 2010.06.03 13:09:07.
