data_PCOD9181776
_publ_section_title
;
Structure prediction by ZEFSAII (Michael W. Deem and Ramdas Pophale) SiO2 
 PCOD9181776
Probable space group: C 2/M
;
_chemical_formula_sum "Si O2"
_cell_formula_units_Z 64
_cell_length_a 20.059735
_cell_length_b 9.702572
_cell_length_c 17.548453
_cell_angle_alpha 90.000000
_cell_angle_beta 65.478067
_cell_angle_gamma 90.000000
_cell_volume 3107.406061
_symmetry_space_group_name_H-M "C 2/M"
_symmetry_group_IT_number 12
_symmetry_cell_setting 'monoclinic'
loop_
_space_group_symop_operation_xyz
x,y,z
-x,y,-z
-x,-y,-z
x,-y,z
1/2+x,1/2+y,z
1/2-x,1/2+y,-z
1/2-x,1/2-y,-z
1/2+x,1/2-y,z
loop_
_atom_site_type_symbol
_atom_site_label
_atom_site_fract_x
_atom_site_fract_y
_atom_site_fract_z
Si Si1 0.448772 0.155774 0.211345
Si Si2 0.191474 0.157584 0.986553
Si Si3 0.889787 0.161285 0.674350
Si Si4 0.332253 0.157640 0.405688
Si Si5 0.350616 0.659148 0.161973
Si Si6 0.474859 0.157212 0.424367
Si Si7 0.918523 0.845855 0.824402
Si Si8 0.269893 0.161199 0.645356
O O1 0.389117 0.156924 0.307413
O O2 0.415597 0.245682 0.159656
O O3 0.521545 0.228476 0.204880
O O4 0.461933 0.000000 0.181949
O O5 0.122369 0.158740 0.075917
O O6 0.217892 0.000000 0.968527
O O7 0.250000 0.250000 0.000000
O O8 0.175634 0.204408 0.908542
O O9 0.971145 0.226650 0.633855
O O10 0.866956 0.171093 0.774441
O O11 0.838163 0.250887 0.644232
O O12 0.889381 0.000000 0.652835
O O13 0.389135 0.188519 0.447939
O O14 0.270298 0.265616 0.407649
O O15 0.303916 0.000000 0.427151
O O16 0.374486 0.500000 0.144741
O O17 0.287535 0.664418 0.256432
O O18 0.500000 0.151933 0.500000
O O19 0.486957 0.000000 0.387781
O O20 0.951611 0.000000 0.799853
O O21 0.287698 0.000000 0.622303
#
# Coordination Sequence:
#
# PCOD9181776 Si02
#       8
#     8   8   8   8   8   8   8   8
#     4  10  19  32  54  80 105 139 181 228 274 323
#     4  10  21  36  52  72 102 142 184 228 280 329
#     4  11  22  36  57  85 116 147 185 232 276 329
#     4   9  18  35  57  83 113 144 181 224 274 329
#     4   9  19  35  53  75 107 145 184 229 280 329
#     4  10  21  39  63  88 115 146 180 224 278 334
#     4  10  21  35  53  77 107 144 183 225 275 329
#     4  10  20  34  57  84 111 148 191 232 275 326
#
# _framework density 20.595956000000001
#
# number of rings (size 3 to 8) (size 9 to 14) (size 15 to 20)
#    0.000    2.125    1.250    1.875    0.000    3.750 
#    0.000    3.125    0.000    0.000    0.000    0.000 
#    0.000    0.000    0.000    0.000    0.000    0.000 
#
# Total GULP energy -178617.181335 kJ/mol
# GULP energy per Si atom -5581.786917 kJ/mol
# Density = 2.054908 g / cm^3
# Si number density = 20.595956 Si / 1000 Ang^3
#
#
#
# Elastic Constant Matrix: (Units=GPa)
#
#
# Indices 1 2 3 4 5 6 
#
# 1 107.4453 83.6009 25.9747 0.0000 36.7039 0.0000
# 2 83.6009 130.0758 37.6761 0.0000 25.8373 0.0000
# 3 25.9747 37.6761 98.5533 0.0000 36.2513 0.0000
# 4 0.0000 0.0000 0.0000 21.7065 0.0000 6.4565
# 5 36.7039 25.8373 36.2513 0.0000 38.2916 0.0000
# 6 0.0000 0.0000 0.0000 6.4565 0.0000 41.0873
#
#
#
# Elastic Compliance Matrix: (Units=1/GPa)
#
#
# Indices 1 2 3 4 5 6 
#
# 1 0.026587 -0.014667 0.006649 0.000000 -0.021883 0.000000
# 2 -0.014667 0.017188 -0.005540 0.000000 0.007705 0.000000
# 3 0.006649 -0.005540 0.017616 0.000000 -0.019313 0.000000
# 4 0.000000 0.000000 0.000000 0.048328 0.000000 -0.007594
# 5 -0.021883 0.007705 -0.019313 0.000000 0.060176 0.000000
# 6 0.000000 0.000000 0.000000 -0.007594 0.000000 0.025532
#
#
# Mechanical properties :
#
#
# Convention : Reuss Voigt Hill
#
# Bulk Modulus (GPa) = 29.17459 70.06421 49.61940
# Shear Modulus (GPa) = 21.37047 32.80525 27.08786
#
# Velocity S-wave (km/s) = 3.22468 3.99532 3.63051
# Velocity P-wave (km/s) = 5.29724 7.44149 6.45896
#
# Compressibility (1/GPa) = 0.03427640
#
# Stress axis : x y z
#
# Youngs Moduli (GPa) = 37.61231 58.17868 56.76620
#
# Poissons Ratio (x) = 0.85330 -0.37744
# Poissons Ratio (y) = 0.55166 0.31447
# Poissons Ratio (z) = -0.25009 0.32229
#
# Static dielectric constant tensor:
#      x y z
#    x 1.721960 0.000000 -0.010160 
#    y 0.000000 1.709910 0.000000 
#    z -0.010160 0.000000 1.803930 
# 
# From -- ./inp_files/281342.got.cif
#   From: 2010.05.17/outbox.cif.g08.bks.cpg/sg12_141_cif.got.tgz:281342.got - 2010.06.03 13:09:07.
