data_PCOD9181148
_publ_section_title
;
Structure prediction by ZEFSAII (Michael W. Deem and Ramdas Pophale) SiO2 
 PCOD9181148
Probable space group: C 2/M
;
_chemical_formula_sum "Si O2"
_cell_formula_units_Z 64
_cell_length_a 20.548653
_cell_length_b 9.088161
_cell_length_c 20.746870
_cell_angle_alpha 90.000000
_cell_angle_beta 96.669766
_cell_angle_gamma 90.000000
_cell_volume 3848.244814
_symmetry_space_group_name_H-M "C 2/M"
_symmetry_group_IT_number 12
_symmetry_cell_setting 'monoclinic'
loop_
_space_group_symop_operation_xyz
x,y,z
-x,y,-z
-x,-y,-z
x,-y,z
1/2+x,1/2+y,z
1/2-x,1/2+y,-z
1/2-x,1/2-y,-z
1/2+x,1/2-y,z
loop_
_atom_site_type_symbol
_atom_site_label
_atom_site_fract_x
_atom_site_fract_y
_atom_site_fract_z
Si Si1 0.697553 0.677067 0.946181
Si Si2 0.443963 0.320881 0.542575
Si Si3 0.164039 0.823991 0.677218
Si Si4 0.317069 0.169144 0.189488
Si Si5 0.455460 0.676718 0.055184
Si Si6 0.490699 0.324123 0.320169
Si Si7 0.193534 0.822131 0.535248
Si Si8 0.025134 0.332207 0.811404
O O1 0.703307 0.500000 0.947449
O O2 0.707677 0.739055 0.874872
O O3 0.622125 0.715529 0.957632
O O4 0.750000 0.750000 0.000000
O O5 0.500000 0.271112 0.500000
O O6 0.445757 0.500000 0.543368
O O7 0.462567 0.273723 0.616606
O O8 0.374535 0.277546 0.506175
O O9 0.194837 0.742321 0.742291
O O10 0.191785 0.780011 0.610614
O O11 0.085297 0.796319 0.668656
O O12 0.172092 0.000000 0.685974
O O13 0.396190 0.168422 0.191056
O O14 0.294361 0.000000 0.184370
O O15 0.458087 0.500000 0.060305
O O16 0.484223 0.745922 0.123504
O O17 0.500000 0.722866 0.000000
O O18 0.496612 0.500000 0.312888
O O19 0.504384 0.246008 0.254384
O O20 0.250000 0.750000 0.500000
O O21 0.197930 0.000000 0.533825
O O22 0.003239 0.500000 0.814319
#
# Coordination Sequence:
#
# PCOD9181148 Si02
#       8
#     8   8   8   8   8   8   8   8
#     4  10  19  32  52  77 104 131 162 203 247 289
#     4   9  15  28  51  76  95 120 165 210 242 281
#     4   9  16  28  48  72  95 123 161 206 249 289
#     4   9  17  29  47  72 100 128 162 203 244 291
#     4   9  18  33  53  75  99 130 168 203 234 281
#     4   9  15  26  49  74  94 119 160 211 249 280
#     4  10  20  33  50  72 100 131 164 201 246 298
#     4   9  17  28  44  71 104 131 157 195 246 296
#
# _framework density 16.630956999999999
#
# number of rings (size 3 to 8) (size 9 to 14) (size 15 to 20)
#    0.000    2.750    1.250    1.125    0.000    4.250 
#    0.000    0.625    2.750    0.750    0.000    0.000 
#    0.000    0.000    0.000    0.000    0.000    0.000 
#
# Total GULP energy -178279.260999 kJ/mol
# GULP energy per Si atom -5571.226906 kJ/mol
# Density = 1.659310 g / cm^3
# Si number density = 16.630957 Si / 1000 Ang^3
#
#
#
# Elastic Constant Matrix: (Units=GPa)
#
#
# Indices 1 2 3 4 5 6 
#
# 1 70.5933 31.8824 71.1232 0.0000 -0.7802 0.0000
# 2 31.8824 42.1330 61.7437 0.0000 1.8871 0.0000
# 3 71.1232 61.7437 197.6834 0.0000 2.3869 0.0000
# 4 0.0000 0.0000 0.0000 22.9689 0.0000 -0.4185
# 5 -0.7802 1.8871 2.3869 0.0000 26.9899 0.0000
# 6 0.0000 0.0000 0.0000 -0.4185 0.0000 17.1139
#
#
#
# Elastic Compliance Matrix: (Units=1/GPa)
#
#
# Indices 1 2 3 4 5 6 
#
# 1 0.024542 -0.010482 -0.005579 0.000000 0.001936 0.000000
# 2 -0.010482 0.048336 -0.011294 0.000000 -0.002684 0.000000
# 3 -0.005579 -0.011294 0.010597 0.000000 -0.000309 0.000000
# 4 0.000000 0.000000 0.000000 0.043557 0.000000 0.001065
# 5 0.001936 -0.002684 -0.000309 0.000000 0.037322 0.000000
# 6 0.000000 0.000000 0.000000 0.001065 0.000000 0.058458
#
#
# Mechanical properties :
#
#
# Convention : Reuss Voigt Hill
#
# Bulk Modulus (GPa) = 34.76289 71.10091 52.93190
# Shear Modulus (GPa) = 17.41488 23.12522 20.27005
#
# Velocity S-wave (km/s) = 3.23946 3.73298 3.49494
# Velocity P-wave (km/s) = 5.91101 7.83742 6.94137
#
# Compressibility (1/GPa) = 0.02876631
#
# Stress axis : x y z
#
# Youngs Moduli (GPa) = 40.74607 20.68831 94.36482
#
# Poissons Ratio (x) = 0.21685 0.52651
# Poissons Ratio (y) = 0.42708 1.06573
# Poissons Ratio (z) = 0.22734 0.23365
#
# Static dielectric constant tensor:
#      x y z
#    x 1.555350 0.000000 0.006290 
#    y 0.000000 1.560090 0.000000 
#    z 0.006290 0.000000 1.556030 
# 
# From -- ./inp_files/314059.got.cif
#   From: 2010.05.17/outbox.cif.g08.bks.cpg/sg12_158_cif.got.tgz:314059.got - 2010.06.03 13:09:07.
