data_PCOD9181746
_publ_section_title
;
Structure prediction by ZEFSAII (Michael W. Deem and Ramdas Pophale) SiO2 
 PCOD9181746
Probable space group: C 2/M
;
_chemical_formula_sum "Si O2"
_cell_formula_units_Z 56
_cell_length_a 10.068376
_cell_length_b 16.230945
_cell_length_c 26.259899
_cell_angle_alpha 90.000000
_cell_angle_beta 46.695733
_cell_angle_gamma 90.000000
_cell_volume 3122.925307
_symmetry_space_group_name_H-M "C 2/M"
_symmetry_group_IT_number 12
_symmetry_cell_setting 'monoclinic'
loop_
_space_group_symop_operation_xyz
x,y,z
-x,y,-z
-x,-y,-z
x,-y,z
1/2+x,1/2+y,z
1/2-x,1/2+y,-z
1/2-x,1/2-y,-z
1/2+x,1/2-y,z
loop_
_atom_site_type_symbol
_atom_site_label
_atom_site_fract_x
_atom_site_fract_y
_atom_site_fract_z
Si Si1 0.197141 0.592682 0.369478
Si Si2 0.731208 0.825276 0.779460
Si Si3 0.529766 0.903990 0.075044
Si Si4 0.052182 0.826053 0.775688
Si Si5 0.702284 0.595711 0.077977
Si Si6 0.034699 0.755048 0.550102
Si Si7 0.476137 0.591923 0.636968
O O1 0.118762 0.500000 0.389341
O O2 0.326224 0.607393 0.286366
O O3 0.332558 0.598829 0.382538
O O4 0.057975 0.668615 0.409162
O O5 0.550363 0.854878 0.856491
O O6 0.678282 0.750017 0.757438
O O7 0.887231 0.803533 0.780184
O O8 0.820677 0.895315 0.720719
O O9 0.365974 0.902851 0.076527
O O10 0.559147 0.000000 0.080618
O O11 0.708900 0.872542 0.998014
O O12 0.962366 0.858332 0.851502
O O13 0.654369 0.500000 0.082819
O O14 0.250000 0.750000 0.500000
O O15 0.963876 0.832963 0.601027
O O16 0.000000 0.768219 0.500000
O O17 0.464255 0.500000 0.617974
#
# Coordination Sequence:
#
# PCOD9181746 Si02
#       7
#     8   8   8   8   8   8   8
#     4  10  21  39  63  86 111 151 193 225 272 337
#     4  10  19  32  54  78 108 144 183 225 273 321
#     4   8  14  26  46  74 104 137 181 229 268 309
#     4  10  19  32  54  79 108 143 182 227 272 321
#     4   8  14  26  46  74 105 136 180 231 267 307
#     4  12  24  40  63  87 117 144 180 231 285 337
#     4  10  21  39  62  86 113 149 191 229 275 332
#
# _framework density 17.931905
#
# number of rings (size 3 to 8) (size 9 to 14) (size 15 to 20)
#    0.000    2.286    2.857    1.714    0.000    5.143 
#    0.000    0.000    0.000    2.571    0.000    2.000 
#    0.000    0.000    0.000    0.000    0.000    0.000 
#
# Total GULP energy -156007.284044 kJ/mol
# GULP energy per Si atom -5571.688716 kJ/mol
# Density = 1.789109 g / cm^3
# Si number density = 17.931905 Si / 1000 Ang^3
#
#
#
# Elastic Constant Matrix: (Units=GPa)
#
#
# Indices 1 2 3 4 5 6 
#
# 1 43.0098 33.1224 31.7887 0.0001 0.9722 0.0000
# 2 33.1224 127.9535 53.5199 0.0001 1.4074 -0.0001
# 3 31.7887 53.5199 102.8231 0.0004 2.4412 -0.0002
# 4 0.0001 0.0001 0.0004 23.6767 -0.0002 -0.3418
# 5 0.9722 1.4074 2.4412 -0.0002 19.4249 0.0000
# 6 0.0000 -0.0001 -0.0002 -0.3418 0.0000 19.9814
#
#
#
# Elastic Compliance Matrix: (Units=1/GPa)
#
#
# Indices 1 2 3 4 5 6 
#
# 1 0.032857 -0.005441 -0.007318 0.000000 -0.000331 0.000000
# 2 -0.005441 0.010891 -0.003987 0.000000 -0.000016 0.000000
# 3 -0.007318 -0.003987 0.014089 0.000000 -0.001116 0.000000
# 4 0.000000 0.000000 0.000000 0.042246 0.000000 0.000723
# 5 -0.000331 -0.000016 -0.001116 0.000000 0.051638 0.000000
# 6 0.000000 0.000000 0.000000 0.000723 0.000000 0.050059
#
#
# Mechanical properties :
#
#
# Convention : Reuss Voigt Hill
#
# Bulk Modulus (GPa) = 41.07344 56.73871 48.90607
# Shear Modulus (GPa) = 20.54335 22.97363 21.75849
#
# Velocity S-wave (km/s) = 3.38839 3.58321 3.48716
# Velocity P-wave (km/s) = 6.18573 6.98778 6.59895
#
# Compressibility (1/GPa) = 0.02434663
#
# Stress axis : x y z
#
# Youngs Moduli (GPa) = 30.43500 91.81539 70.97509
#
# Poissons Ratio (x) = 0.49955 0.51941
# Poissons Ratio (y) = 0.16559 0.28295
# Poissons Ratio (z) = 0.22273 0.36603
#
# Static dielectric constant tensor:
#      x y z
#    x 1.571570 0.000000 -0.004150 
#    y 0.000000 1.609820 0.000000 
#    z -0.004150 0.000000 1.654780 
# 
# From -- ./inp_files/358186.got.cif
#   From: 2010.05.17/outbox.cif.g08.bks.cpg/sg12_180_cif.got.tgz:358186.got - 2010.06.03 13:09:07.
