data_PCOD9181090
_publ_section_title
;
Structure prediction by ZEFSAII (Michael W. Deem and Ramdas Pophale) SiO2 
 PCOD9181090
Probable space group: C 2/M
;
_chemical_formula_sum "Si O2"
_cell_formula_units_Z 56
_cell_length_a 14.470556
_cell_length_b 9.418887
_cell_length_c 26.361012
_cell_angle_alpha 90.000000
_cell_angle_beta 135.211470
_cell_angle_gamma 90.000000
_cell_volume 2531.180059
_symmetry_space_group_name_H-M "C 2/M"
_symmetry_group_IT_number 12
_symmetry_cell_setting 'monoclinic'
loop_
_space_group_symop_operation_xyz
x,y,z
-x,y,-z
-x,-y,-z
x,-y,z
1/2+x,1/2+y,z
1/2-x,1/2+y,-z
1/2-x,1/2-y,-z
1/2+x,1/2-y,z
loop_
_atom_site_type_symbol
_atom_site_label
_atom_site_fract_x
_atom_site_fract_y
_atom_site_fract_z
Si Si1 0.332974 0.339622 0.572138
Si Si2 0.877757 0.660119 0.420163
Si Si3 0.024023 0.661233 0.124909
Si Si4 0.519567 0.160916 0.707475
Si Si5 0.191058 0.660437 0.284280
Si Si6 0.227458 0.839408 0.851721
Si Si7 0.627724 0.336632 0.011913
O O1 0.363272 0.500000 0.566566
O O2 0.250000 0.250000 0.500000
O O3 0.239678 0.351606 0.584965
O O4 0.458597 0.249372 0.637664
O O5 0.915964 0.500000 0.418871
O O6 0.815938 0.749528 0.350406
O O7 0.000000 0.721861 0.500000
O O8 0.978242 0.500000 0.118652
O O9 0.099428 0.720207 0.203658
O O10 0.137140 0.649084 0.126491
O O11 0.915811 0.758359 0.056391
O O12 0.403519 0.149897 0.703924
O O13 0.631376 0.250838 0.778490
O O14 0.560141 0.000000 0.710273
O O15 0.229830 0.500000 0.283824
O O16 0.179768 0.000000 0.843133
O O17 0.261188 0.750921 0.915100
O O18 0.663775 0.500000 0.017571
O O19 0.500000 0.337654 0.000000
#
# Coordination Sequence:
#
# PCOD9181090 Si02
#       7
#     8   8   8   8   8   8   8
#     4  10  20  35  54  75 101 132 166 204 247 295
#     4   9  19  35  53  74 100 130 164 203 247 293
#     4   9  18  33  52  75 101 129 165 207 250 295
#     4  10  20  35  53  73 101 134 167 204 246 294
#     4   9  19  35  53  73  99 132 166 202 246 294
#     4  10  19  32  52  76 102 132 166 206 250 295
#     4   9  17  30  49  74 102 131 165 205 249 294
#
# _framework density 22.124068000000001
#
# number of rings (size 3 to 8) (size 9 to 14) (size 15 to 20)
#    0.000    2.571    0.000    1.714    0.000    5.429 
#    0.000    3.571    0.000    0.000    0.000    0.000 
#    0.000    0.000    0.000    0.000    0.000    0.000 
#
# Total GULP energy -156399.352826 kJ/mol
# GULP energy per Si atom -5585.691172 kJ/mol
# Density = 2.207371 g / cm^3
# Si number density = 22.124068 Si / 1000 Ang^3
#
#
#
# Elastic Constant Matrix: (Units=GPa)
#
#
# Indices 1 2 3 4 5 6 
#
# 1 42.6405 1.0269 -4.2228 0.0000 1.3859 0.0000
# 2 1.0269 193.3744 134.4670 0.0000 8.6968 0.0000
# 3 -4.2228 134.4670 235.3042 0.0000 4.0485 0.0000
# 4 0.0000 0.0000 0.0000 33.6103 0.0000 1.5284
# 5 1.3859 8.6968 4.0485 0.0000 29.7868 0.0000
# 6 0.0000 0.0000 0.0000 1.5284 0.0000 5.6509
#
#
#
# Elastic Compliance Matrix: (Units=1/GPa)
#
#
# Indices 1 2 3 4 5 6 
#
# 1 0.023580 -0.000640 0.000807 0.000000 -0.001020 0.000000
# 2 -0.000640 0.008701 -0.004952 0.000000 -0.001838 0.000000
# 3 0.000807 -0.004952 0.007087 0.000000 0.000445 0.000000
# 4 0.000000 0.000000 0.000000 0.030123 0.000000 -0.008148
# 5 -0.001020 -0.001838 0.000445 0.000000 0.034095 0.000000
# 6 0.000000 0.000000 0.000000 -0.008148 0.000000 0.179168
#
#
# Mechanical properties :
#
#
# Convention : Reuss Voigt Hill
#
# Bulk Modulus (GPa) = 33.56119 81.54015 57.55067
# Shear Modulus (GPa) = 16.54216 36.47945 26.51080
#
# Velocity S-wave (km/s) = 2.73738 4.06502 3.46537
# Velocity P-wave (km/s) = 5.01931 7.67909 6.48698
#
# Compressibility (1/GPa) = 0.02979632
#
# Stress axis : x y z
#
# Youngs Moduli (GPa) = 42.40821 114.93059 141.11213
#
# Poissons Ratio (x) = 0.07358 -0.11382
# Poissons Ratio (y) = 0.02715 0.69880
# Poissons Ratio (z) = -0.03421 0.56915
#
# Static dielectric constant tensor:
#      x y z
#    x 1.861000 0.000000 0.000610 
#    y 0.000000 1.808470 0.000000 
#    z 0.000610 0.000000 1.785620 
# 
# From -- ./inp_files/237847.got.cif
#   From: 2010.05.17/outbox.cif.g08.bks.cpg/sg12_119_cif.got.tgz:237847.got - 2010.06.03 13:09:07.
