data_PCOD9181613
_publ_section_title
;
Structure prediction by ZEFSAII (Michael W. Deem and Ramdas Pophale) SiO2 
 PCOD9181613
Probable space group: C 2/M
;
_chemical_formula_sum "Si O2"
_cell_formula_units_Z 64
_cell_length_a 23.895388
_cell_length_b 8.672275
_cell_length_c 20.153801
_cell_angle_alpha 90.000000
_cell_angle_beta 121.036553
_cell_angle_gamma 90.000000
_cell_volume 3578.517044
_symmetry_space_group_name_H-M "C 2/M"
_symmetry_group_IT_number 12
_symmetry_cell_setting 'monoclinic'
loop_
_space_group_symop_operation_xyz
x,y,z
-x,y,-z
-x,-y,-z
x,-y,z
1/2+x,1/2+y,z
1/2-x,1/2+y,-z
1/2-x,1/2-y,-z
1/2+x,1/2-y,z
loop_
_atom_site_type_symbol
_atom_site_label
_atom_site_fract_x
_atom_site_fract_y
_atom_site_fract_z
Si Si1 0.039075 0.683064 0.930055
Si Si2 0.112927 0.314035 0.466876
Si Si3 0.514903 0.683293 0.778543
Si Si4 0.345224 0.184236 0.364550
Si Si5 0.095000 0.183439 0.093199
Si Si6 0.967854 0.815903 0.362487
Si Si7 0.209501 0.684284 0.250127
Si Si8 0.370367 0.185759 0.670191
O O1 0.042536 0.500000 0.939277
O O2 0.049654 0.733840 0.860978
O O3 0.966166 0.738966 0.905877
O O4 0.086671 0.762824 0.012186
O O5 0.106912 0.500000 0.464567
O O6 0.151527 0.266475 0.556118
O O7 0.144123 0.270487 0.414952
O O8 0.040149 0.244214 0.424165
O O9 0.516353 0.500000 0.789865
O O10 0.542399 0.717437 0.722118
O O11 0.439793 0.739471 0.730690
O O12 0.412647 0.235494 0.372077
O O13 0.283642 0.260984 0.291472
O O14 0.338981 0.000000 0.357924
O O15 0.161478 0.239364 0.167447
O O16 0.088338 0.000000 0.093886
O O17 0.965631 0.000000 0.370590
O O18 0.205272 0.500000 0.241339
O O19 0.181854 0.729520 0.306153
O O20 0.377953 0.000000 0.677258
#
# Coordination Sequence:
#
# PCOD9181613 Si02
#       8
#     8   8   8   8   8   8   8   8
#     4  11  20  32  53  82 113 143 177 215 262 317
#     4   9  19  36  56  79 106 138 179 227 276 323
#     4  10  19  32  53  81 110 139 175 223 272 318
#     4  11  23  37  54  76 105 145 187 225 270 324
#     4  11  21  34  53  79 112 145 178 218 261 313
#     4  10  21  36  56  81 107 137 180 231 276 318
#     4  11  22  36  54  77 109 146 183 222 266 323
#     4   9  18  33  53  76 106 142 177 218 271 324
#
# _framework density 17.884504
#
# number of rings (size 3 to 8) (size 9 to 14) (size 15 to 20)
#    0.000    1.750    1.250    4.875    0.000    5.000 
#    0.000    0.000    0.000    0.750    0.000    0.000 
#    0.000    0.000    0.000    0.000    0.000    0.000 
#
# Total GULP energy -178710.393796 kJ/mol
# GULP energy per Si atom -5584.699806 kJ/mol
# Density = 1.784380 g / cm^3
# Si number density = 17.884504 Si / 1000 Ang^3
#
#
#
# Elastic Constant Matrix: (Units=GPa)
#
#
# Indices 1 2 3 4 5 6 
#
# 1 5.8690 -1.0722 5.5901 0.0000 0.2595 0.0000
# 2 -1.0722 41.5150 17.5872 0.0000 -3.4813 0.0000
# 3 5.5901 17.5872 102.1658 0.0000 -0.9093 0.0000
# 4 0.0000 0.0000 0.0000 27.0553 0.0000 0.2261
# 5 0.2595 -3.4813 -0.9093 0.0000 19.5318 0.0000
# 6 0.0000 0.0000 0.0000 0.2261 0.0000 24.0501
#
#
#
# Elastic Compliance Matrix: (Units=1/GPa)
#
#
# Indices 1 2 3 4 5 6 
#
# 1 0.183329 0.009581 -0.011692 0.000000 -0.001272 0.000000
# 2 0.009581 0.026871 -0.005111 0.000000 0.004424 0.000000
# 3 -0.011692 -0.005111 0.011305 0.000000 -0.000229 0.000000
# 4 0.000000 0.000000 0.000000 0.036964 0.000000 -0.000347
# 5 -0.001272 0.004424 -0.000229 0.000000 0.051993 0.000000
# 6 0.000000 0.000000 0.000000 -0.000347 0.000000 0.041583
#
#
# Mechanical properties :
#
#
# Convention : Reuss Voigt Hill
#
# Bulk Modulus (GPa) = 4.82944 21.52890 13.17917
# Shear Modulus (GPa) = 11.48082 22.62376 17.05229
#
# Velocity S-wave (km/s) = 2.53641 3.56053 3.09118
# Velocity P-wave (km/s) = 3.35917 5.38211 4.48615
#
# Compressibility (1/GPa) = 0.20706327
#
# Stress axis : x y z
#
# Youngs Moduli (GPa) = 5.45469 37.21460 88.45290
#
# Poissons Ratio (x) = -0.35657 1.03417
# Poissons Ratio (y) = -0.05226 0.45205
# Poissons Ratio (z) = 0.06377 0.19019
#
# Static dielectric constant tensor:
#      x y z
#    x 1.589330 0.000000 -0.039340 
#    y 0.000000 1.595980 0.000000 
#    z -0.039340 0.000000 1.618650 
# 
# From -- ./inp_files/324312.got.cif
#   From: 2010.05.17/outbox.cif.g08.bks.cpg/sg12_163_cif.got.tgz:324312.got - 2010.06.03 13:09:07.
