data_PCOD9181629
_publ_section_title
;
Structure prediction by ZEFSAII (Michael W. Deem and Ramdas Pophale) SiO2 
 PCOD9181629
Probable space group: C 2/M
;
_chemical_formula_sum "Si O2"
_cell_formula_units_Z 64
_cell_length_a 24.521713
_cell_length_b 18.477179
_cell_length_c 14.911945
_cell_angle_alpha 90.000000
_cell_angle_beta 152.058135
_cell_angle_gamma 90.000000
_cell_volume 3165.922556
_symmetry_space_group_name_H-M "C 2/M"
_symmetry_group_IT_number 12
_symmetry_cell_setting 'monoclinic'
loop_
_space_group_symop_operation_xyz
x,y,z
-x,y,-z
-x,-y,-z
x,-y,z
1/2+x,1/2+y,z
1/2-x,1/2+y,-z
1/2-x,1/2-y,-z
1/2+x,1/2-y,z
loop_
_atom_site_type_symbol
_atom_site_label
_atom_site_fract_x
_atom_site_fract_y
_atom_site_fract_z
Si Si1 0.961372 0.833516 0.206742
Si Si2 0.700674 0.582504 0.558433
Si Si3 0.642475 0.198518 0.870546
Si Si4 0.605017 0.709919 0.089173
Si Si5 0.405369 0.085811 0.721532
Si Si6 0.774706 0.583711 0.352872
Si Si7 0.783527 0.585244 0.154034
Si Si8 0.157903 0.646848 0.093049
O O1 0.956402 0.758761 0.255912
O O2 0.081925 0.873995 0.391302
O O3 0.946231 0.810884 0.081668
O O4 0.847683 0.884844 0.057861
O O5 0.673709 0.500000 0.494670
O O6 0.795819 0.608916 0.623368
O O7 0.763045 0.587464 0.745419
O O8 0.631887 0.136710 0.780542
O O9 0.750000 0.250000 0.000000
O O10 0.670880 0.160239 0.006495
O O11 0.674535 0.641473 0.227452
O O12 0.685713 0.778475 0.185312
O O13 0.500000 0.730054 0.000000
O O14 0.374417 0.094933 0.571530
O O15 0.423077 0.000000 0.764256
O O16 0.523407 0.127063 0.914354
O O17 0.735462 0.500000 0.305783
O O18 0.805104 0.593911 0.292169
O O19 0.793365 0.500000 0.147019
#
# Coordination Sequence:
#
# PCOD9181629 Si02
#       8
#     8   8   8   8   8   8   8   8
#     4   9  19  35  55  85 118 150 191 234 281 343
#     4  11  22  37  59  86 119 157 190 228 283 342
#     4   9  20  40  59  79 111 152 192 236 290 338
#     4  10  19  32  53  81 113 147 183 229 285 340
#     4  10  21  38  58  83 118 155 191 232 281 342
#     4   9  19  35  57  84 111 142 184 234 284 337
#     4   9  17  34  60  86 113 145 187 241 294 340
#     4  11  23  38  56  82 115 153 199 239 276 336
#
# _framework density 20.215277
#
# number of rings (size 3 to 8) (size 9 to 14) (size 15 to 20)
#    0.000    2.250    0.000    3.375    0.000    4.750 
#    0.000    8.750    0.000    6.000    0.000    0.000 
#    0.000    0.000    0.000    0.000    0.000    0.000 
#
# Total GULP energy -178575.921927 kJ/mol
# GULP energy per Si atom -5580.497560 kJ/mol
# Density = 2.016927 g / cm^3
# Si number density = 20.215277 Si / 1000 Ang^3
#
#
#
# Elastic Constant Matrix: (Units=GPa)
#
#
# Indices 1 2 3 4 5 6 
#
# 1 56.9733 39.2276 14.8977 0.0000 3.6611 0.0000
# 2 39.2276 79.5229 40.2030 0.0000 -5.7818 0.0000
# 3 14.8977 40.2030 68.6582 0.0000 7.9773 0.0000
# 4 0.0000 0.0000 0.0000 26.4465 0.0000 1.3972
# 5 3.6611 -5.7818 7.9773 0.0000 15.9406 0.0000
# 6 0.0000 0.0000 0.0000 1.3972 0.0000 39.5094
#
#
#
# Elastic Compliance Matrix: (Units=1/GPa)
#
#
# Indices 1 2 3 4 5 6 
#
# 1 0.030612 -0.020017 0.007155 0.000000 -0.017872 0.000000
# 2 -0.020017 0.033622 -0.018362 0.000000 0.025982 0.000000
# 3 0.007155 -0.018362 0.026256 0.000000 -0.021443 0.000000
# 4 0.000000 0.000000 0.000000 0.037883 0.000000 -0.001340
# 5 -0.017872 0.025982 -0.021443 0.000000 0.086993 0.000000
# 6 0.000000 0.000000 0.000000 -0.001340 0.000000 0.025358
#
#
# Mechanical properties :
#
#
# Convention : Reuss Voigt Hill
#
# Bulk Modulus (GPa) = 35.66251 43.75678 39.70964
# Shear Modulus (GPa) = 15.99905 23.76768 19.88337
#
# Velocity S-wave (km/s) = 2.81630 3.43261 3.13961
# Velocity P-wave (km/s) = 5.31555 6.11578 5.72965
#
# Compressibility (1/GPa) = 0.02804065
#
# Stress axis : x y z
#
# Youngs Moduli (GPa) = 32.66695 29.74287 38.08660
#
# Poissons Ratio (x) = 0.59537 -0.27253
# Poissons Ratio (y) = 0.65391 0.69936
# Poissons Ratio (z) = -0.23375 0.54615
#
# Static dielectric constant tensor:
#      x y z
#    x 1.724080 0.000000 0.002840 
#    y 0.000000 1.746490 0.000000 
#    z 0.002840 0.000000 1.689500 
# 
# From -- ./inp_files/241537.got.cif
#   From: 2010.05.17/outbox.cif.g08.bks.cpg/sg12_121_cif.got.tgz:241537.got - 2010.06.03 13:09:07.
