data_PCOD9181720
_publ_section_title
;
Structure prediction by ZEFSAII (Michael W. Deem and Ramdas Pophale) SiO2 
 PCOD9181720
Probable space group: C 2/M
;
_chemical_formula_sum "Si O2"
_cell_formula_units_Z 64
_cell_length_a 5.338753
_cell_length_b 31.334851
_cell_length_c 18.794461
_cell_angle_alpha 90.000000
_cell_angle_beta 89.999962
_cell_angle_gamma 90.000000
_cell_volume 3144.107146
_symmetry_space_group_name_H-M "C 2/M"
_symmetry_group_IT_number 12
_symmetry_cell_setting 'monoclinic'
loop_
_space_group_symop_operation_xyz
x,y,z
-x,y,-z
-x,-y,-z
x,-y,z
1/2+x,1/2+y,z
1/2-x,1/2+y,-z
1/2-x,1/2-y,-z
1/2+x,1/2-y,z
loop_
_atom_site_type_symbol
_atom_site_label
_atom_site_fract_x
_atom_site_fract_y
_atom_site_fract_z
Si Si1 0.750001 0.276372 0.329778
Si Si2 0.250000 0.654240 0.777058
Si Si3 0.750000 0.061225 0.543735
Si Si4 0.250000 0.138573 0.865402
Si Si5 0.250000 0.729968 0.079137
Si Si6 0.250000 0.952280 0.805214
Si Si7 0.250000 0.836117 0.460309
Si Si8 0.250000 0.934945 0.288480
O O1 0.500001 0.250000 0.339883
O O2 0.750000 0.299161 0.254583
O O3 0.750000 0.314547 0.385076
O O4 0.498436 0.647799 0.822312
O O5 0.250000 0.616446 0.718417
O O6 0.001564 0.647799 0.822312
O O7 0.500000 0.048018 0.500000
O O8 0.750000 0.112775 0.542864
O O9 0.750000 0.050549 0.628593
O O10 0.000000 0.048018 0.500000
O O11 0.250000 0.177935 0.922628
O O12 0.249999 0.086047 0.864388
O O13 0.500000 0.750000 0.113237
O O14 0.250000 0.750000 0.000000
O O15 0.498007 0.948314 0.754695
O O16 0.001993 0.948314 0.754695
O O17 0.250000 0.000000 0.836462
O O18 0.500000 0.822112 0.500000
O O19 0.000000 0.822112 0.500000
#
# Coordination Sequence:
#
# PCOD9181720 Si02
#       8
#     8   8   8   8   8   8   8   8
#     4  12  24  34  47  67  99 135 173 231 291 342
#     4  10  21  36  50  77 105 142 188 228 283 348
#     4  10  19  32  54  75  93 130 184 238 295 362
#     4  10  21  36  60  83 117 153 189 235 278 324
#     4  10  21  37  59  90 125 163 201 233 266 317
#     4  10  21  36  59  87 112 147 189 234 296 354
#     4  10  21  35  49  64  88 125 176 232 286 347
#     4  10  19  36  57  75 108 140 181 240 292 357
#
# _framework density 20.355542
#
# number of rings (size 3 to 8) (size 9 to 14) (size 15 to 20)
#    0.000    1.750    1.250    3.375    0.000    4.500 
#    0.000    0.000    0.000    7.500    0.000    3.500 
#    0.000    0.000    0.000    0.000    0.000    0.000 
#
# Total GULP energy -178325.435413 kJ/mol
# GULP energy per Si atom -5572.669857 kJ/mol
# Density = 2.030921 g / cm^3
# Si number density = 20.355542 Si / 1000 Ang^3
#
#
#
# Elastic Constant Matrix: (Units=GPa)
#
#
# Indices 1 2 3 4 5 6 
#
# 1 175.6832 42.1338 16.4528 0.0000 0.0002 0.0000
# 2 42.1338 150.3539 52.9156 0.0000 0.0001 0.0000
# 3 16.4528 52.9156 53.8805 0.0000 0.0000 0.0000
# 4 0.0000 0.0000 0.0000 9.0771 0.0000 -0.0001
# 5 0.0002 0.0001 0.0000 0.0000 12.9849 0.0000
# 6 0.0000 0.0000 0.0000 -0.0001 0.0000 -4.1966
#
#
#
# Elastic Compliance Matrix: (Units=1/GPa)
#
#
# Indices 1 2 3 4 5 6 
#
# 1 0.006105 -0.001612 -0.000281 0.000000 0.000000 0.000000
# 2 -0.001612 0.010590 -0.009908 0.000000 0.000000 0.000000
# 3 -0.000281 -0.009908 0.028376 0.000000 0.000000 0.000000
# 4 0.000000 0.000000 0.000000 0.110167 0.000000 -0.000001
# 5 0.000000 0.000000 0.000000 0.000000 0.077013 0.000000
# 6 0.000000 0.000000 0.000000 -0.000001 0.000000 -0.238288
#
#
# Mechanical properties :
#
#
# Convention : Reuss Voigt Hill
#
# Bulk Modulus (GPa) = 46.57941 66.99135 56.78538
# Shear Modulus (GPa) = 202.26307 21.46743 111.86525
#
# Velocity S-wave (km/s) = 9.97902 3.25102 7.42125
# Velocity P-wave (km/s) = 12.47826 6.86107 10.06929
#
# Compressibility (1/GPa) = 0.02146871
#
# Stress axis : x y z
#
# Youngs Moduli (GPa) = 163.80118 94.43207 35.24120
#
# Poissons Ratio (x) = 0.15221 0.00991
# Poissons Ratio (y) = 0.26402 0.34916
# Poissons Ratio (z) = 0.04607 0.93562
#
# Static dielectric constant tensor:
#      x y z
#    x 1.714690 0.000000 0.000000 
#    y 0.000000 1.768990 0.000000 
#    z 0.000000 0.000000 2.088580 
# 
# From -- ./inp_files/254022.got.cif
#   From: 2010.05.17/outbox.cif.g08.bks.cpg/sg12_128_cif.got.tgz:254022.got - 2010.06.03 13:09:07.
