data_PCOD9181253
_publ_section_title
;
Structure prediction by ZEFSAII (Michael W. Deem and Ramdas Pophale) SiO2 
 PCOD9181253
Probable space group: C 2/M
;
_chemical_formula_sum "Si O2"
_cell_formula_units_Z 48
_cell_length_a 23.959163
_cell_length_b 7.508206
_cell_length_c 12.315478
_cell_angle_alpha 90.000000
_cell_angle_beta 68.436041
_cell_angle_gamma 90.000000
_cell_volume 2060.372363
_symmetry_space_group_name_H-M "C 2/M"
_symmetry_group_IT_number 12
_symmetry_cell_setting 'monoclinic'
loop_
_space_group_symop_operation_xyz
x,y,z
-x,y,-z
-x,-y,-z
x,-y,z
1/2+x,1/2+y,z
1/2-x,1/2+y,-z
1/2-x,1/2-y,-z
1/2+x,1/2-y,z
loop_
_atom_site_type_symbol
_atom_site_label
_atom_site_fract_x
_atom_site_fract_y
_atom_site_fract_z
Si Si1 0.320551 0.787162 0.953723
Si Si2 0.924333 0.715989 0.730907
Si Si3 0.542973 0.203376 0.750711
Si Si4 0.103564 0.208557 0.484283
Si Si5 0.646886 0.780932 0.831267
Si Si6 0.762927 0.212426 0.616349
O O1 0.360729 0.721444 0.824901
O O2 0.326319 0.000000 0.949157
O O3 0.250000 0.750000 0.000000
O O4 0.348504 0.724743 0.047531
O O5 0.926304 0.500000 0.729124
O O6 0.932755 0.772651 0.600918
O O7 0.978108 0.782166 0.769483
O O8 0.576660 0.202369 0.610207
O O9 0.588649 0.281182 0.806278
O O10 0.531882 0.000000 0.793956
O O11 0.170170 0.280920 0.409957
O O12 0.108229 0.000000 0.508599
O O13 0.707798 0.720282 0.727553
O O14 0.646404 0.000000 0.827921
O O15 0.750000 0.250000 0.500000
O O16 0.764452 0.000000 0.632655
#
# Coordination Sequence:
#
# PCOD9181253 Si02
#       6
#     8   8   8   8   8   8
#     4  10  21  39  60  83 111 143 183 228 277 331
#     4  10  22  37  56  82 110 147 191 229 270 327
#     4  10  20  36  57  81 111 147 187 230 276 327
#     4  11  22  35  55  83 115 149 185 229 280 330
#     4   9  18  34  57  81 109 142 178 226 276 322
#     4  10  19  32  52  79 107 138 176 219 270 323
#
# _framework density 23.296759000000002
#
# number of rings (size 3 to 8) (size 9 to 14) (size 15 to 20)
#    0.000    2.000    1.667    2.000    0.000    6.000 
#    0.000    5.000    0.000    0.000    0.000    3.500 
#    0.000    0.000    0.000    0.000    0.000    0.000 
#
# Total GULP energy -134137.671543 kJ/mol
# GULP energy per Si atom -5589.069648 kJ/mol
# Density = 2.324373 g / cm^3
# Si number density = 23.296759 Si / 1000 Ang^3
#
#
#
# Elastic Constant Matrix: (Units=GPa)
#
#
# Indices 1 2 3 4 5 6 
#
# 1 136.1795 -6.4026 30.8579 0.0000 5.6041 0.0000
# 2 -6.4026 64.9096 -13.0514 0.0000 -2.2922 0.0000
# 3 30.8579 -13.0514 86.9760 0.0000 19.2859 0.0000
# 4 0.0000 0.0000 0.0000 7.5840 0.0000 -2.5411
# 5 5.6041 -2.2922 19.2859 0.0000 32.3534 0.0000
# 6 0.0000 0.0000 0.0000 -2.5411 0.0000 13.0799
#
#
#
# Elastic Compliance Matrix: (Units=1/GPa)
#
#
# Indices 1 2 3 4 5 6 
#
# 1 0.007992 0.000222 -0.002879 0.000000 0.000348 0.000000
# 2 0.000222 0.015895 0.002380 0.000000 -0.000331 0.000000
# 3 -0.002879 0.002380 0.014667 0.000000 -0.008075 0.000000
# 4 0.000000 0.000000 0.000000 0.141037 0.000000 0.027400
# 5 0.000348 -0.000331 -0.008075 0.000000 0.035639 0.000000
# 6 0.000000 0.000000 0.000000 0.027400 0.000000 0.081776
#
#
# Mechanical properties :
#
#
# Convention : Reuss Voigt Hill
#
# Bulk Modulus (GPa) = 26.31730 34.54142 30.42936
# Shear Modulus (GPa) = 16.11727 29.04757 22.58242
#
# Velocity S-wave (km/s) = 2.63311 3.53491 3.11680
# Velocity P-wave (km/s) = 4.53491 5.61424 5.10319
#
# Compressibility (1/GPa) = 0.03799782
#
# Stress axis : x y z
#
# Youngs Moduli (GPa) = 125.12854 62.91393 68.18170
#
# Poissons Ratio (x) = -0.01395 0.19631
# Poissons Ratio (y) = -0.02774 -0.16226
# Poissons Ratio (z) = 0.36027 -0.14973
#
# Static dielectric constant tensor:
#      x y z
#    x 1.895530 0.000000 -0.028400 
#    y 0.000000 2.022830 0.000000 
#    z -0.028400 0.000000 1.821000 
# 
# From -- ./inp_files/172167.got.cif
#   From: 2010.05.17/outbox.cif.g08.bks.cpg/sg12_87_cif.got.tgz:172167.got - 2010.06.03 13:09:07.
