data_PCOD9181674
_publ_section_title
;
Structure prediction by ZEFSAII (Michael W. Deem and Ramdas Pophale) SiO2 
 PCOD9181674
Probable space group: C 2/M
;
_chemical_formula_sum "Si O2"
_cell_formula_units_Z 40
_cell_length_a 16.422028
_cell_length_b 12.498878
_cell_length_c 7.493222
_cell_angle_alpha 90.000000
_cell_angle_beta 87.726965
_cell_angle_gamma 90.000000
_cell_volume 1536.825532
_symmetry_space_group_name_H-M "C 2/M"
_symmetry_group_IT_number 12
_symmetry_cell_setting 'monoclinic'
loop_
_space_group_symop_operation_xyz
x,y,z
-x,y,-z
-x,-y,-z
x,-y,z
1/2+x,1/2+y,z
1/2-x,1/2+y,-z
1/2-x,1/2-y,-z
1/2+x,1/2-y,z
loop_
_atom_site_type_symbol
_atom_site_label
_atom_site_fract_x
_atom_site_fract_y
_atom_site_fract_z
Si Si1 0.416997 0.344011 0.588739
Si Si2 0.404340 0.672771 0.974644
Si Si3 0.714666 0.665549 0.712675
Si Si4 0.606599 0.112103 0.428931
Si Si5 0.342780 0.123059 0.167690
O O1 0.500000 0.388360 0.500000
O O2 0.345508 0.345971 0.450504
O O3 0.435828 0.219063 0.628966
O O4 0.391270 0.379975 0.784310
O O5 0.339713 0.623492 0.119800
O O6 0.388221 0.801440 0.017983
O O7 0.500000 0.655052 0.000000
O O8 0.800925 0.618569 0.653371
O O9 0.727122 0.790625 0.768615
O O10 0.611495 0.115422 0.644651
O O11 0.570771 0.000000 0.371501
O O12 0.325346 0.000000 0.115427
#
# Coordination Sequence:
#
# PCOD9181674 Si02
#       5
#     8   8   8   8   8
#     4  11  19  34  59  84 107 145 182 223 286 337
#     4  10  19  32  53  83 112 145 177 226 277 331
#     4   9  20  36  55  78 113 147 185 225 271 327
#     4  10  20  37  56  79 114 151 185 225 269 323
#     4   8  16  30  50  75 107 139 170 216 271 319
#
# _framework density 26.027678000000002
#
# number of rings (size 3 to 8) (size 9 to 14) (size 15 to 20)
#    1.200    1.200    2.000    2.400    0.000    2.400 
#    0.000    2.000    0.000    1.200    0.000    0.000 
#    0.000    0.000    0.000    0.000    0.000    0.000 
#
# Total GULP energy -111560.711027 kJ/mol
# GULP energy per Si atom -5578.035551 kJ/mol
# Density = 2.596844 g / cm^3
# Si number density = 26.027678 Si / 1000 Ang^3
#
#
#
# Elastic Constant Matrix: (Units=GPa)
#
#
# Indices 1 2 3 4 5 6 
#
# 1 155.5841 16.0932 64.4736 0.0000 -40.5609 0.0000
# 2 16.0932 177.9501 18.7412 0.0000 -8.0313 0.0000
# 3 64.4736 18.7412 223.2301 0.0000 -35.4221 0.0000
# 4 0.0000 0.0000 0.0000 -32.4289 0.0000 3.8562
# 5 -40.5609 -8.0313 -35.4221 0.0000 35.5958 0.0000
# 6 0.0000 0.0000 0.0000 3.8562 0.0000 -4.2473
#
#
#
# Elastic Compliance Matrix: (Units=1/GPa)
#
#
# Indices 1 2 3 4 5 6 
#
# 1 0.009425 -0.000299 -0.001192 0.000000 0.009487 0.000000
# 2 -0.000299 0.005707 -0.000288 0.000000 0.000661 0.000000
# 3 -0.001192 -0.000288 0.005489 0.000000 0.004039 0.000000
# 4 0.000000 0.000000 0.000000 -0.034569 0.000000 -0.031385
# 5 0.009487 0.000661 0.004039 0.000000 0.043072 0.000000
# 6 0.000000 0.000000 0.000000 -0.031385 0.000000 -0.263936
#
#
# Mechanical properties :
#
#
# Convention : Reuss Voigt Hill
#
# Bulk Modulus (GPa) = 58.60290 83.93114 71.26702
# Shear Modulus (GPa) = -22.16636 30.28099 4.05731
#
# Velocity S-wave (km/s) = -2.92146 3.41459 1.24989
# Velocity P-wave (km/s) = 3.34433 6.91829 5.43357
#
# Compressibility (1/GPa) = 0.01706400
#
# Stress axis : x y z
#
# Youngs Moduli (GPa) = 106.09673 175.23214 182.18168
#
# Poissons Ratio (x) = 0.05235 0.21713
# Poissons Ratio (y) = 0.03169 0.05247
# Poissons Ratio (z) = 0.12645 0.05047
#
# Static dielectric constant tensor:
#      x y z
#    x 2.001780 0.000000 -0.026840 
#    y 0.000000 2.140670 0.000000 
#    z -0.026840 0.000000 2.059420 
# 
# From -- ./inp_files/84600.got.cif
#   From: 2010.05.17/outbox.cif.g08.bks.cpg/sg12_43_cif.got.tgz:84600.got - 2010.06.03 13:09:07.
