data_PCOD9181289
_publ_section_title
;
Structure prediction by ZEFSAII (Michael W. Deem and Ramdas Pophale) SiO2 
 PCOD9181289
Probable space group: C 2/M
;
_chemical_formula_sum "Si O2"
_cell_formula_units_Z 56
_cell_length_a 21.125614
_cell_length_b 7.816916
_cell_length_c 18.120010
_cell_angle_alpha 90.000000
_cell_angle_beta 108.970132
_cell_angle_gamma 90.000000
_cell_volume 2829.770221
_symmetry_space_group_name_H-M "C 2/M"
_symmetry_group_IT_number 12
_symmetry_cell_setting 'monoclinic'
loop_
_space_group_symop_operation_xyz
x,y,z
-x,y,-z
-x,-y,-z
x,-y,z
1/2+x,1/2+y,z
1/2-x,1/2+y,-z
1/2-x,1/2-y,-z
1/2+x,1/2-y,z
loop_
_atom_site_type_symbol
_atom_site_label
_atom_site_fract_x
_atom_site_fract_y
_atom_site_fract_z
Si Si1 0.183247 0.302515 0.672447
Si Si2 0.068520 0.290635 0.740234
Si Si3 0.830485 0.300764 0.768235
Si Si4 0.193886 0.292879 0.080517
Si Si5 0.916366 0.707964 0.663341
Si Si6 0.155768 0.294441 0.906887
Si Si7 0.178276 0.199679 0.506780
O O1 0.194633 0.500000 0.697994
O O2 0.122068 0.236495 0.698669
O O3 0.253156 0.209713 0.714272
O O4 0.167050 0.293114 0.579884
O O5 0.067575 0.500000 0.739607
O O6 0.097676 0.233720 0.830358
O O7 0.993190 0.234988 0.695857
O O8 0.849542 0.500000 0.781556
O O9 0.833967 0.226862 0.852212
O O10 0.875957 0.227837 0.720072
O O11 0.190044 0.500000 0.080079
O O12 0.272191 0.247692 0.101563
O O13 0.158147 0.230381 0.992082
O O14 0.914817 0.500000 0.663226
O O15 0.877683 0.764020 0.575455
O O16 0.150834 0.500000 0.908488
O O17 0.250000 0.250000 0.500000
O O18 0.180069 0.000000 0.524575
#
# Coordination Sequence:
#
# PCOD9181289 Si02
#       7
#     8   8   8   8   8   8   8
#     4  11  21  35  58  82 107 141 184 225 265 317
#     4   9  19  35  55  80 109 147 185 221 267 322
#     4  10  19  32  52  80 109 141 181 226 271 317
#     4   9  17  28  48  79 109 137 178 229 273 311
#     4  10  21  38  57  77 109 147 183 221 270 325
#     4   9  16  30  50  75 107 142 180 222 268 320
#     4  12  24  39  58  83 110 138 178 224 273 322
#
# _framework density 19.789593
#
# number of rings (size 3 to 8) (size 9 to 14) (size 15 to 20)
#    0.000    2.000    2.857    1.714    0.000    0.571 
#    0.000    5.714    0.000    4.286    0.000    0.000 
#    0.000    6.857    0.000    0.000    0.000    0.000 
#
# Total GULP energy -156301.306715 kJ/mol
# GULP energy per Si atom -5582.189526 kJ/mol
# Density = 1.974455 g / cm^3
# Si number density = 19.789593 Si / 1000 Ang^3
#
#
#
# Elastic Constant Matrix: (Units=GPa)
#
#
# Indices 1 2 3 4 5 6 
#
# 1 106.4986 -6.5095 60.1044 0.0000 4.4305 0.0000
# 2 -6.5095 31.9526 -11.5230 0.0000 1.3067 0.0000
# 3 60.1044 -11.5230 143.1161 0.0000 -0.8717 0.0000
# 4 0.0000 0.0000 0.0000 15.8901 0.0000 3.0705
# 5 4.4305 1.3067 -0.8717 0.0000 36.8941 0.0000
# 6 0.0000 0.0000 0.0000 3.0705 0.0000 15.7365
#
#
#
# Elastic Compliance Matrix: (Units=1/GPa)
#
#
# Indices 1 2 3 4 5 6 
#
# 1 0.012419 0.000734 -0.005166 0.000000 -0.001639 0.000000
# 2 0.000734 0.032319 0.002287 0.000000 -0.001179 0.000000
# 3 -0.005166 0.002287 0.009346 0.000000 0.000760 0.000000
# 4 0.000000 0.000000 0.000000 0.065398 0.000000 -0.012761
# 5 -0.001639 -0.001179 0.000760 0.000000 0.027361 0.000000
# 6 0.000000 0.000000 0.000000 -0.012761 0.000000 0.066037
#
#
# Mechanical properties :
#
#
# Convention : Reuss Voigt Hill
#
# Bulk Modulus (GPa) = 20.08367 40.63458 30.35913
# Shear Modulus (GPa) = 21.38877 29.67050 25.52964
#
# Velocity S-wave (km/s) = 3.29113 3.87628 3.59563
# Velocity P-wave (km/s) = 4.96112 6.37275 5.71072
#
# Compressibility (1/GPa) = 0.04979169
#
# Stress axis : x y z
#
# Youngs Moduli (GPa) = 80.52464 30.94181 107.00021
#
# Poissons Ratio (x) = -0.02271 0.55280
# Poissons Ratio (y) = -0.05909 -0.24468
# Poissons Ratio (z) = 0.41602 -0.07076
#
# Static dielectric constant tensor:
#      x y z
#    x 1.653190 0.000000 -0.013380 
#    y 0.000000 1.735620 0.000000 
#    z -0.013380 0.000000 1.692310 
# 
# From -- ./inp_files/281721.got.cif
#   From: 2010.05.17/outbox.cif.g08.bks.cpg/sg12_141_cif.got.tgz:281721.got - 2010.06.03 13:09:07.
