data_PCOD9181274
_publ_section_title
;
Structure prediction by ZEFSAII (Michael W. Deem and Ramdas Pophale) SiO2 
 PCOD9181274
Probable space group: C 2/M
;
_chemical_formula_sum "Si O2"
_cell_formula_units_Z 48
_cell_length_a 25.694598
_cell_length_b 13.512725
_cell_length_c 14.405639
_cell_angle_alpha 90.000000
_cell_angle_beta 152.194032
_cell_angle_gamma 90.000000
_cell_volume 2333.185038
_symmetry_space_group_name_H-M "C 2/M"
_symmetry_group_IT_number 12
_symmetry_cell_setting 'monoclinic'
loop_
_space_group_symop_operation_xyz
x,y,z
-x,y,-z
-x,-y,-z
x,-y,z
1/2+x,1/2+y,z
1/2-x,1/2+y,-z
1/2-x,1/2-y,-z
1/2+x,1/2-y,z
loop_
_atom_site_type_symbol
_atom_site_label
_atom_site_fract_x
_atom_site_fract_y
_atom_site_fract_z
Si Si1 0.050970 0.885264 0.432014
Si Si2 0.215032 0.385230 0.514204
Si Si3 0.200999 0.119192 0.964055
Si Si4 0.828461 0.806225 0.878124
Si Si5 0.775563 0.385856 0.890388
Si Si6 0.084736 0.195656 0.287572
O O1 0.144013 0.882686 0.657464
O O2 0.091880 0.824748 0.408360
O O3 0.926881 0.851502 0.260186
O O4 0.041553 0.000000 0.387605
O O5 0.182987 0.500000 0.466502
O O6 0.255245 0.346188 0.678432
O O7 0.120036 0.309877 0.328079
O O8 0.323040 0.368778 0.619432
O O9 0.282330 0.150331 0.008066
O O10 0.206135 0.000000 0.967983
O O11 0.217116 0.150008 0.096147
O O12 0.829490 0.688987 0.902577
O O13 0.957822 0.831709 0.062603
O O14 0.812643 0.500000 0.940410
#
# Coordination Sequence:
#
# PCOD9181274 Si02
#       6
#     8   8   8   8   8   8
#     4   9  16  31  54  79 106 139 182 227 271 321
#     4  11  23  40  61  83 112 147 186 231 281 336
#     4   9  18  31  52  81 109 142 185 230 271 320
#     4  11  21  36  57  83 112 148 187 229 276 333
#     4  10  19  32  52  79 112 146 181 224 275 327
#     4  10  22  38  57  83 111 143 183 230 279 333
#
# _framework density 20.572735000000002
#
# number of rings (size 3 to 8) (size 9 to 14) (size 15 to 20)
#    0.000    2.000    1.667    2.500    0.000    5.333 
#    0.000    0.000    0.000    3.000    0.000    5.833 
#    0.000    0.000    0.000    0.000    0.000    0.000 
#
# Total GULP energy -133840.426815 kJ/mol
# GULP energy per Si atom -5576.684451 kJ/mol
# Density = 2.052591 g / cm^3
# Si number density = 20.572735 Si / 1000 Ang^3
#
#
#
# Elastic Constant Matrix: (Units=GPa)
#
#
# Indices 1 2 3 4 5 6 
#
# 1 58.4530 9.7572 -18.9710 0.0000 3.6584 0.0000
# 2 9.7572 69.3060 -10.8441 0.0000 6.4282 0.0000
# 3 -18.9710 -10.8441 19.6483 0.0000 1.4637 0.0000
# 4 0.0000 0.0000 0.0000 17.3359 0.0000 -3.9863
# 5 3.6584 6.4282 1.4637 0.0000 7.9781 0.0000
# 6 0.0000 0.0000 0.0000 -3.9863 0.0000 27.2647
#
#
#
# Elastic Compliance Matrix: (Units=1/GPa)
#
#
# Indices 1 2 3 4 5 6 
#
# 1 0.027505 0.002610 0.029497 0.000000 -0.020127 0.000000
# 2 0.002610 0.017895 0.013747 0.000000 -0.018137 0.000000
# 3 0.029497 0.013747 0.090025 0.000000 -0.041119 0.000000
# 4 0.000000 0.000000 0.000000 0.059690 0.000000 0.008727
# 5 -0.020127 -0.018137 -0.041119 0.000000 0.156731 0.000000
# 6 0.000000 0.000000 0.000000 0.008727 0.000000 0.037953
#
#
# Mechanical properties :
#
#
# Convention : Reuss Voigt Hill
#
# Bulk Modulus (GPa) = 4.40272 11.92127 8.16200
# Shear Modulus (GPa) = 13.37603 21.68008 17.52806
#
# Velocity S-wave (km/s) = 2.55263 3.24979 2.92208
# Velocity P-wave (km/s) = 3.29130 4.45969 3.91927
#
# Compressibility (1/GPa) = 0.22713210
#
# Stress axis : x y z
#
# Youngs Moduli (GPa) = 36.35709 55.88284 11.10799
#
# Poissons Ratio (x) = -0.14584 -0.32765
# Poissons Ratio (y) = -0.09488 -0.15270
# Poissons Ratio (z) = -1.07241 -0.76823
#
# Static dielectric constant tensor:
#      x y z
#    x 1.746970 0.000000 -0.004210 
#    y 0.000000 1.770680 0.000000 
#    z -0.004210 0.000000 1.728460 
# 
# From -- ./inp_files/212931.got.cif
#   From: 2010.05.17/outbox.cif.g08.bks.cpg/sg12_107_cif.got.tgz:212931.got - 2010.06.03 13:09:07.
