data_PCOD9181036
_publ_section_title
;
Structure prediction by ZEFSAII (Michael W. Deem and Ramdas Pophale) SiO2 
 PCOD9181036
Probable space group: C 2/M
;
_chemical_formula_sum "Si O2"
_cell_formula_units_Z 48
_cell_length_a 21.301987
_cell_length_b 11.555689
_cell_length_c 21.353932
_cell_angle_alpha 90.000000
_cell_angle_beta 152.228749
_cell_angle_gamma 90.000000
_cell_volume 2449.211872
_symmetry_space_group_name_H-M "C 2/M"
_symmetry_group_IT_number 12
_symmetry_cell_setting 'monoclinic'
loop_
_space_group_symop_operation_xyz
x,y,z
-x,y,-z
-x,-y,-z
x,-y,z
1/2+x,1/2+y,z
1/2-x,1/2+y,-z
1/2-x,1/2-y,-z
1/2+x,1/2-y,z
loop_
_atom_site_type_symbol
_atom_site_label
_atom_site_fract_x
_atom_site_fract_y
_atom_site_fract_z
Si Si1 0.061290 0.699587 0.838489
Si Si2 0.994453 0.130061 0.325908
Si Si3 0.294939 0.622409 0.961686
Si Si4 0.102340 0.679146 0.678341
Si Si5 0.283023 0.127884 0.640143
Si Si6 0.805572 0.630577 0.381714
O O1 0.187251 0.628291 0.923431
O O2 0.034466 0.792495 0.759835
O O3 0.925173 0.632010 0.730667
O O4 0.108512 0.769547 0.941446
O O5 0.153864 0.130251 0.480540
O O6 0.921882 0.188012 0.322002
O O7 0.948206 0.000000 0.275276
O O8 0.368486 0.500000 0.027602
O O9 0.205491 0.631243 0.820462
O O10 0.157222 0.652260 0.658161
O O11 0.949658 0.630642 0.545313
O O12 0.271471 0.252171 0.665497
O O13 0.273608 0.000000 0.664689
O O14 0.746976 0.500000 0.337523
#
# Coordination Sequence:
#
# PCOD9181036 Si02
#       6
#     8   8   8   8   8   8
#     4  10  20  33  50  74 104 137 172 209 255 311
#     4   9  18  32  52  79 107 136 172 214 259 306
#     4  10  19  32  52  74  99 133 171 213 257 305
#     4   9  18  33  53  79 105 133 171 214 259 306
#     4  10  21  36  53  76 107 140 173 213 262 311
#     4  10  19  33  56  81 105 135 173 218 260 303
#
# _framework density 19.598140999999998
#
# number of rings (size 3 to 8) (size 9 to 14) (size 15 to 20)
#    0.000    2.333    0.000    3.500    0.000    2.000 
#    0.000    9.167    0.000    3.000    0.000    0.000 
#    0.000    0.000    0.000    0.000    0.000    0.000 
#
# Total GULP energy -133640.938240 kJ/mol
# GULP energy per Si atom -5568.372427 kJ/mol
# Density = 1.955354 g / cm^3
# Si number density = 19.598141 Si / 1000 Ang^3
#
#
#
# Elastic Constant Matrix: (Units=GPa)
#
#
# Indices 1 2 3 4 5 6 
#
# 1 21.0042 28.2034 14.7859 0.0000 -3.2887 0.0000
# 2 28.2034 159.8652 24.2571 0.0000 -1.2376 0.0000
# 3 14.7859 24.2571 53.2586 0.0000 -10.1033 0.0000
# 4 0.0000 0.0000 0.0000 -5.6809 0.0000 -2.2114
# 5 -3.2887 -1.2376 -10.1033 0.0000 25.5309 0.0000
# 6 0.0000 0.0000 0.0000 -2.2114 0.0000 13.1765
#
#
#
# Elastic Compliance Matrix: (Units=1/GPa)
#
#
# Indices 1 2 3 4 5 6 
#
# 1 0.072663 -0.010550 -0.014800 0.000000 0.002992 0.000000
# 2 -0.010550 0.008273 -0.001104 0.000000 -0.001395 0.000000
# 3 -0.014800 -0.001104 0.024884 0.000000 0.007887 0.000000
# 4 0.000000 0.000000 0.000000 -0.165235 0.000000 -0.027731
# 5 0.002992 -0.001395 0.007887 0.000000 0.042607 0.000000
# 6 0.000000 0.000000 0.000000 -0.027731 0.000000 0.071238
#
#
# Mechanical properties :
#
#
# Convention : Reuss Voigt Hill
#
# Bulk Modulus (GPa) = 18.89930 40.95787 29.92859
# Shear Modulus (GPa) = 40.00730 17.73075 28.86902
#
# Velocity S-wave (km/s) = 4.52307 3.01111 3.84220
# Velocity P-wave (km/s) = 6.07798 5.74746 5.91503
#
# Compressibility (1/GPa) = 0.05291200
#
# Stress axis : x y z
#
# Youngs Moduli (GPa) = 13.76213 120.87172 40.18630
#
# Poissons Ratio (x) = 1.27524 0.59477
# Poissons Ratio (y) = 0.14520 0.04435
# Poissons Ratio (z) = 0.20368 0.13340
#
# Static dielectric constant tensor:
#      x y z
#    x 1.667180 0.000000 -0.003850 
#    y 0.000000 1.750500 0.000000 
#    z -0.003850 0.000000 1.675680 
# 
# From -- ./inp_files/94972.got.cif
#   From: 2010.05.17/outbox.cif.g08.bks.cpg/sg12_48_cif.got.tgz:94972.got - 2010.06.03 13:09:07.
