data_PCOD9181788
_publ_section_title
;
Structure prediction by ZEFSAII (Michael W. Deem and Ramdas Pophale) SiO2 
 PCOD9181788
Probable space group: C 2/M
;
_chemical_formula_sum "Si O2"
_cell_formula_units_Z 52
_cell_length_a 29.649357
_cell_length_b 18.935294
_cell_length_c 6.288620
_cell_angle_alpha 90.000000
_cell_angle_beta 52.465940
_cell_angle_gamma 90.000000
_cell_volume 2799.697543
_symmetry_space_group_name_H-M "C 2/M"
_symmetry_group_IT_number 12
_symmetry_cell_setting 'monoclinic'
loop_
_space_group_symop_operation_xyz
x,y,z
-x,y,-z
-x,-y,-z
x,-y,z
1/2+x,1/2+y,z
1/2-x,1/2+y,-z
1/2-x,1/2-y,-z
1/2+x,1/2-y,z
loop_
_atom_site_type_symbol
_atom_site_label
_atom_site_fract_x
_atom_site_fract_y
_atom_site_fract_z
Si Si1 0.000000 0.629448 0.500000
Si Si2 0.743830 0.835577 0.190462
Si Si3 0.296177 0.578787 0.416916
Si Si4 0.329875 0.291392 0.575490
Si Si5 0.316775 0.079228 0.981445
Si Si6 0.441564 0.797769 0.291420
Si Si7 0.592188 0.919862 0.928403
O O1 0.958678 0.678035 0.477883
O O2 0.964979 0.583473 0.767378
O O3 0.768284 0.893366 0.279943
O O4 0.712634 0.769582 0.392171
O O5 0.796198 0.811148 0.889883
O O6 0.695076 0.869437 0.179927
O O7 0.321038 0.500000 0.322333
O O8 0.333513 0.641462 0.409413
O O9 0.244307 0.573756 0.731577
O O10 0.392073 0.259828 0.432774
O O11 0.359167 0.103547 0.045103
O O12 0.335163 0.000000 0.862757
O O13 0.417637 0.865847 0.233057
O O14 0.500000 0.776820 0.000000
O O15 0.604490 0.000000 0.825110
#
# Coordination Sequence:
#
# PCOD9181788 Si02
#       7
#     4   8   8   8   8   8   8
#     4  10  21  34  50  72  99 136 184 222 253 292
#     4  10  19  32  54  80 109 140 169 209 252 301
#     4  10  20  34  54  79 107 137 168 207 258 312
#     4  10  21  35  53  79 106 135 172 212 257 308
#     4   9  18  31  48  75 109 142 175 205 242 299
#     4  10  22  37  54  74 101 136 176 220 262 306
#     4  10  20  33  50  73 105 143 179 214 250 293
#
# _framework density 18.573433999999999
#
# number of rings (size 3 to 8) (size 9 to 14) (size 15 to 20)
#    0.000    2.154    0.000    3.000    0.000    8.923 
#    0.000    3.846    0.000    1.385    0.000    1.615 
#    0.000    0.000    0.000    0.000    0.000    0.000 
#
# Total GULP energy -145082.879819 kJ/mol
# GULP energy per Si atom -5580.110762 kJ/mol
# Density = 1.853116 g / cm^3
# Si number density = 18.573434 Si / 1000 Ang^3
#
#
#
# Elastic Constant Matrix: (Units=GPa)
#
#
# Indices 1 2 3 4 5 6 
#
# 1 124.1393 77.3160 26.9938 0.0000 4.3566 0.0000
# 2 77.3160 118.7496 26.4571 0.0000 9.6144 0.0000
# 3 26.9938 26.4571 50.9868 0.0000 -5.7900 0.0000
# 4 0.0000 0.0000 0.0000 11.5449 0.0000 -8.5893
# 5 4.3566 9.6144 -5.7900 0.0000 24.8937 0.0000
# 6 0.0000 0.0000 0.0000 -8.5893 0.0000 19.9526
#
#
#
# Elastic Compliance Matrix: (Units=1/GPa)
#
#
# Indices 1 2 3 4 5 6 
#
# 1 0.013950 -0.008423 -0.003002 0.000000 0.000114 0.000000
# 2 -0.008423 0.015243 -0.004059 0.000000 -0.005357 0.000000
# 3 -0.003002 -0.004059 0.024185 0.000000 0.007718 0.000000
# 4 0.000000 0.000000 0.000000 0.127431 0.000000 0.054857
# 5 0.000114 -0.005357 0.007718 0.000000 0.044015 0.000000
# 6 0.000000 0.000000 0.000000 0.054857 0.000000 0.073733
#
#
# Mechanical properties :
#
#
# Convention : Reuss Voigt Hill
#
# Bulk Modulus (GPa) = 44.62154 61.71218 53.16686
# Shear Modulus (GPa) = 14.83700 22.15217 18.49459
#
# Velocity S-wave (km/s) = 2.82942 3.45727 3.15898
# Velocity P-wave (km/s) = 5.89497 7.01677 6.48019
#
# Compressibility (1/GPa) = 0.02241070
#
# Stress axis : x y z
#
# Youngs Moduli (GPa) = 71.68254 65.60258 41.34844
#
# Poissons Ratio (x) = 0.55259 0.12413
# Poissons Ratio (y) = 0.60380 0.16782
# Poissons Ratio (z) = 0.21519 0.26626
#
# Static dielectric constant tensor:
#      x y z
#    x 1.644110 0.000000 0.002650 
#    y 0.000000 1.692850 0.000000 
#    z 0.002650 0.000000 1.665560 
# 
# From -- ./inp_files/29291.got.cif
#   From: 2010.05.17/outbox.cif.g08.bks.cpg/sg12_15_cif.got.tgz:29291.got - 2010.06.03 13:09:07.
