data_PCOD9181844
_publ_section_title
;
Structure prediction by ZEFSAII (Michael W. Deem and Ramdas Pophale) SiO2 
 PCOD9181844
Probable space group: C 2/M
;
_chemical_formula_sum "Si O2"
_cell_formula_units_Z 50
_cell_length_a 15.274801
_cell_length_b 8.837589
_cell_length_c 17.308283
_cell_angle_alpha 90.000000
_cell_angle_beta 99.006468
_cell_angle_gamma 90.000000
_cell_volume 2307.679585
_symmetry_space_group_name_H-M "C 2/M"
_symmetry_group_IT_number 12
_symmetry_cell_setting 'monoclinic'
loop_
_space_group_symop_operation_xyz
x,y,z
-x,y,-z
-x,-y,-z
x,-y,z
1/2+x,1/2+y,z
1/2-x,1/2+y,-z
1/2-x,1/2-y,-z
1/2+x,1/2-y,z
loop_
_atom_site_type_symbol
_atom_site_label
_atom_site_fract_x
_atom_site_fract_y
_atom_site_fract_z
Si Si1 0.484465 0.679720 0.312554
Si Si2 0.510966 0.322358 0.131909
Si Si3 0.679906 0.318579 0.931480
Si Si4 0.676989 0.319862 0.354005
Si Si5 0.193490 0.679815 0.188361
Si Si6 0.000000 0.000000 0.500000
Si Si7 0.655751 0.668279 0.592327
O O1 0.483829 0.500000 0.337369
O O2 0.486881 0.684884 0.220491
O O3 0.578144 0.743055 0.354221
O O4 0.398291 0.740528 0.343107
O O5 0.525952 0.500000 0.115716
O O6 0.422189 0.266889 0.076895
O O7 0.602210 0.233089 0.134421
O O8 0.678021 0.500000 0.940354
O O9 0.722077 0.287073 0.853333
O O10 0.750000 0.250000 0.000000
O O11 0.671123 0.500000 0.356306
O O12 0.697503 0.267948 0.269235
O O13 0.758689 0.263619 0.415333
O O14 0.189258 0.500000 0.200447
O O15 0.078884 0.129760 0.520822
O O16 0.690056 0.500000 0.620745
#
# Coordination Sequence:
#
# PCOD9181844 Si02
#       7
#     8   8   8   8   8   2   8
#     4   8  15  30  54  74 101 134 167 212 265 310
#     4   9  18  34  53  76 100 134 175 216 268 312
#     4  10  22  37  53  73 105 145 182 212 266 323
#     4  10  19  32  54  82 104 133 171 219 270 309
#     4  10  20  35  54  79 105 134 173 222 268 315
#     4   8  20  32  58  76 104 142 190 200 256 304
#     4   9  17  34  54  73 105 140 177 210 248 312
#
# _framework density 21.666785999999998
#
# number of rings (size 3 to 8) (size 9 to 14) (size 15 to 20)
#    0.480    2.240    0.000    2.880    0.000    5.120 
#    0.000   11.600    0.000    0.000    0.000    0.000 
#    0.000    0.000    0.000    0.000    0.000    0.000 
#
# Total GULP energy -139178.480931 kJ/mol
# GULP energy per Si atom -5567.139237 kJ/mol
# Density = 2.161747 g / cm^3
# Si number density = 21.666786 Si / 1000 Ang^3
#
#
#
# Elastic Constant Matrix: (Units=GPa)
#
#
# Indices 1 2 3 4 5 6 
#
# 1 109.7841 19.0458 18.4201 0.0000 44.4076 0.0000
# 2 19.0458 20.0735 7.7197 0.0000 4.9211 0.0000
# 3 18.4201 7.7197 39.7203 0.0000 19.2980 0.0000
# 4 0.0000 0.0000 0.0000 26.7139 0.0000 13.1979
# 5 44.4076 4.9211 19.2980 0.0000 35.2507 0.0000
# 6 0.0000 0.0000 0.0000 13.1979 0.0000 32.8428
#
#
#
# Elastic Compliance Matrix: (Units=1/GPa)
#
#
# Indices 1 2 3 4 5 6 
#
# 1 0.023654 -0.017705 0.007831 0.000000 -0.031615 0.000000
# 2 -0.017705 0.067246 -0.015169 0.000000 0.021220 0.000000
# 3 0.007831 -0.015169 0.038496 0.000000 -0.028822 0.000000
# 4 0.000000 0.000000 0.000000 0.046706 0.000000 -0.018769
# 5 -0.031615 0.021220 -0.028822 0.000000 0.081011 0.000000
# 6 0.000000 0.000000 0.000000 -0.018769 0.000000 0.037990
#
#
# Mechanical properties :
#
#
# Convention : Reuss Voigt Hill
#
# Bulk Modulus (GPa) = 12.60840 28.88322 20.74581
# Shear Modulus (GPa) = 13.45437 27.25430 20.35434
#
# Velocity S-wave (km/s) = 2.49463 3.55051 3.06833
# Velocity P-wave (km/s) = 3.75891 5.49252 4.70623
#
# Compressibility (1/GPa) = 0.07931219
#
# Stress axis : x y z
#
# Youngs Moduli (GPa) = 42.27549 14.87069 25.97693
#
# Poissons Ratio (x) = 0.26328 -0.20343
# Poissons Ratio (y) = 0.74847 0.39404
# Poissons Ratio (z) = -0.33106 0.22557
#
# Static dielectric constant tensor:
#      x y z
#    x 1.795030 0.000000 -0.005130 
#    y 0.000000 1.744450 0.000000 
#    z -0.005130 0.000000 2.061530 
# 
# From -- ./inp_files/308517.got.cif
#   From: 2010.05.17/outbox.cif.g08.bks.cpg/sg12_155_cif.got.tgz:308517.got - 2010.06.03 13:09:07.
