data_PCOD9181272
_publ_section_title
;
Structure prediction by ZEFSAII (Michael W. Deem and Ramdas Pophale) SiO2 
 PCOD9181272
Probable space group: C 2/M
;
_chemical_formula_sum "Si O2"
_cell_formula_units_Z 64
_cell_length_a 15.917569
_cell_length_b 8.348303
_cell_length_c 29.318688
_cell_angle_alpha 90.000000
_cell_angle_beta 57.052086
_cell_angle_gamma 90.000000
_cell_volume 3269.392131
_symmetry_space_group_name_H-M "C 2/M"
_symmetry_group_IT_number 12
_symmetry_cell_setting 'monoclinic'
loop_
_space_group_symop_operation_xyz
x,y,z
-x,y,-z
-x,-y,-z
x,-y,z
1/2+x,1/2+y,z
1/2-x,1/2+y,-z
1/2-x,1/2-y,-z
1/2+x,1/2-y,z
loop_
_atom_site_type_symbol
_atom_site_label
_atom_site_fract_x
_atom_site_fract_y
_atom_site_fract_z
Si Si1 0.882060 0.804249 0.242816
Si Si2 0.163043 0.807525 0.058931
Si Si3 0.028961 0.192103 0.440113
Si Si4 0.468992 0.304992 0.059209
Si Si5 0.709997 0.306756 0.826024
Si Si6 0.612123 0.306719 0.173322
Si Si7 0.243443 0.807699 0.632133
Si Si8 0.838483 0.690749 0.440527
O O1 0.831036 0.752467 0.210675
O O2 0.820069 0.752856 0.305257
O O3 0.997513 0.752453 0.209878
O O4 0.882640 0.000000 0.242281
O O5 0.162296 0.748215 0.111100
O O6 0.057173 0.762989 0.067924
O O7 0.167967 0.000000 0.058583
O O8 0.250000 0.750000 0.000000
O O9 0.142396 0.247512 0.398113
O O10 0.000000 0.246875 0.500000
O O11 0.945032 0.252314 0.429396
O O12 0.026159 0.000000 0.440391
O O13 0.464416 0.500000 0.058113
O O14 0.365183 0.249322 0.111725
O O15 0.500000 0.246429 0.000000
O O16 0.707557 0.500000 0.826929
O O17 0.820380 0.249737 0.805073
O O18 0.611453 0.500000 0.172266
O O19 0.189987 0.751707 0.601424
O O20 0.245743 0.000000 0.631157
O O21 0.837774 0.500000 0.440339
O O22 0.750000 0.750000 0.500000
#
# Coordination Sequence:
#
# PCOD9181272 Si02
#       8
#     8   8   8   8   8   8   8   8
#     4   9  20  40  62  84 116 159 201 240 288 352
#     4  10  19  32  52  79 111 147 186 237 293 352
#     4  11  23  40  64  93 127 165 204 249 302 360
#     4   9  16  28  50  78 106 141 187 233 282 343
#     4  10  19  36  60  83 110 149 199 242 282 346
#     4  10  20  37  58  82 115 153 190 238 301 352
#     4  11  23  40  64  93 125 163 206 252 303 360
#     4  12  24  40  64  94 128 165 205 250 304 361
#
# _framework density 19.575505
#
# number of rings (size 3 to 8) (size 9 to 14) (size 15 to 20)
#    0.000    1.750    2.500    2.625    0.000    3.000 
#    0.000    6.250    0.000    2.250    0.000    0.000 
#    0.000    0.000    0.000    0.000    0.000    0.000 
#
# Total GULP energy -178728.944213 kJ/mol
# GULP energy per Si atom -5585.279507 kJ/mol
# Density = 1.953095 g / cm^3
# Si number density = 19.575505 Si / 1000 Ang^3
#
#
#
# Elastic Constant Matrix: (Units=GPa)
#
#
# Indices 1 2 3 4 5 6 
#
# 1 197.2702 23.4352 95.0469 0.0001 -0.3706 0.0000
# 2 23.4352 29.9073 20.7849 0.0001 -1.3842 -0.0001
# 3 95.0469 20.7849 160.9643 0.0000 0.5542 0.0000
# 4 0.0001 0.0001 0.0000 13.5675 0.0001 1.3938
# 5 -0.3706 -1.3842 0.5542 0.0001 28.7899 0.0000
# 6 0.0000 -0.0001 0.0000 1.3938 0.0000 29.5732
#
#
#
# Elastic Compliance Matrix: (Units=1/GPa)
#
#
# Indices 1 2 3 4 5 6 
#
# 1 0.007322 -0.003001 -0.003936 0.000000 0.000026 0.000000
# 2 -0.003001 0.038063 -0.003149 0.000000 0.001852 0.000000
# 3 -0.003936 -0.003149 0.008945 0.000000 -0.000374 0.000000
# 4 0.000000 0.000000 0.000000 0.074064 0.000000 -0.003491
# 5 0.000026 0.001852 -0.000374 0.000000 0.034831 0.000000
# 6 0.000000 0.000000 0.000000 -0.003491 0.000000 0.033979
#
#
# Mechanical properties :
#
#
# Convention : Reuss Voigt Hill
#
# Bulk Modulus (GPa) = 29.27686 74.07510 51.67598
# Shear Modulus (GPa) = 21.85677 30.97779 26.41728
#
# Velocity S-wave (km/s) = 3.34509 3.98235 3.67755
# Velocity P-wave (km/s) = 5.46880 7.68559 6.66994
#
# Compressibility (1/GPa) = 0.03415667
#
# Stress axis : x y z
#
# Youngs Moduli (GPa) = 136.56960 26.27255 111.79652
#
# Poissons Ratio (x) = 0.07884 0.44006
# Poissons Ratio (y) = 0.40983 0.35208
# Poissons Ratio (z) = 0.53758 0.08274
#
# Static dielectric constant tensor:
#      x y z
#    x 1.685270 0.000000 0.005040 
#    y 0.000000 1.682870 0.000000 
#    z 0.005040 0.000000 1.697580 
# 
# From -- ./inp_files/374979.got.cif
#   From: 2010.05.17/outbox.cif.g08.bks.cpg/sg12_188_cif.got.tgz:374979.got - 2010.06.03 13:09:07.
