data_PCOD9181700
_publ_section_title
;
Structure prediction by ZEFSAII (Michael W. Deem and Ramdas Pophale) SiO2 
 PCOD9181700
Probable space group: C 2/M
;
_chemical_formula_sum "Si O2"
_cell_formula_units_Z 64
_cell_length_a 22.709947
_cell_length_b 14.384983
_cell_length_c 12.747577
_cell_angle_alpha 90.000000
_cell_angle_beta 113.057321
_cell_angle_gamma 90.000000
_cell_volume 3831.726614
_symmetry_space_group_name_H-M "C 2/M"
_symmetry_group_IT_number 12
_symmetry_cell_setting 'monoclinic'
loop_
_space_group_symop_operation_xyz
x,y,z
-x,y,-z
-x,-y,-z
x,-y,z
1/2+x,1/2+y,z
1/2-x,1/2+y,-z
1/2-x,1/2-y,-z
1/2+x,1/2-y,z
loop_
_atom_site_type_symbol
_atom_site_label
_atom_site_fract_x
_atom_site_fract_y
_atom_site_fract_z
Si Si1 0.430045 0.110546 0.994685
Si Si2 0.401921 0.394472 0.499658
Si Si3 0.779654 0.235254 0.406820
Si Si4 0.929824 0.299737 0.217341
Si Si5 0.334300 0.890176 0.735315
Si Si6 0.641786 0.110615 0.638650
Si Si7 0.436756 0.109421 0.625029
Si Si8 0.962702 0.105370 0.309253
O O1 0.415749 0.162757 0.092182
O O2 0.432829 0.000000 0.018653
O O3 0.500000 0.137784 0.000000
O O4 0.378146 0.125690 0.867713
O O5 0.378702 0.500000 0.501188
O O6 0.345234 0.321886 0.466570
O O7 0.461579 0.377834 0.618891
O O8 0.431239 0.390612 0.403075
O O9 0.750000 0.250000 0.500000
O O10 0.728366 0.172956 0.308952
O O11 0.797961 0.331419 0.362769
O O12 0.882734 0.343553 0.271190
O O13 0.931636 0.188300 0.222963
O O14 0.000587 0.334167 0.300950
O O15 0.378555 0.869926 0.664207
O O16 0.317725 0.000000 0.719063
O O17 0.587264 0.123137 0.510458
O O18 0.652737 0.000000 0.656554
O O19 0.452123 0.000000 0.649284
O O20 0.954225 0.000000 0.263599
#
# Coordination Sequence:
#
# PCOD9181700 Si02
#       8
#     8   8   8   8   8   8   8   8
#     4  10  20  36  58  85 112 142 183 229 273 325
#     4   9  18  34  53  77 108 144 182 224 273 321
#     4  12  22  34  54  79 111 152 187 221 272 333
#     4  12  20  33  60  82 114 147 179 224 291 335
#     4  10  21  37  56  82 112 142 190 234 265 319
#     4  11  23  35  50  83 120 148 179 223 280 342
#     4  10  19  32  53  85 117 143 174 225 284 340
#     4   9  19  33  54  82 108 135 183 236 270 321
#
# _framework density 16.702653000000002
#
# number of rings (size 3 to 8) (size 9 to 14) (size 15 to 20)
#    0.000    1.625    3.750    3.375    1.750    1.500 
#    0.000    0.625    0.000    1.125    0.000    0.000 
#    0.000    0.000    0.000    0.000    0.000    0.000 
#
# Total GULP energy -178643.226609 kJ/mol
# GULP energy per Si atom -5582.600832 kJ/mol
# Density = 1.666464 g / cm^3
# Si number density = 16.702653 Si / 1000 Ang^3
#
#
#
# Elastic Constant Matrix: (Units=GPa)
#
#
# Indices 1 2 3 4 5 6 
#
# 1 80.4381 54.9531 27.5244 0.0000 -3.0880 0.0000
# 2 54.9531 103.9892 45.2756 0.0000 0.6478 0.0000
# 3 27.5244 45.2756 79.0976 0.0000 -15.6444 0.0000
# 4 0.0000 0.0000 0.0000 24.3262 0.0000 1.9327
# 5 -3.0880 0.6478 -15.6444 0.0000 21.9852 0.0000
# 6 0.0000 0.0000 0.0000 1.9327 0.0000 29.8467
#
#
#
# Elastic Compliance Matrix: (Units=1/GPa)
#
#
# Indices 1 2 3 4 5 6 
#
# 1 0.019671 -0.010213 -0.000458 0.000000 0.002738 0.000000
# 2 -0.010213 0.018965 -0.008957 0.000000 -0.008367 0.000000
# 3 -0.000458 -0.008957 0.020911 0.000000 0.015080 0.000000
# 4 0.000000 0.000000 0.000000 0.041320 0.000000 -0.002676
# 5 0.002738 -0.008367 0.015080 0.000000 0.056847 0.000000
# 6 0.000000 0.000000 0.000000 -0.002676 0.000000 0.033678
#
#
# Mechanical properties :
#
#
# Convention : Reuss Voigt Hill
#
# Bulk Modulus (GPa) = 49.27822 57.67012 53.47417
# Shear Modulus (GPa) = 21.06059 24.28309 22.67184
#
# Velocity S-wave (km/s) = 3.55479 3.81707 3.68826
# Velocity P-wave (km/s) = 6.81293 7.35045 7.08679
#
# Compressibility (1/GPa) = 0.02029294
#
# Stress axis : x y z
#
# Youngs Moduli (GPa) = 50.83684 52.72850 47.82137
#
# Poissons Ratio (x) = 0.53851 0.02188
# Poissons Ratio (y) = 0.51919 0.42832
# Poissons Ratio (z) = 0.02326 0.47227
#
# Static dielectric constant tensor:
#      x y z
#    x 1.558010 0.000000 -0.000660 
#    y 0.000000 1.588710 0.000000 
#    z -0.000660 0.000000 1.535760 
# 
# From -- ./inp_files/167306.got.cif
#   From: 2010.05.17/outbox.cif.g08.bks.cpg/sg12_84_cif.got.tgz:167306.got - 2010.06.03 13:09:07.
