data_PCOD9181516
_publ_section_title
;
Structure prediction by ZEFSAII (Michael W. Deem and Ramdas Pophale) SiO2 
 PCOD9181516
Probable space group: C 2/M
;
_chemical_formula_sum "Si O2"
_cell_formula_units_Z 56
_cell_length_a 16.726498
_cell_length_b 7.414408
_cell_length_c 20.205357
_cell_angle_alpha 90.000000
_cell_angle_beta 59.863727
_cell_angle_gamma 90.000000
_cell_volume 2167.108527
_symmetry_space_group_name_H-M "C 2/M"
_symmetry_group_IT_number 12
_symmetry_cell_setting 'monoclinic'
loop_
_space_group_symop_operation_xyz
x,y,z
-x,y,-z
-x,-y,-z
x,-y,z
1/2+x,1/2+y,z
1/2-x,1/2+y,-z
1/2-x,1/2-y,-z
1/2+x,1/2-y,z
loop_
_atom_site_type_symbol
_atom_site_label
_atom_site_fract_x
_atom_site_fract_y
_atom_site_fract_z
Si Si1 0.027340 0.708368 0.750694
Si Si2 0.312499 0.214743 0.537531
Si Si3 0.364662 0.290950 0.163961
Si Si4 0.983472 0.720934 0.388552
Si Si5 0.128224 0.204975 0.977917
Si Si6 0.695608 0.220599 0.314293
Si Si7 0.342937 0.282156 0.889440
O O1 0.053081 0.500000 0.741702
O O2 0.071518 0.790350 0.797851
O O3 0.053393 0.782091 0.667990
O O4 0.916686 0.725736 0.804225
O O5 0.250000 0.250000 0.500000
O O6 0.414734 0.280244 0.474812
O O7 0.276152 0.280097 0.623281
O O8 0.319967 0.000000 0.541973
O O9 0.349330 0.500000 0.153401
O O10 0.404393 0.213954 0.078640
O O11 0.267478 0.212113 0.229734
O O12 0.983377 0.500000 0.388204
O O13 0.089511 0.775505 0.350984
O O14 0.240309 0.207791 0.923174
O O15 0.092886 0.000000 0.999415
O O16 0.118126 0.284949 0.055416
O O17 0.699357 0.000000 0.309446
O O18 0.336493 0.500000 0.893862
#
# Coordination Sequence:
#
# PCOD9181516 Si02
#       7
#     8   8   8   8   8   8   8
#     4  11  22  35  52  75 106 141 176 216 262 309
#     4  10  19  32  53  79 106 134 167 209 255 306
#     4  10  20  35  54  76 105 138 173 214 261 314
#     4   9  18  33  53  76 102 135 175 215 255 303
#     4   9  19  36  57  79 105 138 172 211 262 315
#     4   9  17  31  54  79 100 130 174 216 253 302
#     4  10  20  35  56  80 105 135 174 217 260 310
#
# _framework density 25.840883000000002
#
# number of rings (size 3 to 8) (size 9 to 14) (size 15 to 20)
#    0.000    2.286    0.000    3.000    0.000    5.714 
#    0.000    3.571    0.000    4.286    0.000    0.000 
#    0.000    0.000    0.000    0.000    0.000    0.000 
#
# Total GULP energy -156593.635522 kJ/mol
# GULP energy per Si atom -5592.629840 kJ/mol
# Density = 2.578207 g / cm^3
# Si number density = 25.840883 Si / 1000 Ang^3
#
#
#
# Elastic Constant Matrix: (Units=GPa)
#
#
# Indices 1 2 3 4 5 6 
#
# 1 76.7597 -5.7379 0.6536 -0.0003 9.5458 -0.0002
# 2 -5.7379 99.5328 2.8277 -0.0006 6.1170 -0.0006
# 3 0.6536 2.8277 124.3137 -0.0001 13.4265 -0.0003
# 4 -0.0003 -0.0006 -0.0001 2.5784 -0.0001 3.9313
# 5 9.5458 6.1170 13.4265 -0.0001 52.4555 -0.0002
# 6 -0.0002 -0.0006 -0.0003 3.9313 -0.0002 18.8690
#
#
#
# Elastic Compliance Matrix: (Units=1/GPa)
#
#
# Indices 1 2 3 4 5 6 
#
# 1 0.013419 0.000928 0.000189 0.000002 -0.002598 0.000000
# 2 0.000928 0.010185 -0.000093 0.000003 -0.001333 0.000000
# 3 0.000189 -0.000093 0.008277 0.000000 -0.002142 0.000000
# 4 0.000002 0.000003 0.000000 0.568409 0.000000 -0.118428
# 5 -0.002598 -0.001333 -0.002142 0.000000 0.020240 0.000000
# 6 0.000000 0.000000 0.000000 -0.118428 0.000000 0.077671
#
#
# Mechanical properties :
#
#
# Convention : Reuss Voigt Hill
#
# Bulk Modulus (GPa) = 29.47355 32.89923 31.18639
# Shear Modulus (GPa) = 7.06752 34.97141 21.01946
#
# Velocity S-wave (km/s) = 1.65558 3.68276 2.85514
# Velocity P-wave (km/s) = 3.88396 5.55363 4.79207
#
# Compressibility (1/GPa) = 0.03392872
#
# Stress axis : x y z
#
# Youngs Moduli (GPa) = 74.52359 98.18379 120.82204
#
# Poissons Ratio (x) = -0.09110 -0.02283
# Poissons Ratio (y) = -0.06915 0.01119
# Poissons Ratio (z) = -0.01408 0.00909
#
# Static dielectric constant tensor:
#      x y z
#    x 2.064610 0.000000 0.055730 
#    y 0.000000 2.060580 0.000000 
#    z 0.055730 0.000000 2.099820 
# 
# From -- ./inp_files/275232.got.cif
#   From: 2010.05.17/outbox.cif.g08.bks.cpg/sg12_138_cif.got.tgz:275232.got - 2010.06.03 13:09:07.
