data_PCOD9181748
_publ_section_title
;
Structure prediction by ZEFSAII (Michael W. Deem and Ramdas Pophale) SiO2 
 PCOD9181748
Probable space group: C 2/M
;
_chemical_formula_sum "Si O2"
_cell_formula_units_Z 64
_cell_length_a 19.917362
_cell_length_b 7.283032
_cell_length_c 17.734626
_cell_angle_alpha 90.000000
_cell_angle_beta 85.385414
_cell_angle_gamma 90.000000
_cell_volume 2564.224151
_symmetry_space_group_name_H-M "C 2/M"
_symmetry_group_IT_number 12
_symmetry_cell_setting 'monoclinic'
loop_
_space_group_symop_operation_xyz
x,y,z
-x,y,-z
-x,-y,-z
x,-y,z
1/2+x,1/2+y,z
1/2-x,1/2+y,-z
1/2-x,1/2-y,-z
1/2+x,1/2-y,z
loop_
_atom_site_type_symbol
_atom_site_label
_atom_site_fract_x
_atom_site_fract_y
_atom_site_fract_z
Si Si1 0.840978 0.277167 0.945664
Si Si2 0.989591 0.277107 0.915745
Si Si3 0.351895 0.776873 0.375052
Si Si4 0.421920 0.776250 0.519872
Si Si5 0.197141 0.707209 0.889958
Si Si6 0.400252 0.216828 0.689908
Si Si7 0.036111 0.276122 0.756892
Si Si8 0.749136 0.220158 0.732471
O O1 0.834308 0.500000 0.946337
O O2 0.912174 0.231064 0.902860
O O3 0.774999 0.201756 0.911479
O O4 0.840347 0.215727 0.033485
O O5 0.993409 0.500000 0.918089
O O6 0.038408 0.216961 0.844001
O O7 0.000000 0.212767 0.000000
O O8 0.375300 0.713562 0.454939
O O9 0.407154 0.721895 0.307544
O O10 0.281159 0.718511 0.344858
O O11 0.351852 0.000000 0.378351
O O12 0.500000 0.724886 0.500000
O O13 0.399250 0.712545 0.604290
O O14 0.420383 0.000000 0.519114
O O15 0.170330 0.500000 0.883135
O O16 0.204894 0.791234 0.806687
O O17 0.464338 0.285959 0.729924
O O18 0.327514 0.239062 0.733305
O O19 0.412440 0.000000 0.682981
O O20 0.037911 0.500000 0.757986
O O21 0.742703 0.000000 0.736198
#
# Coordination Sequence:
#
# PCOD9181748 Si02
#       8
#     8   8   8   8   8   8   8   8
#     4   9  17  30  47  69  93 121 159 203 244 282
#     4   9  17  25  39  66  97 121 148 197 250 283
#     4   9  17  29  47  71 100 130 162 202 244 292
#     4   9  15  28  50  77 100 122 160 206 247 287
#     4   9  18  31  47  65  92 130 164 191 232 292
#     4  10  19  32  54  78  99 126 164 207 246 288
#     4   9  16  27  46  72  96 123 163 206 245 285
#     4  10  21  33  47  72 104 135 163 197 245 296
#
# _framework density 24.958815000000001
#
# number of rings (size 3 to 8) (size 9 to 14) (size 15 to 20)
#    0.000    2.750    1.250    0.750    1.750    2.000 
#    0.000    0.000    0.000    1.500    0.000    0.000 
#    0.000    0.000    0.000    0.000    0.000    0.000 
#
# Total GULP energy -178861.180952 kJ/mol
# GULP energy per Si atom -5589.411905 kJ/mol
# Density = 2.490201 g / cm^3
# Si number density = 24.958815 Si / 1000 Ang^3
#
#
#
# Elastic Constant Matrix: (Units=GPa)
#
#
# Indices 1 2 3 4 5 6 
#
# 1 64.4496 -8.6202 -3.9445 0.0000 6.3005 0.0000
# 2 -8.6202 106.4844 -0.3182 0.0000 1.8219 0.0000
# 3 -3.9445 -0.3182 123.1745 0.0000 7.3832 0.0000
# 4 0.0000 0.0000 0.0000 160.7766 0.0000 246.4743
# 5 6.3005 1.8219 7.3832 0.0000 44.7320 0.0000
# 6 0.0000 0.0000 0.0000 246.4743 0.0000 358.6144
#
#
#
# Elastic Compliance Matrix: (Units=1/GPa)
#
#
# Indices 1 2 3 4 5 6 
#
# 1 0.015971 0.001336 0.000660 0.000000 -0.002413 0.000000
# 2 0.001336 0.009510 0.000103 0.000000 -0.000593 0.000000
# 3 0.000660 0.000103 0.008227 0.000000 -0.001455 0.000000
# 4 0.000000 0.000000 0.000000 -0.115952 0.000000 0.079693
# 5 -0.002413 -0.000593 -0.001455 0.000000 0.022959 0.000000
# 6 0.000000 0.000000 0.000000 0.079693 0.000000 -0.051984
#
#
# Mechanical properties :
#
#
# Convention : Reuss Voigt Hill
#
# Bulk Modulus (GPa) = 26.38184 29.81585 28.09885
# Shear Modulus (GPa) = -48.62356 133.29070 42.33357
#
# Velocity S-wave (km/s) = -4.41858 7.31575 4.12289
# Velocity P-wave (km/s) = 3.92920 9.12865 5.82639
#
# Compressibility (1/GPa) = 0.03790486
#
# Stress axis : x y z
#
# Youngs Moduli (GPa) = 62.61371 105.15631 121.54858
#
# Poissons Ratio (x) = -0.14050 -0.08016
# Poissons Ratio (y) = -0.08366 -0.01250
# Poissons Ratio (z) = -0.04130 -0.01082
#
# Static dielectric constant tensor:
#      x y z
#    x 1.927940 0.000000 0.021680 
#    y 0.000000 2.001600 0.000000 
#    z 0.021680 0.000000 1.963880 
# 
# From -- ./inp_files/276519.got.cif
#   From: 2010.05.17/outbox.cif.g08.bks.cpg/sg12_139_cif.got.tgz:276519.got - 2010.06.03 13:09:07.
