data_PCOD9181193
_publ_section_title
;
Structure prediction by ZEFSAII (Michael W. Deem and Ramdas Pophale) SiO2 
 PCOD9181193
Probable space group: C 2/M
;
_chemical_formula_sum "Si O2"
_cell_formula_units_Z 48
_cell_length_a 21.982262
_cell_length_b 22.028932
_cell_length_c 12.352169
_cell_angle_alpha 90.000000
_cell_angle_beta 26.440991
_cell_angle_gamma 90.000000
_cell_volume 2663.411191
_symmetry_space_group_name_H-M "C 2/M"
_symmetry_group_IT_number 12
_symmetry_cell_setting 'monoclinic'
loop_
_space_group_symop_operation_xyz
x,y,z
-x,y,-z
-x,-y,-z
x,-y,z
1/2+x,1/2+y,z
1/2-x,1/2+y,-z
1/2-x,1/2-y,-z
1/2+x,1/2-y,z
loop_
_atom_site_type_symbol
_atom_site_label
_atom_site_fract_x
_atom_site_fract_y
_atom_site_fract_z
Si Si1 0.586885 0.932778 0.970738
Si Si2 0.620835 0.330457 0.239336
Si Si3 0.536209 0.235396 0.657043
Si Si4 0.459765 0.905386 0.397464
Si Si5 0.275071 0.933661 0.879179
Si Si6 0.795501 0.303517 0.170844
O O1 0.681040 0.872882 0.828471
O O2 0.653442 0.000000 0.869997
O O3 0.500000 0.929411 0.000000
O O4 0.485828 0.927477 0.234788
O O5 0.500000 0.361507 0.500000
O O6 0.551818 0.274954 0.286951
O O7 0.729878 0.308837 0.154685
O O8 0.681301 0.377485 0.058536
O O9 0.551258 0.167354 0.588220
O O10 0.685425 0.267384 0.418973
O O11 0.443170 0.227985 0.913729
O O12 0.331327 0.929840 0.667891
O O13 0.593046 0.925332 0.253066
O O14 0.214623 0.000000 0.995963
#
# Coordination Sequence:
#
# PCOD9181193 Si02
#       6
#     8   8   8   8   8   8
#     4  10  20  37  57  76 103 142 187 224 259 308
#     4  10  20  30  49  77 110 144 174 208 260 331
#     4  10  19  32  52  77 108 142 172 213 263 326
#     4  10  20  31  53  77 101 134 175 218 259 311
#     4  11  20  30  47  74 109 136 165 215 267 314
#     4  10  20  32  52  80 108 136 181 222 260 315
#
# _framework density 18.022000999999999
#
# number of rings (size 3 to 8) (size 9 to 14) (size 15 to 20)
#    0.000    1.833    3.333    3.500    7.000    0.333 
#    0.000    5.833    0.000    0.000    0.000    3.500 
#    0.000   48.000    0.000    0.000    0.000    0.000 
#
# Total GULP energy -133755.272420 kJ/mol
# GULP energy per Si atom -5573.136351 kJ/mol
# Density = 1.798098 g / cm^3
# Si number density = 18.022001 Si / 1000 Ang^3
#
#
#
# Elastic Constant Matrix: (Units=GPa)
#
#
# Indices 1 2 3 4 5 6 
#
# 1 41.8841 18.2669 15.9602 0.0006 16.6536 -0.0004
# 2 18.2669 135.9104 44.0738 0.0020 -2.1843 -0.0006
# 3 15.9602 44.0738 97.0154 0.0020 5.5078 -0.0010
# 4 0.0006 0.0020 0.0020 -2.4292 -0.0005 -0.9996
# 5 16.6536 -2.1843 5.5078 -0.0005 13.3736 0.0004
# 6 -0.0004 -0.0006 -0.0010 -0.9996 0.0004 11.5381
#
#
#
# Elastic Compliance Matrix: (Units=1/GPa)
#
#
# Indices 1 2 3 4 5 6 
#
# 1 0.056055 -0.008180 -0.001502 0.000018 -0.070521 0.000005
# 2 -0.008180 0.009950 -0.003937 0.000000 0.013433 0.000000
# 3 -0.001502 -0.003937 0.012567 0.000007 -0.003949 0.000002
# 4 0.000018 0.000000 0.000007 -0.397493 -0.000040 -0.034437
# 5 -0.070521 0.013433 -0.003949 -0.000040 0.166412 -0.000011
# 6 0.000005 0.000000 0.000002 -0.034437 -0.000011 0.083686
#
#
# Mechanical properties :
#
#
# Convention : Reuss Voigt Hill
#
# Bulk Modulus (GPa) = 19.48016 47.93462 33.70739
# Shear Modulus (GPa) = -204.31240 17.59710 -93.35765
#
# Velocity S-wave (km/s) = -10.65901 3.12817 -7.20517
# Velocity P-wave (km/s) = 11.85974 6.30102 7.10459
#
# Compressibility (1/GPa) = 0.05133428
#
# Stress axis : x y z
#
# Youngs Moduli (GPa) = 17.83948 100.50346 79.57040
#
# Poissons Ratio (x) = 0.82216 0.11949
# Poissons Ratio (y) = 0.14593 0.31328
# Poissons Ratio (z) = 0.02679 0.39569
#
# Static dielectric constant tensor:
#      x y z
#    x 1.593590 0.000000 0.000650 
#    y 0.000000 1.633080 0.000000 
#    z 0.000650 0.000000 1.675860 
# 
# From -- ./inp_files/133408.got.cif
#   From: 2010.05.17/outbox.cif.g08.bks.cpg/sg12_67_cif.got.tgz:133408.got - 2010.06.03 13:09:07.
