data_PCOD9181234
_publ_section_title
;
Structure prediction by ZEFSAII (Michael W. Deem and Ramdas Pophale) SiO2 
 PCOD9181234
Probable space group: C 2/M
;
_chemical_formula_sum "Si O2"
_cell_formula_units_Z 56
_cell_length_a 19.385979
_cell_length_b 13.593951
_cell_length_c 23.484121
_cell_angle_alpha 90.000000
_cell_angle_beta 156.134346
_cell_angle_gamma 90.000000
_cell_volume 2503.955520
_symmetry_space_group_name_H-M "C 2/M"
_symmetry_group_IT_number 12
_symmetry_cell_setting 'monoclinic'
loop_
_space_group_symop_operation_xyz
x,y,z
-x,y,-z
-x,-y,-z
x,-y,z
1/2+x,1/2+y,z
1/2-x,1/2+y,-z
1/2-x,1/2-y,-z
1/2+x,1/2-y,z
loop_
_atom_site_type_symbol
_atom_site_label
_atom_site_fract_x
_atom_site_fract_y
_atom_site_fract_z
Si Si1 0.453720 0.117435 0.633004
Si Si2 0.737958 0.615415 0.798882
Si Si3 0.695591 0.691051 0.647628
Si Si4 0.089650 0.113511 0.881018
Si Si5 0.829767 0.116008 0.490707
Si Si6 0.697520 0.111303 0.600131
Si Si7 0.255101 0.250212 0.910327
O O1 0.280934 0.139283 0.537564
O O2 0.424044 0.139839 0.544135
O O3 0.604441 0.179450 0.774129
O O4 0.484550 0.000000 0.660877
O O5 0.768521 0.500000 0.832770
O O6 0.780954 0.642481 0.766255
O O7 0.532007 0.634917 0.650030
O O8 0.823036 0.687909 0.908350
O O9 0.500000 0.653873 0.500000
O O10 0.755159 0.665243 0.629022
O O11 0.691772 0.808976 0.645608
O O12 0.183660 0.169756 0.901056
O O13 0.888147 0.111190 0.718728
O O14 0.148222 0.000000 0.931109
O O15 0.120466 0.178279 0.960846
O O16 0.816917 0.000000 0.470907
O O17 0.663763 0.000000 0.593192
#
# Coordination Sequence:
#
# PCOD9181234 Si02
#       7
#     8   8   8   8   8   8   8
#     4  10  19  32  55  87 115 139 177 227 269 309
#     4  10  20  34  53  78 107 141 181 221 265 321
#     4  10  19  32  52  78 109 143 181 222 265 314
#     4  10  22  39  57  80 111 144 177 216 268 328
#     4   9  17  29  49  80 115 145 173 215 271 321
#     4  10  21  37  56  79 109 144 181 222 269 320
#     4  11  21  35  58  83 110 143 177 219 269 318
#
# _framework density 22.364615000000001
#
# number of rings (size 3 to 8) (size 9 to 14) (size 15 to 20)
#    0.000    2.000    0.000    4.714    0.000    6.000 
#    0.000    2.143    0.000    5.143    0.000    0.000 
#    0.000    0.000    0.000    0.000    0.000    0.000 
#
# Total GULP energy -156551.036744 kJ/mol
# GULP energy per Si atom -5591.108455 kJ/mol
# Density = 2.231371 g / cm^3
# Si number density = 22.364615 Si / 1000 Ang^3
#
#
#
# Elastic Constant Matrix: (Units=GPa)
#
#
# Indices 1 2 3 4 5 6 
#
# 1 61.7084 39.9876 21.1108 0.0027 -14.2589 0.0014
# 2 39.9876 142.6309 37.7101 -0.0031 -29.5802 -0.0016
# 3 21.1108 37.7101 76.5374 0.0052 -17.5823 0.0019
# 4 0.0027 -0.0031 0.0052 22.1733 -0.0046 -11.3069
# 5 -14.2589 -29.5802 -17.5823 -0.0046 29.3016 -0.0020
# 6 0.0014 -0.0016 0.0019 -11.3069 -0.0020 29.0883
#
#
#
# Elastic Compliance Matrix: (Units=1/GPa)
#
#
# Indices 1 2 3 4 5 6 
#
# 1 0.020864 -0.004261 -0.002681 -0.000002 0.004243 -0.000002
# 2 -0.004261 0.010239 -0.002287 0.000006 0.006891 0.000004
# 3 -0.002681 -0.002287 0.016356 -0.000004 0.006201 -0.000002
# 4 -0.000002 0.000006 -0.000004 0.056249 0.000013 0.021864
# 5 0.004243 0.006891 0.006201 0.000013 0.046871 0.000008
# 6 -0.000002 0.000004 -0.000002 0.021864 0.000008 0.042877
#
#
# Mechanical properties :
#
#
# Convention : Reuss Voigt Hill
#
# Bulk Modulus (GPa) = 34.47894 53.16596 43.82245
# Shear Modulus (GPa) = 22.56530 28.25053 25.40791
#
# Velocity S-wave (km/s) = 3.17988 3.55798 3.37423
# Velocity P-wave (km/s) = 5.37888 6.37988 5.90065
#
# Compressibility (1/GPa) = 0.02900321
#
# Stress axis : x y z
#
# Youngs Moduli (GPa) = 47.93017 97.66255 61.13886
#
# Poissons Ratio (x) = 0.41609 0.16390
# Poissons Ratio (y) = 0.20421 0.13981
# Poissons Ratio (z) = 0.12849 0.22333
#
# Static dielectric constant tensor:
#      x y z
#    x 1.833830 0.000000 0.014350 
#    y 0.000000 1.828590 -0.000010 
#    z 0.014350 -0.000010 1.830580 
# 
# From -- ./inp_files/316749.got.cif
#   From: 2010.05.17/outbox.cif.g08.bks.cpg/sg12_159_cif.got.tgz:316749.got - 2010.06.03 13:09:07.
