data_PCOD9181282
_publ_section_title
;
Structure prediction by ZEFSAII (Michael W. Deem and Ramdas Pophale) SiO2 
 PCOD9181282
Probable space group: C 2/M
;
_chemical_formula_sum "Si O2"
_cell_formula_units_Z 48
_cell_length_a 23.283727
_cell_length_b 8.759109
_cell_length_c 13.194454
_cell_angle_alpha 90.000000
_cell_angle_beta 92.014823
_cell_angle_gamma 90.000000
_cell_volume 2689.275365
_symmetry_space_group_name_H-M "C 2/M"
_symmetry_group_IT_number 12
_symmetry_cell_setting 'monoclinic'
loop_
_space_group_symop_operation_xyz
x,y,z
-x,y,-z
-x,-y,-z
x,-y,z
1/2+x,1/2+y,z
1/2-x,1/2+y,-z
1/2-x,1/2-y,-z
1/2+x,1/2-y,z
loop_
_atom_site_type_symbol
_atom_site_label
_atom_site_fract_x
_atom_site_fract_y
_atom_site_fract_z
Si Si1 0.134915 0.327105 0.185572
Si Si2 0.372389 0.179711 0.200562
Si Si3 0.933035 0.182157 0.008682
Si Si4 0.818814 0.315324 0.398430
Si Si5 0.262353 0.325970 0.107284
Si Si6 0.684790 0.682653 0.381245
O O1 0.113426 0.500000 0.198507
O O2 0.101489 0.251528 0.089262
O O3 0.201452 0.333913 0.157268
O O4 0.140755 0.239773 0.292453
O O5 0.366005 0.232950 0.317114
O O6 0.307643 0.214470 0.161018
O O7 0.385028 0.000000 0.199707
O O8 0.410727 0.258777 0.116555
O O9 0.926294 0.000000 0.005344
O O10 0.000000 0.220816 0.000000
O O11 0.819366 0.500000 0.401426
O O12 0.752279 0.269375 0.368415
O O13 0.830875 0.248664 0.509765
O O14 0.285388 0.500000 0.101007
O O15 0.250000 0.250000 0.000000
O O16 0.684417 0.500000 0.382654
#
# Coordination Sequence:
#
# PCOD9181282 Si02
#       6
#     8   8   8   8   8   8
#     4  11  22  35  55  81 112 148 184 224 273 330
#     4  11  21  35  56  81 112 148 183 225 275 328
#     4  11  25  42  59  80 107 142 186 235 283 331
#     4   9  19  33  50  78 115 150 184 219 263 323
#     4  11  21  31  49  79 113 146 180 220 272 333
#     4  10  19  32  52  79 115 152 184 220 265 322
#
# _framework density 17.848673000000002
#
# number of rings (size 3 to 8) (size 9 to 14) (size 15 to 20)
#    0.000    1.500    3.333    2.500    0.000    4.667 
#    0.000    0.000    0.000    1.000    0.000    7.000 
#    0.000    0.000    0.000    0.000    0.000    0.000 
#
# Total GULP energy -133749.897491 kJ/mol
# GULP energy per Si atom -5572.912395 kJ/mol
# Density = 1.780805 g / cm^3
# Si number density = 17.848673 Si / 1000 Ang^3
#
#
#
# Elastic Constant Matrix: (Units=GPa)
#
#
# Indices 1 2 3 4 5 6 
#
# 1 71.5556 22.9395 47.6868 0.0000 -13.5991 0.0000
# 2 22.9395 40.3294 45.4799 0.0000 -3.8725 0.0000
# 3 47.6868 45.4799 161.7420 0.0000 -19.3117 0.0000
# 4 0.0000 0.0000 0.0000 21.9995 0.0000 -2.0820
# 5 -13.5991 -3.8725 -19.3117 0.0000 11.4809 0.0000
# 6 0.0000 0.0000 0.0000 -2.0820 0.0000 19.9693
#
#
#
# Elastic Compliance Matrix: (Units=1/GPa)
#
#
# Indices 1 2 3 4 5 6 
#
# 1 0.021575 -0.008600 -0.001549 0.000000 0.020049 0.000000
# 2 -0.008600 0.040090 -0.010435 0.000000 -0.014216 0.000000
# 3 -0.001549 -0.010435 0.011179 0.000000 0.013450 0.000000
# 4 0.000000 0.000000 0.000000 0.045909 0.000000 0.004786
# 5 0.020049 -0.014216 0.013450 0.000000 0.128679 0.000000
# 6 0.000000 0.000000 0.000000 0.004786 0.000000 0.050576
#
#
# Mechanical properties :
#
#
# Convention : Reuss Voigt Hill
#
# Bulk Modulus (GPa) = 31.56869 56.20438 43.88653
# Shear Modulus (GPa) = 14.29663 21.19131 17.74397
#
# Velocity S-wave (km/s) = 2.83325 3.44943 3.15641
# Velocity P-wave (km/s) = 5.33182 6.88640 6.15836
#
# Compressibility (1/GPa) = 0.03167695
#
# Stress axis : x y z
#
# Youngs Moduli (GPa) = 46.35056 24.94415 89.45061
#
# Poissons Ratio (x) = 0.21452 0.13855
# Poissons Ratio (y) = 0.39861 0.93338
# Poissons Ratio (z) = 0.07179 0.26028
#
# Static dielectric constant tensor:
#      x y z
#    x 1.603450 0.000000 -0.015350 
#    y 0.000000 1.636380 0.000000 
#    z -0.015350 0.000000 1.659490 
# 
# From -- ./inp_files/172337.got.cif
#   From: 2010.05.17/outbox.cif.g08.bks.cpg/sg12_87_cif.got.tgz:172337.got - 2010.06.03 13:09:07.
