data_PCOD9181741
_publ_section_title
;
Structure prediction by ZEFSAII (Michael W. Deem and Ramdas Pophale) SiO2 
 PCOD9181741
Probable space group: C 2/M
;
_chemical_formula_sum "Si O2"
_cell_formula_units_Z 64
_cell_length_a 23.742714
_cell_length_b 13.526627
_cell_length_c 12.960616
_cell_angle_alpha 90.000000
_cell_angle_beta 122.238072
_cell_angle_gamma 90.000000
_cell_volume 3520.733638
_symmetry_space_group_name_H-M "C 2/M"
_symmetry_group_IT_number 12
_symmetry_cell_setting 'monoclinic'
loop_
_space_group_symop_operation_xyz
x,y,z
-x,y,-z
-x,-y,-z
x,-y,z
1/2+x,1/2+y,z
1/2-x,1/2+y,-z
1/2-x,1/2-y,-z
1/2+x,1/2-y,z
loop_
_atom_site_type_symbol
_atom_site_label
_atom_site_fract_x
_atom_site_fract_y
_atom_site_fract_z
Si Si1 0.799851 0.385659 0.545445
Si Si2 0.296154 0.687000 0.175689
Si Si3 0.418175 0.387788 0.158583
Si Si4 0.080452 0.618501 0.178824
Si Si5 0.317423 0.112866 0.083348
Si Si6 0.932132 0.689113 0.063042
Si Si7 0.037679 0.115881 0.433649
Si Si8 0.683325 0.696774 0.565194
O O1 0.806560 0.500000 0.523054
O O2 0.858805 0.360351 0.684687
O O3 0.730114 0.366405 0.535194
O O4 0.804899 0.310090 0.455910
O O5 0.359161 0.635874 0.181630
O O6 0.301283 0.803310 0.151824
O O7 0.297183 0.674475 0.298324
O O8 0.231841 0.639904 0.059150
O O9 0.411320 0.500000 0.114263
O O10 0.417637 0.304090 0.071083
O O11 0.486426 0.377935 0.289320
O O12 0.072166 0.500000 0.165384
O O13 0.010418 0.665223 0.146048
O O14 0.091757 0.657387 0.073852
O O15 0.391091 0.130420 0.110024
O O16 0.307871 0.000000 0.106847
O O17 0.105765 0.171678 0.478905
O O18 0.000000 0.152311 0.500000
O O19 0.053766 0.000000 0.467275
#
# Coordination Sequence:
#
# PCOD9181741 Si02
#       8
#     8   8   8   8   8   8   8   8
#     4  10  23  38  56  80 107 142 181 224 270 317
#     4  10  21  34  53  78 107 140 174 215 266 319
#     4  10  20  34  51  78 110 140 173 217 267 319
#     4  10  19  35  56  78 104 137 179 225 265 310
#     4  10  20  34  52  79 108 137 174 217 264 318
#     4  10  19  32  54  78 104 137 179 220 266 314
#     4  10  19  32  55  82 107 139 179 220 263 311
#     4  11  21  37  58  80 109 141 180 225 267 319
#
# _framework density 18.17803
#
# number of rings (size 3 to 8) (size 9 to 14) (size 15 to 20)
#    0.000    1.875    1.250    3.750    0.000    3.000 
#    0.000    1.250    0.000    8.625    0.000    0.000 
#    0.000    0.000    0.000    0.000    0.000    0.000 
#
# Total GULP energy -178673.839313 kJ/mol
# GULP energy per Si atom -5583.557479 kJ/mol
# Density = 1.813666 g / cm^3
# Si number density = 18.178030 Si / 1000 Ang^3
#
#
#
# Elastic Constant Matrix: (Units=GPa)
#
#
# Indices 1 2 3 4 5 6 
#
# 1 87.2163 9.1439 3.8577 0.0000 2.3290 0.0000
# 2 9.1439 82.4376 -2.0560 0.0000 -3.7774 0.0000
# 3 3.8577 -2.0560 15.1236 0.0000 -0.3896 0.0000
# 4 0.0000 0.0000 0.0000 21.3664 0.0000 4.4154
# 5 2.3290 -3.7774 -0.3896 0.0000 19.2162 0.0000
# 6 0.0000 0.0000 0.0000 4.4154 0.0000 11.3650
#
#
#
# Elastic Compliance Matrix: (Units=1/GPa)
#
#
# Indices 1 2 3 4 5 6 
#
# 1 0.011812 -0.001473 -0.003259 0.000000 -0.001787 0.000000
# 2 -0.001473 0.012470 0.002140 0.000000 0.002673 0.000000
# 3 -0.003259 0.002140 0.067300 0.000000 0.002180 0.000000
# 4 0.000000 0.000000 0.000000 0.050888 0.000000 -0.019771
# 5 -0.001787 0.002673 0.002180 0.000000 0.052826 0.000000
# 6 0.000000 0.000000 0.000000 -0.019771 0.000000 0.095670
#
#
# Mechanical properties :
#
#
# Convention : Reuss Voigt Hill
#
# Bulk Modulus (GPa) = 11.57455 22.96318 17.26887
# Shear Modulus (GPa) = 15.38695 21.97831 18.68263
#
# Velocity S-wave (km/s) = 2.91255 3.48093 3.20935
# Velocity P-wave (km/s) = 4.20616 5.36802 4.82221
#
# Compressibility (1/GPa) = 0.08639641
#
# Stress axis : x y z
#
# Youngs Moduli (GPa) = 84.65883 80.19454 14.85878
#
# Poissons Ratio (x) = 0.11816 0.04843
# Poissons Ratio (y) = 0.12473 -0.03180
# Poissons Ratio (z) = 0.27593 -0.17161
#
# Static dielectric constant tensor:
#      x y z
#    x 1.622160 0.000000 0.017460 
#    y 0.000000 1.620560 0.000000 
#    z 0.017460 0.000000 1.601690 
# 
# From -- ./inp_files/175291.got.cif
#   From: 2010.05.17/outbox.cif.g08.bks.cpg/sg12_88_cif.got.tgz:175291.got - 2010.06.03 13:09:07.
