data_PCOD9181764
_publ_section_title
;
Structure prediction by ZEFSAII (Michael W. Deem and Ramdas Pophale) SiO2 
 PCOD9181764
Probable space group: C 2/M
;
_chemical_formula_sum "Si O2"
_cell_formula_units_Z 64
_cell_length_a 11.494553
_cell_length_b 22.556018
_cell_length_c 26.815388
_cell_angle_alpha 90.000000
_cell_angle_beta 152.201327
_cell_angle_gamma 90.000000
_cell_volume 3242.392814
_symmetry_space_group_name_H-M "C 2/M"
_symmetry_group_IT_number 12
_symmetry_cell_setting 'monoclinic'
loop_
_space_group_symop_operation_xyz
x,y,z
-x,y,-z
-x,-y,-z
x,-y,z
1/2+x,1/2+y,z
1/2-x,1/2+y,-z
1/2-x,1/2-y,-z
1/2+x,1/2-y,z
loop_
_atom_site_type_symbol
_atom_site_label
_atom_site_fract_x
_atom_site_fract_y
_atom_site_fract_z
Si Si1 0.941127 0.432555 0.725171
Si Si2 0.273706 0.929172 0.447402
Si Si3 0.533986 0.858581 0.851477
Si Si4 0.754687 0.236900 0.062506
Si Si5 0.963452 0.894249 0.160581
Si Si6 0.773875 0.068500 0.194630
Si Si7 0.543936 0.435635 0.950090
Si Si8 0.539249 0.927827 0.377346
O O1 0.854469 0.500000 0.701330
O O2 0.888703 0.391477 0.752059
O O3 0.244743 0.432664 0.838025
O O4 0.859616 0.412432 0.639284
O O5 0.500000 0.904237 0.500000
O O6 0.293112 0.909349 0.512121
O O7 0.022774 0.921784 0.321571
O O8 0.312178 0.000000 0.465332
O O9 0.566062 0.790202 0.852178
O O10 0.405680 0.879964 0.853746
O O11 0.809629 0.885862 0.964436
O O12 0.875612 0.172973 0.118210
O O13 0.500000 0.240182 0.000000
O O14 0.750000 0.250000 0.000000
O O15 0.836239 0.921560 0.160813
O O16 0.892546 0.929444 0.083892
O O17 0.262712 0.901068 0.279665
O O18 0.690385 0.000000 0.171399
O O19 0.627138 0.500000 0.000344
O O20 0.510361 0.000000 0.365243
#
# Coordination Sequence:
#
# PCOD9181764 Si02
#       8
#     8   8   8   8   8   8   8   8
#     4   9  18  32  52  80 107 142 191 232 284 353
#     4   9  16  31  57  88 121 149 178 234 311 380
#     4  12  23  37  53  77 115 162 200 241 290 353
#     4  12  26  44  60  81 119 167 219 251 292 357
#     4  11  21  35  56  85 114 150 198 246 297 351
#     4  11  22  36  59  94 126 150 191 252 319 368
#     4  10  19  32  54  79 109 144 185 240 299 348
#     4   9  17  33  59  89 114 142 186 240 300 362
#
# _framework density 19.738510000000002
#
# number of rings (size 3 to 8) (size 9 to 14) (size 15 to 20)
#    0.000    1.625    2.500    4.875    1.750    1.000 
#    0.000    1.875    0.000    3.750    3.250    0.000 
#    0.000    0.000    0.000    0.000    0.000    0.000 
#
# Total GULP energy -178543.582516 kJ/mol
# GULP energy per Si atom -5579.486954 kJ/mol
# Density = 1.969358 g / cm^3
# Si number density = 19.738510 Si / 1000 Ang^3
#
#
#
# Elastic Constant Matrix: (Units=GPa)
#
#
# Indices 1 2 3 4 5 6 
#
# 1 113.5893 15.8693 18.8329 0.0015 -27.2617 -0.0013
# 2 15.8693 80.6848 4.2144 -0.0030 -1.8243 -0.0034
# 3 18.8329 4.2144 44.4391 0.0181 -25.6944 0.0067
# 4 0.0015 -0.0030 0.0181 2.7135 -0.0034 -5.0986
# 5 -27.2617 -1.8243 -25.6944 -0.0034 32.7130 -0.0040
# 6 -0.0013 -0.0034 0.0067 -5.0986 -0.0040 14.6396
#
#
#
# Elastic Compliance Matrix: (Units=1/GPa)
#
#
# Indices 1 2 3 4 5 6 
#
# 1 0.011373 -0.002075 0.001447 0.000000 0.010499 0.000003
# 2 -0.002075 0.012838 -0.001693 0.000085 -0.002343 0.000032
# 3 0.001447 -0.001693 0.041573 -0.000743 0.033765 -0.000269
# 4 0.000000 0.000085 -0.000743 1.066309 -0.000424 0.371366
# 5 0.010499 -0.002343 0.033765 -0.000424 0.065709 -0.000145
# 6 0.000003 0.000032 -0.000269 0.371366 -0.000145 0.197644
#
#
# Mechanical properties :
#
#
# Convention : Reuss Voigt Hill
#
# Bulk Modulus (GPa) = 16.35511 35.17183 25.76347
# Shear Modulus (GPa) = 3.51997 23.33299 13.42648
#
# Velocity S-wave (km/s) = 1.33685 3.44191 2.61093
# Velocity P-wave (km/s) = 3.26906 5.80114 4.70850
#
# Compressibility (1/GPa) = 0.06114297
#
# Stress axis : x y z
#
# Youngs Moduli (GPa) = 87.92416 77.89676 24.05408
#
# Poissons Ratio (x) = 0.16165 -0.03482
# Poissons Ratio (y) = 0.18246 0.04072
# Poissons Ratio (z) = -0.12727 0.13186
#
# Static dielectric constant tensor:
#      x y z
#    x 1.781760 0.000000 0.005530 
#    y 0.000000 1.664350 0.000000 
#    z 0.005530 0.000000 1.729090 
# 
# From -- ./inp_files/359003.got.cif
#   From: 2010.05.17/outbox.cif.g08.bks.cpg/sg12_180_cif.got.tgz:359003.got - 2010.06.03 13:09:07.
