data_PCOD9181540
_publ_section_title
;
Structure prediction by ZEFSAII (Michael W. Deem and Ramdas Pophale) SiO2 
 PCOD9181540
Probable space group: C 2/M
;
_chemical_formula_sum "Si O2"
_cell_formula_units_Z 48
_cell_length_a 9.185795
_cell_length_b 17.875024
_cell_length_c 25.406883
_cell_angle_alpha 90.000000
_cell_angle_beta 43.770629
_cell_angle_gamma 90.000000
_cell_volume 2885.881117
_symmetry_space_group_name_H-M "C 2/M"
_symmetry_group_IT_number 12
_symmetry_cell_setting 'monoclinic'
loop_
_space_group_symop_operation_xyz
x,y,z
-x,y,-z
-x,-y,-z
x,-y,z
1/2+x,1/2+y,z
1/2-x,1/2+y,-z
1/2-x,1/2-y,-z
1/2+x,1/2-y,z
loop_
_atom_site_type_symbol
_atom_site_label
_atom_site_fract_x
_atom_site_fract_y
_atom_site_fract_z
Si Si1 0.862714 0.909919 0.654570
Si Si2 0.755986 0.173861 0.789877
Si Si3 0.085500 0.825590 0.790425
Si Si4 0.667138 0.091121 0.500395
Si Si5 0.679019 0.089215 0.911112
Si Si6 0.481720 0.909919 0.344626
O O1 0.800331 0.871340 0.725301
O O2 0.694201 0.892664 0.653111
O O3 0.096304 0.885875 0.575855
O O4 0.865752 0.000000 0.660804
O O5 0.636728 0.249603 0.807059
O O6 0.634503 0.124139 0.865120
O O7 0.975644 0.191021 0.762691
O O8 0.298695 0.871220 0.726352
O O9 0.905553 0.874834 0.865962
O O10 0.500000 0.115701 0.500000
O O11 0.597534 0.114132 0.576932
O O12 0.666973 0.000000 0.500421
O O13 0.696947 0.000000 0.902744
O O14 0.500000 0.108026 0.000000
O O15 0.509846 0.000000 0.338274
#
# Coordination Sequence:
#
# PCOD9181540 Si02
#       6
#     8   8   8   8   8   8
#     4  10  19  32  53  79 112 151 195 241 284 333
#     4  10  21  35  56  81 114 148 188 231 284 339
#     4  10  21  35  56  81 114 148 188 231 284 339
#     4   9  17  29  48  77 110 149 197 242 282 330
#     4   9  20  38  62  87 112 146 189 233 280 342
#     4  10  19  32  53  79 112 151 195 241 284 333
#
# _framework density 16.632701999999998
#
# number of rings (size 3 to 8) (size 9 to 14) (size 15 to 20)
#    1.000    1.333    0.000    3.500    0.000    4.000 
#    0.000    0.833    0.000    0.000    0.000    7.000 
#    0.000    0.000    0.000    0.000    0.000    0.000 
#
# Total GULP energy -133690.235684 kJ/mol
# GULP energy per Si atom -5570.426487 kJ/mol
# Density = 1.659485 g / cm^3
# Si number density = 16.632702 Si / 1000 Ang^3
#
#
#
# Elastic Constant Matrix: (Units=GPa)
#
#
# Indices 1 2 3 4 5 6 
#
# 1 142.0777 59.1916 86.1379 0.0047 -0.4967 -0.0007
# 2 59.1916 61.5137 71.4643 -0.0061 -3.7617 0.0009
# 3 86.1379 71.4643 181.6022 -0.0211 -10.7394 -0.0008
# 4 0.0047 -0.0061 -0.0211 -8.7957 -0.0090 2.3314
# 5 -0.4967 -3.7617 -10.7394 -0.0090 2.3210 -0.0003
# 6 -0.0007 0.0009 -0.0008 2.3314 -0.0003 31.4745
#
#
#
# Elastic Compliance Matrix: (Units=1/GPa)
#
#
# Indices 1 2 3 4 5 6 
#
# 1 0.014020 -0.010127 -0.004760 0.000061 -0.035439 -0.000004
# 2 -0.010127 0.037379 -0.008882 -0.000028 0.017316 0.000001
# 3 -0.004760 -0.008882 0.014246 -0.000081 0.050505 0.000007
# 4 0.000061 -0.000028 -0.000081 -0.111502 -0.000838 0.008259
# 5 -0.035439 0.017316 0.050505 -0.000838 0.685018 0.000068
# 6 -0.000004 0.000001 0.000007 0.008259 0.000068 0.031160
#
#
# Mechanical properties :
#
#
# Convention : Reuss Voigt Hill
#
# Bulk Modulus (GPa) = 55.22958 90.97569 73.10263
# Shear Modulus (GPa) = 6.90708 16.22662 11.56685
#
# Velocity S-wave (km/s) = 2.04003 3.12682 2.63996
# Velocity P-wave (km/s) = 6.23109 8.23721 7.30336
#
# Compressibility (1/GPa) = 0.01810624
#
# Stress axis : x y z
#
# Youngs Moduli (GPa) = 71.32817 26.75303 70.19331
#
# Poissons Ratio (x) = 0.27093 0.33414
# Poissons Ratio (y) = 0.72236 0.62344
# Poissons Ratio (z) = 0.33954 0.23762
#
# Static dielectric constant tensor:
#      x y z
#    x 1.549770 0.000000 0.000970 
#    y 0.000000 1.550760 0.000000 
#    z 0.000970 0.000000 1.533480 
# 
# From -- ./inp_files/301553.got.cif
#   From: 2010.05.17/outbox.cif.g08.bks.cpg/sg12_151_cif.got.tgz:301553.got - 2010.06.03 13:09:07.
