data_PCOD9181927
_publ_section_title
;
Structure prediction by ZEFSAII (Michael W. Deem and Ramdas Pophale) SiO2 
 PCOD9181927
Probable space group: C 2/M
;
_chemical_formula_sum "Si O2"
_cell_formula_units_Z 52
_cell_length_a 17.994217
_cell_length_b 12.143163
_cell_length_c 9.874823
_cell_angle_alpha 90.000000
_cell_angle_beta 100.762642
_cell_angle_gamma 90.000000
_cell_volume 2119.759191
_symmetry_space_group_name_H-M "C 2/M"
_symmetry_group_IT_number 12
_symmetry_cell_setting 'monoclinic'
loop_
_space_group_symop_operation_xyz
x,y,z
-x,y,-z
-x,-y,-z
x,-y,z
1/2+x,1/2+y,z
1/2-x,1/2+y,-z
1/2-x,1/2-y,-z
1/2+x,1/2-y,z
loop_
_atom_site_type_symbol
_atom_site_label
_atom_site_fract_x
_atom_site_fract_y
_atom_site_fract_z
Si Si1 0.740832 0.279454 0.158193
Si Si2 0.075714 0.500000 0.435349
Si Si3 0.167836 0.500000 0.735694
Si Si4 0.679523 0.624334 0.602409
Si Si5 0.416201 0.000000 0.029707
Si Si6 0.591280 0.758598 0.023154
Si Si7 0.949158 0.879606 0.227694
Si Si8 0.932543 0.740337 0.593440
O O1 0.786198 0.389836 0.212560
O O2 0.765799 0.183794 0.271433
O O3 0.650748 0.300225 0.139753
O O4 0.750000 0.250000 0.000000
O O5 0.140999 0.500000 0.572020
O O6 0.077656 0.615518 0.357550
O O7 0.000000 0.500000 0.500000
O O8 0.094687 0.500000 0.811610
O O9 0.703946 0.500000 0.569167
O O10 0.600191 0.608753 0.655058
O O11 0.648242 0.710910 0.480982
O O12 0.500000 0.000000 0.000000
O O13 0.383272 0.114682 0.968696
O O14 0.500000 0.753396 0.000000
O O15 0.599191 0.701633 0.880329
O O16 0.027566 0.823493 0.291030
O O17 0.958405 0.000000 0.167299
O O18 0.000000 0.730074 0.500000
#
# Coordination Sequence:
#
# PCOD9181927 Si02
#       8
#     8   4   4   8   4   8   8   8
#     4  12  23  35  58  86 118 159 198 248 298 351
#     4  10  20  30  54  87 121 156 185 250 311 348
#     4  12  22  38  59  92 126 154 207 250 293 357
#     4  10  19  32  54  84 115 147 189 243 296 346
#     4  10  22  38  58  83 123 161 195 241 287 352
#     4  11  25  41  58  86 121 161 204 243 301 364
#     4  10  20  35  57  82 116 155 197 241 297 356
#     4   9  18  32  50  84 115 148 191 240 301 349
#
# _framework density 24.531088
#
# number of rings (size 3 to 8) (size 9 to 14) (size 15 to 20)
#    0.000    1.538    4.615    0.462    7.538    2.154 
#    0.000    0.000    0.000    0.923    0.000    0.000 
#    0.000    0.000    0.000    0.000    0.000    0.000 
#
# Total GULP energy -145104.162949 kJ/mol
# GULP energy per Si atom -5580.929344 kJ/mol
# Density = 2.447525 g / cm^3
# Si number density = 24.531088 Si / 1000 Ang^3
#
#
#
# Elastic Constant Matrix: (Units=GPa)
#
#
# Indices 1 2 3 4 5 6 
#
# 1 83.4279 9.6149 16.3552 0.0000 11.0658 0.0000
# 2 9.6149 151.7773 18.7980 0.0000 11.2930 0.0000
# 3 16.3552 18.7980 62.2559 0.0000 28.6188 0.0000
# 4 0.0000 0.0000 0.0000 -13.3345 0.0000 4.2185
# 5 11.0658 11.2930 28.6188 0.0000 38.2355 0.0000
# 6 0.0000 0.0000 0.0000 4.2185 0.0000 10.0482
#
#
#
# Elastic Compliance Matrix: (Units=1/GPa)
#
#
# Indices 1 2 3 4 5 6 
#
# 1 0.012738 -0.000376 -0.002423 0.000000 -0.001762 0.000000
# 2 -0.000376 0.006869 -0.001666 0.000000 -0.000673 0.000000
# 3 -0.002423 -0.001666 0.025390 0.000000 -0.017811 0.000000
# 4 0.000000 0.000000 0.000000 -0.066201 0.000000 0.027793
# 5 -0.001762 -0.000673 -0.017811 0.000000 0.040193 0.000000
# 6 0.000000 0.000000 0.000000 0.027793 0.000000 0.087852
#
#
# Mechanical properties :
#
#
# Convention : Reuss Voigt Hill
#
# Bulk Modulus (GPa) = 27.72567 42.99970 35.36268
# Shear Modulus (GPa) = 39.12574 23.83607 31.48090
#
# Velocity S-wave (km/s) = 3.99801 3.12054 3.58621
# Velocity P-wave (km/s) = 5.71305 5.52724 5.62091
#
# Compressibility (1/GPa) = 0.03606766
#
# Stress axis : x y z
#
# Youngs Moduli (GPa) = 78.50263 145.58563 39.38598
#
# Poissons Ratio (x) = 0.05470 0.09543
# Poissons Ratio (y) = 0.02950 0.06561
# Poissons Ratio (z) = 0.19021 0.24253
#
# Static dielectric constant tensor:
#      x y z
#    x 2.076400 0.000000 -0.111610 
#    y 0.000000 1.964860 0.000000 
#    z -0.111610 0.000000 1.988430 
# 
# From -- ./inp_files/165813.got.cif
#   From: 2010.05.17/outbox.cif.g08.bks.cpg/sg12_83_cif.got.tgz:165813.got - 2010.06.03 13:09:07.
