data_PCOD9181389
_publ_section_title
;
Structure prediction by ZEFSAII (Michael W. Deem and Ramdas Pophale) SiO2 
 PCOD9181389
Probable space group: C 2/M
;
_chemical_formula_sum "Si O2"
_cell_formula_units_Z 58
_cell_length_a 18.999592
_cell_length_b 7.761716
_cell_length_c 19.460677
_cell_angle_alpha 90.000000
_cell_angle_beta 50.693845
_cell_angle_gamma 90.000000
_cell_volume 2220.613980
_symmetry_space_group_name_H-M "C 2/M"
_symmetry_group_IT_number 12
_symmetry_cell_setting 'monoclinic'
loop_
_space_group_symop_operation_xyz
x,y,z
-x,y,-z
-x,-y,-z
x,-y,z
1/2+x,1/2+y,z
1/2-x,1/2+y,-z
1/2-x,1/2-y,-z
1/2+x,1/2-y,z
loop_
_atom_site_type_symbol
_atom_site_label
_atom_site_fract_x
_atom_site_fract_y
_atom_site_fract_z
Si Si1 0.229760 0.211291 0.718306
Si Si2 0.090832 0.197930 0.912902
Si Si3 0.964446 0.802573 0.810925
Si Si4 0.615389 0.197204 0.275797
Si Si5 0.328075 0.806079 0.004058
Si Si6 0.843770 0.208400 0.375692
Si Si7 0.417209 0.809134 0.470419
Si Si8 0.500000 0.500000 0.500000
O O1 0.140411 0.270374 0.815463
O O2 0.313699 0.268546 0.713110
O O3 0.227156 0.259613 0.639954
O O4 0.228912 0.000000 0.719527
O O5 0.068150 0.000000 0.910043
O O6 0.161033 0.199411 0.933168
O O7 0.000000 0.281954 0.000000
O O8 0.895270 0.793496 0.789309
O O9 0.920284 0.707270 0.902105
O O10 0.059996 0.742707 0.720520
O O11 0.975859 0.000000 0.824630
O O12 0.516423 0.195211 0.371981
O O13 0.639952 0.000000 0.244501
O O14 0.311838 0.000000 0.035861
O O15 0.250000 0.750000 0.000000
O O16 0.847907 0.287182 0.449097
O O17 0.843951 0.000000 0.383421
O O18 0.430476 0.651686 0.513354
O O19 0.403908 0.000000 0.510355
#
# Coordination Sequence:
#
# PCOD9181389 Si02
#       8
#     8   8   8   8   8   8   8   2
#     4   9  17  31  55  81 110 154 192 238 293 340
#     4  10  20  35  54  79 111 149 198 241 292 359
#     4  10  19  32  53  76 105 142 190 243 293 343
#     4   9  18  33  54  85 116 148 194 245 283 335
#     4  12  24  36  50  70 101 145 191 249 305 356
#     4   9  17  34  58  86 114 148 190 230 279 334
#     4  10  21  37  62  96 123 152 194 234 277 336
#     4  12  22  40  68  94 124 160 182 226 284 342
#
# _framework density 26.118901999999999
#
# number of rings (size 3 to 8) (size 9 to 14) (size 15 to 20)
#    0.000    2.069    0.690    3.517    0.966    4.138 
#    0.000    1.379    0.000    0.828    0.000    0.000 
#    0.000    0.000    0.000    0.000    0.000    0.000 
#
# Total GULP energy -162106.709837 kJ/mol
# GULP energy per Si atom -5589.886546 kJ/mol
# Density = 2.605945 g / cm^3
# Si number density = 26.118902 Si / 1000 Ang^3
#
#
#
# Elastic Constant Matrix: (Units=GPa)
#
#
# Indices 1 2 3 4 5 6 
#
# 1 180.6269 24.1294 37.1453 0.0000 35.2417 0.0002
# 2 24.1294 98.1994 18.4818 -0.0003 15.6830 0.0007
# 3 37.1453 18.4818 128.4611 0.0000 19.0542 0.0000
# 4 0.0000 -0.0003 0.0000 6.4076 0.0000 7.7402
# 5 35.2417 15.6830 19.0542 0.0000 46.9331 -0.0001
# 6 0.0002 0.0007 0.0000 7.7402 -0.0001 23.0016
#
#
#
# Elastic Compliance Matrix: (Units=1/GPa)
#
#
# Indices 1 2 3 4 5 6 
#
# 1 0.006723 -0.000737 -0.001198 0.000000 -0.004316 0.000000
# 2 -0.000737 0.010981 -0.000962 0.000001 -0.002725 -0.000001
# 3 -0.001198 -0.000962 0.008606 0.000000 -0.002273 0.000000
# 4 0.000000 0.000001 0.000000 0.262954 -0.000001 -0.088486
# 5 -0.004316 -0.002725 -0.002273 -0.000001 0.026381 0.000001
# 6 0.000000 -0.000001 0.000000 -0.088486 0.000001 0.073251
#
#
# Mechanical properties :
#
#
# Convention : Reuss Voigt Hill
#
# Bulk Modulus (GPa) = 48.74425 62.97780 55.86103
# Shear Modulus (GPa) = 12.45237 37.10386 24.77811
#
# Velocity S-wave (km/s) = 2.18585 3.77314 3.08338
# Velocity P-wave (km/s) = 5.00735 6.56859 5.84037
#
# Compressibility (1/GPa) = 0.02051524
#
# Stress axis : x y z
#
# Youngs Moduli (GPa) = 148.74055 91.06757 116.19207
#
# Poissons Ratio (x) = 0.06715 0.13918
# Poissons Ratio (y) = 0.10967 0.11183
# Poissons Ratio (z) = 0.17817 0.08765
#
# Static dielectric constant tensor:
#      x y z
#    x 2.114360 0.000000 -0.066020 
#    y 0.000000 2.104100 0.000000 
#    z -0.066020 0.000000 2.073330 
# 
# From -- ./inp_files/314306.got.cif
#   From: 2010.05.17/outbox.cif.g08.bks.cpg/sg12_158_cif.got.tgz:314306.got - 2010.06.03 13:09:07.
