data_PCOD9181584
_publ_section_title
;
Structure prediction by ZEFSAII (Michael W. Deem and Ramdas Pophale) SiO2 
 PCOD9181584
Probable space group: C 2/M
;
_chemical_formula_sum "Si O2"
_cell_formula_units_Z 40
_cell_length_a 27.200904
_cell_length_b 11.229114
_cell_length_c 6.374561
_cell_angle_alpha 90.000000
_cell_angle_beta 111.132345
_cell_angle_gamma 90.000000
_cell_volume 1816.119583
_symmetry_space_group_name_H-M "C 2/M"
_symmetry_group_IT_number 12
_symmetry_cell_setting 'monoclinic'
loop_
_space_group_symop_operation_xyz
x,y,z
-x,y,-z
-x,-y,-z
x,-y,z
1/2+x,1/2+y,z
1/2-x,1/2+y,-z
1/2-x,1/2-y,-z
1/2+x,1/2-y,z
loop_
_atom_site_type_symbol
_atom_site_label
_atom_site_fract_x
_atom_site_fract_y
_atom_site_fract_z
Si Si1 0.872360 0.230925 0.097760
Si Si2 0.696474 0.128231 0.343490
Si Si3 0.445356 0.860784 0.541744
Si Si4 0.186456 0.168081 0.615402
Si Si5 0.921651 0.132270 0.787333
O O1 0.901932 0.317980 0.305058
O O2 0.832691 0.153123 0.177931
O O3 0.836798 0.301156 0.878437
O O4 0.913956 0.157173 0.022677
O O5 0.756691 0.121051 0.360154
O O6 0.693547 0.193942 0.560777
O O7 0.672555 0.000000 0.327149
O O8 0.500000 0.857505 0.500000
O O9 0.444840 0.753250 0.715043
O O10 0.437928 0.000000 0.600078
O O11 0.137560 0.125471 0.400020
O O12 0.945621 0.000000 0.785357
#
# Coordination Sequence:
#
# PCOD9181584 Si02
#       5
#     8   8   8   8   8
#     4  10  21  36  57  84 114 149 193 239 286 340
#     4  10  19  32  53  80 111 150 195 237 279 334
#     4  10  23  43  64  86 115 151 191 239 294 348
#     4   9  20  36  52  79 117 153 188 231 282 336
#     4  10  22  39  61  89 119 152 191 236 287 346
#
# _framework density 22.024982000000001
#
# number of rings (size 3 to 8) (size 9 to 14) (size 15 to 20)
#    0.000    2.200    0.000    1.800    0.000   14.000 
#    0.000    3.000    0.000    0.000    0.000    0.000 
#    0.000    0.000    0.000    0.000    0.000    0.000 
#
# Total GULP energy -111462.248088 kJ/mol
# GULP energy per Si atom -5573.112404 kJ/mol
# Density = 2.197485 g / cm^3
# Si number density = 22.024982 Si / 1000 Ang^3
#
#
#
# Elastic Constant Matrix: (Units=GPa)
#
#
# Indices 1 2 3 4 5 6 
#
# 1 108.2372 34.2289 18.1628 0.0000 -17.5311 0.0000
# 2 34.2289 165.0585 43.7777 0.0000 -32.0380 0.0000
# 3 18.1628 43.7777 58.2913 0.0000 -31.6853 0.0000
# 4 0.0000 0.0000 0.0000 -22.8524 0.0000 47.5863
# 5 -17.5311 -32.0380 -31.6853 0.0000 38.2082 0.0000
# 6 0.0000 0.0000 0.0000 47.5863 0.0000 -91.0017
#
#
#
# Elastic Compliance Matrix: (Units=1/GPa)
#
#
# Indices 1 2 3 4 5 6 
#
# 1 0.010268 -0.001400 -0.000410 0.000000 0.003198 0.000000
# 2 -0.001400 0.007946 -0.004113 0.000000 0.002610 0.000000
# 3 -0.000410 -0.004113 0.033492 0.000000 0.024138 0.000000
# 4 0.000000 0.000000 0.000000 0.492309 0.000000 0.257436
# 5 0.003198 0.002610 0.024138 0.000000 0.049845 0.000000
# 6 0.000000 0.000000 0.000000 0.257436 0.000000 0.123629
#
#
# Mechanical properties :
#
#
# Convention : Reuss Voigt Hill
#
# Bulk Modulus (GPa) = 25.08709 58.21396 41.65053
# Shear Modulus (GPa) = 6.73290 0.56532 3.64911
#
# Velocity S-wave (km/s) = 1.75031 0.50718 1.28857
# Velocity P-wave (km/s) = 3.93698 5.17989 4.60060
#
# Compressibility (1/GPa) = 0.03986114
#
# Stress axis : x y z
#
# Youngs Moduli (GPa) = 97.38605 125.84625 29.85769
#
# Poissons Ratio (x) = 0.17619 0.01224
# Poissons Ratio (y) = 0.13634 0.12280
# Poissons Ratio (z) = 0.03993 0.51758
#
# Static dielectric constant tensor:
#      x y z
#    x 1.831460 0.000000 -0.013870 
#    y 0.000000 1.869170 0.000000 
#    z -0.013870 0.000000 1.782420 
# 
# From -- ./inp_files/27381.got.cif
#   From: 2010.05.17/outbox.cif.g08.bks.cpg/sg12_14_cif.got.tgz:27381.got - 2010.06.03 13:09:07.
