data_PCOD9181467
_publ_section_title
;
Structure prediction by ZEFSAII (Michael W. Deem and Ramdas Pophale) SiO2 
 PCOD9181467
Probable space group: C 2/M
;
_chemical_formula_sum "Si O2"
_cell_formula_units_Z 56
_cell_length_a 19.671883
_cell_length_b 7.972024
_cell_length_c 26.844391
_cell_angle_alpha 90.000000
_cell_angle_beta 140.122053
_cell_angle_gamma 90.000000
_cell_volume 2699.172547
_symmetry_space_group_name_H-M "C 2/M"
_symmetry_group_IT_number 12
_symmetry_cell_setting 'monoclinic'
loop_
_space_group_symop_operation_xyz
x,y,z
-x,y,-z
-x,-y,-z
x,-y,z
1/2+x,1/2+y,z
1/2-x,1/2+y,-z
1/2-x,1/2-y,-z
1/2+x,1/2-y,z
loop_
_atom_site_type_symbol
_atom_site_label
_atom_site_fract_x
_atom_site_fract_y
_atom_site_fract_z
Si Si1 0.921807 0.194525 0.498914
Si Si2 0.456414 0.705891 0.746074
Si Si3 0.890419 0.201957 0.915258
Si Si4 0.788588 0.191531 0.575459
Si Si5 0.664304 0.700672 0.814010
Si Si6 0.325553 0.295050 0.768304
Si Si7 0.403889 0.197504 0.334422
O O1 0.812562 0.290086 0.445112
O O2 0.000000 0.260693 0.500000
O O3 0.992100 0.209095 0.588416
O O4 0.898014 0.000000 0.475320
O O5 0.452080 0.500000 0.744123
O O6 0.388094 0.769821 0.660279
O O7 0.578656 0.753300 0.807187
O O8 0.397947 0.761507 0.763400
O O9 0.785945 0.246348 0.888074
O O10 0.869494 0.260910 0.846816
O O11 0.896379 0.000000 0.916391
O O12 0.000000 0.265461 0.000000
O O13 0.750000 0.250000 0.500000
O O14 0.817074 0.000000 0.584295
O O15 0.661087 0.500000 0.808158
O O16 0.623861 0.773908 0.738693
O O17 0.324543 0.500000 0.768101
O O18 0.202042 0.244195 0.695789
O O19 0.420222 0.000000 0.352382
#
# Coordination Sequence:
#
# PCOD9181467 Si02
#       7
#     8   8   8   8   8   8   8
#     4  11  23  36  50  73 106 140 178 229 281 320
#     4   9  18  32  50  73 100 132 170 212 257 309
#     4   9  18  34  56  80 105 134 169 208 249 301
#     4  11  22  36  54  75 103 140 183 228 277 330
#     4  10  19  32  53  78 104 132 164 207 259 313
#     4   8  15  30  52  75  98 129 171 212 251 301
#     4  10  19  33  54  75  97 133 180 222 261 313
#
# _framework density 20.7471
#
# number of rings (size 3 to 8) (size 9 to 14) (size 15 to 20)
#    0.000    2.286    0.000    4.286    0.000    3.714 
#    0.000    2.857    0.000    9.429    0.000    0.000 
#    0.000    0.000    0.000    0.000    0.000    0.000 
#
# Total GULP energy -156327.658935 kJ/mol
# GULP energy per Si atom -5583.130676 kJ/mol
# Density = 2.069988 g / cm^3
# Si number density = 20.747100 Si / 1000 Ang^3
#
#
#
# Elastic Constant Matrix: (Units=GPa)
#
#
# Indices 1 2 3 4 5 6 
#
# 1 107.2339 -2.4218 27.7158 0.0000 22.6989 0.0000
# 2 -2.4218 21.8459 1.6800 0.0000 -3.4279 0.0001
# 3 27.7158 1.6800 94.9998 0.0000 26.7396 0.0000
# 4 0.0000 0.0000 0.0000 15.8123 0.0000 0.8894
# 5 22.6989 -3.4279 26.7396 0.0000 27.0482 0.0000
# 6 0.0000 0.0001 0.0000 0.8894 0.0000 20.0820
#
#
#
# Elastic Compliance Matrix: (Units=1/GPa)
#
#
# Indices 1 2 3 4 5 6 
#
# 1 0.011392 -0.000035 -0.000874 0.000000 -0.008701 0.000000
# 2 -0.000035 0.047536 -0.003511 0.000000 0.009525 0.000000
# 3 -0.000874 -0.003511 0.014911 0.000000 -0.014453 0.000000
# 4 0.000000 0.000000 0.000000 0.063400 0.000000 -0.002808
# 5 -0.008701 0.009525 -0.014453 0.000000 0.059768 0.000000
# 6 0.000000 0.000000 0.000000 -0.002808 0.000000 0.049920
#
#
# Mechanical properties :
#
#
# Convention : Reuss Voigt Hill
#
# Bulk Modulus (GPa) = 15.38497 30.89196 23.13847
# Shear Modulus (GPa) = 18.02222 25.72887 21.87555
#
# Velocity S-wave (km/s) = 2.95051 3.52535 3.25066
# Velocity P-wave (km/s) = 4.36336 5.61185 5.02652
#
# Compressibility (1/GPa) = 0.06499850
#
# Stress axis : x y z
#
# Youngs Moduli (GPa) = 87.77872 21.03667 67.06244
#
# Poissons Ratio (x) = 0.00074 0.05861
# Poissons Ratio (y) = 0.00309 0.23549
# Poissons Ratio (z) = 0.07672 0.07387
#
# Static dielectric constant tensor:
#      x y z
#    x 1.775310 0.000000 -0.007070 
#    y 0.000000 1.746790 0.000000 
#    z -0.007070 0.000000 1.744390 
# 
# From -- ./inp_files/275204.got.cif
#   From: 2010.05.17/outbox.cif.g08.bks.cpg/sg12_138_cif.got.tgz:275204.got - 2010.06.03 13:09:07.
