data_PCOD9181587
_publ_section_title
;
Structure prediction by ZEFSAII (Michael W. Deem and Ramdas Pophale) SiO2 
 PCOD9181587
Probable space group: C 2/M
;
_chemical_formula_sum "Si O2"
_cell_formula_units_Z 56
_cell_length_a 19.291691
_cell_length_b 12.978250
_cell_length_c 11.862187
_cell_angle_alpha 90.000000
_cell_angle_beta 83.837280
_cell_angle_gamma 90.000000
_cell_volume 2952.800744
_symmetry_space_group_name_H-M "C 2/M"
_symmetry_group_IT_number 12
_symmetry_cell_setting 'monoclinic'
loop_
_space_group_symop_operation_xyz
x,y,z
-x,y,-z
-x,-y,-z
x,-y,z
1/2+x,1/2+y,z
1/2-x,1/2+y,-z
1/2-x,1/2-y,-z
1/2+x,1/2-y,z
loop_
_atom_site_type_symbol
_atom_site_label
_atom_site_fract_x
_atom_site_fract_y
_atom_site_fract_z
Si Si1 0.593213 0.388049 0.867962
Si Si2 0.712855 0.117641 0.900042
Si Si3 0.668209 0.227102 0.698437
Si Si4 0.578601 0.878181 0.524132
Si Si5 0.710529 0.881825 0.338557
Si Si6 0.834331 0.715907 0.878680
Si Si7 0.930382 0.886161 0.860292
O O1 0.623458 0.500000 0.835207
O O2 0.635516 0.302224 0.797593
O O3 0.513529 0.384776 0.840784
O O4 0.589617 0.380292 0.003472
O O5 0.692555 0.132513 0.772950
O O6 0.778670 0.192058 0.904654
O O7 0.729623 0.000000 0.921196
O O8 0.657753 0.157361 0.003927
O O9 0.611507 0.189238 0.619056
O O10 0.732651 0.294415 0.637909
O O11 0.500000 0.848749 0.500000
O O12 0.637180 0.869008 0.416301
O O13 0.575531 0.000000 0.556479
O O14 0.695438 0.861305 0.209272
O O15 0.733879 0.000000 0.354504
O O16 0.899275 0.780498 0.818482
O O17 0.906890 0.000000 0.822235
#
# Coordination Sequence:
#
# PCOD9181587 Si02
#       7
#     8   8   8   8   8   8   8
#     4   9  18  31  52  80 110 145 184 226 274 329
#     4  10  20  32  49  81 114 143 179 223 274 328
#     4  11  20  36  61  83 108 146 188 235 279 329
#     4  10  23  42  61  82 108 146 190 235 284 337
#     4  10  22  38  58  84 113 148 192 231 276 334
#     4  10  19  32  53  80 112 150 180 224 273 329
#     4   9  17  31  50  77 113 149 185 222 267 330
#
# _framework density 18.965045
#
# number of rings (size 3 to 8) (size 9 to 14) (size 15 to 20)
#    0.000    2.143    1.429    3.000    2.000    0.000 
#    0.000    0.000    0.000    5.143    0.000    0.000 
#    0.000    0.000    0.000    0.000    0.000    0.000 
#
# Total GULP energy -155989.695365 kJ/mol
# GULP energy per Si atom -5571.060549 kJ/mol
# Density = 1.892188 g / cm^3
# Si number density = 18.965045 Si / 1000 Ang^3
#
#
#
# Elastic Constant Matrix: (Units=GPa)
#
#
# Indices 1 2 3 4 5 6 
#
# 1 73.5097 7.5978 18.9645 0.0000 5.8070 0.0000
# 2 7.5978 57.7348 23.9125 0.0000 2.6746 0.0000
# 3 18.9645 23.9125 40.4940 0.0000 5.6221 0.0000
# 4 0.0000 0.0000 0.0000 3.2932 0.0000 -2.5721
# 5 5.8070 2.6746 5.6221 0.0000 28.8529 0.0000
# 6 0.0000 0.0000 0.0000 -2.5721 0.0000 27.3184
#
#
#
# Elastic Compliance Matrix: (Units=1/GPa)
#
#
# Indices 1 2 3 4 5 6 
#
# 1 0.015629 0.001265 -0.007825 0.000000 -0.001738 0.000000
# 2 0.001265 0.023039 -0.014251 0.000000 0.000387 0.000000
# 3 -0.007825 -0.014251 0.037384 0.000000 -0.004389 0.000000
# 4 0.000000 0.000000 0.000000 0.327755 0.000000 0.030859
# 5 -0.001738 0.000387 -0.004389 0.000000 0.035828 0.000000
# 6 0.000000 0.000000 0.000000 0.030859 0.000000 0.039511
#
#
# Mechanical properties :
#
#
# Convention : Reuss Voigt Hill
#
# Bulk Modulus (GPa) = 29.04460 30.29869 29.67165
# Shear Modulus (GPa) = 9.39419 19.97715 14.68567
#
# Velocity S-wave (km/s) = 2.22804 3.24908 2.78574
# Velocity P-wave (km/s) = 4.68689 5.48508 5.10162
#
# Compressibility (1/GPa) = 0.03442980
#
# Stress axis : x y z
#
# Youngs Moduli (GPa) = 63.98368 43.40547 26.74921
#
# Poissons Ratio (x) = -0.05490 0.20931
# Poissons Ratio (y) = -0.08092 0.38119
# Poissons Ratio (z) = 0.50068 0.61856
#
# Static dielectric constant tensor:
#      x y z
#    x 1.700350 0.000000 -0.003530 
#    y 0.000000 1.689870 0.000000 
#    z -0.003530 0.000000 1.654360 
# 
# From -- ./inp_files/164960.got.cif
#   From: 2010.05.17/outbox.cif.g08.bks.cpg/sg12_83_cif.got.tgz:164960.got - 2010.06.03 13:09:07.
