data_PCOD9181623
_publ_section_title
;
Structure prediction by ZEFSAII (Michael W. Deem and Ramdas Pophale) SiO2 
 PCOD9181623
Probable space group: C 2/M
;
_chemical_formula_sum "Si O2"
_cell_formula_units_Z 48
_cell_length_a 23.933624
_cell_length_b 7.625788
_cell_length_c 12.269863
_cell_angle_alpha 90.000000
_cell_angle_beta 70.445549
_cell_angle_gamma 90.000000
_cell_volume 2110.245973
_symmetry_space_group_name_H-M "C 2/M"
_symmetry_group_IT_number 12
_symmetry_cell_setting 'monoclinic'
loop_
_space_group_symop_operation_xyz
x,y,z
-x,y,-z
-x,-y,-z
x,-y,z
1/2+x,1/2+y,z
1/2-x,1/2+y,-z
1/2-x,1/2-y,-z
1/2+x,1/2-y,z
loop_
_atom_site_type_symbol
_atom_site_label
_atom_site_fract_x
_atom_site_fract_y
_atom_site_fract_z
Si Si1 0.263219 0.709894 0.616991
Si Si2 0.818035 0.805020 0.944216
Si Si3 0.896999 0.786114 0.534902
Si Si4 0.444667 0.287556 0.267948
Si Si5 0.844597 0.705807 0.163255
Si Si6 0.570692 0.284722 0.253273
O O1 0.263463 0.500000 0.628654
O O2 0.250000 0.750000 0.500000
O O3 0.329362 0.772437 0.598603
O O4 0.210855 0.775336 0.728976
O O5 0.867210 0.716830 0.835499
O O6 0.813332 0.000000 0.902062
O O7 0.750000 0.750000 0.000000
O O8 0.845520 0.799451 0.046954
O O9 0.918364 0.728746 0.402117
O O10 0.934425 0.735293 0.616446
O O11 0.897602 0.000000 0.531143
O O12 0.442817 0.500000 0.267052
O O13 0.403177 0.224950 0.197592
O O14 0.513087 0.230450 0.222960
O O15 0.834901 0.500000 0.146627
O O16 0.570921 0.500000 0.249574
#
# Coordination Sequence:
#
# PCOD9181623 Si02
#       6
#     8   8   8   8   8   8
#     4  10  19  32  53  81 112 144 182 233 285 335
#     4  11  23  41  63  85 114 149 193 240 287 342
#     4   9  16  30  55  85 113 142 182 234 286 338
#     4  10  19  34  59  87 114 148 193 236 282 343
#     4  11  23  38  57  84 121 155 189 236 287 337
#     4   9  19  35  57  85 114 148 191 240 285 334
#
# _framework density 22.746165000000001
#
# number of rings (size 3 to 8) (size 9 to 14) (size 15 to 20)
#    0.000    2.000    1.667    2.500    0.000    6.000 
#    0.000    5.000    0.000    4.000    0.000    0.000 
#    0.000    0.000    0.000    0.000    0.000    0.000 
#
# Total GULP energy -134083.961135 kJ/mol
# GULP energy per Si atom -5586.831714 kJ/mol
# Density = 2.269439 g / cm^3
# Si number density = 22.746165 Si / 1000 Ang^3
#
#
#
# Elastic Constant Matrix: (Units=GPa)
#
#
# Indices 1 2 3 4 5 6 
#
# 1 135.7023 0.3124 29.0862 0.0000 -2.4564 0.0000
# 2 0.3124 45.7015 -8.6143 0.0000 -8.1677 0.0000
# 3 29.0862 -8.6143 82.6644 0.0000 3.8812 0.0000
# 4 0.0000 0.0000 0.0000 9.0454 0.0000 1.5270
# 5 -2.4564 -8.1677 3.8812 0.0000 32.5873 0.0000
# 6 0.0000 0.0000 0.0000 1.5270 0.0000 18.5196
#
#
#
# Elastic Compliance Matrix: (Units=1/GPa)
#
#
# Indices 1 2 3 4 5 6 
#
# 1 0.008008 -0.000453 -0.002904 0.000000 0.000836 0.000000
# 2 -0.000453 0.023312 0.002329 0.000000 0.005531 0.000000
# 3 -0.002904 0.002329 0.013420 0.000000 -0.001233 0.000000
# 4 0.000000 0.000000 0.000000 0.112114 0.000000 -0.009244
# 5 0.000836 0.005531 -0.001233 0.000000 0.032283 0.000000
# 6 0.000000 0.000000 0.000000 -0.009244 0.000000 0.054759
#
#
# Mechanical properties :
#
#
# Convention : Reuss Voigt Hill
#
# Bulk Modulus (GPa) = 23.42841 33.95966 28.69404
# Shear Modulus (GPa) = 19.21756 28.24938 23.73347
#
# Velocity S-wave (km/s) = 2.90982 3.52794 3.23368
# Velocity P-wave (km/s) = 4.64884 5.61760 5.15602
#
# Compressibility (1/GPa) = 0.04268322
#
# Stress axis : x y z
#
# Youngs Moduli (GPa) = 124.88004 42.89680 74.51836
#
# Poissons Ratio (x) = 0.01942 0.21640
# Poissons Ratio (y) = 0.05653 -0.17354
# Poissons Ratio (z) = 0.36265 -0.09990
#
# Static dielectric constant tensor:
#      x y z
#    x 1.841590 0.000000 -0.038650 
#    y 0.000000 1.931370 0.000000 
#    z -0.038650 0.000000 1.829260 
# 
# From -- ./inp_files/172907.got.cif
#   From: 2010.05.17/outbox.cif.g08.bks.cpg/sg12_87_cif.got.tgz:172907.got - 2010.06.03 13:09:07.
