data_PCOD9181104
_publ_section_title
;
Structure prediction by ZEFSAII (Michael W. Deem and Ramdas Pophale) SiO2 
 PCOD9181104
Probable space group: C 2/M
;
_chemical_formula_sum "Si O2"
_cell_formula_units_Z 64
_cell_length_a 16.691714
_cell_length_b 7.704996
_cell_length_c 20.013125
_cell_angle_alpha 90.000000
_cell_angle_beta 97.982532
_cell_angle_gamma 90.000000
_cell_volume 2548.940064
_symmetry_space_group_name_H-M "C 2/M"
_symmetry_group_IT_number 12
_symmetry_cell_setting 'monoclinic'
loop_
_space_group_symop_operation_xyz
x,y,z
-x,y,-z
-x,-y,-z
x,-y,z
1/2+x,1/2+y,z
1/2-x,1/2+y,-z
1/2-x,1/2-y,-z
1/2+x,1/2-y,z
loop_
_atom_site_type_symbol
_atom_site_label
_atom_site_fract_x
_atom_site_fract_y
_atom_site_fract_z
Si Si1 0.342278 0.209056 0.589932
Si Si2 0.828628 0.798259 0.967998
Si Si3 0.456282 0.211051 0.714797
Si Si4 0.307403 0.205811 0.333560
Si Si5 0.381619 0.196595 0.836393
Si Si6 0.948011 0.201329 0.085910
Si Si7 0.087985 0.287063 0.536210
Si Si8 0.867513 0.291145 0.207227
O O1 0.423626 0.262221 0.639112
O O2 0.269813 0.268034 0.628643
O O3 0.349086 0.268609 0.514514
O O4 0.339448 0.000000 0.587796
O O5 0.826199 0.768850 0.888751
O O6 0.839893 0.000000 0.979152
O O7 0.750000 0.750000 0.000000
O O8 0.907035 0.721448 0.014883
O O9 0.395758 0.280103 0.765612
O O10 0.547099 0.252065 0.746099
O O11 0.452803 0.000000 0.716608
O O12 0.380932 0.273950 0.388342
O O13 0.304190 0.269947 0.256548
O O14 0.320915 0.000000 0.327486
O O15 0.472926 0.203232 0.877611
O O16 0.356568 0.000000 0.823532
O O17 0.879118 0.210349 0.135719
O O18 0.973422 0.000000 0.080294
O O19 0.087088 0.500000 0.538593
O O20 0.000000 0.234138 0.500000
O O21 0.861074 0.500000 0.195862
#
# Coordination Sequence:
#
# PCOD9181104 Si02
#       8
#     8   8   8   8   8   8   8   8
#     4  10  19  32  52  76 104 138 172 208 256 312
#     4  11  24  39  55  78 109 142 178 222 269 317
#     4   8  16  32  53  76 100 130 173 216 249 295
#     4  10  20  33  50  76 108 135 167 215 263 308
#     4  10  20  36  59  83 108 140 177 218 265 317
#     4  10  21  37  57  81 108 138 176 222 265 311
#     4   9  17  31  54  78  98 131 179 220 252 296
#     4   9  18  34  55  76 100 135 177 218 259 305
#
# _framework density 25.108476
#
# number of rings (size 3 to 8) (size 9 to 14) (size 15 to 20)
#    0.000    2.375    0.000    3.375    0.000    8.000 
#    0.000    6.875    0.000    3.000    0.000    0.000 
#    0.000    0.000    0.000    0.000    0.000    0.000 
#
# Total GULP energy -178787.953035 kJ/mol
# GULP energy per Si atom -5587.123532 kJ/mol
# Density = 2.505133 g / cm^3
# Si number density = 25.108476 Si / 1000 Ang^3
#
#
#
# Elastic Constant Matrix: (Units=GPa)
#
#
# Indices 1 2 3 4 5 6 
#
# 1 60.5681 -4.8843 1.3632 0.0000 -18.4390 0.0000
# 2 -4.8843 45.4396 2.4262 0.0000 1.0721 0.0000
# 3 1.3632 2.4262 128.5943 0.0000 -22.9520 0.0000
# 4 0.0000 0.0000 0.0000 58.7538 0.0000 75.8735
# 5 -18.4390 1.0721 -22.9520 0.0000 45.9663 0.0000
# 6 0.0000 0.0000 0.0000 75.8735 0.0000 169.7957
#
#
#
# Elastic Compliance Matrix: (Units=1/GPa)
#
#
# Indices 1 2 3 4 5 6 
#
# 1 0.019140 0.001797 0.001236 0.000000 0.008253 0.000000
# 2 0.001797 0.022224 -0.000442 0.000000 -0.000018 0.000000
# 3 0.001236 -0.000442 0.008631 0.000000 0.004816 0.000000
# 4 0.000000 0.000000 0.000000 0.040242 0.000000 -0.017982
# 5 0.008253 -0.000018 0.004816 0.000000 0.027471 0.000000
# 6 0.000000 0.000000 0.000000 -0.017982 0.000000 0.013925
#
#
# Mechanical properties :
#
#
# Convention : Reuss Voigt Hill
#
# Bulk Modulus (GPa) = 18.12315 25.82359 21.97337
# Shear Modulus (GPa) = 34.52004 70.61629 52.56816
#
# Velocity S-wave (km/s) = 3.71190 5.30901 4.58060
# Velocity P-wave (km/s) = 5.06009 6.92011 6.06186
#
# Compressibility (1/GPa) = 0.05517806
#
# Stress axis : x y z
#
# Youngs Moduli (GPa) = 52.24675 44.99570 115.85886
#
# Poissons Ratio (x) = -0.08084 -0.14323
# Poissons Ratio (y) = -0.09387 0.05116
# Poissons Ratio (z) = -0.06459 0.01987
#
# Static dielectric constant tensor:
#      x y z
#    x 2.043260 0.000000 -0.021590 
#    y 0.000000 1.923540 0.000000 
#    z -0.021590 0.000000 2.025530 
# 
# From -- ./inp_files/314037.got.cif
#   From: 2010.05.17/outbox.cif.g08.bks.cpg/sg12_158_cif.got.tgz:314037.got - 2010.06.03 13:09:07.
