data_PCOD9181859
_publ_section_title
;
Structure prediction by ZEFSAII (Michael W. Deem and Ramdas Pophale) SiO2 
 PCOD9181859
Probable space group: C 2/M
;
_chemical_formula_sum "Si O2"
_cell_formula_units_Z 56
_cell_length_a 14.111106
_cell_length_b 19.183837
_cell_length_c 21.321907
_cell_angle_alpha 90.000000
_cell_angle_beta 32.698040
_cell_angle_gamma 90.000000
_cell_volume 3118.074063
_symmetry_space_group_name_H-M "C 2/M"
_symmetry_group_IT_number 12
_symmetry_cell_setting 'monoclinic'
loop_
_space_group_symop_operation_xyz
x,y,z
-x,y,-z
-x,-y,-z
x,-y,z
1/2+x,1/2+y,z
1/2-x,1/2+y,-z
1/2-x,1/2-y,-z
1/2+x,1/2-y,z
loop_
_atom_site_type_symbol
_atom_site_label
_atom_site_fract_x
_atom_site_fract_y
_atom_site_fract_z
Si Si1 0.640181 0.337855 0.864701
Si Si2 0.394848 0.077709 0.926092
Si Si3 0.851602 0.083044 0.533781
Si Si4 0.975741 0.917846 0.697304
Si Si5 0.004071 0.081228 0.819739
Si Si6 0.951973 0.580588 0.751002
Si Si7 0.867243 0.673211 0.131616
O O1 0.573862 0.371795 0.837056
O O2 0.824297 0.373141 0.780427
O O3 0.660481 0.255140 0.844925
O O4 0.500000 0.349426 0.000000
O O5 0.367389 0.078630 0.867156
O O6 0.533600 0.136045 0.866557
O O7 0.461569 0.000000 0.906167
O O8 0.207653 0.088409 0.062766
O O9 0.650673 0.108110 0.649409
O O10 0.000000 0.110475 0.500000
O O11 0.912783 0.091532 0.427980
O O12 0.839448 0.000000 0.554293
O O13 0.065638 0.902848 0.714524
O O14 0.809649 0.868160 0.782820
O O15 0.924102 0.000000 0.728524
O O16 0.042890 0.000000 0.812067
O O17 0.960204 0.500000 0.723342
O O18 0.000000 0.663517 0.000000
#
# Coordination Sequence:
#
# PCOD9181859 Si02
#       7
#     8   8   8   8   8   8   8
#     4  11  23  36  52  79 117 155 188 221 267 331
#     4  10  19  32  54  82 108 140 183 231 280 324
#     4   9  18  35  60  87 111 138 181 235 282 324
#     4  10  20  36  57  81 111 142 179 232 284 328
#     4  10  20  34  54  80 110 145 183 228 276 323
#     4  10  20  36  60  84 107 143 190 232 271 322
#     4  11  22  33  51  81 115 147 181 222 283 337
#
# _framework density 17.959804999999999
#
# number of rings (size 3 to 8) (size 9 to 14) (size 15 to 20)
#    0.000    1.857    2.857    1.714    0.000    5.143 
#    0.000    1.429    0.000    5.143    0.000    0.000 
#    0.000    0.000    0.000    0.000    0.000    0.143 
#
# Total GULP energy -156122.731045 kJ/mol
# GULP energy per Si atom -5575.811823 kJ/mol
# Density = 1.791893 g / cm^3
# Si number density = 17.959805 Si / 1000 Ang^3
#
#
#
# Elastic Constant Matrix: (Units=GPa)
#
#
# Indices 1 2 3 4 5 6 
#
# 1 111.3517 55.0158 35.0989 0.0003 3.8479 0.0020
# 2 55.0158 62.8098 27.4558 0.0065 -2.9752 -0.0042
# 3 35.0989 27.4558 55.9872 0.0087 -4.0846 -0.0080
# 4 0.0003 0.0065 0.0087 11.1186 -0.0028 6.8189
# 5 3.8479 -2.9752 -4.0846 -0.0028 26.0833 -0.0008
# 6 0.0020 -0.0042 -0.0080 6.8189 -0.0008 -1.9870
#
#
#
# Elastic Compliance Matrix: (Units=1/GPa)
#
#
# Indices 1 2 3 4 5 6 
#
# 1 0.017123 -0.013212 -0.004603 -0.000010 -0.004754 0.000032
# 2 -0.013212 0.030474 -0.006338 0.000007 0.004432 -0.000030
# 3 -0.004603 -0.006338 0.024127 0.000013 0.003734 -0.000045
# 4 -0.000010 0.000007 0.000013 0.028969 0.000010 0.099415
# 5 -0.004754 0.004432 0.003734 0.000010 0.040130 -0.000009
# 6 0.000032 -0.000030 -0.000045 0.099415 -0.000009 -0.162102
#
#
# Mechanical properties :
#
#
# Convention : Reuss Voigt Hill
#
# Bulk Modulus (GPa) = 42.69984 51.69886 47.19935
# Shear Modulus (GPa) = 143.54086 14.54820 79.04453
#
# Velocity S-wave (km/s) = 8.94969 2.84921 6.64134
# Velocity P-wave (km/s) = 11.42903 6.29860 9.22754
#
# Compressibility (1/GPa) = 0.02341929
#
# Stress axis : x y z
#
# Youngs Moduli (GPa) = 58.40081 32.81500 41.44680
#
# Poissons Ratio (x) = 0.43354 0.19076
# Poissons Ratio (y) = 0.77157 0.26270
# Poissons Ratio (z) = 0.26879 0.20799
#
# Static dielectric constant tensor:
#      x y z
#    x 1.623570 0.000000 0.012470 
#    y 0.000000 1.602140 0.000000 
#    z 0.012470 0.000000 1.618800 
# 
# From -- ./inp_files/311680.got.cif
#   From: 2010.05.17/outbox.cif.g08.bks.cpg/sg12_156_cif.got.tgz:311680.got - 2010.06.03 13:09:07.
