data_PCOD9181631
_publ_section_title
;
Structure prediction by ZEFSAII (Michael W. Deem and Ramdas Pophale) SiO2 
 PCOD9181631
Probable space group: C 2/M
;
_chemical_formula_sum "Si O2"
_cell_formula_units_Z 56
_cell_length_a 19.542366
_cell_length_b 8.886857
_cell_length_c 17.815694
_cell_angle_alpha 90.000000
_cell_angle_beta 113.792900
_cell_angle_gamma 90.000000
_cell_volume 2831.090562
_symmetry_space_group_name_H-M "C 2/M"
_symmetry_group_IT_number 12
_symmetry_cell_setting 'monoclinic'
loop_
_space_group_symop_operation_xyz
x,y,z
-x,y,-z
-x,-y,-z
x,-y,z
1/2+x,1/2+y,z
1/2-x,1/2+y,-z
1/2-x,1/2-y,-z
1/2+x,1/2-y,z
loop_
_atom_site_type_symbol
_atom_site_label
_atom_site_fract_x
_atom_site_fract_y
_atom_site_fract_z
Si Si1 0.437123 0.678825 0.079456
Si Si2 0.086899 0.678204 0.213077
Si Si3 0.409610 0.172575 0.470718
Si Si4 0.820297 0.323143 0.136889
Si Si5 0.653261 0.320990 0.103328
Si Si6 0.572650 0.323714 0.366397
Si Si7 0.106970 0.824843 0.690370
O O1 0.451247 0.500000 0.089046
O O2 0.508043 0.764236 0.144220
O O3 0.367019 0.722207 0.100436
O O4 0.412697 0.718248 0.984058
O O5 0.086141 0.500000 0.220272
O O6 0.146190 0.732318 0.177446
O O7 0.097359 0.752574 0.298891
O O8 0.500000 0.172962 0.500000
O O9 0.395145 0.241041 0.546135
O O10 0.379659 0.271707 0.388780
O O11 0.384344 0.000000 0.454079
O O12 0.833053 0.500000 0.126986
O O13 0.732125 0.292883 0.098081
O O14 0.850206 0.280481 0.232542
O O15 0.648263 0.500000 0.116277
O O16 0.590502 0.500000 0.376781
O O17 0.481949 0.310232 0.331722
O O18 0.126947 0.000000 0.709510
#
# Coordination Sequence:
#
# PCOD9181631 Si02
#       7
#     8   8   8   8   8   8   8
#     4  11  22  39  61  83 111 148 189 236 287 340
#     4  12  24  37  58  85 114 148 191 238 282 334
#     4   9  17  29  49  79 114 145 181 232 278 323
#     4  11  22  37  59  85 114 148 189 237 282 334
#     4  10  24  42  58  80 113 152 190 232 288 342
#     4  10  19  33  54  80 113 149 186 228 278 336
#     4  10  19  32  53  81 113 150 187 226 277 335
#
# _framework density 19.780363999999999
#
# number of rings (size 3 to 8) (size 9 to 14) (size 15 to 20)
#    0.000    1.571    1.429    4.286    0.000    6.857 
#    0.000    0.000    0.000    0.857    0.000    0.000 
#    0.000    0.000    0.000    0.000    0.000    0.000 
#
# Total GULP energy -156511.534475 kJ/mol
# GULP energy per Si atom -5589.697660 kJ/mol
# Density = 1.973534 g / cm^3
# Si number density = 19.780364 Si / 1000 Ang^3
#
#
#
# Elastic Constant Matrix: (Units=GPa)
#
#
# Indices 1 2 3 4 5 6 
#
# 1 31.6480 5.4363 -2.2524 0.0000 -11.6568 0.0000
# 2 5.4363 36.6923 -9.7593 0.0000 -7.2854 0.0000
# 3 -2.2524 -9.7593 58.9819 0.0000 -24.6848 0.0000
# 4 0.0000 0.0000 0.0000 26.2838 0.0000 -1.7069
# 5 -11.6568 -7.2854 -24.6848 0.0000 24.2045 0.0000
# 6 0.0000 0.0000 0.0000 -1.7069 0.0000 19.2724
#
#
#
# Elastic Compliance Matrix: (Units=1/GPa)
#
#
# Indices 1 2 3 4 5 6 
#
# 1 0.052508 0.010726 0.027416 0.000000 0.056477 0.000000
# 2 0.010726 0.041012 0.025339 0.000000 0.043352 0.000000
# 3 0.027416 0.025339 0.053930 0.000000 0.075831 0.000000
# 4 0.000000 0.000000 0.000000 0.038266 0.000000 0.003389
# 5 0.056477 0.043352 0.075831 0.000000 0.158899 0.000000
# 6 0.000000 0.000000 0.000000 0.003389 0.000000 0.052188
#
#
# Mechanical properties :
#
#
# Convention : Reuss Voigt Hill
#
# Bulk Modulus (GPa) = 3.64414 12.68572 8.16493
# Shear Modulus (GPa) = 13.83848 22.87864 18.35856
#
# Velocity S-wave (km/s) = 2.64788 3.40462 3.04981
# Velocity P-wave (km/s) = 3.34584 4.67787 4.06676
#
# Compressibility (1/GPa) = 0.27441305
#
# Stress axis : x y z
#
# Youngs Moduli (GPa) = 19.04461 24.38336 18.54238
#
# Poissons Ratio (x) = -0.26154 -0.50837
# Poissons Ratio (y) = -0.20428 -0.46984
# Poissons Ratio (z) = -0.52214 -0.61784
#
# Static dielectric constant tensor:
#      x y z
#    x 1.708820 0.000000 0.000000 
#    y 0.000000 1.653460 0.000000 
#    z 0.000000 0.000000 1.685850 
# 
# From -- ./inp_files/275590.got.cif
#   From: 2010.05.17/outbox.cif.g08.bks.cpg/sg12_138_cif.got.tgz:275590.got - 2010.06.03 13:09:07.
