data_PCOD9181320
_publ_section_title
;
Structure prediction by ZEFSAII (Michael W. Deem and Ramdas Pophale) SiO2 
 PCOD9181320
Probable space group: C 2/M
;
_chemical_formula_sum "Si O2"
_cell_formula_units_Z 50
_cell_length_a 5.010924
_cell_length_b 17.388916
_cell_length_c 27.475123
_cell_angle_alpha 90.000000
_cell_angle_beta 98.500784
_cell_angle_gamma 90.000000
_cell_volume 2367.730890
_symmetry_space_group_name_H-M "C 2/M"
_symmetry_group_IT_number 12
_symmetry_cell_setting 'monoclinic'
loop_
_space_group_symop_operation_xyz
x,y,z
-x,y,-z
-x,-y,-z
x,-y,z
1/2+x,1/2+y,z
1/2-x,1/2+y,-z
1/2-x,1/2-y,-z
1/2+x,1/2-y,z
loop_
_atom_site_type_symbol
_atom_site_label
_atom_site_fract_x
_atom_site_fract_y
_atom_site_fract_z
Si Si1 0.929052 0.084922 0.098074
Si Si2 0.647979 0.907598 0.812139
Si Si3 0.000000 0.000000 0.000000
Si Si4 0.393101 0.592605 0.249097
Si Si5 0.976313 0.803191 0.551660
Si Si6 0.829319 0.804493 0.341617
Si Si7 0.502922 0.198154 0.055702
O O1 0.167382 0.117610 0.137649
O O2 0.659203 0.134414 0.090268
O O3 0.858429 0.000000 0.116751
O O4 0.011248 0.065465 0.044366
O O5 0.823548 0.889637 0.768852
O O6 0.345513 0.880794 0.794041
O O7 0.633926 0.000000 0.816476
O O8 0.374197 0.500000 0.254604
O O9 0.354438 0.636112 0.298498
O O10 0.176053 0.729143 0.551350
O O11 0.080928 0.840870 0.604114
O O12 0.000000 0.844278 0.500000
O O13 0.535786 0.766376 0.338193
O O14 0.210767 0.229870 0.060893
O O15 0.500000 0.169067 0.000000
#
# Coordination Sequence:
#
# PCOD9181320 Si02
#       7
#     8   8   2   8   8   8   8
#     4   9  20  39  61  87 106 133 175 219 260 307
#     4   9  19  37  57  79 105 137 173 217 261 318
#     4   8  20  36  66  92 106 124 176 232 256 304
#     4  10  20  36  56  75 103 144 179 211 263 319
#     4   8  14  25  43  69 103 139 174 215 265 313
#     4  10  19  32  52  81 109 138 181 230 267 302
#     4  10  23  39  57  78 109 139 163 195 249 311
#
# _framework density 21.117266000000001
#
# number of rings (size 3 to 8) (size 9 to 14) (size 15 to 20)
#    0.480    2.240    0.000    0.960    3.360    1.600 
#    0.000    7.200    0.000    0.960    0.000    0.000 
#    0.000   16.640    0.000    0.000    0.000    2.560 
#
# Total GULP energy -139242.768789 kJ/mol
# GULP energy per Si atom -5569.710752 kJ/mol
# Density = 2.106920 g / cm^3
# Si number density = 21.117266 Si / 1000 Ang^3
#
#
#
# Elastic Constant Matrix: (Units=GPa)
#
#
# Indices 1 2 3 4 5 6 
#
# 1 72.7520 0.4522 8.8791 0.0000 2.1441 0.0000
# 2 0.4522 24.2694 19.1057 0.0000 1.5930 0.0000
# 3 8.8791 19.1057 135.7476 0.0000 -10.2937 0.0000
# 4 0.0000 0.0000 0.0000 20.7558 0.0000 -5.3740
# 5 2.1441 1.5930 -10.2937 0.0000 34.1948 0.0000
# 6 0.0000 0.0000 0.0000 -5.3740 0.0000 11.5204
#
#
#
# Elastic Compliance Matrix: (Units=1/GPa)
#
#
# Indices 1 2 3 4 5 6 
#
# 1 0.013912 0.000688 -0.001101 0.000000 -0.001236 0.000000
# 2 0.000688 0.046975 -0.006985 0.000000 -0.004334 0.000000
# 3 -0.001101 -0.006985 0.008649 0.000000 0.002998 0.000000
# 4 0.000000 0.000000 0.000000 0.054798 0.000000 0.025562
# 5 -0.001236 -0.004334 0.002998 0.000000 0.030426 0.000000
# 6 0.000000 0.000000 0.000000 0.025562 0.000000 0.098726
#
#
# Mechanical properties :
#
#
# Convention : Reuss Voigt Hill
#
# Bulk Modulus (GPa) = 18.26791 32.18256 25.22524
# Shear Modulus (GPa) = 17.45035 26.91634 22.18334
#
# Velocity S-wave (km/s) = 2.87776 3.57405 3.24463
# Velocity P-wave (km/s) = 4.43976 5.68373 5.09981
#
# Compressibility (1/GPa) = 0.05474080
#
# Stress axis : x y z
#
# Youngs Moduli (GPa) = 71.88157 21.28805 115.61951
#
# Poissons Ratio (x) = -0.01465 0.12724
# Poissons Ratio (y) = -0.04947 0.80762
# Poissons Ratio (z) = 0.07911 0.14870
#
# Static dielectric constant tensor:
#      x y z
#    x 1.800320 0.000000 -0.026270 
#    y 0.000000 1.744490 0.000000 
#    z -0.026270 0.000000 1.817390 
# 
# From -- ./inp_files/371573.got.cif
#   From: 2010.05.17/outbox.cif.g08.bks.cpg/sg12_186_cif.got.tgz:371573.got - 2010.06.03 13:09:07.
