data_PCOD9181258
_publ_section_title
;
Structure prediction by ZEFSAII (Michael W. Deem and Ramdas Pophale) SiO2 
 PCOD9181258
Probable space group: C 2/M
;
_chemical_formula_sum "Si O2"
_cell_formula_units_Z 64
_cell_length_a 25.192829
_cell_length_b 8.638115
_cell_length_c 20.636747
_cell_angle_alpha 90.000000
_cell_angle_beta 125.943409
_cell_angle_gamma 90.000000
_cell_volume 3635.851471
_symmetry_space_group_name_H-M "C 2/M"
_symmetry_group_IT_number 12
_symmetry_cell_setting 'monoclinic'
loop_
_space_group_symop_operation_xyz
x,y,z
-x,y,-z
-x,-y,-z
x,-y,z
1/2+x,1/2+y,z
1/2-x,1/2+y,-z
1/2-x,1/2-y,-z
1/2+x,1/2-y,z
loop_
_atom_site_type_symbol
_atom_site_label
_atom_site_fract_x
_atom_site_fract_y
_atom_site_fract_z
Si Si1 0.073257 0.811498 0.031662
Si Si2 0.589172 0.185048 0.261901
Si Si3 0.409492 0.685746 0.240355
Si Si4 0.176397 0.187184 0.214169
Si Si5 0.947873 0.685659 0.621742
Si Si6 0.553262 0.313127 0.874442
Si Si7 0.926335 0.814528 0.468809
Si Si8 0.324779 0.814426 0.291302
O O1 0.127406 0.759118 0.121795
O O2 0.073996 0.000000 0.033628
O O3 0.083740 0.763499 0.964675
O O4 0.000000 0.763390 0.000000
O O5 0.647592 0.252105 0.260997
O O6 0.589141 0.227497 0.338011
O O7 0.520466 0.249188 0.184645
O O8 0.588715 0.000000 0.257085
O O9 0.410174 0.500000 0.245440
O O10 0.478376 0.748812 0.317802
O O11 0.408912 0.731507 0.164111
O O12 0.351425 0.751816 0.242100
O O13 0.250637 0.235796 0.253284
O O14 0.174648 0.000000 0.214211
O O15 0.951098 0.500000 0.619372
O O16 0.916752 0.754606 0.534809
O O17 0.548689 0.500000 0.871653
O O18 0.873990 0.746028 0.381668
O O19 0.000000 0.768054 0.500000
O O20 0.922924 0.000000 0.464537
O O21 0.326758 0.000000 0.291656
#
# Coordination Sequence:
#
# PCOD9181258 Si02
#       8
#     8   8   8   8   8   8   8   8
#     4   9  15  29  56  82 104 136 183 229 262 304
#     4  10  20  33  52  81 113 142 173 218 272 319
#     4  10  19  32  52  79 109 141 180 221 267 317
#     4  10  21  37  56  79 107 145 187 220 261 321
#     4  10  20  34  55  82 110 139 175 219 269 318
#     4   9  17  31  54  80 106 140 181 225 265 311
#     4  11  22  36  57  84 108 135 179 226 266 313
#     4  11  23  37  55  78 109 146 180 219 268 322
#
# _framework density 17.60248
#
# number of rings (size 3 to 8) (size 9 to 14) (size 15 to 20)
#    0.000    2.000    2.500    1.875    0.000    3.500 
#    0.000    2.500    0.000    0.000    0.000    0.000 
#    0.000    0.000    0.000    0.000    0.000    0.000 
#
# Total GULP energy -178588.375448 kJ/mol
# GULP energy per Si atom -5580.886733 kJ/mol
# Density = 1.756242 g / cm^3
# Si number density = 17.602480 Si / 1000 Ang^3
#
#
#
# Elastic Constant Matrix: (Units=GPa)
#
#
# Indices 1 2 3 4 5 6 
#
# 1 170.5141 35.0646 77.6339 0.0000 -8.5360 0.0000
# 2 35.0646 24.5743 22.6177 0.0000 -1.2040 0.0000
# 3 77.6339 22.6177 99.9672 0.0000 -8.0384 0.0000
# 4 0.0000 0.0000 0.0000 7.9633 0.0000 -1.9666
# 5 -8.5360 -1.2040 -8.0384 0.0000 29.0183 0.0000
# 6 0.0000 0.0000 0.0000 -1.9666 0.0000 26.8430
#
#
#
# Elastic Compliance Matrix: (Units=1/GPa)
#
#
# Indices 1 2 3 4 5 6 
#
# 1 0.010616 -0.009582 -0.005991 0.000000 0.001066 0.000000
# 2 -0.009582 0.060079 -0.006319 0.000000 -0.002076 0.000000
# 3 -0.005991 -0.006319 0.016285 0.000000 0.002487 0.000000
# 4 0.000000 0.000000 0.000000 0.127891 0.000000 0.009370
# 5 0.001066 -0.002076 0.002487 0.000000 0.035377 0.000000
# 6 0.000000 0.000000 0.000000 0.009370 0.000000 0.037940
#
#
# Mechanical properties :
#
#
# Convention : Reuss Voigt Hill
#
# Bulk Modulus (GPa) = 23.14945 62.85421 43.00183
# Shear Modulus (GPa) = 14.43547 23.41419 18.92483
#
# Velocity S-wave (km/s) = 2.86681 3.65110 3.28246
# Velocity P-wave (km/s) = 4.91304 7.31841 6.23286
#
# Compressibility (1/GPa) = 0.04319758
#
# Stress axis : x y z
#
# Youngs Moduli (GPa) = 94.19880 16.64483 61.40557
#
# Poissons Ratio (x) = 0.15949 0.36786
# Poissons Ratio (y) = 0.90258 0.38801
# Poissons Ratio (z) = 0.56431 0.10517
#
# Static dielectric constant tensor:
#      x y z
#    x 1.599600 0.000000 -0.027230 
#    y 0.000000 1.594230 0.000000 
#    z -0.027230 0.000000 1.587810 
# 
# From -- ./inp_files/324346.got.cif
#   From: 2010.05.17/outbox.cif.g08.bks.cpg/sg12_163_cif.got.tgz:324346.got - 2010.06.03 13:09:07.
