data_PCOD9181661
_publ_section_title
;
Structure prediction by ZEFSAII (Michael W. Deem and Ramdas Pophale) SiO2 
 PCOD9181661
Probable space group: C 2/M
;
_chemical_formula_sum "Si O2"
_cell_formula_units_Z 32
_cell_length_a 26.778158
_cell_length_b 11.568415
_cell_length_c 5.143902
_cell_angle_alpha 90.000000
_cell_angle_beta 97.015400
_cell_angle_gamma 90.000000
_cell_volume 1581.552478
_symmetry_space_group_name_H-M "C 2/M"
_symmetry_group_IT_number 12
_symmetry_cell_setting 'monoclinic'
loop_
_space_group_symop_operation_xyz
x,y,z
-x,y,-z
-x,-y,-z
x,-y,z
1/2+x,1/2+y,z
1/2-x,1/2+y,-z
1/2-x,1/2-y,-z
1/2+x,1/2-y,z
loop_
_atom_site_type_symbol
_atom_site_label
_atom_site_fract_x
_atom_site_fract_y
_atom_site_fract_z
Si Si1 0.230831 0.128149 0.863793
Si Si2 0.821039 0.372956 0.584201
Si Si3 0.035115 0.366521 0.771606
Si Si4 0.360429 0.242453 0.111992
O O1 0.261493 0.128821 0.611393
O O2 0.170721 0.143704 0.826873
O O3 0.242578 0.000000 0.984628
O O4 0.250000 0.250000 0.000000
O O5 0.839932 0.500000 0.666684
O O6 0.835276 0.347577 0.299590
O O7 0.847343 0.287196 0.805244
O O8 0.054866 0.500000 0.778776
O O9 0.080732 0.276175 0.809680
O O10 0.000000 0.351052 0.500000
O O11 0.000000 0.355658 0.000000
#
# Coordination Sequence:
#
# PCOD9181661 Si02
#       4
#     8   8   8   8
#     4   9  20  37  58  87 120 152 187 226 273 335
#     4  10  19  32  53  82 114 147 182 221 272 335
#     4  10  20  33  51  76 106 141 186 237 283 327
#     4  11  20  34  54  79 111 149 186 229 282 333
#
# _framework density 20.233283
#
# number of rings (size 3 to 8) (size 9 to 14) (size 15 to 20)
#    0.000    2.000    0.000    4.500    0.000    4.000 
#    0.000   10.000    0.000    1.500    0.000    0.000 
#    0.000    0.000    0.000    0.000    0.000    0.000 
#
# Total GULP energy -89089.839590 kJ/mol
# GULP energy per Si atom -5568.114974 kJ/mol
# Density = 2.018723 g / cm^3
# Si number density = 20.233283 Si / 1000 Ang^3
#
#
#
# Elastic Constant Matrix: (Units=GPa)
#
#
# Indices 1 2 3 4 5 6 
#
# 1 110.4212 32.9141 30.8297 0.0000 2.5282 0.0000
# 2 32.9141 93.4873 14.9377 0.0000 0.1113 0.0000
# 3 30.8297 14.9377 80.3448 0.0000 0.5074 0.0000
# 4 0.0000 0.0000 0.0000 19.7716 0.0000 2.2947
# 5 2.5282 0.1113 0.5074 0.0000 22.7452 0.0000
# 6 0.0000 0.0000 0.0000 2.2947 0.0000 29.8008
#
#
#
# Elastic Compliance Matrix: (Units=1/GPa)
#
#
# Indices 1 2 3 4 5 6 
#
# 1 0.011086 -0.003322 -0.003629 0.000000 -0.001135 0.000000
# 2 -0.003322 0.012019 -0.000962 0.000000 0.000332 0.000000
# 3 -0.003629 -0.000962 0.014017 0.000000 0.000095 0.000000
# 4 0.000000 0.000000 0.000000 0.051034 0.000000 -0.003930
# 5 -0.001135 0.000332 0.000095 0.000000 0.044088 0.000000
# 6 0.000000 0.000000 0.000000 -0.003930 0.000000 0.033859
#
#
# Mechanical properties :
#
#
# Convention : Reuss Voigt Hill
#
# Bulk Modulus (GPa) = 46.95615 49.06849 48.01232
# Shear Modulus (GPa) = 26.45127 28.16831 27.30979
#
# Velocity S-wave (km/s) = 3.61960 3.73524 3.67787
# Velocity P-wave (km/s) = 6.38173 6.55032 6.46657
#
# Compressibility (1/GPa) = 0.02129647
#
# Stress axis : x y z
#
# Youngs Moduli (GPa) = 90.20753 83.19847 71.34124
#
# Poissons Ratio (x) = 0.27636 0.25890
# Poissons Ratio (y) = 0.29964 0.06864
# Poissons Ratio (z) = 0.32736 0.08005
#
# Static dielectric constant tensor:
#      x y z
#    x 1.791840 0.000000 0.034430 
#    y 0.000000 1.762160 0.000000 
#    z 0.034430 0.000000 1.726330 
# 
# From -- ./inp_files/23366.got.cif
#   From: 2010.05.17/outbox.cif.g08.bks.cpg/sg12_12_cif.got.tgz:23366.got - 2010.06.03 13:09:07.
