data_PCOD9181522
_publ_section_title
;
Structure prediction by ZEFSAII (Michael W. Deem and Ramdas Pophale) SiO2 
 PCOD9181522
Probable space group: C 2/M
;
_chemical_formula_sum "Si O2"
_cell_formula_units_Z 60
_cell_length_a 26.665424
_cell_length_b 9.949539
_cell_length_c 12.485432
_cell_angle_alpha 90.000000
_cell_angle_beta 79.069687
_cell_angle_gamma 90.000000
_cell_volume 3252.399940
_symmetry_space_group_name_H-M "C 2/M"
_symmetry_group_IT_number 12
_symmetry_cell_setting 'monoclinic'
loop_
_space_group_symop_operation_xyz
x,y,z
-x,y,-z
-x,-y,-z
x,-y,z
1/2+x,1/2+y,z
1/2-x,1/2+y,-z
1/2-x,1/2-y,-z
1/2+x,1/2-y,z
loop_
_atom_site_type_symbol
_atom_site_label
_atom_site_fract_x
_atom_site_fract_y
_atom_site_fract_z
Si Si1 0.112977 0.346896 0.934001
Si Si2 0.500000 0.749228 0.000000
Si Si3 0.618496 0.158563 0.178563
Si Si4 0.160308 0.839270 0.505091
Si Si5 0.954721 0.837742 0.441483
Si Si6 0.522552 0.346247 0.222981
Si Si7 0.674534 0.657032 0.752934
Si Si8 0.208902 0.658378 0.309463
O O1 0.127293 0.500000 0.904187
O O2 0.051535 0.333160 0.960619
O O3 0.137878 0.247855 0.838750
O O4 0.130260 0.313881 0.048686
O O5 0.490260 0.664976 0.896708
O O6 0.570010 0.249555 0.228029
O O7 0.666337 0.183896 0.236127
O O8 0.605209 0.000000 0.190996
O O9 0.101930 0.792192 0.507703
O O10 0.169375 0.819277 0.627738
O O11 0.196843 0.752976 0.415021
O O12 0.165103 0.000000 0.482014
O O13 0.000000 0.789235 0.500000
O O14 0.973511 0.807161 0.313881
O O15 0.952501 0.000000 0.451029
O O16 0.535878 0.500000 0.245686
O O17 0.662434 0.500000 0.776462
O O18 0.733928 0.681748 0.755872
O O19 0.206138 0.500000 0.341166
#
# Coordination Sequence:
#
# PCOD9181522 Si02
#       8
#     8   4   8   8   8   8   8   8
#     4  10  21  37  57  80 108 144 182 217 262 322
#     4  10  20  34  54  80 112 140 170 216 268 312
#     4   9  20  37  54  76 109 144 179 224 273 319
#     4  10  20  35  55  79 107 139 178 224 271 322
#     4   9  17  29  47  73 104 134 166 210 261 310
#     4  10  19  32  53  79 106 140 181 219 262 319
#     4  10  22  38  56  80 110 141 177 227 278 319
#     4  10  21  38  57  77 106 143 180 224 278 325
#
# _framework density 18.447914000000001
#
# number of rings (size 3 to 8) (size 9 to 14) (size 15 to 20)
#    0.000    2.267    0.000    2.400    0.000    7.467 
#    0.000    0.667    0.000    2.400    0.000    0.000 
#    0.000    0.000    0.000    0.000    0.000    0.000 
#
# Total GULP energy -167400.952392 kJ/mol
# GULP energy per Si atom -5580.031746 kJ/mol
# Density = 1.840593 g / cm^3
# Si number density = 18.447914 Si / 1000 Ang^3
#
#
#
# Elastic Constant Matrix: (Units=GPa)
#
#
# Indices 1 2 3 4 5 6 
#
# 1 63.8747 26.6184 27.7325 0.0000 -5.6340 0.0000
# 2 26.6184 60.4592 51.7215 0.0000 -10.9454 0.0000
# 3 27.7325 51.7215 86.0756 0.0000 -15.3323 0.0000
# 4 0.0000 0.0000 0.0000 28.7158 0.0000 0.4644
# 5 -5.6340 -10.9454 -15.3323 0.0000 23.5923 0.0000
# 6 0.0000 0.0000 0.0000 0.4644 0.0000 -17.6068
#
#
#
# Elastic Compliance Matrix: (Units=1/GPa)
#
#
# Indices 1 2 3 4 5 6 
#
# 1 0.019392 -0.006564 -0.002286 0.000000 0.000100 0.000000
# 2 -0.006564 0.036426 -0.019273 0.000000 0.002807 0.000000
# 3 -0.002286 -0.019273 0.025157 0.000000 0.006862 0.000000
# 4 0.000000 0.000000 0.000000 0.034809 0.000000 0.000918
# 5 0.000100 0.002807 0.006862 0.000000 0.048172 0.000000
# 6 0.000000 0.000000 0.000000 0.000918 0.000000 -0.056772
#
#
# Mechanical properties :
#
#
# Convention : Reuss Voigt Hill
#
# Bulk Modulus (GPa) = 40.43748 46.95047 43.69397
# Shear Modulus (GPa) = 29.12508 13.89608 21.51058
#
# Velocity S-wave (km/s) = 3.97769 2.74754 3.41840
# Velocity P-wave (km/s) = 6.56227 5.96413 6.27034
#
# Compressibility (1/GPa) = 0.02472953
#
# Stress axis : x y z
#
# Youngs Moduli (GPa) = 51.56646 27.45315 39.75025
#
# Poissons Ratio (x) = 0.18021 0.09086
# Poissons Ratio (y) = 0.33851 0.76609
# Poissons Ratio (z) = 0.11787 0.52910
#
# Static dielectric constant tensor:
#      x y z
#    x 1.646490 0.000000 0.025060 
#    y 0.000000 1.613460 0.000000 
#    z 0.025060 0.000000 1.624860 
# 
# From -- ./inp_files/187331.got.cif
#   From: 2010.05.17/outbox.cif.g08.bks.cpg/sg12_94_cif.got.tgz:187331.got - 2010.06.03 13:09:07.
