data_PCOD9181650
_publ_section_title
;
Structure prediction by ZEFSAII (Michael W. Deem and Ramdas Pophale) SiO2 
 PCOD9181650
Probable space group: C 2/M
;
_chemical_formula_sum "Si O2"
_cell_formula_units_Z 40
_cell_length_a 22.520323
_cell_length_b 15.846986
_cell_length_c 15.145723
_cell_angle_alpha 90.000000
_cell_angle_beta 157.413708
_cell_angle_gamma 90.000000
_cell_volume 2075.996888
_symmetry_space_group_name_H-M "C 2/M"
_symmetry_group_IT_number 12
_symmetry_cell_setting 'monoclinic'
loop_
_space_group_symop_operation_xyz
x,y,z
-x,y,-z
-x,-y,-z
x,-y,z
1/2+x,1/2+y,z
1/2-x,1/2+y,-z
1/2-x,1/2-y,-z
1/2+x,1/2-y,z
loop_
_atom_site_type_symbol
_atom_site_label
_atom_site_fract_x
_atom_site_fract_y
_atom_site_fract_z
Si Si1 0.903408 0.358519 0.950699
Si Si2 0.150884 0.838229 0.152373
Si Si3 0.826008 0.398324 0.552732
Si Si4 0.979317 0.898428 0.757020
Si Si5 0.942595 0.096422 0.512017
O O1 0.859264 0.262280 0.867753
O O2 0.742870 0.405043 0.743992
O O3 0.000000 0.393190 0.000000
O O4 0.017816 0.363186 0.190554
O O5 0.291508 0.867782 0.406135
O O6 0.122009 0.873576 0.015213
O O7 0.000000 0.869537 0.000000
O O8 0.830864 0.500000 0.561267
O O9 0.680910 0.369555 0.415611
O O10 0.988829 0.865423 0.670140
O O11 0.969295 0.000000 0.739625
O O12 0.000000 0.137857 0.500000
O O13 0.003200 0.000000 0.595399
#
# Coordination Sequence:
#
# PCOD9181650 Si02
#       5
#     8   8   8   8   8
#     4  11  21  32  56  83 111 134 174 227 272 309
#     4   9  20  31  51  80 113 140 171 217 274 320
#     4  10  19  32  53  82 111 139 177 222 266 316
#     4   9  17  32  54  75 105 144 180 213 259 323
#     4  10  21  36  54  77 107 143 179 216 263 319
#
# _framework density 19.267851
#
# number of rings (size 3 to 8) (size 9 to 14) (size 15 to 20)
#    0.000    2.200    2.000    1.200    2.800    5.600 
#    0.000    1.000    0.000    0.000    0.000    5.600 
#    0.000    0.000    0.000    0.000    0.000    0.000 
#
# Total GULP energy -111533.922333 kJ/mol
# GULP energy per Si atom -5576.696117 kJ/mol
# Density = 1.922400 g / cm^3
# Si number density = 19.267851 Si / 1000 Ang^3
#
#
#
# Elastic Constant Matrix: (Units=GPa)
#
#
# Indices 1 2 3 4 5 6 
#
# 1 112.0576 11.2825 51.8337 0.0000 -30.9127 0.0000
# 2 11.2825 25.6931 6.4744 0.0000 -5.2438 0.0000
# 3 51.8337 6.4744 106.0331 0.0000 -43.2539 0.0000
# 4 0.0000 0.0000 0.0000 145.9078 0.0000 -64.2142
# 5 -30.9127 -5.2438 -43.2539 0.0000 35.0810 0.0000
# 6 0.0000 0.0000 0.0000 -64.2142 0.0000 38.1965
#
#
#
# Elastic Compliance Matrix: (Units=1/GPa)
#
#
# Indices 1 2 3 4 5 6 
#
# 1 0.012584 -0.003364 -0.003275 0.000000 0.006548 0.000000
# 2 -0.003364 0.041045 0.000869 0.000000 0.004242 0.000000
# 3 -0.003275 0.000869 0.019827 0.000000 0.021690 0.000000
# 4 0.000000 0.000000 0.000000 0.026348 0.000000 0.044294
# 5 0.006548 0.004242 0.021690 0.000000 0.061652 0.000000
# 6 0.000000 0.000000 0.000000 0.044294 0.000000 0.100646
#
#
# Mechanical properties :
#
#
# Convention : Reuss Voigt Hill
#
# Bulk Modulus (GPa) = 16.15130 42.55168 29.35149
# Shear Modulus (GPa) = 16.99054 55.44995 36.22024
#
# Velocity S-wave (km/s) = 2.97275 5.37038 4.34040
# Velocity P-wave (km/s) = 4.49262 7.78375 6.35494
#
# Compressibility (1/GPa) = 0.06191453
#
# Stress axis : x y z
#
# Youngs Moduli (GPa) = 79.46623 24.36340 50.43634
#
# Poissons Ratio (x) = 0.08197 0.16519
# Poissons Ratio (y) = 0.26735 -0.04382
# Poissons Ratio (z) = 0.26027 -0.02117
#
# Static dielectric constant tensor:
#      x y z
#    x 1.707640 0.000000 -0.035270 
#    y 0.000000 1.682490 0.000000 
#    z -0.035270 0.000000 1.684700 
# 
# From -- ./inp_files/46897.got.cif
#   From: 2010.05.17/outbox.cif.g08.bks.cpg/sg12_24_cif.got.tgz:46897.got - 2010.06.03 13:09:07.
