data_PCOD9181085
_publ_section_title
;
Structure prediction by ZEFSAII (Michael W. Deem and Ramdas Pophale) SiO2 
 PCOD9181085
Probable space group: C 2/M
;
_chemical_formula_sum "Si O2"
_cell_formula_units_Z 56
_cell_length_a 24.713115
_cell_length_b 20.029694
_cell_length_c 9.051218
_cell_angle_alpha 90.000000
_cell_angle_beta 143.350377
_cell_angle_gamma 90.000000
_cell_volume 2674.391174
_symmetry_space_group_name_H-M "C 2/M"
_symmetry_group_IT_number 12
_symmetry_cell_setting 'monoclinic'
loop_
_space_group_symop_operation_xyz
x,y,z
-x,y,-z
-x,-y,-z
x,-y,z
1/2+x,1/2+y,z
1/2-x,1/2+y,-z
1/2-x,1/2-y,-z
1/2+x,1/2-y,z
loop_
_atom_site_type_symbol
_atom_site_label
_atom_site_fract_x
_atom_site_fract_y
_atom_site_fract_z
Si Si1 0.063839 0.320631 0.901571
Si Si2 0.109532 0.217152 0.765724
Si Si3 0.634498 0.077050 0.839417
Si Si4 0.687996 0.576500 0.561977
Si Si5 0.724046 0.826261 0.467425
Si Si6 0.898030 0.925411 0.335417
Si Si7 0.141426 0.677604 0.592326
O O1 0.113899 0.259471 0.925775
O O2 0.065226 0.381046 0.787110
O O3 0.958248 0.308067 0.696123
O O4 0.126567 0.338998 0.175946
O O5 0.141469 0.140804 0.828021
O O6 0.154518 0.259330 0.731119
O O7 0.000000 0.216608 0.500000
O O8 0.642027 0.114186 0.701153
O O9 0.611523 0.000000 0.774431
O O10 0.727272 0.082629 0.138288
O O11 0.684499 0.500000 0.501173
O O12 0.705498 0.626664 0.466261
O O13 0.605463 0.588159 0.495256
O O14 0.750000 0.750000 0.500000
O O15 0.710164 0.834273 0.610570
O O16 0.000000 0.929743 0.500000
O O17 0.856587 0.000000 0.221562
#
# Coordination Sequence:
#
# PCOD9181085 Si02
#       7
#     8   8   8   8   8   8   8
#     4   9  19  34  51  73 104 136 167 211 256 294
#     4   8  15  29  49  73  97 121 159 212 258 291
#     4   9  18  33  54  79 105 134 168 210 259 304
#     4   9  19  35  51  73 108 138 164 210 265 306
#     4  11  22  34  50  73 103 141 176 204 248 308
#     4   9  16  28  50  75  95 123 166 211 255 306
#     4  10  19  32  52  76 101 133 173 211 247 300
#
# _framework density 20.939344999999999
#
# number of rings (size 3 to 8) (size 9 to 14) (size 15 to 20)
#    0.000    2.714    0.000    2.571    0.000    2.857 
#    0.000    4.286    0.000    5.143    0.000    0.000 
#    0.000   21.714    0.000    0.000    0.000    0.000 
#
# Total GULP energy -156187.853679 kJ/mol
# GULP energy per Si atom -5578.137631 kJ/mol
# Density = 2.089169 g / cm^3
# Si number density = 20.939345 Si / 1000 Ang^3
#
#
#
# Elastic Constant Matrix: (Units=GPa)
#
#
# Indices 1 2 3 4 5 6 
#
# 1 163.5238 67.0018 23.7655 0.0000 -16.5729 0.0000
# 2 67.0018 169.1901 5.6312 0.0000 -19.2205 0.0000
# 3 23.7655 5.6312 42.0783 0.0000 -0.7249 0.0000
# 4 0.0000 0.0000 0.0000 6.5275 0.0000 -0.8980
# 5 -16.5729 -19.2205 -0.7249 0.0000 24.1279 0.0000
# 6 0.0000 0.0000 0.0000 -0.8980 0.0000 19.9452
#
#
#
# Elastic Compliance Matrix: (Units=1/GPa)
#
#
# Indices 1 2 3 4 5 6 
#
# 1 0.008177 -0.002721 -0.004197 0.000000 0.003323 0.000000
# 2 -0.002721 0.007430 0.000613 0.000000 0.004068 0.000000
# 3 -0.004197 0.000613 0.026026 0.000000 -0.001613 0.000000
# 4 0.000000 0.000000 0.000000 0.154152 0.000000 0.006940
# 5 0.003323 0.004068 -0.001613 0.000000 0.046920 0.000000
# 6 0.000000 0.000000 0.000000 0.006940 0.000000 0.050450
#
#
# Mechanical properties :
#
#
# Convention : Reuss Voigt Hill
#
# Bulk Modulus (GPa) = 34.45671 63.06549 48.76110
# Shear Modulus (GPa) = 15.85090 28.67970 22.26530
#
# Velocity S-wave (km/s) = 2.75433 3.70490 3.26440
# Velocity P-wave (km/s) = 5.15813 6.96314 6.12746
#
# Compressibility (1/GPa) = 0.02902193
#
# Stress axis : x y z
#
# Youngs Moduli (GPa) = 122.29515 134.59250 38.42340
#
# Poissons Ratio (x) = 0.36623 0.16126
# Poissons Ratio (y) = 0.33277 -0.02354
# Poissons Ratio (z) = 0.51326 -0.08245
#
# Static dielectric constant tensor:
#      x y z
#    x 1.787780 0.000000 0.058130 
#    y 0.000000 1.759180 0.000000 
#    z 0.058130 0.000000 1.798210 
# 
# From -- ./inp_files/89670.got.cif
#   From: 2010.05.17/outbox.cif.g08.bks.cpg/sg12_45_cif.got.tgz:89670.got - 2010.06.03 13:09:07.
