data_PCOD9181004
_publ_section_title
;
Structure prediction by ZEFSAII (Michael W. Deem and Ramdas Pophale) SiO2 
 PCOD9181004
Probable space group: C 2/M
;
_chemical_formula_sum "Si O2"
_cell_formula_units_Z 64
_cell_length_a 16.441433
_cell_length_b 21.384780
_cell_length_c 33.087860
_cell_angle_alpha 90.000000
_cell_angle_beta 162.224185
_cell_angle_gamma 90.000000
_cell_volume 3551.652895
_symmetry_space_group_name_H-M "C 2/M"
_symmetry_group_IT_number 12
_symmetry_cell_setting 'monoclinic'
loop_
_space_group_symop_operation_xyz
x,y,z
-x,y,-z
-x,-y,-z
x,-y,z
1/2+x,1/2+y,z
1/2-x,1/2+y,-z
1/2-x,1/2-y,-z
1/2+x,1/2-y,z
loop_
_atom_site_type_symbol
_atom_site_label
_atom_site_fract_x
_atom_site_fract_y
_atom_site_fract_z
Si Si1 0.890747 0.069651 0.787347
Si Si2 0.750197 0.831330 0.027211
Si Si3 0.038857 0.128555 0.392579
Si Si4 0.107093 0.572108 0.507845
Si Si5 0.803789 0.425466 0.151730
Si Si6 0.209570 0.744004 0.210101
Si Si7 0.488440 0.072276 0.149887
Si Si8 0.468444 0.129137 0.313720
O O1 0.651963 0.069485 0.642894
O O2 0.752501 0.092839 0.763589
O O3 0.116548 0.118098 0.880826
O O4 0.995505 0.000000 0.841254
O O5 0.981559 0.780242 0.128241
O O6 0.475389 0.796972 0.907332
O O7 0.674320 0.875554 0.952553
O O8 0.183616 0.112684 0.418651
O O9 0.255172 0.122895 0.530869
O O10 0.899183 0.196575 0.323998
O O11 0.796239 0.080833 0.283919
O O12 0.204437 0.500000 0.559284
O O13 0.000000 0.596184 0.500000
O O14 0.789934 0.500000 0.152287
O O15 0.955456 0.414209 0.181649
O O16 0.945537 0.396184 0.257667
O O17 0.500000 0.403254 0.000000
O O18 0.384143 0.798420 0.273738
O O19 0.403652 0.000000 0.103209
#
# Coordination Sequence:
#
# PCOD9181004 Si02
#       8
#     8   8   8   8   8   8   8   8
#     4   9  16  28  51  79 100 129 172 216 261 322
#     4   9  17  31  53  77 100 136 181 219 260 312
#     4  10  20  34  55  77 107 138 181 220 270 320
#     4   9  18  33  55  78 103 131 165 217 279 331
#     4  10  20  33  52  79 113 145 177 218 261 309
#     4   9  18  32  52  72  97 138 179 222 261 301
#     4  10  20  33  53  83 115 144 173 218 272 321
#     4  10  19  32  52  73 104 145 184 214 254 313
#
# _framework density 18.019780000000001
#
# number of rings (size 3 to 8) (size 9 to 14) (size 15 to 20)
#    0.000    2.500    0.000    3.000    0.000    3.000 
#    0.000    1.250   27.500    2.250    0.000   11.375 
#    0.000    0.000    0.000    0.000    0.000    0.000 
#
# Total GULP energy -178151.539066 kJ/mol
# GULP energy per Si atom -5567.235596 kJ/mol
# Density = 1.797877 g / cm^3
# Si number density = 18.019780 Si / 1000 Ang^3
#
#
#
# Elastic Constant Matrix: (Units=GPa)
#
#
# Indices 1 2 3 4 5 6 
#
# 1 89.5233 17.6543 33.7973 0.0062 -5.4358 0.0021
# 2 17.6543 68.6514 19.5255 0.0173 -4.9857 0.0067
# 3 33.7973 19.5255 91.8622 0.0863 4.8383 0.0341
# 4 0.0062 0.0173 0.0863 31.4625 -0.0130 -1.9925
# 5 -5.4358 -4.9857 4.8383 -0.0130 10.3454 0.0009
# 6 0.0021 0.0067 0.0341 -1.9925 0.0009 9.3154
#
#
#
# Elastic Compliance Matrix: (Units=1/GPa)
#
#
# Indices 1 2 3 4 5 6 
#
# 1 0.014025 -0.001420 -0.005342 0.000018 0.009183 0.000020
# 2 -0.001420 0.016560 -0.003464 0.000004 0.008854 0.000001
# 3 -0.005342 -0.003464 0.014172 -0.000044 -0.011104 -0.000056
# 4 0.000018 0.000004 -0.000044 0.032220 0.000072 0.006892
# 5 0.009183 0.008854 -0.011104 0.000072 0.110946 0.000036
# 6 0.000020 0.000001 -0.000056 0.006892 0.000036 0.108823
#
#
# Mechanical properties :
#
#
# Convention : Reuss Voigt Hill
#
# Bulk Modulus (GPa) = 41.14319 43.55455 42.34887
# Shear Modulus (GPa) = 15.37048 22.16199 18.76624
#
# Velocity S-wave (km/s) = 2.92375 3.51076 3.23061
# Velocity P-wave (km/s) = 5.85487 6.37626 6.12112
#
# Compressibility (1/GPa) = 0.02430536
#
# Stress axis : x y z
#
# Youngs Moduli (GPa) = 71.30373 60.38749 70.56091
#
# Poissons Ratio (x) = 0.08578 0.37690
# Poissons Ratio (y) = 0.10128 0.24439
# Poissons Ratio (z) = 0.38087 0.20915
#
# Static dielectric constant tensor:
#      x y z
#    x 1.607360 0.000010 0.010750 
#    y 0.000010 1.660960 -0.000020 
#    z 0.010750 -0.000020 1.646790 
# 
# From -- ./inp_files/377127.got.cif
#   From: 2010.05.17/outbox.cif.g08.bks.cpg/sg12_189_cif.got.tgz:377127.got - 2010.06.03 13:09:07.
