data_PCOD9181000
_publ_section_title
;
Structure prediction by ZEFSAII (Michael W. Deem and Ramdas Pophale) SiO2 
 PCOD9181000
Probable space group: C 2/M
;
_chemical_formula_sum "Si O2"
_cell_formula_units_Z 64
_cell_length_a 26.098592
_cell_length_b 7.778999
_cell_length_c 19.015174
_cell_angle_alpha 90.000000
_cell_angle_beta 61.805548
_cell_angle_gamma 90.000000
_cell_volume 3402.429341
_symmetry_space_group_name_H-M "C 2/M"
_symmetry_group_IT_number 12
_symmetry_cell_setting 'monoclinic'
loop_
_space_group_symop_operation_xyz
x,y,z
-x,y,-z
-x,-y,-z
x,-y,z
1/2+x,1/2+y,z
1/2-x,1/2+y,-z
1/2-x,1/2-y,-z
1/2+x,1/2-y,z
loop_
_atom_site_type_symbol
_atom_site_label
_atom_site_fract_x
_atom_site_fract_y
_atom_site_fract_z
Si Si1 0.738678 0.299322 0.685613
Si Si2 0.831520 0.201051 0.512815
Si Si3 0.618079 0.796266 0.160067
Si Si4 0.492552 0.793007 0.285214
Si Si5 0.694937 0.295988 0.986931
Si Si6 0.540996 0.208581 0.536769
Si Si7 0.274138 0.211101 0.814135
Si Si8 0.135354 0.206916 0.664185
O O1 0.728512 0.500000 0.707677
O O2 0.782474 0.286910 0.591667
O O3 0.766986 0.228493 0.738725
O O4 0.677500 0.225780 0.697882
O O5 0.893631 0.223822 0.510257
O O6 0.841713 0.270705 0.427112
O O7 0.817078 0.000000 0.517241
O O8 0.553530 0.726647 0.215432
O O9 0.640452 0.773046 0.065837
O O10 0.667965 0.728855 0.181558
O O11 0.615605 0.000000 0.174810
O O12 0.484293 0.736097 0.371442
O O13 0.432751 0.745613 0.285229
O O14 0.494762 0.000000 0.284202
O O15 0.688347 0.500000 0.988277
O O16 0.750000 0.250000 0.000000
O O17 0.716995 0.237065 0.896230
O O18 0.500000 0.264166 0.500000
O O19 0.543751 0.000000 0.534280
O O20 0.276871 0.000000 0.813879
O O21 0.140789 0.000000 0.658262
#
# Coordination Sequence:
#
# PCOD9181000 Si02
#       8
#     8   8   8   8   8   8   8   8
#     4  10  19  32  52  71  90 123 163 202 235 274
#     4  10  20  32  45  67  98 126 155 196 242 282
#     4   9  17  30  49  73  98 122 151 190 232 281
#     4   9  18  31  49  71  93 122 159 196 233 275
#     4   9  16  29  48  70  96 125 152 185 231 281
#     4   9  18  31  49  68  90 125 164 196 228 275
#     4   8  16  29  48  72  96 118 149 195 236 270
#     4   9  19  34  49  67  93 125 162 200 238 274
#
# _framework density 18.810089000000001
#
# number of rings (size 3 to 8) (size 9 to 14) (size 15 to 20)
#    0.000    2.875    0.000    1.875    1.750    1.750 
#    0.000    3.125    0.000    0.750    0.000    5.250 
#    0.000    0.000    0.000    0.000    0.000    0.000 
#
# Total GULP energy -178291.898285 kJ/mol
# GULP energy per Si atom -5571.621821 kJ/mol
# Density = 1.876728 g / cm^3
# Si number density = 18.810089 Si / 1000 Ang^3
#
#
#
# Elastic Constant Matrix: (Units=GPa)
#
#
# Indices 1 2 3 4 5 6 
#
# 1 98.6990 4.5837 63.6479 0.0001 -13.6259 -0.0001
# 2 4.5837 20.2161 0.5047 0.0003 3.5512 0.0008
# 3 63.6479 0.5047 91.3033 -0.0001 -25.0654 -0.0002
# 4 0.0001 0.0003 -0.0001 18.4118 0.0000 -6.2684
# 5 -13.6259 3.5512 -25.0654 0.0000 22.9663 0.0000
# 6 -0.0001 0.0008 -0.0002 -6.2684 0.0000 14.6226
#
#
#
# Elastic Compliance Matrix: (Units=1/GPa)
#
#
# Indices 1 2 3 4 5 6 
#
# 1 0.018929 -0.003274 -0.014214 0.000000 -0.003776 0.000000
# 2 -0.003274 0.052201 -0.001079 -0.000002 -0.011191 -0.000004
# 3 -0.014214 -0.001079 0.026554 0.000000 0.020714 0.000000
# 4 0.000000 -0.000002 0.000000 0.063595 0.000001 0.027262
# 5 -0.003776 -0.011191 0.020714 0.000001 0.065640 0.000001
# 6 0.000000 -0.000004 0.000000 0.027262 0.000001 0.080074
#
#
# Mechanical properties :
#
#
# Convention : Reuss Voigt Hill
#
# Bulk Modulus (GPa) = 16.51516 38.63233 27.57374
# Shear Modulus (GPa) = 13.72470 20.63227 17.17849
#
# Velocity S-wave (km/s) = 2.70413 3.31550 3.02530
# Velocity P-wave (km/s) = 4.30682 5.93628 5.18595
#
# Compressibility (1/GPa) = 0.06055043
#
# Stress axis : x y z
#
# Youngs Moduli (GPa) = 52.83034 19.15684 37.65957
#
# Poissons Ratio (x) = 0.06271 0.53529
# Poissons Ratio (y) = 0.17294 0.04063
# Poissons Ratio (z) = 0.75092 0.02067
#
# Static dielectric constant tensor:
#      x y z
#    x 1.659330 0.000000 0.003790 
#    y 0.000000 1.701480 0.000000 
#    z 0.003790 0.000000 1.662800 
# 
# From -- ./inp_files/323697.got.cif
#   From: 2010.05.17/outbox.cif.g08.bks.cpg/sg12_162_cif.got.tgz:323697.got - 2010.06.03 13:09:07.
