data_PCOD9181448
_publ_section_title
;
Structure prediction by ZEFSAII (Michael W. Deem and Ramdas Pophale) SiO2 
 PCOD9181448
Probable space group: C 2/M
;
_chemical_formula_sum "Si O2"
_cell_formula_units_Z 64
_cell_length_a 14.532975
_cell_length_b 9.369770
_cell_length_c 22.800787
_cell_angle_alpha 90.000000
_cell_angle_beta 92.435156
_cell_angle_gamma 90.000000
_cell_volume 3101.993808
_symmetry_space_group_name_H-M "C 2/M"
_symmetry_group_IT_number 12
_symmetry_cell_setting 'monoclinic'
loop_
_space_group_symop_operation_xyz
x,y,z
-x,y,-z
-x,-y,-z
x,-y,z
1/2+x,1/2+y,z
1/2-x,1/2+y,-z
1/2-x,1/2-y,-z
1/2+x,1/2-y,z
loop_
_atom_site_type_symbol
_atom_site_label
_atom_site_fract_x
_atom_site_fract_y
_atom_site_fract_z
Si Si1 0.608469 0.337724 0.993684
Si Si2 0.696184 0.666129 0.643411
Si Si3 0.027639 0.169635 0.566206
Si Si4 0.144206 0.160764 0.865119
Si Si5 0.912050 0.670066 0.661934
Si Si6 0.166888 0.338188 0.756450
Si Si7 0.890359 0.164496 0.779983
Si Si8 0.360684 0.838992 0.890488
O O1 0.648488 0.500000 0.997317
O O2 0.642662 0.238096 0.046778
O O3 0.500000 0.349729 0.000000
O O4 0.622082 0.278732 0.928667
O O5 0.686421 0.500000 0.660251
O O6 0.635667 0.689311 0.583894
O O7 0.804564 0.694355 0.641772
O O8 0.655105 0.759959 0.694613
O O9 0.972568 0.257003 0.613544
O O10 0.000000 0.212773 0.500000
O O11 0.007406 0.000000 0.571989
O O12 0.120351 0.254207 0.808508
O O13 0.254975 0.148831 0.867359
O O14 0.105783 0.000000 0.861102
O O15 0.927194 0.500000 0.666383
O O16 0.925523 0.745022 0.725472
O O17 0.134647 0.500000 0.753332
O O18 0.278129 0.339179 0.770138
O O19 0.909300 0.240793 0.842798
O O20 0.921270 0.000000 0.779210
O O21 0.398969 0.000000 0.895134
#
# Coordination Sequence:
#
# PCOD9181448 Si02
#       8
#     8   8   8   8   8   8   8   8
#     4  10  21  36  50  68  99 139 180 219 266 330
#     4   9  19  37  59  83 116 155 189 231 287 341
#     4  10  22  40  60  85 118 157 199 234 273 338
#     4   9  18  33  53  75 100 134 176 221 272 330
#     4  10  20  36  59  87 118 150 189 238 290 335
#     4   9  17  30  53  83 108 134 176 228 275 327
#     4   9  17  32  55  81 108 139 178 222 272 333
#     4  10  19  32  53  78 102 132 173 224 277 324
#
# _framework density 20.631892000000001
#
# number of rings (size 3 to 8) (size 9 to 14) (size 15 to 20)
#    0.000    2.500    0.000    1.875    0.000    6.000 
#    2.250    0.000    0.000    0.000    0.000    0.000 
#    0.000    0.000    0.000    0.000    0.000    0.000 
#
# Total GULP energy -178717.184431 kJ/mol
# GULP energy per Si atom -5584.912013 kJ/mol
# Density = 2.058493 g / cm^3
# Si number density = 20.631892 Si / 1000 Ang^3
#
#
#
# Elastic Constant Matrix: (Units=GPa)
#
#
# Indices 1 2 3 4 5 6 
#
# 1 45.3759 22.2523 28.2534 0.0000 2.4599 0.0000
# 2 22.2523 70.7831 40.6842 0.0000 2.7781 0.0000
# 3 28.2534 40.6842 102.2317 0.0000 1.8036 0.0000
# 4 0.0000 0.0000 0.0000 -2.8437 0.0000 -7.4964
# 5 2.4599 2.7781 1.8036 0.0000 34.0633 0.0000
# 6 0.0000 0.0000 0.0000 -7.4964 0.0000 10.7646
#
#
#
# Elastic Compliance Matrix: (Units=1/GPa)
#
#
# Indices 1 2 3 4 5 6 
#
# 1 0.028347 -0.005667 -0.005556 0.000000 -0.001291 0.000000
# 2 -0.005667 0.019493 -0.006176 0.000000 -0.000853 0.000000
# 3 -0.005556 -0.006176 0.013772 0.000000 0.000176 0.000000
# 4 0.000000 0.000000 0.000000 -0.124007 0.000000 -0.086357
# 5 -0.001291 -0.000853 0.000176 0.000000 0.029511 0.000000
# 6 0.000000 0.000000 0.000000 -0.086357 0.000000 0.032759
#
#
# Mechanical properties :
#
#
# Convention : Reuss Voigt Hill
#
# Bulk Modulus (GPa) = 37.29576 44.53005 40.91290
# Shear Modulus (GPa) = 114.65314 16.87690 65.76502
#
# Velocity S-wave (km/s) = 7.46267 2.86317 5.65196
# Velocity P-wave (km/s) = 9.61100 5.70617 7.90353
#
# Compressibility (1/GPa) = 0.02681270
#
# Stress axis : x y z
#
# Youngs Moduli (GPa) = 35.27735 51.30144 72.61173
#
# Poissons Ratio (x) = 0.29075 0.40343
# Poissons Ratio (y) = 0.19993 0.44845
# Poissons Ratio (z) = 0.19600 0.31684
#
# Static dielectric constant tensor:
#      x y z
#    x 1.785680 0.000000 0.027440 
#    y 0.000000 1.725750 0.000000 
#    z 0.027440 0.000000 1.700160 
# 
# From -- ./inp_files/313977.got.cif
#   From: 2010.05.17/outbox.cif.g08.bks.cpg/sg12_157_cif.got.tgz:313977.got - 2010.06.03 13:09:07.
