data_PCOD9181498
_publ_section_title
;
Structure prediction by ZEFSAII (Michael W. Deem and Ramdas Pophale) SiO2 
 PCOD9181498
Probable space group: C 2/M
;
_chemical_formula_sum "Si O2"
_cell_formula_units_Z 48
_cell_length_a 14.896603
_cell_length_b 7.536944
_cell_length_c 16.502846
_cell_angle_alpha 90.000000
_cell_angle_beta 79.041133
_cell_angle_gamma 90.000000
_cell_volume 1819.065947
_symmetry_space_group_name_H-M "C 2/M"
_symmetry_group_IT_number 12
_symmetry_cell_setting 'monoclinic'
loop_
_space_group_symop_operation_xyz
x,y,z
-x,y,-z
-x,-y,-z
x,-y,z
1/2+x,1/2+y,z
1/2-x,1/2+y,-z
1/2-x,1/2-y,-z
1/2+x,1/2-y,z
loop_
_atom_site_type_symbol
_atom_site_label
_atom_site_fract_x
_atom_site_fract_y
_atom_site_fract_z
Si Si1 0.608545 0.205042 0.300762
Si Si2 0.721058 0.212606 0.128970
Si Si3 0.273432 0.796942 0.377410
Si Si4 0.054237 0.282170 0.570751
Si Si5 0.449135 0.288175 0.929508
Si Si6 0.889011 0.784710 0.199303
O O1 0.661826 0.285240 0.215706
O O2 0.680436 0.207310 0.363673
O O3 0.512715 0.282419 0.345864
O O4 0.592388 0.000000 0.284478
O O5 0.658313 0.256498 0.063155
O O6 0.823642 0.265512 0.134000
O O7 0.723058 0.000000 0.131758
O O8 0.341434 0.722819 0.434607
O O9 0.340644 0.790463 0.286960
O O10 0.251244 0.000000 0.398470
O O11 0.056587 0.500000 0.571664
O O12 0.000000 0.229015 0.500000
O O13 0.459476 0.500000 0.929572
O O14 0.509666 0.225271 0.842347
O O15 0.500000 0.217390 0.000000
O O16 0.886715 0.000000 0.208197
#
# Coordination Sequence:
#
# PCOD9181498 Si02
#       6
#     8   8   8   8   8   8
#     4   9  18  34  54  74 100 133 166 204 251 296
#     4   9  18  33  52  73  97 130 169 203 241 293
#     4  10  19  32  53  78  99 125 169 214 244 285
#     4   9  18  32  50  73 103 138 169 199 244 300
#     4  10  21  35  51  74 103 132 162 201 249 295
#     4   9  19  36  54  72 100 134 163 199 251 300
#
# _framework density 26.387170999999999
#
# number of rings (size 3 to 8) (size 9 to 14) (size 15 to 20)
#    0.000    2.667    0.000    2.500    0.000    6.333 
#    0.000    1.667    0.000    3.500    0.000    0.000 
#    0.000    0.000    0.000    0.000    0.000    0.000 
#
# Total GULP energy -134146.732320 kJ/mol
# GULP energy per Si atom -5589.447180 kJ/mol
# Density = 2.632711 g / cm^3
# Si number density = 26.387171 Si / 1000 Ang^3
#
#
#
# Elastic Constant Matrix: (Units=GPa)
#
#
# Indices 1 2 3 4 5 6 
#
# 1 159.7209 3.9194 15.7916 0.0000 19.7287 0.0000
# 2 3.9194 81.2622 2.8014 0.0000 -2.1931 0.0000
# 3 15.7916 2.8014 60.1633 0.0000 19.6468 0.0000
# 4 0.0000 0.0000 0.0000 13.6725 0.0000 11.6382
# 5 19.7287 -2.1931 19.6468 0.0000 53.8176 0.0000
# 6 0.0000 0.0000 0.0000 11.6382 0.0000 15.7658
#
#
#
# Elastic Compliance Matrix: (Units=1/GPa)
#
#
# Indices 1 2 3 4 5 6 
#
# 1 0.006628 -0.000339 -0.001051 0.000000 -0.002060 0.000000
# 2 -0.000339 0.012374 -0.000786 0.000000 0.000916 0.000000
# 3 -0.001051 -0.000786 0.019095 0.000000 -0.006618 0.000000
# 4 0.000000 0.000000 0.000000 0.196801 0.000000 -0.145277
# 5 -0.002060 0.000916 -0.006618 0.000000 0.021789 0.000000
# 6 0.000000 0.000000 0.000000 -0.145277 0.000000 0.170672
#
#
# Mechanical properties :
#
#
# Convention : Reuss Voigt Hill
#
# Bulk Modulus (GPa) = 29.63514 38.46348 34.04931
# Shear Modulus (GPa) = 11.28772 35.22678 23.25725
#
# Velocity S-wave (km/s) = 2.07051 3.65772 2.97203
# Velocity P-wave (km/s) = 4.11962 5.69621 4.97082
#
# Compressibility (1/GPa) = 0.03374373
#
# Stress axis : x y z
#
# Youngs Moduli (GPa) = 150.88472 80.81453 52.36984
#
# Poissons Ratio (x) = 0.02740 0.05505
# Poissons Ratio (y) = 0.05115 0.04117
# Poissons Ratio (z) = 0.15861 0.06353
#
# Static dielectric constant tensor:
#      x y z
#    x 2.042890 0.000000 0.039980 
#    y 0.000000 1.962600 0.000000 
#    z 0.039980 0.000000 2.187940 
# 
# From -- ./inp_files/267690.got.cif
#   From: 2010.05.17/outbox.cif.g08.bks.cpg/sg12_134_cif.got.tgz:267690.got - 2010.06.03 13:09:07.
