data_PCOD9181077
_publ_section_title
;
Structure prediction by ZEFSAII (Michael W. Deem and Ramdas Pophale) SiO2 
 PCOD9181077
Probable space group: C 2/M
;
_chemical_formula_sum "Si O2"
_cell_formula_units_Z 40
_cell_length_a 16.238253
_cell_length_b 7.796116
_cell_length_c 21.643269
_cell_angle_alpha 90.000000
_cell_angle_beta 34.056694
_cell_angle_gamma 90.000000
_cell_volume 1534.399792
_symmetry_space_group_name_H-M "C 2/M"
_symmetry_group_IT_number 12
_symmetry_cell_setting 'monoclinic'
loop_
_space_group_symop_operation_xyz
x,y,z
-x,y,-z
-x,-y,-z
x,-y,z
1/2+x,1/2+y,z
1/2-x,1/2+y,-z
1/2-x,1/2-y,-z
1/2+x,1/2-y,z
loop_
_atom_site_type_symbol
_atom_site_label
_atom_site_fract_x
_atom_site_fract_y
_atom_site_fract_z
Si Si1 0.988244 0.296910 0.760203
Si Si2 0.827108 0.707438 0.036722
Si Si3 0.150015 0.703796 0.836230
Si Si4 0.204029 0.697373 0.373580
Si Si5 0.591095 0.206611 0.569108
O O1 0.019203 0.500000 0.741777
O O2 0.830011 0.270671 0.889587
O O3 0.129882 0.211664 0.702749
O O4 0.984937 0.233982 0.690482
O O5 0.821413 0.500000 0.037257
O O6 0.828337 0.768425 0.107948
O O7 0.988231 0.764318 0.913853
O O8 0.136737 0.500000 0.850235
O O9 0.276135 0.736781 0.708090
O O10 0.164694 0.500000 0.391829
O O11 0.102339 0.773739 0.491610
O O12 0.750000 0.250000 0.500000
O O13 0.576212 0.000000 0.573923
#
# Coordination Sequence:
#
# PCOD9181077 Si02
#       5
#     8   8   8   8   8
#     4  10  19  32  52  76 101 129 163 202 242 288
#     4   9  19  36  54  71  96 130 165 203 247 291
#     4   9  19  36  54  71  96 130 165 203 247 291
#     4  10  19  32  52  76 101 129 163 202 242 288
#     4   8  16  30  47  70  99 129 159 195 241 286
#
# _framework density 26.068825
#
# number of rings (size 3 to 8) (size 9 to 14) (size 15 to 20)
#    0.000    2.800    0.000    2.400    0.000    4.000 
#    0.000    3.000    0.000    6.000    0.000    0.000 
#    0.000    0.000    0.000    0.000    0.000    0.000 
#
# Total GULP energy -111717.087093 kJ/mol
# GULP energy per Si atom -5585.854355 kJ/mol
# Density = 2.600949 g / cm^3
# Si number density = 26.068825 Si / 1000 Ang^3
#
#
#
# Elastic Constant Matrix: (Units=GPa)
#
#
# Indices 1 2 3 4 5 6 
#
# 1 88.1955 0.8270 22.3726 0.0000 -1.9711 0.0000
# 2 0.8270 41.5750 -5.7677 0.0000 -3.1059 0.0000
# 3 22.3726 -5.7677 182.0018 0.0000 -6.1675 0.0000
# 4 0.0000 0.0000 0.0000 15.9974 0.0000 17.5586
# 5 -1.9711 -3.1059 -6.1675 0.0000 58.5314 0.0000
# 6 0.0000 0.0000 0.0000 17.5586 0.0000 -0.3551
#
#
#
# Elastic Compliance Matrix: (Units=1/GPa)
#
#
# Indices 1 2 3 4 5 6 
#
# 1 0.011714 -0.000417 -0.001446 0.000000 0.000220 0.000000
# 2 -0.000417 0.024284 0.000867 0.000000 0.001366 0.000000
# 3 -0.001446 0.000867 0.005720 0.000000 0.000600 0.000000
# 4 0.000000 0.000000 0.000000 0.001131 0.000000 0.055922
# 5 0.000220 0.001366 0.000600 0.000000 0.017228 0.000000
# 6 0.000000 0.000000 0.000000 0.055922 0.000000 -0.050949
#
#
# Mechanical properties :
#
#
# Convention : Reuss Voigt Hill
#
# Bulk Modulus (GPa) = 25.17238 38.51512 31.84375
# Shear Modulus (GPa) = 205.24976 34.45744 119.85360
#
# Velocity S-wave (km/s) = 8.88283 3.63958 6.78790
# Velocity P-wave (km/s) = 10.71837 5.69812 8.58347
#
# Compressibility (1/GPa) = 0.03972608
#
# Stress axis : x y z
#
# Youngs Moduli (GPa) = 85.36790 41.18015 174.82581
#
# Poissons Ratio (x) = 0.01718 0.25275
# Poissons Ratio (y) = 0.03561 -0.15160
# Poissons Ratio (z) = 0.12342 -0.03571
#
# Static dielectric constant tensor:
#      x y z
#    x 2.197260 0.000000 0.063240 
#    y 0.000000 1.958600 0.000000 
#    z 0.063240 0.000000 2.091830 
# 
# From -- ./inp_files/119044.got.cif
#   From: 2010.05.17/outbox.cif.g08.bks.cpg/sg12_60_cif.got.tgz:119044.got - 2010.06.03 13:09:07.
