data_PCOD9181500
_publ_section_title
;
Structure prediction by ZEFSAII (Michael W. Deem and Ramdas Pophale) SiO2 
 PCOD9181500
Probable space group: C 2/M
;
_chemical_formula_sum "Si O2"
_cell_formula_units_Z 56
_cell_length_a 18.595846
_cell_length_b 8.998015
_cell_length_c 23.586952
_cell_angle_alpha 90.000000
_cell_angle_beta 127.151296
_cell_angle_gamma 90.000000
_cell_volume 3145.694462
_symmetry_space_group_name_H-M "C 2/M"
_symmetry_group_IT_number 12
_symmetry_cell_setting 'monoclinic'
loop_
_space_group_symop_operation_xyz
x,y,z
-x,y,-z
-x,-y,-z
x,-y,z
1/2+x,1/2+y,z
1/2-x,1/2+y,-z
1/2-x,1/2-y,-z
1/2+x,1/2-y,z
loop_
_atom_site_type_symbol
_atom_site_label
_atom_site_fract_x
_atom_site_fract_y
_atom_site_fract_z
Si Si1 0.500487 0.678597 0.067094
Si Si2 0.629038 0.329416 0.222097
Si Si3 0.270615 0.177812 0.633309
Si Si4 0.055117 0.321928 0.359134
Si Si5 0.446422 0.327537 0.211890
Si Si6 0.842500 0.322419 0.064832
Si Si7 0.921406 0.178329 0.507857
O O1 0.487893 0.500000 0.070982
O O2 0.593799 0.719962 0.143608
O O3 0.420457 0.767411 0.059064
O O4 0.500000 0.704172 0.000000
O O5 0.658616 0.500000 0.232770
O O6 0.702268 0.238778 0.292135
O O7 0.537253 0.323384 0.216224
O O8 0.350846 0.218954 0.627926
O O9 0.174474 0.228308 0.563741
O O10 0.268705 0.000000 0.635704
O O11 0.047254 0.500000 0.354798
O O12 0.058613 0.259160 0.423838
O O13 0.975433 0.249606 0.284033
O O14 0.422140 0.500000 0.208077
O O15 0.371901 0.240431 0.140301
O O16 0.836938 0.500000 0.063369
O O17 0.750000 0.250000 0.000000
O O18 0.000000 0.205680 0.500000
O O19 0.916633 0.000000 0.515633
#
# Coordination Sequence:
#
# PCOD9181500 Si02
#       7
#     8   8   8   8   8   8   8
#     4   9  18  34  54  76 105 140 176 215 263 316
#     4   8  15  28  49  75  99 127 163 206 255 301
#     4   9  18  32  51  74  97 125 165 210 251 295
#     4  10  19  32  53  79 101 124 162 212 258 301
#     4   9  17  32  53  76 102 132 168 210 257 306
#     4  11  21  34  53  78 108 140 177 218 261 309
#     4  10  21  36  51  69  99 138 171 202 249 305
#
# _framework density 17.802111
#
# number of rings (size 3 to 8) (size 9 to 14) (size 15 to 20)
#    0.000    2.571    0.000    3.429    0.000    5.143 
#    0.000    1.429    0.000    3.429    0.000    0.000 
#    0.000    0.000    0.000    0.000    0.000    0.000 
#
# Total GULP energy -156137.363239 kJ/mol
# GULP energy per Si atom -5576.334401 kJ/mol
# Density = 1.776159 g / cm^3
# Si number density = 17.802111 Si / 1000 Ang^3
#
#
#
# Elastic Constant Matrix: (Units=GPa)
#
#
# Indices 1 2 3 4 5 6 
#
# 1 39.4738 43.8444 61.9429 0.0000 3.4759 0.0000
# 2 43.8444 84.0846 83.8261 0.0000 5.0731 0.0000
# 3 61.9429 83.8261 215.0721 0.0000 0.5898 0.0000
# 4 0.0000 0.0000 0.0000 37.5991 0.0000 0.4006
# 5 3.4759 5.0731 0.5898 0.0000 24.3866 0.0000
# 6 0.0000 0.0000 0.0000 0.4006 0.0000 16.1997
#
#
#
# Elastic Compliance Matrix: (Units=1/GPa)
#
#
# Indices 1 2 3 4 5 6 
#
# 1 0.071449 -0.026972 -0.010054 0.000000 -0.004330 0.000000
# 2 -0.026972 0.030003 -0.003919 0.000000 -0.002302 0.000000
# 3 -0.010054 -0.003919 0.009067 0.000000 0.002029 0.000000
# 4 0.000000 0.000000 0.000000 0.026603 0.000000 -0.000658
# 5 -0.004330 -0.002302 0.002029 0.000000 0.042053 0.000000
# 6 0.000000 0.000000 0.000000 -0.000658 0.000000 0.061746
#
#
# Mechanical properties :
#
#
# Convention : Reuss Voigt Hill
#
# Bulk Modulus (GPa) = 34.92909 79.76192 57.34551
# Shear Modulus (GPa) = 15.04416 25.57155 20.30786
#
# Velocity S-wave (km/s) = 2.91018 3.79414 3.38117
# Velocity P-wave (km/s) = 5.56377 8.00600 6.89389
#
# Compressibility (1/GPa) = 0.02862943
#
# Stress axis : x y z
#
# Youngs Moduli (GPa) = 13.99599 33.32988 110.28701
#
# Poissons Ratio (x) = 0.89897 1.10879
# Poissons Ratio (y) = 0.37750 0.43227
# Poissons Ratio (z) = 0.14071 0.13064
#
# Static dielectric constant tensor:
#      x y z
#    x 1.598710 0.000000 0.004380 
#    y 0.000000 1.597410 0.000000 
#    z 0.004380 0.000000 1.614810 
# 
# From -- ./inp_files/320216.got.cif
#   From: 2010.05.17/outbox.cif.g08.bks.cpg/sg12_161_cif.got.tgz:320216.got - 2010.06.03 13:09:07.
