data_PCOD9181398
_publ_section_title
;
Structure prediction by ZEFSAII (Michael W. Deem and Ramdas Pophale) SiO2 
 PCOD9181398
Probable space group: C 2/M
;
_chemical_formula_sum "Si O2"
_cell_formula_units_Z 48
_cell_length_a 16.390640
_cell_length_b 13.607611
_cell_length_c 11.582854
_cell_angle_alpha 90.000000
_cell_angle_beta 83.645092
_cell_angle_gamma 90.000000
_cell_volume 2567.536073
_symmetry_space_group_name_H-M "C 2/M"
_symmetry_group_IT_number 12
_symmetry_cell_setting 'monoclinic'
loop_
_space_group_symop_operation_xyz
x,y,z
-x,y,-z
-x,-y,-z
x,-y,z
1/2+x,1/2+y,z
1/2-x,1/2+y,-z
1/2-x,1/2-y,-z
1/2+x,1/2-y,z
loop_
_atom_site_type_symbol
_atom_site_label
_atom_site_fract_x
_atom_site_fract_y
_atom_site_fract_z
Si Si1 0.657578 0.752385 0.141059
Si Si2 0.377947 0.888164 0.425548
Si Si3 0.406849 0.113381 0.031819
Si Si4 0.167335 0.730758 0.770969
Si Si5 0.903115 0.112095 0.041980
Si Si6 0.930553 0.388587 0.673255
O O1 0.740139 0.739943 0.199121
O O2 0.590485 0.800858 0.236460
O O3 0.658753 0.834219 0.040081
O O4 0.636024 0.657239 0.068737
O O5 0.337187 0.798084 0.362415
O O6 0.378300 0.876668 0.564062
O O7 0.474194 0.886232 0.375708
O O8 0.346982 0.000000 0.405329
O O9 0.377441 0.136877 0.164111
O O10 0.409327 0.000000 0.006747
O O11 0.500000 0.152772 0.000000
O O12 0.120713 0.821449 0.842537
O O13 0.877306 0.000000 0.065117
O O14 0.000000 0.114650 0.000000
O O15 0.914155 0.500000 0.722206
#
# Coordination Sequence:
#
# PCOD9181398 Si02
#       6
#     8   8   8   8   8   8
#     4  11  21  31  49  75 104 133 160 201 252 302
#     4   9  18  34  56  78  99 126 162 206 255 305
#     4  10  19  32  53  77 100 128 165 211 258 303
#     4  11  21  31  49  75 104 133 160 201 252 302
#     4  10  21  36  51  67  94 136 179 207 230 275
#     4   9  18  34  56  78  99 126 162 206 255 305
#
# _framework density 18.694966000000001
#
# number of rings (size 3 to 8) (size 9 to 14) (size 15 to 20)
#    0.000    2.000    0.000    8.000    0.000    7.333 
#    0.000    0.000    0.000    1.000    0.000    4.667 
#    0.000    0.000    0.000    0.000    0.000    0.000 
#
# Total GULP energy -133706.315451 kJ/mol
# GULP energy per Si atom -5571.096477 kJ/mol
# Density = 1.865242 g / cm^3
# Si number density = 18.694966 Si / 1000 Ang^3
#
#
#
# Elastic Constant Matrix: (Units=GPa)
#
#
# Indices 1 2 3 4 5 6 
#
# 1 50.6003 20.7013 -6.5238 0.0000 16.3810 0.0000
# 2 20.7013 103.7436 34.1131 0.0000 22.1886 0.0000
# 3 -6.5238 34.1131 56.4975 0.0000 15.5923 0.0000
# 4 0.0000 0.0000 0.0000 10.6054 0.0000 17.4101
# 5 16.3810 22.1886 15.5923 0.0000 27.0380 0.0000
# 6 0.0000 0.0000 0.0000 17.4101 0.0000 -10.1236
#
#
#
# Elastic Compliance Matrix: (Units=1/GPa)
#
#
# Indices 1 2 3 4 5 6 
#
# 1 0.030705 -0.005830 0.012939 0.000000 -0.021280 0.000000
# 2 -0.005830 0.014270 -0.008364 0.000000 -0.003356 0.000000
# 3 0.012939 -0.008364 0.029153 0.000000 -0.017787 0.000000
# 4 0.000000 0.000000 0.000000 0.024663 0.000000 0.042414
# 5 -0.021280 -0.003356 -0.017787 0.000000 0.062888 0.000000
# 6 0.000000 0.000000 0.000000 0.042414 0.000000 -0.025837
#
#
# Mechanical properties :
#
#
# Convention : Reuss Voigt Hill
#
# Bulk Modulus (GPa) = 13.96302 34.15805 24.06054
# Shear Modulus (GPa) = 30.82125 16.34067 23.58096
#
# Velocity S-wave (km/s) = 4.06475 2.95967 3.55541
# Velocity P-wave (km/s) = 5.43274 5.47635 5.45459
#
# Compressibility (1/GPa) = 0.07161773
#
# Stress axis : x y z
#
# Youngs Moduli (GPa) = 32.56798 70.07556 34.30211
#
# Poissons Ratio (x) = 0.40855 -0.44382
# Poissons Ratio (y) = 0.18988 0.28689
# Poissons Ratio (z) = -0.42138 0.58608
#
# Static dielectric constant tensor:
#      x y z
#    x 1.554210 0.000000 -0.043000 
#    y 0.000000 1.661760 0.000000 
#    z -0.043000 0.000000 1.684370 
# 
# From -- ./inp_files/142884.got.cif
#   From: 2010.05.17/outbox.cif.g08.bks.cpg/sg12_72_cif.got.tgz:142884.got - 2010.06.03 13:09:07.
