data_PCOD9181086
_publ_section_title
;
Structure prediction by ZEFSAII (Michael W. Deem and Ramdas Pophale) SiO2 
 PCOD9181086
Probable space group: C 2/M
;
_chemical_formula_sum "Si O2"
_cell_formula_units_Z 64
_cell_length_a 24.851461
_cell_length_b 10.019594
_cell_length_c 15.161402
_cell_angle_alpha 90.000000
_cell_angle_beta 74.936981
_cell_angle_gamma 90.000000
_cell_volume 3645.498438
_symmetry_space_group_name_H-M "C 2/M"
_symmetry_group_IT_number 12
_symmetry_cell_setting 'monoclinic'
loop_
_space_group_symop_operation_xyz
x,y,z
-x,y,-z
-x,-y,-z
x,-y,z
1/2+x,1/2+y,z
1/2-x,1/2+y,-z
1/2-x,1/2-y,-z
1/2+x,1/2-y,z
loop_
_atom_site_type_symbol
_atom_site_label
_atom_site_fract_x
_atom_site_fract_y
_atom_site_fract_z
Si Si1 0.062962 0.653686 0.510594
Si Si2 0.618443 0.849402 0.791406
Si Si3 0.509747 0.853183 0.098435
Si Si4 0.691286 0.842566 0.930459
Si Si5 0.034521 0.851361 0.223043
Si Si6 0.592092 0.347955 0.658329
Si Si7 0.396553 0.848243 0.696144
Si Si8 0.202176 0.344707 0.125353
O O1 0.063011 0.500000 0.544879
O O2 0.081584 0.759372 0.575695
O O3 0.104083 0.660689 0.408963
O O4 0.000000 0.677679 0.500000
O O5 0.551889 0.857783 0.833428
O O6 0.645736 0.815059 0.874344
O O7 0.628251 0.738634 0.712328
O O8 0.637219 0.000000 0.758566
O O9 0.541807 0.734360 0.131526
O O10 0.536429 0.000000 0.098936
O O11 0.500000 0.831291 0.000000
O O12 0.745336 0.752568 0.890097
O O13 0.704816 0.000000 0.917506
O O14 0.674976 0.820103 0.040021
O O15 0.061221 0.762425 0.287602
O O16 0.969151 0.861282 0.272027
O O17 0.058024 0.000000 0.207861
O O18 0.612120 0.500000 0.633634
O O19 0.340587 0.827233 0.775998
O O20 0.416443 0.000000 0.707832
O O21 0.220105 0.500000 0.118358
#
# Coordination Sequence:
#
# PCOD9181086 Si02
#       8
#     8   8   8   8   8   8   8   8
#     4  10  19  32  52  76 101 135 174 210 249 297
#     4   9  18  32  51  74  98 131 172 210 247 297
#     4   9  18  30  47  68  94 132 172 205 241 293
#     4   9  18  34  55  77 102 132 168 209 255 302
#     4  10  20  31  44  67 102 136 167 204 248 294
#     4  10  20  33  49  72 103 137 170 207 250 299
#     4  10  20  33  52  75 101 134 171 210 250 297
#     4   9  19  34  54  78 104 131 166 211 255 303
#
# _framework density 17.555897999999999
#
# number of rings (size 3 to 8) (size 9 to 14) (size 15 to 20)
#    0.000    2.500    1.250    0.750    1.750    3.000 
#    0.000    0.000    0.000    0.750    0.000    0.000 
#    0.000    0.000    0.000    0.000    0.000    0.000 
#
# Total GULP energy -178245.456301 kJ/mol
# GULP energy per Si atom -5570.170509 kJ/mol
# Density = 1.751594 g / cm^3
# Si number density = 17.555898 Si / 1000 Ang^3
#
#
#
# Elastic Constant Matrix: (Units=GPa)
#
#
# Indices 1 2 3 4 5 6 
#
# 1 26.6624 23.4850 5.4299 0.0000 1.1981 0.0000
# 2 23.4850 112.5675 52.8305 0.0000 13.9122 0.0000
# 3 5.4299 52.8305 83.5745 0.0000 3.0485 0.0000
# 4 0.0000 0.0000 0.0000 -24.6143 0.0000 -10.4440
# 5 1.1981 13.9122 3.0485 0.0000 19.7259 0.0000
# 6 0.0000 0.0000 0.0000 -10.4440 0.0000 7.6574
#
#
#
# Elastic Compliance Matrix: (Units=1/GPa)
#
#
# Indices 1 2 3 4 5 6 
#
# 1 0.047624 -0.012887 0.004853 0.000000 0.005446 0.000000
# 2 -0.012887 0.017405 -0.009801 0.000000 -0.009978 0.000000
# 3 0.004853 -0.009801 0.017704 0.000000 0.003882 0.000000
# 4 0.000000 0.000000 0.000000 -0.025734 0.000000 -0.035099
# 5 0.005446 -0.009978 0.003882 0.000000 0.056801 0.000000
# 6 0.000000 0.000000 0.000000 -0.035099 0.000000 0.082721
#
#
# Mechanical properties :
#
#
# Convention : Reuss Voigt Hill
#
# Bulk Modulus (GPa) = 21.24766 42.92168 32.08467
# Shear Modulus (GPa) = 20.17117 9.95774 15.06445
#
# Velocity S-wave (km/s) = 3.39332 2.38418 2.93249
# Velocity P-wave (km/s) = 5.24232 5.66399 5.45723
#
# Compressibility (1/GPa) = 0.04706401
#
# Stress axis : x y z
#
# Youngs Moduli (GPa) = 20.99796 57.45389 56.48371
#
# Poissons Ratio (x) = 0.74038 -0.27413
# Poissons Ratio (y) = 0.27059 0.55361
# Poissons Ratio (z) = -0.10191 0.56312
#
# Static dielectric constant tensor:
#      x y z
#    x 1.589560 0.000000 0.000500 
#    y 0.000000 1.622720 0.000000 
#    z 0.000500 0.000000 1.610260 
# 
# From -- ./inp_files/243809.got.cif
#   From: 2010.05.17/outbox.cif.g08.bks.cpg/sg12_122_cif.got.tgz:243809.got - 2010.06.03 13:09:07.
