data_PCOD9181013
_publ_section_title
;
Structure prediction by ZEFSAII (Michael W. Deem and Ramdas Pophale) SiO2 
 PCOD9181013
Probable space group: C 2/M
;
_chemical_formula_sum "Si O2"
_cell_formula_units_Z 40
_cell_length_a 13.354402
_cell_length_b 13.877923
_cell_length_c 16.791540
_cell_angle_alpha 90.000000
_cell_angle_beta 41.486295
_cell_angle_gamma 90.000000
_cell_volume 2061.515352
_symmetry_space_group_name_H-M "C 2/M"
_symmetry_group_IT_number 12
_symmetry_cell_setting 'monoclinic'
loop_
_space_group_symop_operation_xyz
x,y,z
-x,y,-z
-x,-y,-z
x,-y,z
1/2+x,1/2+y,z
1/2-x,1/2+y,-z
1/2-x,1/2-y,-z
1/2+x,1/2-y,z
loop_
_atom_site_type_symbol
_atom_site_label
_atom_site_fract_x
_atom_site_fract_y
_atom_site_fract_z
Si Si1 0.797265 0.385470 0.554737
Si Si2 0.123477 0.302425 0.329339
Si Si3 0.490699 0.390813 0.654227
Si Si4 0.749883 0.607260 0.060181
Si Si5 0.345133 0.687233 0.051253
O O1 0.790123 0.500000 0.571479
O O2 0.783976 0.334651 0.648368
O O3 0.660326 0.360877 0.577465
O O4 0.963237 0.357292 0.425132
O O5 0.084142 0.189237 0.356449
O O6 0.214029 0.322223 0.194932
O O7 0.490643 0.500000 0.622980
O O8 0.391201 0.390704 0.794607
O O9 0.818645 0.500000 0.024787
O O10 0.851813 0.699227 0.022637
O O11 0.692418 0.627905 0.005408
O O12 0.500000 0.657426 0.000000
#
# Coordination Sequence:
#
# PCOD9181013 Si02
#       5
#     8   8   8   8   8
#     4  10  20  34  52  74  99 128 163 201 244 291
#     4  10  19  32  52  74 100 128 163 203 241 285
#     4   9  18  34  54  73  97 130 162 197 245 293
#     4   9  19  34  51  74 101 127 161 202 242 289
#     4  10  20  33  51  74  99 130 165 200 240 287
#
# _framework density 19.403203000000001
#
# number of rings (size 3 to 8) (size 9 to 14) (size 15 to 20)
#    0.000    2.400    0.000    3.000    0.000    2.400 
#    0.000    2.000    0.000    2.400    0.000    0.000 
#    0.000    0.000    0.000    0.000    0.000    0.000 
#
# Total GULP energy -111611.759635 kJ/mol
# GULP energy per Si atom -5580.587982 kJ/mol
# Density = 1.935904 g / cm^3
# Si number density = 19.403203 Si / 1000 Ang^3
#
#
#
# Elastic Constant Matrix: (Units=GPa)
#
#
# Indices 1 2 3 4 5 6 
#
# 1 31.4942 10.0305 1.6666 0.0000 6.7362 0.0000
# 2 10.0305 79.0147 13.2118 0.0000 8.8795 0.0000
# 3 1.6666 13.2118 33.8520 -0.0001 16.7178 0.0001
# 4 0.0000 0.0000 -0.0001 24.7164 0.0000 5.1137
# 5 6.7362 8.8795 16.7178 0.0000 16.3354 0.0000
# 6 0.0000 0.0000 0.0001 5.1137 0.0000 18.5549
#
#
#
# Elastic Compliance Matrix: (Units=1/GPa)
#
#
# Indices 1 2 3 4 5 6 
#
# 1 0.038047 -0.003981 0.012860 0.000000 -0.026686 0.000000
# 2 -0.003981 0.014083 -0.004712 0.000000 -0.001191 0.000000
# 3 0.012860 -0.004712 0.064903 0.000000 -0.069163 0.000000
# 4 0.000000 0.000000 0.000000 0.042905 -0.000001 -0.011825
# 5 -0.026686 -0.001191 -0.069163 -0.000001 0.143651 0.000001
# 6 0.000000 0.000000 0.000000 -0.011825 0.000001 0.057153
#
#
# Mechanical properties :
#
#
# Convention : Reuss Voigt Hill
#
# Bulk Modulus (GPa) = 7.97668 21.57541 14.77604
# Shear Modulus (GPa) = 12.68398 19.88483 16.28440
#
# Velocity S-wave (km/s) = 2.55954 3.20476 2.90015
# Velocity P-wave (km/s) = 3.58538 4.98373 4.34123
#
# Compressibility (1/GPa) = 0.12536540
#
# Stress axis : x y z
#
# Youngs Moduli (GPa) = 26.28316 71.00751 15.40766
#
# Poissons Ratio (x) = 0.28269 -0.19814
# Poissons Ratio (y) = 0.10464 0.07260
# Poissons Ratio (z) = -0.33799 0.33460
#
# Static dielectric constant tensor:
#      x y z
#    x 1.644490 0.000000 0.003570 
#    y 0.000000 1.700690 0.000000 
#    z 0.003570 0.000000 1.663080 
# 
# From -- ./inp_files/129124.got.cif
#   From: 2010.05.17/outbox.cif.g08.bks.cpg/sg12_65_cif.got.tgz:129124.got - 2010.06.03 13:09:07.
