data_PCOD9181214
_publ_section_title
;
Structure prediction by ZEFSAII (Michael W. Deem and Ramdas Pophale) SiO2 
 PCOD9181214
Probable space group: C 2/M
;
_chemical_formula_sum "Si O2"
_cell_formula_units_Z 56
_cell_length_a 26.591905
_cell_length_b 25.145346
_cell_length_c 5.056303
_cell_angle_alpha 90.000000
_cell_angle_beta 120.923302
_cell_angle_gamma 90.000000
_cell_volume 2900.377587
_symmetry_space_group_name_H-M "C 2/M"
_symmetry_group_IT_number 12
_symmetry_cell_setting 'monoclinic'
loop_
_space_group_symop_operation_xyz
x,y,z
-x,y,-z
-x,-y,-z
x,-y,z
1/2+x,1/2+y,z
1/2-x,1/2+y,-z
1/2-x,1/2-y,-z
1/2+x,1/2-y,z
loop_
_atom_site_type_symbol
_atom_site_label
_atom_site_fract_x
_atom_site_fract_y
_atom_site_fract_z
Si Si1 0.296104 0.304074 0.726995
Si Si2 0.445011 0.444167 0.161622
Si Si3 0.135990 0.302039 0.975792
Si Si4 0.337952 0.560994 0.273657
Si Si5 0.567284 0.766654 0.275412
Si Si6 0.900982 0.851922 0.810195
Si Si7 0.741851 0.145749 0.059399
O O1 0.356690 0.336075 0.928346
O O2 0.279276 0.322976 0.386820
O O3 0.315776 0.244528 0.839374
O O4 0.247559 0.321347 0.803813
O O5 0.500000 0.449181 0.500000
O O6 0.443644 0.500000 0.995424
O O7 0.382584 0.442925 0.146585
O O8 0.453692 0.385685 0.067485
O O9 0.089506 0.284062 0.625367
O O10 0.102678 0.303246 0.162706
O O11 0.175394 0.351457 0.984622
O O12 0.329541 0.500000 0.342314
O O13 0.371647 0.601462 0.558135
O O14 0.274506 0.590223 0.082715
O O15 0.584872 0.704315 0.285100
O O16 0.500000 0.770721 0.000000
#
# Coordination Sequence:
#
# PCOD9181214 Si02
#       7
#     8   8   8   8   8   8   8
#     4  10  19  32  52  78 105 138 181 223 274 322
#     4  10  21  34  50  70  99 144 197 239 273 312
#     4  11  21  37  55  80 109 141 183 224 275 336
#     4  10  21  36  52  76 107 143 184 231 277 315
#     4  11  25  38  57  81 113 144 183 228 277 329
#     4  10  21  33  51  72 102 143 185 225 273 315
#     4  11  20  35  56  79 107 144 181 228 278 331
#
# _framework density 19.307829999999999
#
# number of rings (size 3 to 8) (size 9 to 14) (size 15 to 20)
#    0.000    1.571    1.429    5.143    4.000    0.000 
#    0.000    2.143    0.000    0.000    0.000    0.000 
#    0.000    3.429    0.000    0.000    0.000    0.000 
#
# Total GULP energy -155912.914391 kJ/mol
# GULP energy per Si atom -5568.318371 kJ/mol
# Density = 1.926388 g / cm^3
# Si number density = 19.307830 Si / 1000 Ang^3
#
#
#
# Elastic Constant Matrix: (Units=GPa)
#
#
# Indices 1 2 3 4 5 6 
#
# 1 83.0328 34.4556 5.6531 0.0000 -1.5149 0.0000
# 2 34.4556 63.2914 19.8305 0.0000 13.8898 0.0000
# 3 5.6531 19.8305 55.5523 0.0000 -0.9146 0.0000
# 4 0.0000 0.0000 0.0000 23.8170 0.0000 0.3021
# 5 -1.5149 13.8898 -0.9146 0.0000 32.4341 0.0000
# 6 0.0000 0.0000 0.0000 0.3021 0.0000 5.8352
#
#
#
# Elastic Compliance Matrix: (Units=1/GPa)
#
#
# Indices 1 2 3 4 5 6 
#
# 1 0.016522 -0.010929 0.002311 0.000000 0.005517 0.000000
# 2 -0.010929 0.027239 -0.008816 0.000000 -0.012424 0.000000
# 3 0.002311 -0.008816 0.020986 0.000000 0.004475 0.000000
# 4 0.000000 0.000000 0.000000 0.042014 0.000000 -0.002175
# 5 0.005517 -0.012424 0.004475 0.000000 0.036536 0.000000
# 6 0.000000 0.000000 0.000000 -0.002175 0.000000 0.171485
#
#
# Mechanical properties :
#
#
# Convention : Reuss Voigt Hill
#
# Bulk Modulus (GPa) = 33.46853 35.75057 34.60955
# Shear Modulus (GPa) = 13.90392 21.87976 17.89184
#
# Velocity S-wave (km/s) = 2.68641 3.36997 3.04742
# Velocity P-wave (km/s) = 5.19560 5.80504 5.50875
#
# Compressibility (1/GPa) = 0.02987881
#
# Stress axis : x y z
#
# Youngs Moduli (GPa) = 60.52503 36.71263 47.64969
#
# Poissons Ratio (x) = 0.40125 -0.11012
# Poissons Ratio (y) = 0.66151 0.42007
# Poissons Ratio (z) = -0.13987 0.32365
#
# Static dielectric constant tensor:
#      x y z
#    x 1.748440 0.000000 -0.006390 
#    y 0.000000 1.719390 0.000000 
#    z -0.006390 0.000000 1.843210 
# 
# From -- ./inp_files/29772.got.cif
#   From: 2010.05.17/outbox.cif.g08.bks.cpg/sg12_15_cif.got.tgz:29772.got - 2010.06.03 13:09:07.
