data_PCOD9181259
_publ_section_title
;
Structure prediction by ZEFSAII (Michael W. Deem and Ramdas Pophale) SiO2 
 PCOD9181259
Probable space group: C 2/M
;
_chemical_formula_sum "Si O2"
_cell_formula_units_Z 48
_cell_length_a 28.107331
_cell_length_b 7.320559
_cell_length_c 21.373073
_cell_angle_alpha 90.000000
_cell_angle_beta 28.294329
_cell_angle_gamma 90.000000
_cell_volume 2084.539526
_symmetry_space_group_name_H-M "C 2/M"
_symmetry_group_IT_number 12
_symmetry_cell_setting 'monoclinic'
loop_
_space_group_symop_operation_xyz
x,y,z
-x,y,-z
-x,-y,-z
x,-y,z
1/2+x,1/2+y,z
1/2-x,1/2+y,-z
1/2-x,1/2-y,-z
1/2+x,1/2-y,z
loop_
_atom_site_type_symbol
_atom_site_label
_atom_site_fract_x
_atom_site_fract_y
_atom_site_fract_z
Si Si1 0.205086 0.278462 0.868988
Si Si2 0.034720 0.776959 0.639820
Si Si3 0.186230 0.784440 0.134095
Si Si4 0.866004 0.218109 0.346844
Si Si5 0.518442 0.292023 0.909211
Si Si6 0.404070 0.721807 0.567016
O O1 0.196447 0.500000 0.877749
O O2 0.251088 0.213615 0.880828
O O3 0.294359 0.225872 0.718631
O O4 0.093866 0.206359 0.988216
O O5 0.072429 0.713658 0.663759
O O6 0.091794 0.723788 0.510386
O O7 0.923298 0.712708 0.753068
O O8 0.036851 0.000000 0.640116
O O9 0.172538 0.000000 0.162632
O O10 0.250000 0.750000 0.000000
O O11 0.750000 0.250000 0.500000
O O12 0.907900 0.286179 0.230671
O O13 0.880818 0.000000 0.326410
O O14 0.554461 0.500000 0.879080
O O15 0.500000 0.208181 0.000000
O O16 0.500000 0.780670 0.500000
O O17 0.409219 0.500000 0.563322
#
# Coordination Sequence:
#
# PCOD9181259 Si02
#       6
#     8   8   8   8   8   8
#     4  10  20  33  56  87 112 138 185 240 278 318
#     4   9  17  31  52  76 106 141 176 217 273 333
#     4  10  19  32  52  79 109 142 179 221 274 335
#     4  10  22  39  59  82 107 144 191 233 278 331
#     4  10  23  42  59  78 113 157 190 223 283 354
#     4   9  15  28  51  82 113 138 171 221 275 325
#
# _framework density 23.026667
#
# number of rings (size 3 to 8) (size 9 to 14) (size 15 to 20)
#    0.000    2.333    1.667    1.000    2.333    3.000 
#    0.000    0.833    0.000    1.500    0.000    0.000 
#    0.000    0.000    0.000    0.000    0.000    0.000 
#
# Total GULP energy -133890.752147 kJ/mol
# GULP energy per Si atom -5578.781339 kJ/mol
# Density = 2.297426 g / cm^3
# Si number density = 23.026667 Si / 1000 Ang^3
#
#
#
# Elastic Constant Matrix: (Units=GPa)
#
#
# Indices 1 2 3 4 5 6 
#
# 1 160.2882 0.3049 79.4957 0.0000 27.1159 -0.0001
# 2 0.3049 92.1506 -8.5709 -0.0030 3.5702 -0.0050
# 3 79.4957 -8.5709 175.5880 -0.0032 34.1878 0.0000
# 4 0.0000 -0.0030 -0.0032 0.9764 0.0013 -7.5423
# 5 27.1159 3.5702 34.1878 0.0013 52.2125 -0.0009
# 6 -0.0001 -0.0050 0.0000 -7.5423 -0.0009 -2.7485
#
#
#
# Elastic Compliance Matrix: (Units=1/GPa)
#
#
# Indices 1 2 3 4 5 6 
#
# 1 0.008248 -0.000258 -0.003342 0.000000 -0.002078 0.000001
# 2 -0.000258 0.010981 0.000886 -0.000005 -0.001197 -0.000006
# 3 -0.003342 0.000886 0.007937 0.000001 -0.003522 -0.000004
# 4 0.000000 -0.000005 0.000001 0.046138 -0.000004 -0.126612
# 5 -0.002078 -0.001197 -0.003522 -0.000004 0.022619 0.000005
# 6 0.000001 -0.000006 -0.000004 -0.126612 0.000005 -0.016391
#
#
# Mechanical properties :
#
#
# Convention : Reuss Voigt Hill
#
# Bulk Modulus (GPa) = 46.00139 63.38735 54.69437
# Shear Modulus (GPa) = 54.22441 33.87456 44.04948
#
# Velocity S-wave (km/s) = 4.85795 3.83965 4.37850
# Velocity P-wave (km/s) = 7.17544 6.87349 7.02609
#
# Compressibility (1/GPa) = 0.02173847
#
# Stress axis : x y z
#
# Youngs Moduli (GPa) = 121.23534 91.06288 125.98590
#
# Poissons Ratio (x) = 0.02347 0.42110
# Poissons Ratio (y) = 0.03124 -0.11159
# Poissons Ratio (z) = 0.40523 -0.08066
#
# Static dielectric constant tensor:
#      x y z
#    x 1.837920 0.000000 0.051040 
#    y 0.000000 1.902300 0.000000 
#    z 0.051040 0.000000 1.901370 
# 
# From -- ./inp_files/164246.got.cif
#   From: 2010.05.17/outbox.cif.g08.bks.cpg/sg12_83_cif.got.tgz:164246.got - 2010.06.03 13:09:07.
