data_PCOD9181053
_publ_section_title
;
Structure prediction by ZEFSAII (Michael W. Deem and Ramdas Pophale) SiO2 
 PCOD9181053
Probable space group: C 2/M
;
_chemical_formula_sum "Si O2"
_cell_formula_units_Z 56
_cell_length_a 14.878360
_cell_length_b 7.550504
_cell_length_c 26.247821
_cell_angle_alpha 90.000000
_cell_angle_beta 68.173312
_cell_angle_gamma 90.000000
_cell_volume 2737.275899
_symmetry_space_group_name_H-M "C 2/M"
_symmetry_group_IT_number 12
_symmetry_cell_setting 'monoclinic'
loop_
_space_group_symop_operation_xyz
x,y,z
-x,y,-z
-x,-y,-z
x,-y,z
1/2+x,1/2+y,z
1/2-x,1/2+y,-z
1/2-x,1/2-y,-z
1/2+x,1/2-y,z
loop_
_atom_site_type_symbol
_atom_site_label
_atom_site_fract_x
_atom_site_fract_y
_atom_site_fract_z
Si Si1 0.485121 0.716791 0.561591
Si Si2 0.247754 0.208843 0.848935
Si Si3 0.956424 0.286106 0.062436
Si Si4 0.153852 0.705248 0.762159
Si Si5 0.954081 0.282918 0.849458
Si Si6 0.285216 0.702486 0.645845
Si Si7 0.312849 0.710578 0.436669
O O1 0.500000 0.774988 0.500000
O O2 0.479998 0.500000 0.560569
O O3 0.388263 0.783401 0.608934
O O4 0.578714 0.766679 0.573708
O O5 0.155483 0.235518 0.905227
O O6 0.213955 0.288701 0.802163
O O7 0.349541 0.274919 0.850565
O O8 0.259247 0.000000 0.837653
O O9 0.959331 0.500000 0.061625
O O10 0.018995 0.227985 0.098473
O O11 0.000000 0.222167 0.000000
O O12 0.137256 0.500000 0.751677
O O13 0.046538 0.777956 0.796446
O O14 0.218505 0.785774 0.703573
O O15 0.953964 0.500000 0.849493
O O16 0.305501 0.500000 0.658326
O O17 0.228542 0.700532 0.604645
O O18 0.310944 0.500000 0.428661
O O19 0.250000 0.750000 0.500000
#
# Coordination Sequence:
#
# PCOD9181053 Si02
#       7
#     8   8   8   8   8   8   8
#     4   9  17  32  52  72 100 133 161 198 254 308
#     4  10  19  32  52  75 104 137 169 213 263 300
#     4   9  18  34  54  76 106 143 179 210 247 303
#     4   9  19  36  55  73  99 135 175 211 251 312
#     4   8  16  32  51  73 103 138 169 209 262 298
#     4  10  20  36  56  76  99 133 171 209 256 309
#     4  11  21  34  53  75 101 132 165 204 251 306
#
# _framework density 20.458295
#
# number of rings (size 3 to 8) (size 9 to 14) (size 15 to 20)
#    0.000    2.571    1.429    1.714    0.000    2.571 
#    0.000    7.857    0.000    0.000    0.000    0.000 
#    0.000    0.000    0.000    0.000    0.000    0.000 
#
# Total GULP energy -156208.610350 kJ/mol
# GULP energy per Si atom -5578.878941 kJ/mol
# Density = 2.041173 g / cm^3
# Si number density = 20.458295 Si / 1000 Ang^3
#
#
#
# Elastic Constant Matrix: (Units=GPa)
#
#
# Indices 1 2 3 4 5 6 
#
# 1 171.0354 -8.4721 76.0479 0.0000 -29.4895 0.0000
# 2 -8.4721 50.5580 -8.6112 -0.0001 -1.9500 -0.0001
# 3 76.0479 -8.6112 171.9057 0.0000 -25.2032 0.0000
# 4 0.0000 -0.0001 0.0000 3.3285 0.0000 5.7565
# 5 -29.4895 -1.9500 -25.2032 0.0000 17.9565 0.0000
# 6 0.0000 -0.0001 0.0000 5.7565 0.0000 16.4649
#
#
#
# Elastic Compliance Matrix: (Units=1/GPa)
#
#
# Indices 1 2 3 4 5 6 
#
# 1 0.008909 0.001586 -0.002130 0.000000 0.011814 0.000000
# 2 0.001586 0.020524 0.001303 0.000000 0.006663 0.000000
# 3 -0.002130 0.001303 0.007973 0.000000 0.007835 0.000000
# 4 0.000000 0.000000 0.000000 0.759937 0.000000 -0.265690
# 5 0.011814 0.006663 0.007835 0.000000 0.086813 0.000000
# 6 0.000000 0.000000 0.000000 -0.265690 0.000000 0.153626
#
#
# Mechanical properties :
#
#
# Convention : Reuss Voigt Hill
#
# Bulk Modulus (GPa) = 25.69013 56.82538 41.25776
# Shear Modulus (GPa) = 4.76536 29.85228 17.30882
#
# Velocity S-wave (km/s) = 1.52786 3.82406 2.91186
# Velocity P-wave (km/s) = 3.96195 6.88000 5.61389
#
# Compressibility (1/GPa) = 0.03892545
#
# Stress axis : x y z
#
# Youngs Moduli (GPa) = 112.24259 48.72354 125.41910
#
# Poissons Ratio (x) = -0.07727 0.26711
# Poissons Ratio (y) = -0.17800 -0.16346
# Poissons Ratio (z) = 0.23905 -0.06350
#
# Static dielectric constant tensor:
#      x y z
#    x 1.698480 0.000000 -0.023590 
#    y 0.000000 1.745610 0.000000 
#    z -0.023590 0.000000 1.717920 
# 
# From -- ./inp_files/359668.got.cif
#   From: 2010.05.17/outbox.cif.g08.bks.cpg/sg12_180_cif.got.tgz:359668.got - 2010.06.03 13:09:07.
