data_PCOD9181914
_publ_section_title
;
Structure prediction by ZEFSAII (Michael W. Deem and Ramdas Pophale) SiO2 
 PCOD9181914
Probable space group: C 2/M
;
_chemical_formula_sum "Si O2"
_cell_formula_units_Z 48
_cell_length_a 17.108657
_cell_length_b 11.403945
_cell_length_c 16.191774
_cell_angle_alpha 90.000000
_cell_angle_beta 132.909077
_cell_angle_gamma 90.000000
_cell_volume 2313.846712
_symmetry_space_group_name_H-M "C 2/M"
_symmetry_group_IT_number 12
_symmetry_cell_setting 'monoclinic'
loop_
_space_group_symop_operation_xyz
x,y,z
-x,y,-z
-x,-y,-z
x,-y,z
1/2+x,1/2+y,z
1/2-x,1/2+y,-z
1/2-x,1/2-y,-z
1/2+x,1/2-y,z
loop_
_atom_site_type_symbol
_atom_site_label
_atom_site_fract_x
_atom_site_fract_y
_atom_site_fract_z
Si Si1 0.398280 0.367895 0.986826
Si Si2 0.887588 0.190250 0.409736
Si Si3 0.702227 0.871447 0.542039
Si Si4 0.841780 0.369539 0.236335
Si Si5 0.569992 0.132137 0.886164
Si Si6 0.172993 0.667656 0.328489
O O1 0.402645 0.500000 0.030250
O O2 0.397503 0.249762 0.041505
O O3 0.500000 0.359810 0.000000
O O4 0.286690 0.366913 0.857598
O O5 0.885929 0.287318 0.482282
O O6 0.878943 0.263499 0.319808
O O7 0.773975 0.129585 0.345817
O O8 0.000000 0.127025 0.500000
O O9 0.810901 0.808336 0.649836
O O10 0.691642 0.873221 0.435977
O O11 0.694327 0.000000 0.570063
O O12 0.877355 0.500000 0.290065
O O13 0.882924 0.357853 0.172267
O O14 0.441399 0.134646 0.786699
O O15 0.600715 0.000000 0.939623
#
# Coordination Sequence:
#
# PCOD9181914 Si02
#       6
#     8   8   8   8   8   8
#     4  10  22  41  63  88 118 151 189 242 296 347
#     4  10  19  32  54  83 116 150 194 242 289 344
#     4   9  18  32  52  77 110 150 194 237 285 340
#     4  10  21  35  56  87 118 150 191 241 293 344
#     4  11  22  38  63  88 116 155 194 241 291 345
#     4   9  20  33  50  84 112 150 191 236 293 335
#
# _framework density 20.744675999999998
#
# number of rings (size 3 to 8) (size 9 to 14) (size 15 to 20)
#    1.000    1.167    0.000    3.500    0.000    3.667 
#    0.000    0.000    0.000    4.000    0.000    0.000 
#    0.000    0.000    0.000    0.000    0.000    0.000 
#
# Total GULP energy -133614.819076 kJ/mol
# GULP energy per Si atom -5567.284128 kJ/mol
# Density = 2.069746 g / cm^3
# Si number density = 20.744676 Si / 1000 Ang^3
#
#
#
# Elastic Constant Matrix: (Units=GPa)
#
#
# Indices 1 2 3 4 5 6 
#
# 1 64.6376 21.5522 10.1779 0.0000 11.4430 0.0000
# 2 21.5522 139.3038 29.3813 0.0000 -13.9010 0.0000
# 3 10.1779 29.3813 38.1044 0.0000 9.0938 0.0000
# 4 0.0000 0.0000 0.0000 -17.5902 0.0000 -6.7268
# 5 11.4430 -13.9010 9.0938 0.0000 35.5224 0.0000
# 6 0.0000 0.0000 0.0000 -6.7268 0.0000 -9.0024
#
#
#
# Elastic Compliance Matrix: (Units=1/GPa)
#
#
# Indices 1 2 3 4 5 6 
#
# 1 0.017901 -0.003347 -0.000545 0.000000 -0.006936 0.000000
# 2 -0.003347 0.010284 -0.008791 0.000000 0.007353 0.000000
# 3 -0.000545 -0.008791 0.036156 0.000000 -0.012520 0.000000
# 4 0.000000 0.000000 0.000000 -0.079594 0.000000 0.059474
# 5 -0.006936 0.007353 -0.012520 0.000000 0.036468 0.000000
# 6 0.000000 0.000000 0.000000 0.059474 0.000000 -0.155522
#
#
# Mechanical properties :
#
#
# Convention : Reuss Voigt Hill
#
# Bulk Modulus (GPa) = 25.65760 40.47429 33.06594
# Shear Modulus (GPa) = -52.11070 13.84825 -19.13122
#
# Velocity S-wave (km/s) = -5.01743 2.58652 -3.04011
# Velocity P-wave (km/s) = 4.60119 5.33602 1.91078
#
# Compressibility (1/GPa) = 0.03897481
#
# Stress axis : x y z
#
# Youngs Moduli (GPa) = 55.86407 97.23664 27.65810
#
# Poissons Ratio (x) = 0.32541 0.01509
# Poissons Ratio (y) = 0.18695 0.24314
# Poissons Ratio (z) = 0.03047 0.85479
#
# Static dielectric constant tensor:
#      x y z
#    x 1.757620 0.000000 0.009650 
#    y 0.000000 1.777400 0.000000 
#    z 0.009650 0.000000 1.724970 
# 
# From -- ./inp_files/276729.got.cif
#   From: 2010.05.17/outbox.cif.g08.bks.cpg/sg12_139_cif.got.tgz:276729.got - 2010.06.03 13:09:07.
