data_PCOD9181791
_publ_section_title
;
Structure prediction by ZEFSAII (Michael W. Deem and Ramdas Pophale) SiO2 
 PCOD9181791
Probable space group: C 2/M
;
_chemical_formula_sum "Si O2"
_cell_formula_units_Z 36
_cell_length_a 30.104595
_cell_length_b 9.946274
_cell_length_c 8.803306
_cell_angle_alpha 90.000000
_cell_angle_beta 133.962855
_cell_angle_gamma 90.000000
_cell_volume 1897.338475
_symmetry_space_group_name_H-M "C 2/M"
_symmetry_group_IT_number 12
_symmetry_cell_setting 'monoclinic'
loop_
_space_group_symop_operation_xyz
x,y,z
-x,y,-z
-x,-y,-z
x,-y,z
1/2+x,1/2+y,z
1/2-x,1/2+y,-z
1/2-x,1/2-y,-z
1/2+x,1/2-y,z
loop_
_atom_site_type_symbol
_atom_site_label
_atom_site_fract_x
_atom_site_fract_y
_atom_site_fract_z
Si Si1 0.215117 0.000000 0.098521
Si Si2 0.568454 0.777895 0.657633
Si Si3 0.141425 0.000000 0.353378
Si Si4 0.788403 0.500000 0.739388
Si Si5 0.399168 0.500000 0.401247
Si Si6 0.662159 0.000000 0.796773
Si Si7 0.349979 0.274829 0.861309
O O1 0.197876 0.869296 0.157509
O O2 0.284038 0.000000 0.199129
O O3 0.167126 0.000000 0.843419
O O4 0.500000 0.836006 0.500000
O O5 0.566908 0.633441 0.574133
O O6 0.617781 0.870947 0.688140
O O7 0.595665 0.758868 0.891311
O O8 0.110311 0.000000 0.442361
O O9 0.126905 0.132622 0.220596
O O10 0.215368 0.000000 0.550164
O O11 0.817296 0.635907 0.739301
O O12 0.806453 0.500000 0.961141
#
# Coordination Sequence:
#
# PCOD9181791 Si02
#       7
#     4   8   4   4   4   4   8
#     4   9  18  35  53  86 112 133 172 222 280 318
#     4  10  21  39  57  79 106 144 184 223 265 311
#     4  11  20  35  50  84 111 143 179 209 275 321
#     4  10  19  32  54  80 112 144 169 215 268 327
#     4  10  21  33  59  82 109 139 178 226 266 320
#     4  10  20  33  61  84 107 136 177 228 268 324
#     4   9  21  35  55  79 113 145 172 219 267 326
#
# _framework density 18.973946999999999
#
# number of rings (size 3 to 8) (size 9 to 14) (size 15 to 20)
#    0.000    2.222    1.111    2.000    3.111    2.667 
#    0.000    2.222    0.000    0.000    0.000    6.222 
#    0.000    0.000    0.000    0.000    0.000    0.000 
#
# Total GULP energy -100528.961965 kJ/mol
# GULP energy per Si atom -5584.942331 kJ/mol
# Density = 1.893076 g / cm^3
# Si number density = 18.973947 Si / 1000 Ang^3
#
#
#
# Elastic Constant Matrix: (Units=GPa)
#
#
# Indices 1 2 3 4 5 6 
#
# 1 73.5057 15.5790 36.2265 0.0000 5.1903 0.0000
# 2 15.5790 107.2836 17.2010 0.0000 -0.5063 0.0000
# 3 36.2265 17.2010 50.8936 0.0000 7.1440 0.0000
# 4 0.0000 0.0000 0.0000 -6.7620 0.0000 3.9767
# 5 5.1903 -0.5063 7.1440 0.0000 30.9363 0.0000
# 6 0.0000 0.0000 0.0000 3.9767 0.0000 -8.5656
#
#
#
# Elastic Compliance Matrix: (Units=1/GPa)
#
#
# Indices 1 2 3 4 5 6 
#
# 1 0.021005 -0.000694 -0.014697 0.000000 -0.000142 0.000000
# 2 -0.000694 0.009906 -0.002990 0.000000 0.000969 0.000000
# 3 -0.014697 -0.002990 0.031813 0.000000 -0.004930 0.000000
# 4 0.000000 0.000000 0.000000 -0.203427 0.000000 -0.094444
# 5 -0.000142 0.000969 -0.004930 0.000000 0.033502 0.000000
# 6 0.000000 0.000000 0.000000 -0.094444 0.000000 -0.160592
#
#
# Mechanical properties :
#
#
# Convention : Reuss Voigt Hill
#
# Bulk Modulus (GPa) = 38.51886 41.07733 39.79809
# Shear Modulus (GPa) = -22.48422 13.96681 -4.25870
#
# Velocity S-wave (km/s) = -3.44612 2.71607 -1.49979
# Velocity P-wave (km/s) = 2.12382 5.61537 4.24517
#
# Compressibility (1/GPa) = 0.02596131
#
# Stress axis : x y z
#
# Youngs Moduli (GPa) = 47.60832 100.95046 31.43413
#
# Poissons Ratio (x) = 0.07011 0.46198
# Poissons Ratio (y) = 0.03306 0.09398
# Poissons Ratio (z) = 0.69969 0.30181
#
# Static dielectric constant tensor:
#      x y z
#    x 1.611670 0.000000 -0.004130 
#    y 0.000000 1.673820 0.000000 
#    z -0.004130 0.000000 1.664870 
# 
# From -- ./inp_files/82914.got.cif
#   From: 2010.05.17/outbox.cif.g08.bks.cpg/sg12_42_cif.got.tgz:82914.got - 2010.06.03 13:09:07.
