data_PCOD9181552
_publ_section_title
;
Structure prediction by ZEFSAII (Michael W. Deem and Ramdas Pophale) SiO2 
 PCOD9181552
Probable space group: C 2/M
;
_chemical_formula_sum "Si O2"
_cell_formula_units_Z 48
_cell_length_a 9.710794
_cell_length_b 19.256018
_cell_length_c 18.026155
_cell_angle_alpha 90.000000
_cell_angle_beta 52.250277
_cell_angle_gamma 90.000000
_cell_volume 2665.213248
_symmetry_space_group_name_H-M "C 2/M"
_symmetry_group_IT_number 12
_symmetry_cell_setting 'monoclinic'
loop_
_space_group_symop_operation_xyz
x,y,z
-x,y,-z
-x,-y,-z
x,-y,z
1/2+x,1/2+y,z
1/2-x,1/2+y,-z
1/2-x,1/2-y,-z
1/2+x,1/2-y,z
loop_
_atom_site_type_symbol
_atom_site_label
_atom_site_fract_x
_atom_site_fract_y
_atom_site_fract_z
Si Si1 0.906132 0.195436 0.951996
Si Si2 0.296858 0.917189 0.070936
Si Si3 0.917416 0.288556 0.369578
Si Si4 0.611731 0.356352 0.535577
Si Si5 0.811281 0.206752 0.262083
Si Si6 0.496711 0.420183 0.277947
O O1 0.820278 0.124285 0.949612
O O2 0.051804 0.222428 0.846949
O O3 0.750000 0.250000 0.000000
O O4 0.000000 0.187970 0.000000
O O5 0.193861 0.904956 0.183249
O O6 0.294558 0.000000 0.058173
O O7 0.500000 0.894697 0.000000
O O8 0.813076 0.351060 0.443105
O O9 0.917147 0.221525 0.423638
O O10 0.825781 0.263141 0.323772
O O11 0.120308 0.301836 0.291764
O O12 0.500000 0.369034 0.500000
O O13 0.546150 0.406413 0.622063
O O14 0.873161 0.134147 0.277086
O O15 0.461444 0.500000 0.270814
#
# Coordination Sequence:
#
# PCOD9181552 Si02
#       6
#     8   8   8   8   8   8
#     4  11  22  35  54  86 117 145 183 235 285 328
#     4   9  19  39  62  81 108 150 190 224 275 343
#     4  10  19  33  53  78 108 137 187 218 273 328
#     4  10  19  32  53  80 106 141 179 231 266 317
#     4  10  20  36  55  78 109 150 175 226 273 326
#     4   9  20  36  56  79 109 146 183 218 271 327
#
# _framework density 18.009816000000001
#
# number of rings (size 3 to 8) (size 9 to 14) (size 15 to 20)
#    0.000    2.167    1.667    1.500    0.000    3.333 
#    3.000    1.667    0.000    0.000    0.000    0.000 
#    0.000    0.000    0.000    0.000    0.000    0.000 
#
# Total GULP energy -133708.375584 kJ/mol
# GULP energy per Si atom -5571.182316 kJ/mol
# Density = 1.796882 g / cm^3
# Si number density = 18.009816 Si / 1000 Ang^3
#
#
#
# Elastic Constant Matrix: (Units=GPa)
#
#
# Indices 1 2 3 4 5 6 
#
# 1 99.1952 11.5963 59.6118 0.0000 -8.3883 0.0000
# 2 11.5963 33.7906 30.5892 0.0000 -3.8077 0.0000
# 3 59.6118 30.5892 126.0131 0.0000 -12.1351 0.0000
# 4 0.0000 0.0000 0.0000 25.0472 0.0000 -9.3771
# 5 -8.3883 -3.8077 -12.1351 0.0000 41.2233 0.0000
# 6 0.0000 0.0000 0.0000 -9.3771 0.0000 6.0133
#
#
#
# Elastic Compliance Matrix: (Units=1/GPa)
#
#
# Indices 1 2 3 4 5 6 
#
# 1 0.014186 0.001578 -0.007000 0.000000 0.000972 0.000000
# 2 0.001578 0.038131 -0.009914 0.000000 0.000925 0.000000
# 3 -0.007000 -0.009914 0.013820 0.000000 0.001728 0.000000
# 4 0.000000 0.000000 0.000000 0.095926 0.000000 0.149585
# 5 0.000972 0.000925 0.001728 0.000000 0.025050 0.000000
# 6 0.000000 0.000000 0.000000 0.149585 0.000000 0.399558
#
#
# Mechanical properties :
#
#
# Convention : Reuss Voigt Hill
#
# Bulk Modulus (GPa) = 28.19641 51.39925 39.79783
# Shear Modulus (GPa) = 7.94706 24.93688 16.44197
#
# Velocity S-wave (km/s) = 2.10290 3.72509 3.02478
# Velocity P-wave (km/s) = 4.64612 6.86319 5.86045
#
# Compressibility (1/GPa) = 0.03546550
#
# Stress axis : x y z
#
# Youngs Moduli (GPa) = 70.49411 26.22533 72.35826
#
# Poissons Ratio (x) = -0.04139 0.50652
# Poissons Ratio (y) = -0.11126 0.71734
# Poissons Ratio (z) = 0.49347 0.25999
#
# Static dielectric constant tensor:
#      x y z
#    x 1.598690 0.000000 -0.010300 
#    y 0.000000 1.603970 0.000000 
#    z -0.010300 0.000000 1.680230 
# 
# From -- ./inp_files/247107.got.cif
#   From: 2010.05.17/outbox.cif.g08.bks.cpg/sg12_124_cif.got.tgz:247107.got - 2010.06.03 13:09:07.
