data_PCOD9181503
_publ_section_title
;
Structure prediction by ZEFSAII (Michael W. Deem and Ramdas Pophale) SiO2 
 PCOD9181503
Probable space group: C 2/M
;
_chemical_formula_sum "Si O2"
_cell_formula_units_Z 56
_cell_length_a 26.060281
_cell_length_b 7.346087
_cell_length_c 22.252104
_cell_angle_alpha 90.000000
_cell_angle_beta 144.590386
_cell_angle_gamma 90.000000
_cell_volume 2468.301346
_symmetry_space_group_name_H-M "C 2/M"
_symmetry_group_IT_number 12
_symmetry_cell_setting 'monoclinic'
loop_
_space_group_symop_operation_xyz
x,y,z
-x,y,-z
-x,-y,-z
x,-y,z
1/2+x,1/2+y,z
1/2-x,1/2+y,-z
1/2-x,1/2-y,-z
1/2+x,1/2-y,z
loop_
_atom_site_type_symbol
_atom_site_label
_atom_site_fract_x
_atom_site_fract_y
_atom_site_fract_z
Si Si1 0.661690 0.778041 0.502940
Si Si2 0.328594 0.782555 0.121833
Si Si3 0.477293 0.782286 0.729227
Si Si4 0.352926 0.715989 0.716699
Si Si5 0.600253 0.277595 0.105698
Si Si6 0.233692 0.277947 0.807468
Si Si7 0.902396 0.278450 0.425909
O O1 0.596235 0.713489 0.388290
O O2 0.763884 0.715759 0.598806
O O3 0.624345 0.724182 0.532579
O O4 0.661144 0.000000 0.499650
O O5 0.424098 0.713156 0.190570
O O6 0.300106 0.713885 0.160300
O O7 0.337861 0.000000 0.136509
O O8 0.250000 0.750000 0.000000
O O9 0.439244 0.745892 0.758896
O O10 0.480349 0.000000 0.725376
O O11 0.340473 0.500000 0.710569
O O12 0.364411 0.783987 0.795484
O O13 0.599941 0.500000 0.106204
O O14 0.667925 0.222178 0.118115
O O15 0.500000 0.218375 0.000000
O O16 0.232918 0.500000 0.807988
O O17 0.168053 0.221876 0.691376
O O18 0.902144 0.500000 0.425939
O O19 0.000000 0.219385 0.500000
#
# Coordination Sequence:
#
# PCOD9181503 Si02
#       7
#     8   8   8   8   8   8   8
#     4   9  16  29  47  73 106 134 166 209 254 302
#     4  10  22  37  54  76 102 136 173 209 254 305
#     4  10  21  35  50  73 108 141 168 205 255 306
#     4  10  19  32  53  79 103 134 175 212 250 299
#     4   9  17  28  46  74 101 124 160 214 260 289
#     4   9  16  29  47  71  99 125 160 207 255 297
#     4   9  14  22  42  70  99 128 159 202 255 303
#
# _framework density 22.687666
#
# number of rings (size 3 to 8) (size 9 to 14) (size 15 to 20)
#    0.000    2.571    1.429    1.286    2.000    4.000 
#    0.000    0.000    0.000    1.286    0.000    0.000 
#    0.000    4.000    0.000    0.000    0.000    0.000 
#
# Total GULP energy -156497.075606 kJ/mol
# GULP energy per Si atom -5589.181272 kJ/mol
# Density = 2.263603 g / cm^3
# Si number density = 22.687666 Si / 1000 Ang^3
#
#
#
# Elastic Constant Matrix: (Units=GPa)
#
#
# Indices 1 2 3 4 5 6 
#
# 1 155.8262 -7.3325 34.9391 0.0000 22.7081 0.0000
# 2 -7.3325 85.1763 -2.4022 0.0000 1.7822 0.0000
# 3 34.9391 -2.4022 82.8646 0.0000 25.1717 0.0000
# 4 0.0000 0.0000 0.0000 -2.4025 0.0000 0.0381
# 5 22.7081 1.7822 25.1717 0.0000 45.7315 0.0000
# 6 0.0000 0.0000 0.0000 0.0381 0.0000 3.8388
#
#
#
# Elastic Compliance Matrix: (Units=1/GPa)
#
#
# Indices 1 2 3 4 5 6 
#
# 1 0.007318 0.000613 -0.002349 0.000000 -0.002364 0.000000
# 2 0.000613 0.011824 0.000380 0.000000 -0.000975 0.000000
# 3 -0.002349 0.000380 0.015273 0.000000 -0.007255 0.000000
# 4 0.000000 0.000000 0.000000 -0.416161 0.000000 0.004132
# 5 -0.002364 -0.000975 -0.007255 0.000000 0.027072 0.000000
# 6 0.000000 0.000000 0.000000 0.004132 0.000000 0.260455
#
#
# Mechanical properties :
#
#
# Convention : Reuss Voigt Hill
#
# Bulk Modulus (GPa) = 31.54249 41.58619 36.56434
# Shear Modulus (GPa) = -61.77482 29.34441 -16.21520
#
# Velocity S-wave (km/s) = -5.22374 3.60030 -2.67631
# Velocity P-wave (km/s) = 4.73816 5.97097 2.56927
#
# Compressibility (1/GPa) = 0.03170327
#
# Stress axis : x y z
#
# Youngs Moduli (GPa) = 136.65716 84.57188 65.47343
#
# Poissons Ratio (x) = -0.05186 0.15383
# Poissons Ratio (y) = -0.08379 -0.02490
# Poissons Ratio (z) = 0.32107 -0.03216
#
# Static dielectric constant tensor:
#      x y z
#    x 1.833040 0.000000 0.033050 
#    y 0.000000 1.916780 0.000000 
#    z 0.033050 0.000000 1.803260 
# 
# From -- ./inp_files/321047.got.cif
#   From: 2010.05.17/outbox.cif.g08.bks.cpg/sg12_161_cif.got.tgz:321047.got - 2010.06.03 13:09:07.
