data_PCOD9181712
_publ_section_title
;
Structure prediction by ZEFSAII (Michael W. Deem and Ramdas Pophale) SiO2 
 PCOD9181712
Probable space group: C 2/M
;
_chemical_formula_sum "Si O2"
_cell_formula_units_Z 48
_cell_length_a 23.896269
_cell_length_b 11.072151
_cell_length_c 11.724016
_cell_angle_alpha 90.000000
_cell_angle_beta 42.963453
_cell_angle_gamma 90.000000
_cell_volume 2114.095355
_symmetry_space_group_name_H-M "C 2/M"
_symmetry_group_IT_number 12
_symmetry_cell_setting 'monoclinic'
loop_
_space_group_symop_operation_xyz
x,y,z
-x,y,-z
-x,-y,-z
x,-y,z
1/2+x,1/2+y,z
1/2-x,1/2+y,-z
1/2-x,1/2-y,-z
1/2+x,1/2-y,z
loop_
_atom_site_type_symbol
_atom_site_label
_atom_site_fract_x
_atom_site_fract_y
_atom_site_fract_z
Si Si1 0.346709 0.136031 0.860671
Si Si2 0.373688 0.640410 0.189116
Si Si3 0.928588 0.634217 0.965995
Si Si4 0.051458 0.875526 0.308951
Si Si5 0.294086 0.863307 0.700889
Si Si6 0.577481 0.736172 0.645483
O O1 0.400716 0.252043 0.754751
O O2 0.278894 0.149650 0.860825
O O3 0.380714 0.000000 0.788729
O O4 0.351326 0.138857 0.991860
O O5 0.402051 0.500000 0.137423
O O6 0.422551 0.747756 0.053189
O O7 0.286477 0.645593 0.255632
O O8 0.373438 0.682426 0.320802
O O9 0.925926 0.500000 0.022693
O O10 0.016338 0.653742 0.772055
O O11 0.000000 0.882673 0.500000
O O12 0.987106 0.862306 0.302868
O O13 0.101155 0.000000 0.221415
O O14 0.361974 0.775035 0.546354
O O15 0.325390 0.000000 0.638333
#
# Coordination Sequence:
#
# PCOD9181712 Si02
#       6
#     8   8   8   8   8   8
#     4   9  19  37  61  87 116 154 202 248 295 350
#     4  11  25  42  60  86 125 166 200 239 297 363
#     4  10  23  40  63  91 119 156 204 252 295 348
#     4  10  19  32  53  86 121 148 186 242 301 350
#     4  10  21  39  63  91 121 157 199 247 301 356
#     4  11  21  38  64  90 118 156 200 251 297 353
#
# _framework density 22.704747000000001
#
# number of rings (size 3 to 8) (size 9 to 14) (size 15 to 20)
#    0.000    1.833    1.667    2.000    0.000    7.667 
#    0.000    2.500    0.000    0.000    0.000    0.000 
#    0.000    0.000    0.000    0.000    0.000    0.000 
#
# Total GULP energy -133619.245126 kJ/mol
# GULP energy per Si atom -5567.468547 kJ/mol
# Density = 2.265307 g / cm^3
# Si number density = 22.704747 Si / 1000 Ang^3
#
#
#
# Elastic Constant Matrix: (Units=GPa)
#
#
# Indices 1 2 3 4 5 6 
#
# 1 160.5724 31.0111 7.1840 0.0000 27.3866 0.0000
# 2 31.0111 173.0636 22.7115 0.0000 5.5992 0.0000
# 3 7.1840 22.7115 35.7006 0.0000 12.8576 0.0000
# 4 0.0000 0.0000 0.0000 28.1734 0.0000 17.4685
# 5 27.3866 5.5992 12.8576 0.0000 30.8470 0.0000
# 6 0.0000 0.0000 0.0000 17.4685 0.0000 -22.1060
#
#
#
# Elastic Compliance Matrix: (Units=1/GPa)
#
#
# Indices 1 2 3 4 5 6 
#
# 1 0.007669 -0.001399 0.002009 0.000000 -0.007392 0.000000
# 2 -0.001399 0.006570 -0.004607 0.000000 0.001970 0.000000
# 3 0.002009 -0.004607 0.036333 0.000000 -0.016091 0.000000
# 4 0.000000 0.000000 0.000000 0.023822 0.000000 0.018825
# 5 -0.007392 0.001970 -0.016091 0.000000 0.045330 0.000000
# 6 0.000000 0.000000 0.000000 0.018825 0.000000 -0.030361
#
#
# Mechanical properties :
#
#
# Convention : Reuss Voigt Hill
#
# Bulk Modulus (GPa) = 23.48692 54.57219 39.02955
# Shear Modulus (GPa) = 44.82296 27.94488 36.38392
#
# Velocity S-wave (km/s) = 4.44798 3.51207 4.00744
# Velocity P-wave (km/s) = 6.06187 6.36663 6.21612
#
# Compressibility (1/GPa) = 0.04257690
#
# Stress axis : x y z
#
# Youngs Moduli (GPa) = 130.40054 152.21269 27.52324
#
# Poissons Ratio (x) = 0.21289 -0.05529
# Poissons Ratio (y) = 0.18238 0.12681
# Poissons Ratio (z) = -0.26195 0.70130
#
# Static dielectric constant tensor:
#      x y z
#    x 1.903820 0.000000 0.015660 
#    y 0.000000 1.892920 0.000000 
#    z 0.015660 0.000000 1.889170 
# 
# From -- ./inp_files/165473.got.cif
#   From: 2010.05.17/outbox.cif.g08.bks.cpg/sg12_83_cif.got.tgz:165473.got - 2010.06.03 13:09:07.
