data_PCOD9181373
_publ_section_title
;
Structure prediction by ZEFSAII (Michael W. Deem and Ramdas Pophale) SiO2 
 PCOD9181373
Probable space group: C 2/M
;
_chemical_formula_sum "Si O2"
_cell_formula_units_Z 64
_cell_length_a 30.893657
_cell_length_b 8.693814
_cell_length_c 15.448496
_cell_angle_alpha 90.000000
_cell_angle_beta 79.045935
_cell_angle_gamma 90.000000
_cell_volume 4073.614997
_symmetry_space_group_name_H-M "C 2/M"
_symmetry_group_IT_number 12
_symmetry_cell_setting 'monoclinic'
loop_
_space_group_symop_operation_xyz
x,y,z
-x,y,-z
-x,-y,-z
x,-y,z
1/2+x,1/2+y,z
1/2-x,1/2+y,-z
1/2-x,1/2-y,-z
1/2+x,1/2-y,z
loop_
_atom_site_type_symbol
_atom_site_label
_atom_site_fract_x
_atom_site_fract_y
_atom_site_fract_z
Si Si1 0.538827 0.184153 0.788427
Si Si2 0.032848 0.183240 0.605617
Si Si3 0.304380 0.184780 0.064409
Si Si4 0.597205 0.814178 0.931161
Si Si5 0.560741 0.815652 0.419611
Si Si6 0.712601 0.815179 0.128371
Si Si7 0.944140 0.816637 0.878989
Si Si8 0.121887 0.314260 0.239970
O O1 0.549092 0.259435 0.692207
O O2 0.573767 0.223621 0.849875
O O3 0.490924 0.242403 0.836885
O O4 0.537430 0.000000 0.779243
O O5 0.061867 0.241619 0.513993
O O6 0.984291 0.255162 0.607548
O O7 0.029210 0.000000 0.604928
O O8 0.351571 0.233344 0.083615
O O9 0.260861 0.248453 0.127082
O O10 0.302755 0.000000 0.067258
O O11 0.300999 0.232154 0.964490
O O12 0.595334 0.000000 0.943123
O O13 0.571497 0.738930 0.020879
O O14 0.600858 0.776139 0.340665
O O15 0.557836 0.000000 0.428593
O O16 0.672575 0.768514 0.205861
O O17 0.715556 0.000000 0.128171
O O18 0.908238 0.760113 0.822795
O O19 0.947853 0.000000 0.874804
O O20 0.119145 0.500000 0.230317
#
# Coordination Sequence:
#
# PCOD9181373 Si02
#       8
#     8   8   8   8   8   8   8   8
#     4  11  22  36  53  69  93 134 177 206 239 291
#     4  11  21  33  49  72 102 128 158 208 255 289
#     4   9  17  31  49  70  96 126 163 203 243 288
#     4  10  21  37  53  68  94 135 175 207 239 287
#     4  10  19  32  53  73  95 131 169 200 240 297
#     4   9  17  30  49  71  98 127 159 200 245 290
#     4  12  23  32  47  72 103 132 166 207 246 286
#     4  10  19  33  52  72  99 134 168 199 237 293
#
# _framework density 15.71086
#
# number of rings (size 3 to 8) (size 9 to 14) (size 15 to 20)
#    0.000    1.750    2.500    4.125    0.000    4.000 
#    0.000    0.000    0.000    0.000    0.000    0.875 
#    0.000    0.000    0.000    0.000    0.000    0.000 
#
# Total GULP energy -178620.697258 kJ/mol
# GULP energy per Si atom -5581.896789 kJ/mol
# Density = 1.567510 g / cm^3
# Si number density = 15.710860 Si / 1000 Ang^3
#
#
#
# Elastic Constant Matrix: (Units=GPa)
#
#
# Indices 1 2 3 4 5 6 
#
# 1 70.8061 27.7878 62.3724 0.0000 -8.6000 0.0000
# 2 27.7878 35.9829 38.7376 0.0000 -2.5279 0.0000
# 3 62.3724 38.7376 126.4211 0.0000 -9.8259 0.0000
# 4 0.0000 0.0000 0.0000 8.5979 0.0000 -8.6090
# 5 -8.6000 -2.5279 -9.8259 0.0000 23.2896 0.0000
# 6 0.0000 0.0000 0.0000 -8.6090 0.0000 15.4870
#
#
#
# Elastic Compliance Matrix: (Units=1/GPa)
#
#
# Indices 1 2 3 4 5 6 
#
# 1 0.027603 -0.010028 -0.010172 0.000000 0.004813 0.000000
# 2 -0.010028 0.045132 -0.009087 0.000000 -0.002638 0.000000
# 3 -0.010172 -0.009087 0.015865 0.000000 0.001951 0.000000
# 4 0.000000 0.000000 0.000000 0.262313 0.000000 0.145817
# 5 0.004813 -0.002638 0.001951 0.000000 0.045252 0.000000
# 6 0.000000 0.000000 0.000000 0.145817 0.000000 0.145628
#
#
# Mechanical properties :
#
#
# Convention : Reuss Voigt Hill
#
# Bulk Modulus (GPa) = 33.30352 54.55618 43.92985
# Shear Modulus (GPa) = 8.19168 16.42905 12.31037
#
# Velocity S-wave (km/s) = 2.28590 3.23726 2.80225
# Velocity P-wave (km/s) = 5.31139 6.98381 6.20421
#
# Compressibility (1/GPa) = 0.03002685
#
# Stress axis : x y z
#
# Youngs Moduli (GPa) = 36.22735 22.15708 63.03362
#
# Poissons Ratio (x) = 0.22219 0.64117
# Poissons Ratio (y) = 0.36329 0.57278
# Poissons Ratio (z) = 0.36850 0.20134
#
# Static dielectric constant tensor:
#      x y z
#    x 1.510910 0.000000 -0.011160 
#    y 0.000000 1.530140 0.000000 
#    z -0.011160 0.000000 1.521070 
# 
# From -- ./inp_files/248254.got.cif
#   From: 2010.05.17/outbox.cif.g08.bks.cpg/sg12_125_cif.got.tgz:248254.got - 2010.06.03 13:09:07.
