data_PCOD9181167
_publ_section_title
;
Structure prediction by ZEFSAII (Michael W. Deem and Ramdas Pophale) SiO2 
 PCOD9181167
Probable space group: C 2/M
;
_chemical_formula_sum "Si O2"
_cell_formula_units_Z 56
_cell_length_a 20.910419
_cell_length_b 8.099513
_cell_length_c 18.572740
_cell_angle_alpha 90.000000
_cell_angle_beta 50.237355
_cell_angle_gamma 90.000000
_cell_volume 2417.992184
_symmetry_space_group_name_H-M "C 2/M"
_symmetry_group_IT_number 12
_symmetry_cell_setting 'monoclinic'
loop_
_space_group_symop_operation_xyz
x,y,z
-x,y,-z
-x,-y,-z
x,-y,z
1/2+x,1/2+y,z
1/2-x,1/2+y,-z
1/2-x,1/2-y,-z
1/2+x,1/2-y,z
loop_
_atom_site_type_symbol
_atom_site_label
_atom_site_fract_x
_atom_site_fract_y
_atom_site_fract_z
Si Si1 0.864048 0.188066 0.898404
Si Si2 0.017134 0.798546 0.069513
Si Si3 0.287035 0.304974 0.811260
Si Si4 0.331985 0.301747 0.221607
Si Si5 0.515540 0.814286 0.707974
Si Si6 0.945861 0.310635 0.604195
Si Si7 0.698704 0.302748 0.605754
O O1 0.801921 0.264727 0.882376
O O2 0.901625 0.263612 0.945439
O O3 0.949751 0.190235 0.790202
O O4 0.837412 0.000000 0.932289
O O5 0.927591 0.751878 0.167480
O O6 0.023915 0.000000 0.065817
O O7 0.000000 0.748073 0.000000
O O8 0.289316 0.500000 0.818779
O O9 0.204456 0.256636 0.827807
O O10 0.361609 0.257993 0.701816
O O11 0.331745 0.500000 0.217778
O O12 0.277218 0.248982 0.330279
O O13 0.506621 0.811287 0.628707
O O14 0.608146 0.769493 0.658882
O O15 0.492534 0.000000 0.748439
O O16 0.925396 0.500000 0.597295
O O17 0.000000 0.234378 0.500000
O O18 0.695668 0.500000 0.609044
O O19 0.750000 0.250000 0.500000
#
# Coordination Sequence:
#
# PCOD9181167 Si02
#       7
#     8   8   8   8   8   8   8
#     4   9  17  35  57  80 110 143 181 225 273 323
#     4   9  17  34  63  90 107 138 189 232 273 336
#     4  10  21  34  53  79 110 147 182 227 280 327
#     4  10  21  38  58  80 112 148 184 232 280 331
#     4  10  19  32  52  77 104 142 184 225 274 325
#     4   9  19  34  51  72 103 142 185 229 272 324
#     4  11  23  37  53  76 109 148 188 231 279 326
#
# _framework density 23.15971
#
# number of rings (size 3 to 8) (size 9 to 14) (size 15 to 20)
#    0.000    2.286    1.429    1.286    2.000    2.571 
#    0.000    0.714    0.000    1.714    0.000    0.000 
#    0.000    0.000    0.000    0.000    0.000    0.000 
#
# Total GULP energy -156046.443204 kJ/mol
# GULP energy per Si atom -5573.087257 kJ/mol
# Density = 2.310700 g / cm^3
# Si number density = 23.159710 Si / 1000 Ang^3
#
#
#
# Elastic Constant Matrix: (Units=GPa)
#
#
# Indices 1 2 3 4 5 6 
#
# 1 148.7279 7.8048 28.0589 -0.0003 25.5803 0.0004
# 2 7.8048 39.8004 18.4188 -0.0005 5.8892 0.0010
# 3 28.0589 18.4188 74.1078 -0.0001 22.4559 0.0002
# 4 -0.0003 -0.0005 -0.0001 17.5330 0.0000 3.8860
# 5 25.5803 5.8892 22.4559 0.0000 25.8275 0.0000
# 6 0.0004 0.0010 0.0002 3.8860 0.0000 22.5593
#
#
#
# Elastic Compliance Matrix: (Units=1/GPa)
#
#
# Indices 1 2 3 4 5 6 
#
# 1 0.008146 -0.000128 -0.000837 0.000000 -0.007311 0.000000
# 2 -0.000128 0.028397 -0.006905 0.000001 -0.000345 -0.000001
# 3 -0.000837 -0.006905 0.020092 0.000000 -0.015066 0.000000
# 4 0.000000 0.000001 0.000000 0.059299 0.000000 -0.010215
# 5 -0.007311 -0.000345 -0.015066 0.000000 0.059137 0.000000
# 6 0.000000 -0.000001 0.000000 -0.010215 0.000000 0.046087
#
#
# Mechanical properties :
#
#
# Convention : Reuss Voigt Hill
#
# Bulk Modulus (GPa) = 24.45312 41.24458 32.84885
# Shear Modulus (GPa) = 19.95771 27.07421 23.51596
#
# Velocity S-wave (km/s) = 2.93873 3.42281 3.18996
# Velocity P-wave (km/s) = 4.70066 5.78517 5.27089
#
# Compressibility (1/GPa) = 0.04089458
#
# Stress axis : x y z
#
# Youngs Moduli (GPa) = 122.76367 35.21509 49.77082
#
# Poissons Ratio (x) = 0.00452 0.04166
# Poissons Ratio (y) = 0.01575 0.34366
# Poissons Ratio (z) = 0.10275 0.24315
#
# Static dielectric constant tensor:
#      x y z
#    x 1.911230 0.000000 0.039020 
#    y 0.000000 1.868400 0.000000 
#    z 0.039020 0.000000 1.936530 
# 
# From -- ./inp_files/281003.got.cif
#   From: 2010.05.17/outbox.cif.g08.bks.cpg/sg12_141_cif.got.tgz:281003.got - 2010.06.03 13:09:07.
