data_PCOD9181254
_publ_section_title
;
Structure prediction by ZEFSAII (Michael W. Deem and Ramdas Pophale) SiO2 
 PCOD9181254
Probable space group: C 2/M
;
_chemical_formula_sum "Si O2"
_cell_formula_units_Z 64
_cell_length_a 22.692751
_cell_length_b 14.616815
_cell_length_c 12.105585
_cell_angle_alpha 90.000000
_cell_angle_beta 69.386874
_cell_angle_gamma 90.000000
_cell_volume 3758.302573
_symmetry_space_group_name_H-M "C 2/M"
_symmetry_group_IT_number 12
_symmetry_cell_setting 'monoclinic'
loop_
_space_group_symop_operation_xyz
x,y,z
-x,y,-z
-x,-y,-z
x,-y,z
1/2+x,1/2+y,z
1/2-x,1/2+y,-z
1/2-x,1/2-y,-z
1/2+x,1/2-y,z
loop_
_atom_site_type_symbol
_atom_site_label
_atom_site_fract_x
_atom_site_fract_y
_atom_site_fract_z
Si Si1 0.242019 0.107755 0.287636
Si Si2 0.686154 0.398943 0.847348
Si Si3 0.819847 0.231862 0.500102
Si Si4 0.634430 0.234152 0.758883
Si Si5 0.485549 0.894070 0.139310
Si Si6 0.674897 0.107444 0.344053
Si Si7 0.383942 0.108027 0.847222
Si Si8 0.248657 0.644108 0.970825
O O1 0.189820 0.152908 0.402408
O O2 0.306341 0.164826 0.265929
O O3 0.227825 0.122295 0.167024
O O4 0.249964 0.000000 0.304366
O O5 0.660402 0.500000 0.838714
O O6 0.642475 0.313530 0.845296
O O7 0.750637 0.385607 0.733681
O O8 0.710533 0.399160 0.957537
O O9 0.750000 0.250000 0.500000
O O10 0.860596 0.216941 0.363996
O O11 0.840743 0.325020 0.546759
O O12 0.572566 0.172985 0.804994
O O13 0.549239 0.857310 0.155175
O O14 0.472247 0.000000 0.183334
O O15 0.500000 0.897965 0.000000
O O16 0.639471 0.140801 0.256783
O O17 0.661619 0.000000 0.373399
O O18 0.392754 0.000000 0.828715
O O19 0.325004 0.117911 0.968944
O O20 0.250000 0.750000 0.000000
#
# Coordination Sequence:
#
# PCOD9181254 Si02
#       8
#     8   8   8   8   8   8   8   8
#     4  11  20  31  49  78 113 145 177 223 277 332
#     4  10  19  32  52  79 108 141 178 219 273 327
#     4  10  20  33  46  75 110 143 184 221 269 324
#     4  11  21  36  51  77 110 149 184 224 266 329
#     4  10  21  36  55  81 112 145 182 224 275 331
#     4   9  16  31  52  74 107 142 176 221 271 323
#     4   9  18  32  51  78 108 144 182 215 269 332
#     4  11  18  31  54  83 116 141 172 221 279 334
#
# _framework density 17.028963999999998
#
# number of rings (size 3 to 8) (size 9 to 14) (size 15 to 20)
#    0.000    1.875    3.750    3.750    0.000    4.000 
#    0.000    0.625    0.000    2.625    0.000    0.875 
#    0.000    3.250    0.000    0.000    0.000    0.000 
#
# Total GULP energy -178330.746045 kJ/mol
# GULP energy per Si atom -5572.835814 kJ/mol
# Density = 1.699021 g / cm^3
# Si number density = 17.028964 Si / 1000 Ang^3
#
#
#
# Elastic Constant Matrix: (Units=GPa)
#
#
# Indices 1 2 3 4 5 6 
#
# 1 71.8633 34.1016 26.4515 0.0000 0.3944 0.0000
# 2 34.1016 100.0251 29.7368 0.0000 5.9259 0.0000
# 3 26.4515 29.7368 79.5346 0.0000 7.4073 0.0000
# 4 0.0000 0.0000 0.0000 17.6150 0.0000 -1.2712
# 5 0.3944 5.9259 7.4073 0.0000 15.0781 0.0000
# 6 0.0000 0.0000 0.0000 -1.2712 0.0000 24.9848
#
#
#
# Elastic Compliance Matrix: (Units=1/GPa)
#
#
# Indices 1 2 3 4 5 6 
#
# 1 0.017898 -0.005004 -0.004423 0.000000 0.003672 0.000000
# 2 -0.005004 0.012735 -0.002770 0.000000 -0.003514 0.000000
# 3 -0.004423 -0.002770 0.015685 0.000000 -0.006501 0.000000
# 4 0.000000 0.000000 0.000000 0.056979 0.000000 0.002899
# 5 0.003672 -0.003514 -0.006501 0.000000 0.070800 0.000000
# 6 0.000000 0.000000 0.000000 0.002899 0.000000 0.040172
#
#
# Mechanical properties :
#
#
# Convention : Reuss Voigt Hill
#
# Bulk Modulus (GPa) = 45.61377 48.00029 46.80703
# Shear Modulus (GPa) = 20.32743 22.27779 21.30261
#
# Velocity S-wave (km/s) = 3.45874 3.62087 3.54073
# Velocity P-wave (km/s) = 6.54176 6.76236 6.65298
#
# Compressibility (1/GPa) = 0.02192321
#
# Stress axis : x y z
#
# Youngs Moduli (GPa) = 55.87175 78.52187 63.75364
#
# Poissons Ratio (x) = 0.39296 0.28201
# Poissons Ratio (y) = 0.27961 0.17659
# Poissons Ratio (z) = 0.24714 0.21750
#
# Static dielectric constant tensor:
#      x y z
#    x 1.585100 0.000000 0.029590 
#    y 0.000000 1.606280 0.000000 
#    z 0.029590 0.000000 1.633270 
# 
# From -- ./inp_files/167241.got.cif
#   From: 2010.05.17/outbox.cif.g08.bks.cpg/sg12_84_cif.got.tgz:167241.got - 2010.06.03 13:09:07.
