data_PCOD9181025
_publ_section_title
;
Structure prediction by ZEFSAII (Michael W. Deem and Ramdas Pophale) SiO2 
 PCOD9181025
Probable space group: C 2/M
;
_chemical_formula_sum "Si O2"
_cell_formula_units_Z 56
_cell_length_a 21.148601
_cell_length_b 7.573827
_cell_length_c 17.555376
_cell_angle_alpha 90.000000
_cell_angle_beta 91.529598
_cell_angle_gamma 90.000000
_cell_volume 2810.945206
_symmetry_space_group_name_H-M "C 2/M"
_symmetry_group_IT_number 12
_symmetry_cell_setting 'monoclinic'
loop_
_space_group_symop_operation_xyz
x,y,z
-x,y,-z
-x,-y,-z
x,-y,z
1/2+x,1/2+y,z
1/2-x,1/2+y,-z
1/2-x,1/2-y,-z
1/2+x,1/2-y,z
loop_
_atom_site_type_symbol
_atom_site_label
_atom_site_fract_x
_atom_site_fract_y
_atom_site_fract_z
Si Si1 0.007679 0.292051 0.414844
Si Si2 0.678293 0.207746 0.167595
Si Si3 0.746537 0.289010 0.588807
Si Si4 0.175812 0.783480 0.834245
Si Si5 0.373607 0.216581 0.678000
Si Si6 0.877810 0.786000 0.327159
Si Si7 0.324992 0.708865 0.000256
O O1 0.021513 0.500000 0.425288
O O2 0.065569 0.219233 0.366580
O O3 0.000000 0.216764 0.500000
O O4 0.942806 0.273886 0.366554
O O5 0.750861 0.276987 0.173006
O O6 0.634840 0.275628 0.234691
O O7 0.652238 0.226942 0.081193
O O8 0.685479 0.000000 0.181799
O O9 0.745837 0.500000 0.598702
O O10 0.750000 0.250000 0.500000
O O11 0.809598 0.226858 0.633144
O O12 0.682080 0.222980 0.625003
O O13 0.135040 0.729645 0.760225
O O14 0.177054 0.000000 0.835249
O O15 0.151498 0.724712 0.916734
O O16 0.376355 0.000000 0.677815
O O17 0.878220 0.000000 0.328048
O O18 0.333414 0.500000 0.999728
O O19 0.250000 0.750000 0.000000
#
# Coordination Sequence:
#
# PCOD9181025 Si02
#       7
#     8   8   8   8   8   8   8
#     4  10  21  36  52  72  99 132 169 207 249 299
#     4   9  15  28  49  71  96 128 166 202 242 292
#     4  10  19  32  52  74  96 125 163 206 252 297
#     4   8  14  27  47  70  96 126 159 194 239 293
#     4   9  17  32  53  71  95 134 170 199 245 307
#     4  10  19  33  53  74  97 128 166 204 244 296
#     4   9  16  26  44  71 102 131 159 196 243 293
#
# _framework density 19.922125000000001
#
# number of rings (size 3 to 8) (size 9 to 14) (size 15 to 20)
#    0.000    2.714    1.429    2.143    0.000    2.000 
#    0.000    5.714    0.000    0.857    0.000    6.000 
#    0.000    0.000    0.000    0.000    0.000    0.000 
#
# Total GULP energy -156102.329750 kJ/mol
# GULP energy per Si atom -5575.083205 kJ/mol
# Density = 1.987678 g / cm^3
# Si number density = 19.922125 Si / 1000 Ang^3
#
#
#
# Elastic Constant Matrix: (Units=GPa)
#
#
# Indices 1 2 3 4 5 6 
#
# 1 108.6237 1.0595 70.4883 0.0000 -23.4299 0.0000
# 2 1.0595 38.3001 -2.9784 0.0000 -6.3115 0.0000
# 3 70.4883 -2.9784 201.5748 0.0000 -31.1913 0.0000
# 4 0.0000 0.0000 0.0000 20.3243 0.0000 3.5851
# 5 -23.4299 -6.3115 -31.1913 0.0000 25.5933 0.0000
# 6 0.0000 0.0000 0.0000 3.5851 0.0000 12.2630
#
#
#
# Elastic Compliance Matrix: (Units=1/GPa)
#
#
# Indices 1 2 3 4 5 6 
#
# 1 0.013104 0.000721 -0.003312 0.000000 0.008137 0.000000
# 2 0.000721 0.027781 0.001628 0.000000 0.009494 0.000000
# 3 -0.003312 0.001628 0.007069 0.000000 0.005985 0.000000
# 4 0.000000 0.000000 0.000000 0.051877 0.000000 -0.015166
# 5 0.008137 0.009494 0.005985 0.000000 0.056157 0.000000
# 6 0.000000 0.000000 0.000000 -0.015166 0.000000 0.085980
#
#
# Mechanical properties :
#
#
# Convention : Reuss Voigt Hill
#
# Bulk Modulus (GPa) = 21.72702 53.95970 37.84336
# Shear Modulus (GPa) = 19.28728 30.29807 24.79267
#
# Velocity S-wave (km/s) = 3.11486 3.90401 3.53155
# Velocity P-wave (km/s) = 4.88530 6.88954 5.97210
#
# Compressibility (1/GPa) = 0.04602565
#
# Stress axis : x y z
#
# Youngs Moduli (GPa) = 76.31436 35.99606 141.45558
#
# Poissons Ratio (x) = -0.02595 0.46857
# Poissons Ratio (y) = -0.05501 -0.23023
# Poissons Ratio (z) = 0.25279 -0.05859
#
# Static dielectric constant tensor:
#      x y z
#    x 1.665190 0.000000 -0.028950 
#    y 0.000000 1.736730 0.000000 
#    z -0.028950 0.000000 1.742150 
# 
# From -- ./inp_files/280408.got.cif
#   From: 2010.05.17/outbox.cif.g08.bks.cpg/sg12_141_cif.got.tgz:280408.got - 2010.06.03 13:09:07.
