data_PCOD9181913
_publ_section_title
;
Structure prediction by ZEFSAII (Michael W. Deem and Ramdas Pophale) SiO2 
 PCOD9181913
Probable space group: C 2/M
;
_chemical_formula_sum "Si O2"
_cell_formula_units_Z 56
_cell_length_a 19.486048
_cell_length_b 8.803946
_cell_length_c 27.603573
_cell_angle_alpha 90.000000
_cell_angle_beta 143.350399
_cell_angle_gamma 90.000000
_cell_volume 2826.716899
_symmetry_space_group_name_H-M "C 2/M"
_symmetry_group_IT_number 12
_symmetry_cell_setting 'monoclinic'
loop_
_space_group_symop_operation_xyz
x,y,z
-x,y,-z
-x,-y,-z
x,-y,z
1/2+x,1/2+y,z
1/2-x,1/2+y,-z
1/2-x,1/2-y,-z
1/2+x,1/2-y,z
loop_
_atom_site_type_symbol
_atom_site_label
_atom_site_fract_x
_atom_site_fract_y
_atom_site_fract_z
Si Si1 0.385171 0.822250 0.133108
Si Si2 0.472050 0.320468 0.362335
Si Si3 0.676448 0.820511 0.071834
Si Si4 0.065234 0.179560 0.304854
Si Si5 0.520526 0.678962 0.908842
Si Si6 0.733172 0.679646 0.207930
Si Si7 0.698163 0.818660 0.520082
O O1 0.281781 0.723954 0.096382
O O2 0.495525 0.781779 0.228379
O O3 0.414714 0.772274 0.095696
O O4 0.356860 0.000000 0.119944
O O5 0.464315 0.500000 0.365496
O O6 0.513239 0.297122 0.329542
O O7 0.348341 0.243599 0.297127
O O8 0.571770 0.251145 0.452573
O O9 0.712350 0.761836 0.144907
O O10 0.657483 0.000000 0.062060
O O11 0.567182 0.735956 0.986909
O O12 0.201525 0.212913 0.384265
O O13 0.049732 0.000000 0.284473
O O14 0.544017 0.500000 0.916787
O O15 0.383770 0.702730 0.828300
O O16 0.746374 0.500000 0.206605
O O17 0.750000 0.750000 0.500000
O O18 0.689978 0.000000 0.510595
#
# Coordination Sequence:
#
# PCOD9181913 Si02
#       7
#     8   8   8   8   8   8   8
#     4  12  24  38  60  86 115 152 193 236 284 340
#     4  10  19  32  54  83 116 150 186 231 282 337
#     4  12  24  40  62  86 115 148 189 239 287 338
#     4   9  18  33  53  81 114 150 187 230 283 333
#     4  11  25  43  60  82 115 151 191 238 288 342
#     4  11  23  39  61  86 114 151 192 235 285 341
#     4   9  17  29  49  78 114 148 185 232 282 335
#
# _framework density 19.810969
#
# number of rings (size 3 to 8) (size 9 to 14) (size 15 to 20)
#    0.000    1.429    1.429    6.000    0.000    6.857 
#    0.000    0.000    0.000    0.857    0.000    6.000 
#    0.000    0.000    0.000    0.000    0.000    0.000 
#
# Total GULP energy -156501.894684 kJ/mol
# GULP energy per Si atom -5589.353382 kJ/mol
# Density = 1.976588 g / cm^3
# Si number density = 19.810969 Si / 1000 Ang^3
#
#
#
# Elastic Constant Matrix: (Units=GPa)
#
#
# Indices 1 2 3 4 5 6 
#
# 1 24.4765 -0.6417 -4.9209 0.0000 4.3577 0.0000
# 2 -0.6417 49.2248 18.0453 0.0000 2.5677 0.0000
# 3 -4.9209 18.0453 94.9529 0.0000 24.0013 0.0000
# 4 0.0000 0.0000 0.0000 37.8234 0.0000 0.1000
# 5 4.3577 2.5677 24.0013 0.0000 20.2563 0.0000
# 6 0.0000 0.0000 0.0000 0.1000 0.0000 20.1784
#
#
#
# Elastic Compliance Matrix: (Units=1/GPa)
#
#
# Indices 1 2 3 4 5 6 
#
# 1 0.045487 -0.001080 0.007140 0.000000 -0.018108 0.000000
# 2 -0.001080 0.021996 -0.005125 0.000000 0.003517 0.000000
# 3 0.007140 -0.005125 0.017273 0.000000 -0.021353 0.000000
# 4 0.000000 0.000000 0.000000 0.026439 0.000000 -0.000131
# 5 -0.018108 0.003517 -0.021353 0.000000 0.078117 0.000000
# 6 0.000000 0.000000 0.000000 -0.000131 0.000000 0.049559
#
#
# Mechanical properties :
#
#
# Convention : Reuss Voigt Hill
#
# Bulk Modulus (GPa) = 11.54397 21.51329 16.52863
# Shear Modulus (GPa) = 18.80576 26.06307 22.43441
#
# Velocity S-wave (km/s) = 3.08435 3.63104 3.36880
# Velocity P-wave (km/s) = 4.30395 5.33499 4.84696
#
# Compressibility (1/GPa) = 0.08662533
#
# Stress axis : x y z
#
# Youngs Moduli (GPa) = 21.98454 45.46225 57.89416
#
# Poissons Ratio (x) = 0.04909 -0.41335
# Poissons Ratio (y) = 0.02374 0.29672
# Poissons Ratio (z) = -0.15697 0.23300
#
# Static dielectric constant tensor:
#      x y z
#    x 1.687200 0.000000 0.023640 
#    y 0.000000 1.662410 0.000000 
#    z 0.023640 0.000000 1.725530 
# 
# From -- ./inp_files/380784.got.cif
#   From: 2010.05.17/outbox.cif.g08.bks.cpg/sg12_191_cif.got.tgz:380784.got - 2010.06.03 13:09:07.
