data_PCOD9181109
_publ_section_title
;
Structure prediction by ZEFSAII (Michael W. Deem and Ramdas Pophale) SiO2 
 PCOD9181109
Probable space group: C 2/M
;
_chemical_formula_sum "Si O2"
_cell_formula_units_Z 64
_cell_length_a 27.143168
_cell_length_b 20.810041
_cell_length_c 11.987365
_cell_angle_alpha 90.000000
_cell_angle_beta 29.009324
_cell_angle_gamma 90.000000
_cell_volume 3283.642779
_symmetry_space_group_name_H-M "C 2/M"
_symmetry_group_IT_number 12
_symmetry_cell_setting 'monoclinic'
loop_
_space_group_symop_operation_xyz
x,y,z
-x,y,-z
-x,-y,-z
x,-y,z
1/2+x,1/2+y,z
1/2-x,1/2+y,-z
1/2-x,1/2-y,-z
1/2+x,1/2-y,z
loop_
_atom_site_type_symbol
_atom_site_label
_atom_site_fract_x
_atom_site_fract_y
_atom_site_fract_z
Si Si1 0.621218 0.074908 0.253277
Si Si2 0.884927 0.814671 0.201500
Si Si3 0.748761 0.925158 0.383652
Si Si4 0.260698 0.353446 0.152050
Si Si5 0.561452 0.723573 0.156349
Si Si6 0.833988 0.227943 0.540826
Si Si7 0.485519 0.928861 0.159440
Si Si8 0.853798 0.356006 0.016832
O O1 0.500000 0.087005 0.500000
O O2 0.686131 0.119379 0.207123
O O3 0.637053 0.000000 0.249277
O O4 0.657093 0.091779 0.057769
O O5 0.808940 0.875123 0.341766
O O6 0.850883 0.770128 0.372895
O O7 0.895112 0.781786 0.058937
O O8 0.000000 0.836743 0.000000
O O9 0.789631 0.910800 0.179359
O O10 0.630476 0.907485 0.601170
O O11 0.755300 0.000000 0.403890
O O12 0.204745 0.294380 0.327864
O O13 0.369652 0.323070 0.905343
O O14 0.442696 0.711299 0.379720
O O15 0.584483 0.794881 0.152522
O O16 0.751519 0.172942 0.730631
O O17 0.493466 0.000000 0.196429
O O18 0.500000 0.934191 0.000000
O O19 0.572126 0.884347 0.036462
#
# Coordination Sequence:
#
# PCOD9181109 Si02
#       8
#     8   8   8   8   8   8   8   8
#     4  11  23  40  61  82 108 142 183 233 282 330
#     4   9  19  35  54  81 116 151 185 222 270 328
#     4  10  19  32  52  76 104 142 187 229 269 322
#     4  10  21  36  56  79 106 143 186 230 278 325
#     4   9  20  35  55  84 114 145 181 223 272 328
#     4  10  20  36  57  83 116 147 181 226 275 331
#     4  10  20  32  48  75 109 140 173 216 268 328
#     4  11  22  35  57  83 109 143 182 226 278 329
#
# _framework density 19.490549000000001
#
# number of rings (size 3 to 8) (size 9 to 14) (size 15 to 20)
#    0.000    2.000    0.000    3.750    0.000   11.250 
#    0.000    2.500    0.000    8.250    0.000    0.000 
#    0.000    0.000    0.000    0.000    0.000    0.000 
#
# Total GULP energy -178463.737647 kJ/mol
# GULP energy per Si atom -5576.991801 kJ/mol
# Density = 1.944619 g / cm^3
# Si number density = 19.490549 Si / 1000 Ang^3
#
#
#
# Elastic Constant Matrix: (Units=GPa)
#
#
# Indices 1 2 3 4 5 6 
#
# 1 97.1965 46.2443 23.5096 0.0000 -30.7080 0.0000
# 2 46.2443 75.6563 37.8001 0.0000 -22.6479 0.0000
# 3 23.5096 37.8001 75.3077 0.0000 -30.5355 0.0000
# 4 0.0000 0.0000 0.0000 42.2732 0.0000 -23.9596
# 5 -30.7080 -22.6479 -30.5355 0.0000 36.8429 0.0000
# 6 0.0000 0.0000 0.0000 -23.9596 0.0000 47.4098
#
#
#
# Elastic Compliance Matrix: (Units=1/GPa)
#
#
# Indices 1 2 3 4 5 6 
#
# 1 0.017535 -0.009044 0.004123 0.000000 0.012472 0.000000
# 2 -0.009044 0.023016 -0.009111 0.000000 -0.000941 0.000000
# 3 0.004123 -0.009111 0.023628 0.000000 0.017419 0.000000
# 4 0.000000 0.000000 0.000000 0.033151 0.000000 0.016754
# 5 0.012472 -0.000941 0.017419 0.000000 0.051396 0.000000
# 6 0.000000 0.000000 0.000000 0.016754 0.000000 0.029560
#
#
# Mechanical properties :
#
#
# Convention : Reuss Voigt Hill
#
# Bulk Modulus (GPa) = 27.68985 51.47427 39.58206
# Shear Modulus (GPa) = 22.89499 34.67895 28.78697
#
# Velocity S-wave (km/s) = 3.43107 4.22272 3.84731
# Velocity P-wave (km/s) = 5.47119 7.08818 6.33152
#
# Compressibility (1/GPa) = 0.03611431
#
# Stress axis : x y z
#
# Youngs Moduli (GPa) = 57.02945 43.44739 42.32318
#
# Poissons Ratio (x) = 0.39295 -0.17450
# Poissons Ratio (y) = 0.51579 0.38560
# Poissons Ratio (z) = -0.23513 0.39585
#
# Static dielectric constant tensor:
#      x y z
#    x 1.690560 0.000000 -0.095430 
#    y 0.000000 1.734740 0.000000 
#    z -0.095430 0.000000 -0.021430 
# 
# From -- ./inp_files/184682.got.cif
#   From: 2010.05.17/outbox.cif.g08.bks.cpg/sg12_93_cif.got.tgz:184682.got - 2010.06.03 13:09:07.
