data_PCOD9181905
_publ_section_title
;
Structure prediction by ZEFSAII (Michael W. Deem and Ramdas Pophale) SiO2 
 PCOD9181905
Probable space group: C 2/M
;
_chemical_formula_sum "Si O2"
_cell_formula_units_Z 64
_cell_length_a 29.576974
_cell_length_b 14.583997
_cell_length_c 12.259326
_cell_angle_alpha 90.000000
_cell_angle_beta 32.008155
_cell_angle_gamma 90.000000
_cell_volume 2802.886519
_symmetry_space_group_name_H-M "C 2/M"
_symmetry_group_IT_number 12
_symmetry_cell_setting 'monoclinic'
loop_
_space_group_symop_operation_xyz
x,y,z
-x,y,-z
-x,-y,-z
x,-y,z
1/2+x,1/2+y,z
1/2-x,1/2+y,-z
1/2-x,1/2-y,-z
1/2+x,1/2-y,z
loop_
_atom_site_type_symbol
_atom_site_label
_atom_site_fract_x
_atom_site_fract_y
_atom_site_fract_z
Si Si1 0.813761 0.889048 0.782192
Si Si2 0.685567 0.389433 0.964124
Si Si3 0.241600 0.139723 0.497771
Si Si4 0.327057 0.105452 0.097289
Si Si5 0.016621 0.395920 0.092788
Si Si6 0.426197 0.342651 0.231610
Si Si7 0.007607 0.103913 0.677022
Si Si8 0.159179 0.343513 0.505589
O O1 0.733177 0.855483 0.875100
O O2 0.908659 0.854071 0.554130
O O3 0.817165 0.000000 0.755888
O O4 0.799570 0.873246 0.938339
O O5 0.689588 0.500000 0.935730
O O6 0.762047 0.345269 0.737851
O O7 0.588351 0.357417 0.137296
O O8 0.250000 0.250000 0.500000
O O9 0.268438 0.107703 0.324270
O O10 0.143851 0.111647 0.703262
O O11 0.304007 0.105855 0.462764
O O12 0.347332 0.000000 0.022852
O O13 0.411788 0.151313 0.977272
O O14 0.046718 0.500000 0.018503
O O15 0.929236 0.392696 0.339435
O O16 0.000000 0.367304 0.000000
O O17 0.464763 0.397086 0.253290
O O18 0.376648 0.257075 0.388526
O O19 0.500000 0.314525 0.000000
O O20 0.000387 0.000000 0.350221
#
# Coordination Sequence:
#
# PCOD9181905 Si02
#       8
#     8   8   8   8   8   8   8   8
#     4   9  18  36  62  89 118 152 194 246 302 354
#     4  10  21  38  62  91 120 155 198 249 300 349
#     4  10  21  34  54  79 115 151 191 236 292 349
#     4  10  19  34  59  88 113 147 196 245 292 348
#     4  10  19  32  54  83 112 148 192 237 284 343
#     4  11  23  37  56  87 120 158 197 239 300 360
#     4  10  20  38  63  90 119 152 197 249 304 364
#     4  11  22  37  55  82 122 160 197 236 292 354
#
# _framework density 22.833604000000001
#
# number of rings (size 3 to 8) (size 9 to 14) (size 15 to 20)
#    0.000    1.875    2.500    1.875    1.750    2.250 
#    0.000    1.250    0.000    4.500    0.000    0.000 
#    0.000    0.000    0.000    0.000    0.000    0.000 
#
# Total GULP energy -178352.319605 kJ/mol
# GULP energy per Si atom -5573.509988 kJ/mol
# Density = 2.278163 g / cm^3
# Si number density = 22.833604 Si / 1000 Ang^3
#
#
#
# Elastic Constant Matrix: (Units=GPa)
#
#
# Indices 1 2 3 4 5 6 
#
# 1 126.8618 13.2200 77.0363 0.0000 -37.3207 0.0000
# 2 13.2200 55.2549 3.7374 0.0000 -1.7095 0.0000
# 3 77.0363 3.7374 160.6617 0.0000 -34.2535 0.0000
# 4 0.0000 0.0000 0.0000 12.7967 0.0000 9.3636
# 5 -37.3207 -1.7095 -34.2535 0.0000 43.2359 0.0000
# 6 0.0000 0.0000 0.0000 9.3636 0.0000 10.7791
#
#
#
# Elastic Compliance Matrix: (Units=1/GPa)
#
#
# Indices 1 2 3 4 5 6 
#
# 1 0.013224 -0.002613 -0.004655 0.000000 0.007624 0.000000
# 2 -0.002613 0.018651 0.000596 0.000000 -0.001046 0.000000
# 3 -0.004655 0.000596 0.009133 0.000000 0.003242 0.000000
# 4 0.000000 0.000000 0.000000 0.214468 0.000000 -0.186304
# 5 0.007624 -0.001046 0.003242 0.000000 0.032237 0.000000
# 6 0.000000 0.000000 0.000000 -0.186304 0.000000 0.254610
#
#
# Mechanical properties :
#
#
# Convention : Reuss Voigt Hill
#
# Bulk Modulus (GPa) = 36.14724 58.97397 47.56060
# Shear Modulus (GPa) = 8.85131 29.94798 19.39964
#
# Velocity S-wave (km/s) = 1.97100 3.62550 2.91797
# Velocity P-wave (km/s) = 4.58747 6.58858 5.67690
#
# Compressibility (1/GPa) = 0.02766463
#
# Stress axis : x y z
#
# Youngs Moduli (GPa) = 75.61802 53.61785 109.48799
#
# Poissons Ratio (x) = 0.14012 0.50964
# Poissons Ratio (y) = 0.19761 -0.06527
# Poissons Ratio (z) = 0.35198 -0.03197
#
# Static dielectric constant tensor:
#      x y z
#    x 1.878860 0.000000 -0.066410 
#    y 0.000000 2.002070 0.000000 
#    z -0.066410 0.000000 1.892510 
# 
# From -- ./inp_files/184688.got.cif
#   From: 2010.05.17/outbox.cif.g08.bks.cpg/sg12_93_cif.got.tgz:184688.got - 2010.06.03 13:09:07.
