data_PCOD9181208
_publ_section_title
;
Structure prediction by ZEFSAII (Michael W. Deem and Ramdas Pophale) SiO2 
 PCOD9181208
Probable space group: C 2/M
;
_chemical_formula_sum "Si O2"
_cell_formula_units_Z 64
_cell_length_a 21.021955
_cell_length_b 9.339727
_cell_length_c 23.190191
_cell_angle_alpha 90.000000
_cell_angle_beta 139.590189
_cell_angle_gamma 90.000000
_cell_volume 2951.578454
_symmetry_space_group_name_H-M "C 2/M"
_symmetry_group_IT_number 12
_symmetry_cell_setting 'monoclinic'
loop_
_space_group_symop_operation_xyz
x,y,z
-x,y,-z
-x,-y,-z
x,-y,z
1/2+x,1/2+y,z
1/2-x,1/2+y,-z
1/2-x,1/2-y,-z
1/2+x,1/2-y,z
loop_
_atom_site_type_symbol
_atom_site_label
_atom_site_fract_x
_atom_site_fract_y
_atom_site_fract_z
Si Si1 0.727487 0.328161 0.267391
Si Si2 0.435602 0.328248 0.398756
Si Si3 0.279781 0.159526 0.845349
Si Si4 0.105563 0.828483 0.429632
Si Si5 0.476214 0.838003 0.044505
Si Si6 0.689676 0.838615 0.875335
Si Si7 0.900380 0.839292 0.088447
Si Si8 0.792156 0.828687 0.614277
O O1 0.721818 0.500000 0.254053
O O2 0.838193 0.266556 0.337207
O O3 0.676983 0.236576 0.181493
O O4 0.691584 0.294705 0.307304
O O5 0.500000 0.299990 0.500000
O O6 0.415035 0.500000 0.385084
O O7 0.502910 0.293482 0.389587
O O8 0.360422 0.140895 0.950829
O O9 0.203426 0.263833 0.823330
O O10 0.243487 0.000000 0.806895
O O11 0.122953 0.794152 0.373931
O O12 0.194145 0.750880 0.524637
O O13 0.117606 0.000000 0.444511
O O14 0.518984 0.000000 0.077493
O O15 0.500000 0.764948 0.000000
O O16 0.477146 0.743482 0.101402
O O17 0.620624 0.745097 0.868016
O O18 0.654329 0.000000 0.844928
O O19 0.795438 0.846789 0.981905
O O20 0.933698 0.000000 0.122548
O O21 0.775785 0.000000 0.600238
#
# Coordination Sequence:
#
# PCOD9181208 Si02
#       8
#     8   8   8   8   8   8   8   8
#     4  11  22  34  51  75 106 139 174 213 263 318
#     4  10  19  32  52  78 104 134 174 219 263 307
#     4  10  20  34  53  75 101 132 170 210 254 312
#     4   9  17  31  51  74 101 131 171 217 261 306
#     4   9  18  33  53  76 100 131 170 214 263 308
#     4   9  16  28  47  71  99 128 159 200 246 293
#     4   9  16  26  45  74 102 127 160 200 245 294
#     4   9  18  31  49  74 101 134 171 212 259 308
#
# _framework density 21.683312999999998
#
# number of rings (size 3 to 8) (size 9 to 14) (size 15 to 20)
#    0.000    2.500    1.250    1.500    0.000    5.000 
#    0.000    0.000    2.750    0.000    0.000    0.000 
#    0.000    0.000    0.000    0.000    0.000    0.000 
#
# Total GULP energy -178441.310147 kJ/mol
# GULP energy per Si atom -5576.290942 kJ/mol
# Density = 2.163396 g / cm^3
# Si number density = 21.683313 Si / 1000 Ang^3
#
#
#
# Elastic Constant Matrix: (Units=GPa)
#
#
# Indices 1 2 3 4 5 6 
#
# 1 137.6171 52.1688 16.3560 0.0000 -45.8974 0.0000
# 2 52.1688 96.7786 18.0283 0.0000 -33.0737 0.0000
# 3 16.3560 18.0283 53.2597 0.0000 -10.1386 0.0000
# 4 0.0000 0.0000 0.0000 -33.2000 0.0000 -28.7856
# 5 -45.8974 -33.0737 -10.1386 0.0000 36.0029 0.0000
# 6 0.0000 0.0000 0.0000 -28.7856 0.0000 18.8215
#
#
#
# Elastic Compliance Matrix: (Units=1/GPa)
#
#
# Indices 1 2 3 4 5 6 
#
# 1 0.012902 -0.001871 -0.000555 0.000000 0.014572 0.000000
# 2 -0.001871 0.015682 -0.002584 0.000000 0.011293 0.000000
# 3 -0.000555 -0.002584 0.020324 0.000000 0.002642 0.000000
# 4 0.000000 0.000000 0.000000 -0.012949 0.000000 -0.019805
# 5 0.014572 0.011293 0.002642 0.000000 0.057471 0.000000
# 6 0.000000 0.000000 0.000000 -0.019805 0.000000 0.022842
#
#
# Mechanical properties :
#
#
# Convention : Reuss Voigt Hill
#
# Bulk Modulus (GPa) = 25.71481 51.19573 38.45527
# Shear Modulus (GPa) = 35.90532 17.73169 26.81851
#
# Velocity S-wave (km/s) = 4.07369 2.86275 3.52067
# Velocity P-wave (km/s) = 5.83194 5.88124 5.85664
#
# Compressibility (1/GPa) = 0.03888810
#
# Stress axis : x y z
#
# Youngs Moduli (GPa) = 77.50696 63.76591 49.20301
#
# Poissons Ratio (x) = 0.11934 0.02729
# Poissons Ratio (y) = 0.14505 0.12714
# Poissons Ratio (z) = 0.04299 0.16477
#
# Static dielectric constant tensor:
#      x y z
#    x 1.817480 0.000000 0.054100 
#    y 0.000000 1.767220 0.000000 
#    z 0.054100 0.000000 1.866000 
# 
# From -- ./inp_files/346131.got.cif
#   From: 2010.05.17/outbox.cif.g08.bks.cpg/sg12_174_cif.got.tgz:346131.got - 2010.06.03 13:09:07.
