data_PCOD9181917
_publ_section_title
;
Structure prediction by ZEFSAII (Michael W. Deem and Ramdas Pophale) SiO2 
 PCOD9181917
Probable space group: C 2/M
;
_chemical_formula_sum "Si O2"
_cell_formula_units_Z 64
_cell_length_a 19.843818
_cell_length_b 13.914454
_cell_length_c 24.338600
_cell_angle_alpha 90.000000
_cell_angle_beta 149.988596
_cell_angle_gamma 90.000000
_cell_volume 3361.295450
_symmetry_space_group_name_H-M "C 2/M"
_symmetry_group_IT_number 12
_symmetry_cell_setting 'monoclinic'
loop_
_space_group_symop_operation_xyz
x,y,z
-x,y,-z
-x,-y,-z
x,-y,z
1/2+x,1/2+y,z
1/2-x,1/2+y,-z
1/2-x,1/2-y,-z
1/2+x,1/2-y,z
loop_
_atom_site_type_symbol
_atom_site_label
_atom_site_fract_x
_atom_site_fract_y
_atom_site_fract_z
Si Si1 0.276873 0.611402 0.103108
Si Si2 0.408305 0.883851 0.204618
Si Si3 0.966024 0.394314 0.885963
Si Si4 0.654674 0.249457 0.747067
Si Si5 0.029446 0.886465 0.455780
Si Si6 0.875486 0.884563 0.054955
Si Si7 0.330816 0.113808 0.676694
Si Si8 0.426088 0.690977 0.895131
O O1 0.312478 0.500000 0.141631
O O2 0.289828 0.679220 0.165264
O O3 0.361021 0.643616 0.108783
O O4 0.120087 0.608590 0.973715
O O5 0.421709 0.831681 0.272171
O O6 0.536162 0.849893 0.259518
O O7 0.409797 0.000000 0.209378
O O8 0.263650 0.858397 0.074895
O O9 0.942434 0.500000 0.893477
O O10 0.861524 0.378529 0.762913
O O11 0.949929 0.304995 0.913032
O O12 0.569334 0.317796 0.647399
O O13 0.767428 0.189723 0.793115
O O14 0.000000 0.882411 0.500000
O O15 0.183590 0.850958 0.556656
O O16 0.016357 0.000000 0.430665
O O17 0.001428 0.844599 0.109092
O O18 0.883501 0.000000 0.060253
O O19 0.326144 0.000000 0.662211
O O20 0.500000 0.644930 0.000000
#
# Coordination Sequence:
#
# PCOD9181917 Si02
#       8
#     8   8   8   8   8   8   8   8
#     4  10  20  35  57  87 121 156 191 240 302 353
#     4  10  20  35  58  86 115 151 197 243 287 339
#     4  10  19  32  54  83 118 150 185 235 294 355
#     4  12  24  37  57  89 122 154 196 247 293 348
#     4  10  22  42  63  83 115 154 190 237 297 361
#     4  10  21  38  58  82 121 166 202 239 289 347
#     4   9  18  35  59  83 105 147 199 235 281 346
#     4  12  23  34  49  85 118 159 199 231 286 348
#
# _framework density 19.040279000000002
#
# number of rings (size 3 to 8) (size 9 to 14) (size 15 to 20)
#    0.000    1.625    3.750    1.125    1.750    4.500 
#    0.000    0.000    0.000    0.375    0.000    0.000 
#    0.000    0.000    0.000    0.000    0.000    0.000 
#
# Total GULP energy -178444.626560 kJ/mol
# GULP energy per Si atom -5576.394580 kJ/mol
# Density = 1.899694 g / cm^3
# Si number density = 19.040279 Si / 1000 Ang^3
#
#
#
# Elastic Constant Matrix: (Units=GPa)
#
#
# Indices 1 2 3 4 5 6 
#
# 1 49.0626 -1.2954 20.5238 0.0003 7.4618 -0.0001
# 2 -1.2954 40.7834 12.3327 0.0008 -3.5461 -0.0001
# 3 20.5238 12.3327 96.5913 0.0005 2.3460 -0.0001
# 4 0.0003 0.0008 0.0005 15.5450 0.0000 -3.5626
# 5 7.4618 -3.5461 2.3460 0.0000 20.9961 0.0000
# 6 -0.0001 -0.0001 -0.0001 -3.5626 0.0000 24.8523
#
#
#
# Elastic Compliance Matrix: (Units=1/GPa)
#
#
# Indices 1 2 3 4 5 6 
#
# 1 0.023694 0.001623 -0.005058 0.000000 -0.007581 0.000000
# 2 0.001623 0.026084 -0.003778 -0.000001 0.004251 0.000000
# 3 -0.005058 -0.003778 0.011914 0.000000 -0.000172 0.000000
# 4 0.000000 -0.000001 0.000000 0.066515 0.000000 0.009535
# 5 -0.007581 0.004251 -0.000172 0.000000 0.051059 0.000000
# 6 0.000000 0.000000 0.000000 0.009535 0.000000 0.041605
#
#
# Mechanical properties :
#
#
# Convention : Reuss Voigt Hill
#
# Bulk Modulus (GPa) = 21.15728 27.72883 24.44306
# Shear Modulus (GPa) = 19.91627 22.60377 21.26002
#
# Velocity S-wave (km/s) = 3.23771 3.44925 3.34515
# Velocity P-wave (km/s) = 5.01129 5.51887 5.27119
#
# Compressibility (1/GPa) = 0.04726505
#
# Stress axis : x y z
#
# Youngs Moduli (GPa) = 42.20540 38.33841 83.93404
#
# Poissons Ratio (x) = -0.06221 0.42450
# Poissons Ratio (y) = -0.06849 0.31713
# Poissons Ratio (z) = 0.21345 0.14486
#
# Static dielectric constant tensor:
#      x y z
#    x 1.719360 0.000000 0.026480 
#    y 0.000000 1.683240 0.000000 
#    z 0.026480 0.000000 1.695680 
# 
# From -- ./inp_files/183812.got.cif
#   From: 2010.05.17/outbox.cif.g08.bks.cpg/sg12_92_cif.got.tgz:183812.got - 2010.06.03 13:09:07.
