data_PCOD9181588
_publ_section_title
;
Structure prediction by ZEFSAII (Michael W. Deem and Ramdas Pophale) SiO2 
 PCOD9181588
Probable space group: C 2/M
;
_chemical_formula_sum "Si O2"
_cell_formula_units_Z 40
_cell_length_a 24.852956
_cell_length_b 8.663497
_cell_length_c 32.442646
_cell_angle_alpha 90.000000
_cell_angle_beta 19.696672
_cell_angle_gamma 90.000000
_cell_volume 2354.342988
_symmetry_space_group_name_H-M "C 2/M"
_symmetry_group_IT_number 12
_symmetry_cell_setting 'monoclinic'
loop_
_space_group_symop_operation_xyz
x,y,z
-x,y,-z
-x,-y,-z
x,-y,z
1/2+x,1/2+y,z
1/2-x,1/2+y,-z
1/2-x,1/2-y,-z
1/2+x,1/2-y,z
loop_
_atom_site_type_symbol
_atom_site_label
_atom_site_fract_x
_atom_site_fract_y
_atom_site_fract_z
Si Si1 0.086967 0.316058 0.168932
Si Si2 0.233225 0.315553 0.310581
Si Si3 0.775946 0.184009 0.435840
Si Si4 0.930416 0.815242 0.488834
Si Si5 0.069232 0.684129 0.083613
O O1 0.077275 0.500000 0.181895
O O2 0.059922 0.284686 0.139664
O O3 0.949413 0.233416 0.293797
O O4 0.263568 0.255020 0.051673
O O5 0.223274 0.500000 0.317399
O O6 0.170807 0.253352 0.399861
O O7 0.413914 0.259004 0.175277
O O8 0.109867 0.244523 0.366744
O O9 0.750000 0.250000 0.500000
O O10 0.648232 0.256248 0.496302
O O11 0.761479 0.000000 0.446162
O O12 0.924521 0.000000 0.495375
O O13 0.068730 0.500000 0.078424
#
# Coordination Sequence:
#
# PCOD9181588 Si02
#       5
#     8   8   8   8   8
#     4  10  20  34  53  79 111 144 183 225 273 325
#     4  11  20  32  53  81 112 145 179 224 277 328
#     4  12  24  39  58  80 110 147 187 228 271 323
#     4  11  21  35  53  78 110 144 183 226 274 326
#     4  10  19  32  53  80 113 146 178 223 277 327
#
# _framework density 16.989877
#
# number of rings (size 3 to 8) (size 9 to 14) (size 15 to 20)
#    0.000    1.200    2.000    7.800    0.000    1.600 
#    0.000    0.000    0.000    1.200    0.000    8.400 
#    0.000    0.000    0.000    0.000    0.000    0.000 
#
# Total GULP energy -111776.849851 kJ/mol
# GULP energy per Si atom -5588.842493 kJ/mol
# Density = 1.695121 g / cm^3
# Si number density = 16.989877 Si / 1000 Ang^3
#
#
#
# Elastic Constant Matrix: (Units=GPa)
#
#
# Indices 1 2 3 4 5 6 
#
# 1 109.0390 49.2252 64.2893 -0.0098 -19.4879 0.0087
# 2 49.2252 131.1596 54.5989 -0.0151 -8.7006 0.0282
# 3 64.2893 54.5989 97.0884 0.0043 -30.8338 0.0047
# 4 -0.0098 -0.0151 0.0043 32.9635 -0.0001 -5.5112
# 5 -19.4879 -8.7006 -30.8338 -0.0001 32.4720 -0.0022
# 6 0.0087 0.0282 0.0047 -5.5112 -0.0022 27.2208
#
#
#
# Elastic Compliance Matrix: (Units=1/GPa)
#
#
# Indices 1 2 3 4 5 6 
#
# 1 0.015440 -0.002021 -0.009044 0.000005 0.000137 0.000000
# 2 -0.002021 0.010556 -0.005849 0.000003 -0.003938 -0.000009
# 3 -0.009044 -0.005849 0.024850 -0.000008 0.016602 0.000004
# 4 0.000005 0.000003 -0.000008 0.031399 -0.000003 0.006357
# 5 0.000137 -0.003938 0.016602 -0.000003 0.045587 0.000004
# 6 0.000000 -0.000009 0.000004 0.006357 0.000004 0.038024
#
#
# Mechanical properties :
#
#
# Convention : Reuss Voigt Hill
#
# Bulk Modulus (GPa) = 58.75831 74.83487 66.79659
# Shear Modulus (GPa) = 24.34769 29.80949 27.07859
#
# Velocity S-wave (km/s) = 3.78970 4.19327 3.99658
# Velocity P-wave (km/s) = 7.33543 8.22114 7.79088
#
# Compressibility (1/GPa) = 0.01701887
#
# Stress axis : x y z
#
# Youngs Moduli (GPa) = 64.76583 94.72974 40.24077
#
# Poissons Ratio (x) = 0.19144 0.36394
# Poissons Ratio (y) = 0.13088 0.23537
# Poissons Ratio (z) = 0.58575 0.55408
#
# Static dielectric constant tensor:
#      x y z
#    x 1.559100 0.000000 -0.021520 
#    y 0.000000 1.560990 0.000010 
#    z -0.021520 0.000010 1.567650 
# 
# From -- ./inp_files/162715.got.cif
#   From: 2010.05.17/outbox.cif.g08.bks.cpg/sg12_82_cif.got.tgz:162715.got - 2010.06.03 13:09:07.
