data_PCOD9181843
_publ_section_title
;
Structure prediction by ZEFSAII (Michael W. Deem and Ramdas Pophale) SiO2 
 PCOD9181843
Probable space group: C 2/M
;
_chemical_formula_sum "Si O2"
_cell_formula_units_Z 32
_cell_length_a 7.439069
_cell_length_b 22.881427
_cell_length_c 10.035434
_cell_angle_alpha 90.000000
_cell_angle_beta 59.692513
_cell_angle_gamma 90.000000
_cell_volume 1474.736709
_symmetry_space_group_name_H-M "C 2/M"
_symmetry_group_IT_number 12
_symmetry_cell_setting 'monoclinic'
loop_
_space_group_symop_operation_xyz
x,y,z
-x,y,-z
-x,-y,-z
x,-y,z
1/2+x,1/2+y,z
1/2-x,1/2+y,-z
1/2-x,1/2-y,-z
1/2+x,1/2-y,z
loop_
_atom_site_type_symbol
_atom_site_label
_atom_site_fract_x
_atom_site_fract_y
_atom_site_fract_z
Si Si1 0.439431 0.814596 0.671035
Si Si2 0.545126 0.065502 0.691135
Si Si3 0.500000 0.619353 0.500000
Si Si4 0.500000 0.889417 0.000000
Si Si5 0.786611 0.194987 0.768410
O O1 0.500000 0.795331 0.500000
O O2 0.399270 0.883907 0.682407
O O3 0.631233 0.812192 0.701576
O O4 0.295007 0.764034 0.784811
O O5 0.790123 0.080633 0.574949
O O6 0.509861 0.072960 0.863263
O O7 0.497798 0.000000 0.666115
O O8 0.489700 0.662459 0.633436
O O9 0.305252 0.844399 0.079705
#
# Coordination Sequence:
#
# PCOD9181843 Si02
#       5
#     8   8   4   4   8
#     4  10  20  32  54  77 107 133 165 217 253 307
#     4  10  20  33  52  76 105 139 172 205 252 303
#     4   8  17  30  52  76  97 128 172 210 248 294
#     4   8  19  34  52  78 101 132 174 214 250 300
#     4  10  19  32  54  82 101 131 171 210 271 290
#
# _framework density 21.698789999999999
#
# number of rings (size 3 to 8) (size 9 to 14) (size 15 to 20)
#    0.000    3.000    1.250    1.500    3.500    4.500 
#    0.000    0.000    0.000    0.000    0.000    2.625 
#    0.000    0.000    0.000    0.000    0.000    0.000 
#
# Total GULP energy -89080.065151 kJ/mol
# GULP energy per Si atom -5567.504072 kJ/mol
# Density = 2.164940 g / cm^3
# Si number density = 21.698790 Si / 1000 Ang^3
#
#
#
# Elastic Constant Matrix: (Units=GPa)
#
#
# Indices 1 2 3 4 5 6 
#
# 1 24.1965 8.6009 1.0757 0.0000 8.9461 0.0000
# 2 8.6009 190.3089 26.4648 0.0000 -17.2083 0.0000
# 3 1.0757 26.4648 96.9282 0.0000 -8.8784 0.0000
# 4 0.0000 0.0000 0.0000 8.2527 0.0000 7.4135
# 5 8.9461 -17.2083 -8.8784 0.0000 20.3412 0.0000
# 6 0.0000 0.0000 0.0000 7.4135 0.0000 12.9620
#
#
#
# Elastic Compliance Matrix: (Units=1/GPa)
#
#
# Indices 1 2 3 4 5 6 
#
# 1 0.053592 -0.004725 -0.001906 0.000000 -0.028399 0.000000
# 2 -0.004725 0.006234 -0.001017 0.000000 0.006908 0.000000
# 3 -0.001906 -0.001017 0.011056 0.000000 0.004803 0.000000
# 4 0.000000 0.000000 0.000000 0.249213 0.000000 -0.142535
# 5 -0.028399 0.006908 0.004803 0.000000 0.069592 0.000000
# 6 0.000000 0.000000 0.000000 -0.142535 0.000000 0.158670
#
#
# Mechanical properties :
#
#
# Convention : Reuss Voigt Hill
#
# Bulk Modulus (GPa) = 17.98996 42.63515 30.31255
# Shear Modulus (GPa) = 8.58838 26.66402 17.62620
#
# Velocity S-wave (km/s) = 1.99163 3.50926 2.85320
# Velocity P-wave (km/s) = 3.68749 6.00926 4.98542
#
# Compressibility (1/GPa) = 0.05558656
#
# Stress axis : x y z
#
# Youngs Moduli (GPa) = 18.65938 160.40450 90.45094
#
# Poissons Ratio (x) = 0.75790 0.17240
# Poissons Ratio (y) = 0.08816 0.09198
# Poissons Ratio (z) = 0.03556 0.16312
#
# Static dielectric constant tensor:
#      x y z
#    x 1.822020 0.000000 -0.036470 
#    y 0.000000 1.938510 0.000000 
#    z -0.036470 0.000000 1.845050 
# 
# From -- ./inp_files/121197.got.cif
#   From: 2010.05.17/outbox.cif.g08.bks.cpg/sg12_61_cif.got.tgz:121197.got - 2010.06.03 13:09:07.
