data_PCOD9181557
_publ_section_title
;
Structure prediction by ZEFSAII (Michael W. Deem and Ramdas Pophale) SiO2 
 PCOD9181557
Probable space group: C 2/M
;
_chemical_formula_sum "Si O2"
_cell_formula_units_Z 56
_cell_length_a 20.656821
_cell_length_b 7.463060
_cell_length_c 32.859677
_cell_angle_alpha 90.000000
_cell_angle_beta 150.011329
_cell_angle_gamma 90.000000
_cell_volume 2532.007249
_symmetry_space_group_name_H-M "C 2/M"
_symmetry_group_IT_number 12
_symmetry_cell_setting 'monoclinic'
loop_
_space_group_symop_operation_xyz
x,y,z
-x,y,-z
-x,-y,-z
x,-y,z
1/2+x,1/2+y,z
1/2-x,1/2+y,-z
1/2-x,1/2-y,-z
1/2+x,1/2-y,z
loop_
_atom_site_type_symbol
_atom_site_label
_atom_site_fract_x
_atom_site_fract_y
_atom_site_fract_z
Si Si1 0.671787 0.780240 0.346055
Si Si2 0.875599 0.217776 0.303497
Si Si3 0.118375 0.791642 0.038541
Si Si4 0.654402 0.714157 0.485620
Si Si5 0.392647 0.787209 0.060755
Si Si6 0.112796 0.292481 0.784687
Si Si7 0.847439 0.281570 0.756166
O O1 0.778008 0.718271 0.436455
O O2 0.528527 0.718208 0.281635
O O3 0.692056 0.725236 0.310578
O O4 0.673440 0.000000 0.348386
O O5 0.867079 0.282607 0.252655
O O6 0.755100 0.274347 0.265532
O O7 0.011256 0.280153 0.396821
O O8 0.876134 0.000000 0.302351
O O9 0.259939 0.711937 0.124961
O O10 0.127885 0.000000 0.056672
O O11 0.091710 0.785220 0.976231
O O12 0.000000 0.712323 0.000000
O O13 0.642979 0.500000 0.483535
O O14 0.750000 0.750000 0.500000
O O15 0.508120 0.722727 0.152856
O O16 0.406535 0.000000 0.065184
O O17 0.250000 0.750000 0.000000
O O18 0.105370 0.500000 0.794157
O O19 0.847444 0.500000 0.755665
#
# Coordination Sequence:
#
# PCOD9181557 Si02
#       7
#     8   8   8   8   8   8   8
#     4   9  17  31  52  75 101 137 176 210 254 313
#     4  10  20  33  53  81 109 136 172 224 270 309
#     4  10  21  36  55  81 111 143 184 231 276 329
#     4  10  19  32  53  80 107 136 173 217 261 312
#     4  11  22  37  58  80 109 148 186 230 278 329
#     4  10  19  33  54  76 103 142 179 214 263 323
#     4   9  19  35  53  77 108 139 175 219 269 319
#
# _framework density 22.11684
#
# number of rings (size 3 to 8) (size 9 to 14) (size 15 to 20)
#    0.000    2.143    1.429    2.143    0.000    3.714 
#    0.000    3.571    0.000    2.571    0.000    2.000 
#    0.000    0.000    0.000    0.000    0.000    0.000 
#
# Total GULP energy -156477.890755 kJ/mol
# GULP energy per Si atom -5588.496098 kJ/mol
# Density = 2.206650 g / cm^3
# Si number density = 22.116840 Si / 1000 Ang^3
#
#
#
# Elastic Constant Matrix: (Units=GPa)
#
#
# Indices 1 2 3 4 5 6 
#
# 1 66.8964 -19.9340 -12.9960 -0.0007 -4.8618 0.0012
# 2 -19.9340 63.4421 -5.4850 0.0006 8.1022 0.0008
# 3 -12.9960 -5.4850 98.6483 -0.0010 -7.3944 0.0013
# 4 -0.0007 0.0006 -0.0010 -5.2659 0.0001 -11.2315
# 5 -4.8618 8.1022 -7.3944 0.0001 36.9031 -0.0002
# 6 0.0012 0.0008 0.0013 -11.2315 -0.0002 19.4683
#
#
#
# Elastic Compliance Matrix: (Units=1/GPa)
#
#
# Indices 1 2 3 4 5 6 
#
# 1 0.017207 0.005433 0.002690 0.000001 0.001613 -0.000001
# 2 0.005433 0.017973 0.001495 0.000002 -0.002931 0.000000
# 3 0.002690 0.001495 0.010738 0.000000 0.002178 -0.000001
# 4 0.000001 0.000002 0.000000 -0.085140 0.000000 -0.049118
# 5 0.001613 -0.002931 0.002178 0.000000 0.028390 0.000000
# 6 -0.000001 0.000000 -0.000001 -0.049118 0.000000 0.023029
#
#
# Mechanical properties :
#
#
# Convention : Reuss Voigt Hill
#
# Bulk Modulus (GPa) = 15.34793 16.90630 16.12712
# Shear Modulus (GPa) = 340.62765 28.04791 184.33778
#
# Velocity S-wave (km/s) = 12.42365 3.56500 9.13938
# Velocity P-wave (km/s) = 14.58598 4.96048 10.89397
#
# Compressibility (1/GPa) = 0.06515536
#
# Stress axis : x y z
#
# Youngs Moduli (GPa) = 58.11486 55.63865 93.12919
#
# Poissons Ratio (x) = -0.30230 -0.25051
# Poissons Ratio (y) = -0.31575 -0.13927
# Poissons Ratio (z) = -0.15632 -0.08320
#
# Static dielectric constant tensor:
#      x y z
#    x 1.773100 0.000000 -0.117630 
#    y 0.000000 1.860380 0.000010 
#    z -0.117630 0.000010 2.748430 
# 
# From -- ./inp_files/275255.got.cif
#   From: 2010.05.17/outbox.cif.g08.bks.cpg/sg12_138_cif.got.tgz:275255.got - 2010.06.03 13:09:07.
