data_PCOD9181358
_publ_section_title
;
Structure prediction by ZEFSAII (Michael W. Deem and Ramdas Pophale) SiO2 
 PCOD9181358
Probable space group: C 2/M
;
_chemical_formula_sum "Si O2"
_cell_formula_units_Z 48
_cell_length_a 15.132958
_cell_length_b 19.718265
_cell_length_c 12.171843
_cell_angle_alpha 90.000000
_cell_angle_beta 42.529380
_cell_angle_gamma 90.000000
_cell_volume 2455.133539
_symmetry_space_group_name_H-M "C 2/M"
_symmetry_group_IT_number 12
_symmetry_cell_setting 'monoclinic'
loop_
_space_group_symop_operation_xyz
x,y,z
-x,y,-z
-x,-y,-z
x,-y,z
1/2+x,1/2+y,z
1/2-x,1/2+y,-z
1/2-x,1/2-y,-z
1/2+x,1/2-y,z
loop_
_atom_site_type_symbol
_atom_site_label
_atom_site_fract_x
_atom_site_fract_y
_atom_site_fract_z
Si Si1 0.090549 0.579378 0.316492
Si Si2 0.705421 0.618176 0.341723
Si Si3 0.520502 0.075188 0.823774
Si Si4 0.841563 0.699170 0.054983
Si Si5 0.330802 0.657454 0.997080
Si Si6 0.974337 0.077616 0.692437
O O1 0.124656 0.500000 0.303864
O O2 0.221482 0.622315 0.173405
O O3 0.000000 0.602800 0.500000
O O4 0.006231 0.582145 0.281493
O O5 0.828681 0.580351 0.281151
O O6 0.761930 0.687741 0.240045
O O7 0.590382 0.622558 0.535431
O O8 0.641592 0.581981 0.292907
O O9 0.469094 0.000000 0.902344
O O10 0.443974 0.137968 0.947650
O O11 0.891399 0.775548 0.996233
O O12 0.743819 0.684498 0.043529
O O13 0.428407 0.603577 0.852953
O O14 0.018473 0.000000 0.656130
#
# Coordination Sequence:
#
# PCOD9181358 Si02
#       6
#     8   8   8   8   8   8
#     4   9  18  34  58  85 105 137 190 234 268 316
#     4  10  19  32  52  83 116 143 178 227 277 337
#     4  10  19  32  55  82 111 140 177 235 283 317
#     4   9  19  33  49  76 109 143 182 214 269 333
#     4   9  18  35  51  74 108 148 179 219 264 325
#     4  10  19  32  55  84 114 146 181 221 274 339
#
# _framework density 19.550871000000001
#
# number of rings (size 3 to 8) (size 9 to 14) (size 15 to 20)
#    0.000    2.500    0.000    3.000    0.000    6.000 
#   12.000    0.833    3.667    0.000    0.000    4.667 
#    0.000    0.000    0.000    0.000    0.000    0.000 
#
# Total GULP energy -133723.399074 kJ/mol
# GULP energy per Si atom -5571.808295 kJ/mol
# Density = 1.950637 g / cm^3
# Si number density = 19.550871 Si / 1000 Ang^3
#
#
#
# Elastic Constant Matrix: (Units=GPa)
#
#
# Indices 1 2 3 4 5 6 
#
# 1 48.3583 30.9631 28.3441 0.0003 -6.1782 -0.0002
# 2 30.9631 75.7660 56.0089 0.0001 3.5040 -0.0002
# 3 28.3441 56.0089 150.0827 0.0004 13.7928 -0.0005
# 4 0.0003 0.0001 0.0004 11.9419 -0.0003 16.4207
# 5 -6.1782 3.5040 13.7928 -0.0003 27.8134 0.0002
# 6 -0.0002 -0.0002 -0.0005 16.4207 0.0002 -49.3833
#
#
#
# Elastic Compliance Matrix: (Units=1/GPa)
#
#
# Indices 1 2 3 4 5 6 
#
# 1 0.030386 -0.011009 -0.002491 0.000000 0.009372 0.000000
# 2 -0.011009 0.022250 -0.006016 0.000000 -0.002265 0.000000
# 3 -0.002491 -0.006016 0.009807 0.000000 -0.004659 0.000000
# 4 0.000000 0.000000 0.000000 0.057465 0.000000 0.019108
# 5 0.009372 -0.002265 -0.004659 0.000000 0.040631 0.000000
# 6 0.000000 0.000000 0.000000 0.019108 0.000000 -0.013896
#
#
# Mechanical properties :
#
#
# Convention : Reuss Voigt Hill
#
# Bulk Modulus (GPa) = 42.71891 56.09324 49.40607
# Shear Modulus (GPa) = 25.84270 8.66712 17.25491
#
# Velocity S-wave (km/s) = 3.63963 2.10778 2.97402
# Velocity P-wave (km/s) = 6.28968 5.88871 6.09249
#
# Compressibility (1/GPa) = 0.02340884
#
# Stress axis : x y z
#
# Youngs Moduli (GPa) = 32.91015 44.94451 101.97141
#
# Poissons Ratio (x) = 0.49482 0.25404
# Poissons Ratio (y) = 0.36232 0.61345
# Poissons Ratio (z) = 0.08199 0.27038
#
# Static dielectric constant tensor:
#      x y z
#    x 1.700610 0.000000 0.000120 
#    y 0.000000 1.700910 0.000000 
#    z 0.000120 0.000000 1.702140 
# 
# From -- ./inp_files/147937.got.cif
#   From: 2010.05.17/outbox.cif.g08.bks.cpg/sg12_74_cif.got.tgz:147937.got - 2010.06.03 13:09:07.
