data_PCOD9181394
_publ_section_title
;
Structure prediction by ZEFSAII (Michael W. Deem and Ramdas Pophale) SiO2 
 PCOD9181394
Probable space group: C 2/M
;
_chemical_formula_sum "Si O2"
_cell_formula_units_Z 40
_cell_length_a 18.373087
_cell_length_b 7.437636
_cell_length_c 26.653092
_cell_angle_alpha 90.000000
_cell_angle_beta 30.195841
_cell_angle_gamma 90.000000
_cell_volume 1831.874374
_symmetry_space_group_name_H-M "C 2/M"
_symmetry_group_IT_number 12
_symmetry_cell_setting 'monoclinic'
loop_
_space_group_symop_operation_xyz
x,y,z
-x,y,-z
-x,-y,-z
x,-y,z
1/2+x,1/2+y,z
1/2-x,1/2+y,-z
1/2-x,1/2-y,-z
1/2+x,1/2-y,z
loop_
_atom_site_type_symbol
_atom_site_label
_atom_site_fract_x
_atom_site_fract_y
_atom_site_fract_z
Si Si1 0.414129 0.780024 0.001206
Si Si2 0.582989 0.279739 0.400333
Si Si3 0.413316 0.213713 0.199231
Si Si4 0.582226 0.283882 0.201244
Si Si5 0.079558 0.215020 0.602975
O O1 0.497099 0.717563 0.901892
O O2 0.412317 0.000000 0.001608
O O3 0.500000 0.726565 0.000000
O O4 0.247761 0.719686 0.101313
O O5 0.500000 0.222952 0.500000
O O6 0.582899 0.500000 0.400670
O O7 0.749217 0.218263 0.300505
O O8 0.499349 0.219575 0.400282
O O9 0.498909 0.242469 0.199685
O O10 0.400767 0.000000 0.199103
O O11 0.588291 0.500000 0.201513
O O12 0.495260 0.215950 0.301648
O O13 0.250000 0.250000 0.500000
O O14 0.061064 0.000000 0.614185
#
# Coordination Sequence:
#
# PCOD9181394 Si02
#       5
#     8   8   8   8   8
#     4   9  17  31  52  76 100 129 168 208 244 288
#     4   9  17  30  49  72  96 124 163 207 242 280
#     4  10  19  32  53  76  98 131 171 205 240 290
#     4  10  20  33  50  74 104 132 159 202 254 295
#     4  10  20  34  52  74 100 130 164 203 249 296
#
# _framework density 21.835557999999999
#
# number of rings (size 3 to 8) (size 9 to 14) (size 15 to 20)
#    0.000    2.400    0.000    3.000    0.000    7.200 
#    0.000    1.000    0.000    8.400    0.000    0.000 
#    0.000    0.000    0.000    0.000    0.000    0.000 
#
# Total GULP energy -111813.254499 kJ/mol
# GULP energy per Si atom -5590.662725 kJ/mol
# Density = 2.178586 g / cm^3
# Si number density = 21.835558 Si / 1000 Ang^3
#
#
#
# Elastic Constant Matrix: (Units=GPa)
#
#
# Indices 1 2 3 4 5 6 
#
# 1 252.2723 -6.4100 171.4960 0.0011 3.2234 -0.0033
# 2 -6.4100 65.9097 5.4526 0.0047 3.3311 -0.0127
# 3 171.4960 5.4526 283.0333 0.0007 4.4422 -0.0011
# 4 0.0011 0.0047 0.0007 26.1467 -0.0008 -57.8347
# 5 3.2234 3.3311 4.4422 -0.0008 52.1031 0.0020
# 6 -0.0033 -0.0127 -0.0011 -57.8347 0.0020 158.8754
#
#
#
# Elastic Compliance Matrix: (Units=1/GPa)
#
#
# Indices 1 2 3 4 5 6 
#
# 1 0.006807 0.001011 -0.004142 0.000000 -0.000133 0.000000
# 2 0.001011 0.015394 -0.000894 0.000000 -0.000971 0.000001
# 3 -0.004142 -0.000894 0.006063 0.000000 -0.000204 0.000000
# 4 0.000000 0.000000 0.000000 0.196332 0.000000 0.071470
# 5 -0.000133 -0.000971 -0.000204 0.000000 0.019280 0.000000
# 6 0.000000 0.000001 0.000000 0.071470 0.000000 0.032311
#
#
# Mechanical properties :
#
#
# Convention : Reuss Voigt Hill
#
# Bulk Modulus (GPa) = 49.46930 104.69917 77.08424
# Shear Modulus (GPa) = 17.18364 76.13683 46.66023
#
# Velocity S-wave (km/s) = 2.80832 5.91134 4.62767
# Velocity P-wave (km/s) = 5.76369 9.72857 7.99578
#
# Compressibility (1/GPa) = 0.02021456
#
# Stress axis : x y z
#
# Youngs Moduli (GPa) = 146.90559 64.96187 164.92722
#
# Poissons Ratio (x) = -0.06570 0.68312
# Poissons Ratio (y) = -0.14858 0.14747
# Poissons Ratio (z) = 0.60848 0.05809
#
# Static dielectric constant tensor:
#      x y z
#    x 1.730290 0.000000 0.012480 
#    y 0.000000 1.865880 0.000000 
#    z 0.012480 0.000000 1.760340 
# 
# From -- ./inp_files/140473.got.cif
#   From: 2010.05.17/outbox.cif.g08.bks.cpg/sg12_71_cif.got.tgz:140473.got - 2010.06.03 13:09:07.
