data_PCOD9181431
_publ_section_title
;
Structure prediction by ZEFSAII (Michael W. Deem and Ramdas Pophale) SiO2 
 PCOD9181431
Probable space group: C 2/M
;
_chemical_formula_sum "Si O2"
_cell_formula_units_Z 56
_cell_length_a 9.148963
_cell_length_b 29.394967
_cell_length_c 19.524425
_cell_angle_alpha 90.000000
_cell_angle_beta 36.015934
_cell_angle_gamma 90.000000
_cell_volume 3087.507162
_symmetry_space_group_name_H-M "C 2/M"
_symmetry_group_IT_number 12
_symmetry_cell_setting 'monoclinic'
loop_
_space_group_symop_operation_xyz
x,y,z
-x,y,-z
-x,-y,-z
x,-y,z
1/2+x,1/2+y,z
1/2-x,1/2+y,-z
1/2-x,1/2-y,-z
1/2+x,1/2-y,z
loop_
_atom_site_type_symbol
_atom_site_label
_atom_site_fract_x
_atom_site_fract_y
_atom_site_fract_z
Si Si1 0.225134 0.278676 0.077514
Si Si2 0.186065 0.223398 0.684234
Si Si3 0.060502 0.360254 0.777877
Si Si4 0.778030 0.050544 0.682368
Si Si5 0.445826 0.696466 0.419864
Si Si6 0.341159 0.948153 0.436002
Si Si7 0.039744 0.647669 0.340483
O O1 0.052696 0.250564 0.196280
O O2 0.086255 0.326306 0.117999
O O3 0.500000 0.286882 0.000000
O O4 0.250000 0.250000 0.000000
O O5 0.416103 0.258482 0.604894
O O6 0.251570 0.179047 0.704379
O O7 0.141110 0.207989 0.623926
O O8 0.105970 0.411785 0.781740
O O9 0.337728 0.340783 0.663792
O O10 0.931857 0.356978 0.751908
O O11 0.718410 0.052602 0.623186
O O12 0.074896 0.058143 0.574086
O O13 0.724433 0.000000 0.727055
O O14 0.217448 0.675482 0.548480
O O15 0.507050 0.903100 0.384376
O O16 0.431342 0.000000 0.417432
#
# Coordination Sequence:
#
# PCOD9181431 Si02
#       7
#     8   8   8   8   8   8   8
#     4  11  22  38  52  66  92 127 170 222 259 291
#     4  11  23  35  50  71  95 131 174 204 252 302
#     4  10  19  32  53  77  98 131 171 200 247 300
#     4   8  13  25  46  75 105 131 161 196 233 293
#     4  11  21  34  47  72 106 134 162 196 242 299
#     4   8  14  25  45  73 106 140 163 184 230 290
#     4  11  19  31  50  76 108 135 159 196 236 296
#
# _framework density 18.137609999999999
#
# number of rings (size 3 to 8) (size 9 to 14) (size 15 to 20)
#    0.000    2.000    1.429    6.429    0.000    2.286 
#    0.000    0.000    0.000    3.000    0.000    1.000 
#    0.000    2.286    0.000    0.000    0.000    0.000 
#
# Total GULP energy -156242.290212 kJ/mol
# GULP energy per Si atom -5580.081793 kJ/mol
# Density = 1.809633 g / cm^3
# Si number density = 18.137610 Si / 1000 Ang^3
#
#
#
# Elastic Constant Matrix: (Units=GPa)
#
#
# Indices 1 2 3 4 5 6 
#
# 1 32.4712 9.9341 -8.7485 0.0000 -2.0138 0.0000
# 2 9.9341 149.5751 23.7707 0.0000 -6.5321 0.0000
# 3 -8.7485 23.7707 46.6459 0.0000 -6.7117 0.0000
# 4 0.0000 0.0000 0.0000 29.1233 0.0000 -3.3742
# 5 -2.0138 -6.5321 -6.7117 0.0000 23.0408 0.0000
# 6 0.0000 0.0000 0.0000 -3.3742 0.0000 15.1989
#
#
#
# Elastic Compliance Matrix: (Units=1/GPa)
#
#
# Indices 1 2 3 4 5 6 
#
# 1 0.034568 -0.003514 0.008940 0.000000 0.004629 0.000000
# 2 -0.003514 0.007655 -0.004480 0.000000 0.000558 0.000000
# 3 0.008940 -0.004480 0.026436 0.000000 0.007212 0.000000
# 4 0.000000 0.000000 0.000000 0.035243 0.000000 0.007824
# 5 0.004629 0.000558 0.007212 0.000000 0.046065 0.000000
# 6 0.000000 0.000000 0.000000 0.007824 0.000000 0.067531
#
#
# Mechanical properties :
#
#
# Convention : Reuss Voigt Hill
#
# Bulk Modulus (GPa) = 14.17434 30.95609 22.56522
# Shear Modulus (GPa) = 20.90975 27.05500 23.98237
#
# Velocity S-wave (km/s) = 3.39903 3.86638 3.64021
# Velocity P-wave (km/s) = 4.82042 6.08574 5.48966
#
# Compressibility (1/GPa) = 0.07055001
#
# Stress axis : x y z
#
# Youngs Moduli (GPa) = 28.92886 130.62739 37.82787
#
# Poissons Ratio (x) = 0.45909 -0.33819
# Poissons Ratio (y) = 0.10167 0.16947
# Poissons Ratio (z) = -0.25863 0.58521
#
# Static dielectric constant tensor:
#      x y z
#    x 1.467690 0.000000 0.035140 
#    y 0.000000 1.680420 0.000000 
#    z 0.035140 0.000000 1.610970 
# 
# From -- ./inp_files/260091.got.cif
#   From: 2010.05.17/outbox.cif.g08.bks.cpg/sg12_131_cif.got.tgz:260091.got - 2010.06.03 13:09:07.
