data_PCOD9181015
_publ_section_title
;
Structure prediction by ZEFSAII (Michael W. Deem and Ramdas Pophale) SiO2 
 PCOD9181015
Probable space group: C 2/M
;
_chemical_formula_sum "Si O2"
_cell_formula_units_Z 64
_cell_length_a 16.661320
_cell_length_b 7.361168
_cell_length_c 22.481654
_cell_angle_alpha 90.000000
_cell_angle_beta 92.673252
_cell_angle_gamma 90.000000
_cell_volume 2754.301760
_symmetry_space_group_name_H-M "C 2/M"
_symmetry_group_IT_number 12
_symmetry_cell_setting 'monoclinic'
loop_
_space_group_symop_operation_xyz
x,y,z
-x,y,-z
-x,-y,-z
x,-y,z
1/2+x,1/2+y,z
1/2-x,1/2+y,-z
1/2-x,1/2-y,-z
1/2+x,1/2-y,z
loop_
_atom_site_type_symbol
_atom_site_label
_atom_site_fract_x
_atom_site_fract_y
_atom_site_fract_z
Si Si1 0.160097 0.709678 0.631819
Si Si2 0.344145 0.780017 0.620012
Si Si3 0.320635 0.293562 0.116215
Si Si4 0.077003 0.721180 0.256967
Si Si5 0.394760 0.220623 0.242096
Si Si6 0.093475 0.279178 0.505000
Si Si7 0.347141 0.785627 0.857819
Si Si8 0.512676 0.719072 0.932680
O O1 0.131959 0.500000 0.630941
O O2 0.255580 0.718922 0.633893
O O3 0.129939 0.785505 0.693233
O O4 0.130167 0.788401 0.568171
O O5 0.402631 0.721430 0.675356
O O6 0.366123 0.715758 0.554718
O O7 0.345771 0.000000 0.618889
O O8 0.315769 0.500000 0.092670
O O9 0.340727 0.293286 0.187155
O O10 0.230889 0.211104 0.110149
O O11 0.401476 0.212554 0.089551
O O12 0.078824 0.500000 0.256975
O O13 0.139101 0.785315 0.208796
O O14 0.987260 0.773495 0.235575
O O15 0.389064 0.000000 0.240039
O O16 0.100911 0.500000 0.505106
O O17 0.000000 0.234595 0.500000
O O18 0.432762 0.768199 0.893272
O O19 0.330803 0.000000 0.851538
O O20 0.516204 0.500000 0.930939
O O21 0.500000 0.777451 0.000000
#
# Coordination Sequence:
#
# PCOD9181015 Si02
#       8
#     8   8   8   8   8   8   8   8
#     4  10  20  32  48  74 105 133 170 224 273 319
#     4  10  19  32  52  74 100 138 178 218 268 326
#     4  10  21  37  58  85 115 146 184 231 277 323
#     4   9  17  31  52  77 103 134 178 225 265 313
#     4  10  19  33  54  78 106 142 182 225 274 326
#     4   9  17  31  51  73  96 130 178 223 265 318
#     4  10  20  36  58  83 112 146 187 232 272 319
#     4  10  22  40  59  83 118 152 181 221 275 330
#
# _framework density 23.23638
#
# number of rings (size 3 to 8) (size 9 to 14) (size 15 to 20)
#    0.000    2.250    1.250    1.875    0.000    5.750 
#    0.000    1.250    0.000    3.000    0.000    0.000 
#    0.000    0.000    0.000    0.000    0.000    0.000 
#
# Total GULP energy -178772.791967 kJ/mol
# GULP energy per Si atom -5586.649749 kJ/mol
# Density = 2.318349 g / cm^3
# Si number density = 23.236380 Si / 1000 Ang^3
#
#
#
# Elastic Constant Matrix: (Units=GPa)
#
#
# Indices 1 2 3 4 5 6 
#
# 1 133.1521 -6.4429 37.5274 0.0000 -41.2499 0.0000
# 2 -6.4429 88.0882 -3.3419 0.0000 -6.6578 0.0000
# 3 37.5274 -3.3419 112.9897 0.0000 -27.5073 0.0000
# 4 0.0000 0.0000 0.0000 8.7889 0.0000 2.4418
# 5 -41.2499 -6.6578 -27.5073 0.0000 31.1073 0.0000
# 6 0.0000 0.0000 0.0000 2.4418 0.0000 15.5824
#
#
#
# Elastic Compliance Matrix: (Units=1/GPa)
#
#
# Indices 1 2 3 4 5 6 
#
# 1 0.013200 0.002335 0.000087 0.000000 0.018080 0.000000
# 2 0.002335 0.012081 0.001230 0.000000 0.006770 0.000000
# 3 0.000087 0.001230 0.011405 0.000000 0.010463 0.000000
# 4 0.000000 0.000000 0.000000 0.118958 0.000000 -0.018641
# 5 0.018080 0.006770 0.010463 0.000000 0.066824 0.000000
# 6 0.000000 0.000000 0.000000 -0.018641 0.000000 0.067096
#
#
# Mechanical properties :
#
#
# Convention : Reuss Voigt Hill
#
# Bulk Modulus (GPa) = 22.73238 43.30170 33.01704
# Shear Modulus (GPa) = 16.83930 31.52821 24.18376
#
# Velocity S-wave (km/s) = 2.69494 3.68754 3.22960
# Velocity P-wave (km/s) = 4.41451 6.06682 5.30539
#
# Compressibility (1/GPa) = 0.04399012
#
# Stress axis : x y z
#
# Youngs Moduli (GPa) = 75.75771 82.77187 87.67849
#
# Poissons Ratio (x) = -0.19329 -0.00759
# Poissons Ratio (y) = -0.17691 -0.10783
# Poissons Ratio (z) = -0.00656 -0.10180
#
# Static dielectric constant tensor:
#      x y z
#    x 1.846790 0.000000 -0.016180 
#    y 0.000000 1.896820 0.000000 
#    z -0.016180 0.000000 1.859870 
# 
# From -- ./inp_files/338877.got.cif
#   From: 2010.05.17/outbox.cif.g08.bks.cpg/sg12_170_cif.got.tgz:338877.got - 2010.06.03 13:09:07.
