data_PCOD9181116
_publ_section_title
;
Structure prediction by ZEFSAII (Michael W. Deem and Ramdas Pophale) SiO2 
 PCOD9181116
Probable space group: C 2/M
;
_chemical_formula_sum "Si O2"
_cell_formula_units_Z 56
_cell_length_a 13.405988
_cell_length_b 21.228522
_cell_length_c 9.483093
_cell_angle_alpha 90.000000
_cell_angle_beta 114.227653
_cell_angle_gamma 90.000000
_cell_volume 2461.083601
_symmetry_space_group_name_H-M "C 2/M"
_symmetry_group_IT_number 12
_symmetry_cell_setting 'monoclinic'
loop_
_space_group_symop_operation_xyz
x,y,z
-x,y,-z
-x,-y,-z
x,-y,z
1/2+x,1/2+y,z
1/2-x,1/2+y,-z
1/2-x,1/2-y,-z
1/2+x,1/2-y,z
loop_
_atom_site_type_symbol
_atom_site_label
_atom_site_fract_x
_atom_site_fract_y
_atom_site_fract_z
Si Si1 0.478089 0.656351 0.654696
Si Si2 0.513924 0.204699 0.343973
Si Si3 0.378882 0.343114 0.001332
Si Si4 0.117082 0.431574 0.388866
Si Si5 0.880982 0.704011 0.010550
Si Si6 0.635002 0.932222 0.083674
Si Si7 0.692609 0.427849 0.280032
O O1 0.500000 0.650354 0.500000
O O2 0.431691 0.727487 0.659633
O O3 0.586989 0.648588 0.814815
O O4 0.391188 0.607066 0.663443
O O5 0.500000 0.207490 0.500000
O O6 0.559569 0.135563 0.341299
O O7 0.405711 0.206630 0.189705
O O8 0.334677 0.272481 0.947611
O O9 0.500000 0.345993 0.000000
O O10 0.310331 0.392955 0.871690
O O11 0.056509 0.500000 0.363686
O O12 0.173585 0.434986 0.268438
O O13 0.193123 0.427048 0.569826
O O14 0.829208 0.636241 0.950247
O O15 0.000000 0.702624 0.000000
O O16 0.666892 0.000000 0.035148
O O17 0.500000 0.931840 0.000000
O O18 0.659389 0.500000 0.240894
#
# Coordination Sequence:
#
# PCOD9181116 Si02
#       7
#     8   8   8   8   8   8   8
#     4   9  19  35  56  79 104 130 167 214 261 307
#     4  10  19  32  52  76 106 135 168 211 253 298
#     4   8  16  30  51  74  99 128 169 211 247 299
#     4  10  20  33  50  76 109 138 171 211 249 299
#     4   9  14  27  49  71  94 126 172 211 242 290
#     4   9  15  25  46  70  95 130 170 211 245 282
#     4  10  21  35  53  78 104 133 171 213 256 304
#
# _framework density 22.754203
#
# number of rings (size 3 to 8) (size 9 to 14) (size 15 to 20)
#    0.000    2.714    2.857    0.857    0.000    3.714 
#    0.000    0.000    3.143    2.571    0.000    0.000 
#    0.000    0.000    0.000    0.000    0.000    0.000 
#
# Total GULP energy -155916.747161 kJ/mol
# GULP energy per Si atom -5568.455256 kJ/mol
# Density = 2.270241 g / cm^3
# Si number density = 22.754203 Si / 1000 Ang^3
#
#
#
# Elastic Constant Matrix: (Units=GPa)
#
#
# Indices 1 2 3 4 5 6 
#
# 1 39.2662 12.2293 14.8391 0.0000 3.4466 0.0000
# 2 12.2293 237.0989 57.9127 0.0000 3.3130 0.0000
# 3 14.8391 57.9127 150.9782 0.0000 -16.9341 0.0000
# 4 0.0000 0.0000 0.0000 49.1004 0.0000 4.6128
# 5 3.4466 3.3130 -16.9341 0.0000 21.0084 0.0000
# 6 0.0000 0.0000 0.0000 4.6128 0.0000 13.2006
#
#
#
# Elastic Compliance Matrix: (Units=1/GPa)
#
#
# Indices 1 2 3 4 5 6 
#
# 1 0.027497 -0.000513 -0.003301 0.000000 -0.007091 0.000000
# 2 -0.000513 0.004775 -0.002041 0.000000 -0.002314 0.000000
# 3 -0.003301 -0.002041 0.008606 0.000000 0.007800 0.000000
# 4 0.000000 0.000000 0.000000 0.021058 0.000000 -0.007358
# 5 -0.007091 -0.002314 0.007800 0.000000 0.055415 0.000000
# 6 0.000000 0.000000 0.000000 -0.007358 0.000000 0.078325
#
#
# Mechanical properties :
#
#
# Convention : Reuss Voigt Hill
#
# Bulk Modulus (GPa) = 34.28425 66.36727 50.32576
# Shear Modulus (GPa) = 23.03002 39.48604 31.25803
#
# Velocity S-wave (km/s) = 3.18484 4.17025 3.71040
# Velocity P-wave (km/s) = 5.35016 7.24005 6.36563
#
# Compressibility (1/GPa) = 0.02916791
#
# Stress axis : x y z
#
# Youngs Moduli (GPa) = 36.36770 209.42949 116.20371
#
# Poissons Ratio (x) = 0.10740 0.38361
# Poissons Ratio (y) = 0.01865 0.23713
# Poissons Ratio (z) = 0.12006 0.42738
#
# Static dielectric constant tensor:
#      x y z
#    x 1.921850 0.000000 -0.002330 
#    y 0.000000 1.924800 0.000000 
#    z -0.002330 0.000000 1.826360 
# 
# From -- ./inp_files/77638.got.cif
#   From: 2010.05.17/outbox.cif.g08.bks.cpg/sg12_39_cif.got.tgz:77638.got - 2010.06.03 13:09:07.
