data_PCOD9181176
_publ_section_title
;
Structure prediction by ZEFSAII (Michael W. Deem and Ramdas Pophale) SiO2 
 PCOD9181176
Probable space group: C 2/M
;
_chemical_formula_sum "Si O2"
_cell_formula_units_Z 64
_cell_length_a 20.684902
_cell_length_b 25.119185
_cell_length_c 11.134506
_cell_angle_alpha 90.000000
_cell_angle_beta 138.237522
_cell_angle_gamma 90.000000
_cell_volume 3853.301306
_symmetry_space_group_name_H-M "C 2/M"
_symmetry_group_IT_number 12
_symmetry_cell_setting 'monoclinic'
loop_
_space_group_symop_operation_xyz
x,y,z
-x,y,-z
-x,-y,-z
x,-y,z
1/2+x,1/2+y,z
1/2-x,1/2+y,-z
1/2-x,1/2-y,-z
1/2+x,1/2-y,z
loop_
_atom_site_type_symbol
_atom_site_label
_atom_site_fract_x
_atom_site_fract_y
_atom_site_fract_z
Si Si1 0.908254 0.639098 0.440745
Si Si2 0.953051 0.750081 0.570007
Si Si3 0.867520 0.768119 0.029704
Si Si4 0.235624 0.267648 0.340555
Si Si5 0.635529 0.062058 0.956424
Si Si6 0.903425 0.439073 0.613802
Si Si7 0.612908 0.875022 0.168005
Si Si8 0.284004 0.833821 0.049585
O O1 0.946026 0.685969 0.578339
O O2 0.856318 0.592893 0.439313
O O3 0.846354 0.669300 0.257068
O O4 0.000000 0.615372 0.500000
O O5 0.843282 0.770777 0.430869
O O6 0.000000 0.758894 0.500000
O O7 0.021024 0.769275 0.773515
O O8 0.825765 0.710602 0.017069
O O9 0.830884 0.769670 0.840548
O O10 0.818982 0.813206 0.046878
O O11 0.250000 0.250000 0.500000
O O12 0.182016 0.324304 0.265087
O O13 0.636004 0.084404 0.092285
O O14 0.665397 0.000000 0.987576
O O15 0.521078 0.064283 0.762301
O O16 0.698229 0.106271 0.971983
O O17 0.875900 0.500000 0.580524
O O18 0.878275 0.408209 0.698725
O O19 0.500000 0.857661 0.000000
#
# Coordination Sequence:
#
# PCOD9181176 Si02
#       8
#     8   8   8   8   8   8   8   8
#     4  11  18  30  50  74 108 144 180 220 268 330
#     4  11  21  37  57  83 115 151 184 227 279 347
#     4  11  21  35  56  78 115 152 181 227 289 335
#     4  12  25  35  56  86 110 149 197 233 277 343
#     4  10  19  32  52  77 105 145 192 228 272 339
#     4  10  20  32  48  73 107 146 183 225 276 334
#     4  10  22  36  53  73 111 152 183 228 282 331
#     4  11  19  33  52  79 110 146 185 223 280 337
#
# _framework density 16.609134999999998
#
# number of rings (size 3 to 8) (size 9 to 14) (size 15 to 20)
#    0.000    1.250    6.250    1.875    3.500    2.250 
#    0.000    0.000    0.000    0.000    0.000    2.625 
#    0.000    1.000    0.000    0.000    0.000    0.000 
#
# Total GULP energy -178241.871142 kJ/mol
# GULP energy per Si atom -5570.058473 kJ/mol
# Density = 1.657133 g / cm^3
# Si number density = 16.609135 Si / 1000 Ang^3
#
#
#
# Elastic Constant Matrix: (Units=GPa)
#
#
# Indices 1 2 3 4 5 6 
#
# 1 56.4633 41.3852 29.3694 0.0000 0.6377 0.0000
# 2 41.3852 85.2233 6.1779 0.0000 3.8582 0.0000
# 3 29.3694 6.1779 69.4064 0.0000 -4.1248 0.0000
# 4 0.0000 0.0000 0.0000 13.8162 0.0000 4.5238
# 5 0.6377 3.8582 -4.1248 0.0000 21.5855 0.0000
# 6 0.0000 0.0000 0.0000 4.5238 0.0000 15.4496
#
#
#
# Elastic Compliance Matrix: (Units=1/GPa)
#
#
# Indices 1 2 3 4 5 6 
#
# 1 0.038062 -0.017388 -0.014606 0.000000 -0.000808 0.000000
# 2 -0.017388 0.019871 0.005470 0.000000 -0.001993 0.000000
# 3 -0.014606 0.005470 0.020300 0.000000 0.003333 0.000000
# 4 0.000000 0.000000 0.000000 0.080054 0.000000 -0.023441
# 5 -0.000808 -0.001993 0.003333 0.000000 0.047344 0.000000
# 6 0.000000 0.000000 0.000000 -0.023441 0.000000 0.071590
#
#
# Mechanical properties :
#
#
# Convention : Reuss Voigt Hill
#
# Bulk Modulus (GPa) = 39.70511 40.55088 40.12799
# Shear Modulus (GPa) = 14.76396 19.11430 16.93913
#
# Velocity S-wave (km/s) = 2.98469 3.39607 3.19700
# Velocity P-wave (km/s) = 5.98626 6.31233 6.15146
#
# Compressibility (1/GPa) = 0.02518567
#
# Stress axis : x y z
#
# Youngs Moduli (GPa) = 26.27327 50.32431 49.26197
#
# Poissons Ratio (x) = 0.87502 0.71953
# Poissons Ratio (y) = 0.45683 -0.26948
# Poissons Ratio (z) = 0.38375 -0.27530
#
# Static dielectric constant tensor:
#      x y z
#    x 1.636000 0.000000 -0.019380 
#    y 0.000000 1.547710 0.000000 
#    z -0.019380 0.000000 1.609170 
# 
# From -- ./inp_files/170176.got.cif
#   From: 2010.05.17/outbox.cif.g08.bks.cpg/sg12_86_cif.got.tgz:170176.got - 2010.06.03 13:09:07.
