data_PCOD9181612
_publ_section_title
;
Structure prediction by ZEFSAII (Michael W. Deem and Ramdas Pophale) SiO2 
 PCOD9181612
Probable space group: C 2/M
;
_chemical_formula_sum "Si O2"
_cell_formula_units_Z 48
_cell_length_a 24.641766
_cell_length_b 7.350429
_cell_length_c 12.060088
_cell_angle_alpha 90.000000
_cell_angle_beta 70.183925
_cell_angle_gamma 90.000000
_cell_volume 2055.065640
_symmetry_space_group_name_H-M "C 2/M"
_symmetry_group_IT_number 12
_symmetry_cell_setting 'monoclinic'
loop_
_space_group_symop_operation_xyz
x,y,z
-x,y,-z
-x,-y,-z
x,-y,z
1/2+x,1/2+y,z
1/2-x,1/2+y,-z
1/2-x,1/2-y,-z
1/2+x,1/2-y,z
loop_
_atom_site_type_symbol
_atom_site_label
_atom_site_fract_x
_atom_site_fract_y
_atom_site_fract_z
Si Si1 0.778136 0.799017 0.363376
Si Si2 0.114905 0.221685 0.109389
Si Si3 0.876366 0.222981 0.140997
Si Si4 0.443016 0.721103 0.472577
Si Si5 0.518239 0.278744 0.794993
Si Si6 0.666349 0.279044 0.306674
O O1 0.750000 0.750000 0.500000
O O2 0.831874 0.707490 0.264550
O O3 0.726396 0.792763 0.310976
O O4 0.800553 0.000000 0.370330
O O5 0.149547 0.278929 0.194298
O O6 0.047977 0.280285 0.161290
O O7 0.114732 0.000000 0.112636
O O8 0.138411 0.279633 0.973541
O O9 0.941051 0.275098 0.131601
O O10 0.874771 0.000000 0.140578
O O11 0.500000 0.778034 0.500000
O O12 0.442559 0.500000 0.474570
O O13 0.450491 0.776849 0.340580
O O14 0.385147 0.778408 0.574899
O O15 0.516296 0.500000 0.797389
O O16 0.669253 0.500000 0.307394
#
# Coordination Sequence:
#
# PCOD9181612 Si02
#       6
#     8   8   8   8   8   8
#     4  11  23  39  56  75 102 137 176 218 260 307
#     4   9  16  27  46  76 109 136 166 209 261 312
#     4   9  18  30  46  72 105 138 173 214 259 303
#     4   9  14  23  42  73 106 132 166 212 257 296
#     4   9  14  23  42  70 105 137 165 210 264 305
#     4  10  19  32  53  81 110 138 170 211 257 308
#
# _framework density 23.356915999999998
#
# number of rings (size 3 to 8) (size 9 to 14) (size 15 to 20)
#    0.000    2.500    1.667    2.000    0.000    5.333 
#    0.000    0.000    0.000    1.500    0.000    0.000 
#    0.000    8.667    0.000    0.000    0.000    0.000 
#
# Total GULP energy -134076.595125 kJ/mol
# GULP energy per Si atom -5586.524797 kJ/mol
# Density = 2.330375 g / cm^3
# Si number density = 23.356916 Si / 1000 Ang^3
#
#
#
# Elastic Constant Matrix: (Units=GPa)
#
#
# Indices 1 2 3 4 5 6 
#
# 1 92.4256 -14.0153 36.5565 0.0000 8.0197 0.0000
# 2 -14.0153 80.9658 4.1197 0.0000 -2.0256 0.0000
# 3 36.5565 4.1197 148.8199 0.0000 17.4438 0.0000
# 4 0.0000 0.0000 0.0000 -4.6854 0.0000 2.1286
# 5 8.0197 -2.0256 17.4438 0.0000 34.7295 0.0000
# 6 0.0000 0.0000 0.0000 2.1286 0.0000 1.9796
#
#
#
# Elastic Compliance Matrix: (Units=1/GPa)
#
#
# Indices 1 2 3 4 5 6 
#
# 1 0.012449 0.002275 -0.002975 0.000000 -0.001248 0.000000
# 2 0.002275 0.012814 -0.000998 0.000000 0.000723 0.000000
# 3 -0.002975 -0.000998 0.007867 0.000000 -0.003323 0.000000
# 4 0.000000 0.000000 0.000000 -0.143385 0.000000 0.154180
# 5 -0.001248 0.000723 -0.003323 0.000000 0.030793 0.000000
# 6 0.000000 0.000000 0.000000 0.154180 0.000000 0.339376
#
#
# Mechanical properties :
#
#
# Convention : Reuss Voigt Hill
#
# Bulk Modulus (GPa) = 33.63115 41.72590 37.67853
# Shear Modulus (GPa) = 18.30014 26.10810 22.20412
#
# Velocity S-wave (km/s) = 2.80214 3.34696 3.08660
# Velocity P-wave (km/s) = 4.98993 5.73057 5.37303
#
# Compressibility (1/GPa) = 0.02973434
#
# Stress axis : x y z
#
# Youngs Moduli (GPa) = 80.32518 78.04196 127.10686
#
# Poissons Ratio (x) = -0.17756 0.37812
# Poissons Ratio (y) = -0.18275 0.12690
# Poissons Ratio (z) = 0.23895 0.07792
#
# Static dielectric constant tensor:
#      x y z
#    x 1.817480 0.000000 -0.010700 
#    y 0.000000 1.947110 0.000000 
#    z -0.010700 0.000000 1.879120 
# 
# From -- ./inp_files/164283.got.cif
#   From: 2010.05.17/outbox.cif.g08.bks.cpg/sg12_83_cif.got.tgz:164283.got - 2010.06.03 13:09:07.
