data_PCOD9181624
_publ_section_title
;
Structure prediction by ZEFSAII (Michael W. Deem and Ramdas Pophale) SiO2 
 PCOD9181624
Probable space group: C 2/M
;
_chemical_formula_sum "Si O2"
_cell_formula_units_Z 40
_cell_length_a 20.656423
_cell_length_b 8.777838
_cell_length_c 12.928654
_cell_angle_alpha 90.000000
_cell_angle_beta 103.173455
_cell_angle_gamma 90.000000
_cell_volume 2282.518419
_symmetry_space_group_name_H-M "C 2/M"
_symmetry_group_IT_number 12
_symmetry_cell_setting 'monoclinic'
loop_
_space_group_symop_operation_xyz
x,y,z
-x,y,-z
-x,-y,-z
x,-y,z
1/2+x,1/2+y,z
1/2-x,1/2+y,-z
1/2-x,1/2-y,-z
1/2+x,1/2-y,z
loop_
_atom_site_type_symbol
_atom_site_label
_atom_site_fract_x
_atom_site_fract_y
_atom_site_fract_z
Si Si1 0.547291 0.183728 0.777157
Si Si2 0.075060 0.181058 0.568648
Si Si3 0.919888 0.324572 0.987199
Si Si4 0.321055 0.181818 0.555462
Si Si5 0.598953 0.319325 0.231369
O O1 0.578317 0.250174 0.684569
O O2 0.587675 0.224103 0.896487
O O3 0.472871 0.250722 0.762207
O O4 0.542655 0.000000 0.771435
O O5 0.125632 0.262251 0.509864
O O6 0.000000 0.204876 0.500000
O O7 0.087659 0.000000 0.574468
O O8 0.898092 0.500000 0.966828
O O9 0.890585 0.223688 0.884932
O O10 0.000000 0.323330 0.000000
O O11 0.250000 0.250000 0.500000
O O12 0.346575 0.245633 0.674399
O O13 0.318596 0.000000 0.557199
O O14 0.597225 0.500000 0.245091
#
# Coordination Sequence:
#
# PCOD9181624 Si02
#       5
#     8   8   8   8   8
#     4  10  19  32  53  81 112 147 186 229 279 329
#     4  11  22  36  57  85 116 147 186 233 280 333
#     4   8  16  30  48  75 109 144 183 226 275 328
#     4  12  25  41  60  81 112 150 190 231 280 336
#     4  11  20  32  52  80 112 146 186 229 278 331
#
# _framework density 17.524504
#
# number of rings (size 3 to 8) (size 9 to 14) (size 15 to 20)
#    0.000    1.600    2.000    6.000    0.000    5.200 
#    0.000    0.000    0.000    1.200    0.000    0.000 
#    0.000    0.000    0.000    0.000    0.000    0.000 
#
# Total GULP energy -111679.079306 kJ/mol
# GULP energy per Si atom -5583.953965 kJ/mol
# Density = 1.748462 g / cm^3
# Si number density = 17.524504 Si / 1000 Ang^3
#
#
#
# Elastic Constant Matrix: (Units=GPa)
#
#
# Indices 1 2 3 4 5 6 
#
# 1 52.9194 51.2159 45.1795 0.0000 15.0312 0.0000
# 2 51.2159 139.8390 82.5463 0.0000 9.8737 0.0000
# 3 45.1795 82.5463 167.5502 0.0000 4.7931 0.0000
# 4 0.0000 0.0000 0.0000 29.7104 0.0000 -0.4024
# 5 15.0312 9.8737 4.7931 0.0000 19.2017 0.0000
# 6 0.0000 0.0000 0.0000 -0.4024 0.0000 23.7248
#
#
#
# Elastic Compliance Matrix: (Units=1/GPa)
#
#
# Indices 1 2 3 4 5 6 
#
# 1 0.039881 -0.009759 -0.005234 0.000000 -0.024894 0.000000
# 2 -0.009759 0.012782 -0.003723 0.000000 0.001996 0.000000
# 3 -0.005234 -0.003723 0.009107 0.000000 0.003738 0.000000
# 4 0.000000 0.000000 0.000000 0.033666 0.000000 0.000571
# 5 -0.024894 0.001996 0.003738 0.000000 0.069607 0.000000
# 6 0.000000 0.000000 0.000000 0.000571 0.000000 0.042160
#
#
# Mechanical properties :
#
#
# Convention : Reuss Voigt Hill
#
# Bulk Modulus (GPa) = 41.08750 79.79909 60.44330
# Shear Modulus (GPa) = 19.78274 26.61851 23.20062
#
# Velocity S-wave (km/s) = 3.36350 3.90157 3.64249
# Velocity P-wave (km/s) = 6.21134 8.11979 7.22882
#
# Compressibility (1/GPa) = 0.02433830
#
# Stress axis : x y z
#
# Youngs Moduli (GPa) = 25.07477 78.23503 109.80871
#
# Poissons Ratio (x) = 0.76351 0.57469
# Poissons Ratio (y) = 0.24471 0.40880
# Poissons Ratio (z) = 0.13123 0.29125
#
# Static dielectric constant tensor:
#      x y z
#    x 1.567630 0.000000 -0.009980 
#    y 0.000000 1.580890 0.000000 
#    z -0.009980 0.000000 1.624420 
# 
# From -- ./inp_files/151965.got.cif
#   From: 2010.05.17/outbox.cif.g08.bks.cpg/sg12_76_cif.got.tgz:151965.got - 2010.06.03 13:09:07.
