data_PCOD9181672
_publ_section_title
;
Structure prediction by ZEFSAII (Michael W. Deem and Ramdas Pophale) SiO2 
 PCOD9181672
Probable space group: C 2/M
;
_chemical_formula_sum "Si O2"
_cell_formula_units_Z 56
_cell_length_a 14.920824
_cell_length_b 13.534608
_cell_length_c 28.637827
_cell_angle_alpha 90.000000
_cell_angle_beta 151.330132
_cell_angle_gamma 90.000000
_cell_volume 2774.626447
_symmetry_space_group_name_H-M "C 2/M"
_symmetry_group_IT_number 12
_symmetry_cell_setting 'monoclinic'
loop_
_space_group_symop_operation_xyz
x,y,z
-x,y,-z
-x,-y,-z
x,-y,z
1/2+x,1/2+y,z
1/2-x,1/2+y,-z
1/2-x,1/2-y,-z
1/2+x,1/2-y,z
loop_
_atom_site_type_symbol
_atom_site_label
_atom_site_fract_x
_atom_site_fract_y
_atom_site_fract_z
Si Si1 0.492580 0.693996 0.631775
Si Si2 0.385598 0.884932 0.108278
Si Si3 0.831475 0.390320 0.845905
Si Si4 0.330711 0.892450 0.254745
Si Si5 0.113596 0.389185 0.299676
Si Si6 0.866294 0.749712 0.476863
Si Si7 0.495759 0.308715 0.946829
O O1 0.646616 0.629798 0.729792
O O2 0.571441 0.805766 0.672344
O O3 0.294437 0.688791 0.568731
O O4 0.461657 0.685535 0.562106
O O5 0.492958 0.888559 0.108824
O O6 0.537304 0.850847 0.215862
O O7 0.332997 0.000000 0.095825
O O8 0.210013 0.812996 0.029469
O O9 0.817780 0.500000 0.861194
O O10 0.880218 0.294550 0.899325
O O11 0.435807 0.893368 0.252951
O O12 0.119559 0.866792 0.145218
O O13 0.350555 0.000000 0.285656
O O14 0.185621 0.500000 0.325517
O O15 0.258613 0.323380 0.393194
O O16 0.000000 0.695824 0.500000
O O17 0.500000 0.356655 0.000000
#
# Coordination Sequence:
#
# PCOD9181672 Si02
#       7
#     8   8   8   8   8   8   8
#     4   9  20  36  54  80 105 143 183 218 280 328
#     4  10  19  32  53  83 112 139 176 224 275 326
#     4  10  22  38  53  74 108 148 187 221 261 320
#     4   9  17  31  51  77 108 137 172 221 275 325
#     4   9  17  28  47  78 109 136 168 215 277 328
#     4  10  19  33  54  79 107 138 178 228 274 331
#     4  11  20  32  54  81 108 144 178 220 271 321
#
# _framework density 20.182896
#
# number of rings (size 3 to 8) (size 9 to 14) (size 15 to 20)
#    0.000    2.286    1.429    1.714    0.000    1.714 
#    0.000    2.143    0.000    1.714    0.000    0.000 
#    0.000    0.000    0.000    0.000    0.000    0.000 
#
# Total GULP energy -155944.552821 kJ/mol
# GULP energy per Si atom -5569.448315 kJ/mol
# Density = 2.013696 g / cm^3
# Si number density = 20.182896 Si / 1000 Ang^3
#
#
#
# Elastic Constant Matrix: (Units=GPa)
#
#
# Indices 1 2 3 4 5 6 
#
# 1 70.5491 -9.9564 15.3729 0.0001 6.2513 0.0000
# 2 -9.9564 60.3558 8.8442 -0.0001 3.7925 0.0000
# 3 15.3729 8.8442 72.6759 0.0007 -0.0186 0.0001
# 4 0.0001 -0.0001 0.0007 5.3280 0.0001 -2.3766
# 5 6.2513 3.7925 -0.0186 0.0001 18.5175 0.0000
# 6 0.0000 0.0000 0.0001 -2.3766 0.0000 12.2596
#
#
#
# Elastic Compliance Matrix: (Units=1/GPa)
#
#
# Indices 1 2 3 4 5 6 
#
# 1 0.016065 0.003600 -0.003838 0.000000 -0.006165 0.000000
# 2 0.003600 0.017900 -0.002941 0.000001 -0.004884 0.000000
# 3 -0.003838 -0.002941 0.014930 -0.000002 0.001913 -0.000001
# 4 0.000000 0.000001 -0.000002 0.205456 -0.000002 0.039830
# 5 -0.006165 -0.004884 0.001913 -0.000002 0.057086 0.000000
# 6 0.000000 0.000000 -0.000001 0.039830 0.000000 0.089290
#
#
# Mechanical properties :
#
#
# Convention : Reuss Voigt Hill
#
# Bulk Modulus (GPa) = 23.50893 25.78915 24.64904
# Shear Modulus (GPa) = 11.86903 19.84235 15.85569
#
# Velocity S-wave (km/s) = 2.42765 3.13889 2.80590
# Velocity P-wave (km/s) = 4.41942 5.09336 4.76831
#
# Compressibility (1/GPa) = 0.04253702
#
# Stress axis : x y z
#
# Youngs Moduli (GPa) = 62.24679 55.86549 66.97954
#
# Poissons Ratio (x) = -0.20111 0.25706
# Poissons Ratio (y) = -0.22408 0.19699
# Poissons Ratio (z) = 0.23889 0.16430
#
# Static dielectric constant tensor:
#      x y z
#    x 1.738110 0.000000 0.038670 
#    y 0.000000 1.770880 0.000000 
#    z 0.038670 0.000000 1.734490 
# 
# From -- ./inp_files/361445.got.cif
#   From: 2010.05.17/outbox.cif.g08.bks.cpg/sg12_181_cif.got.tgz:361445.got - 2010.06.03 13:09:07.
