data_PCOD9181455
_publ_section_title
;
Structure prediction by ZEFSAII (Michael W. Deem and Ramdas Pophale) SiO2 
 PCOD9181455
Probable space group: C 2/M
;
_chemical_formula_sum "Si O2"
_cell_formula_units_Z 64
_cell_length_a 16.330565
_cell_length_b 7.463484
_cell_length_c 29.196607
_cell_angle_alpha 90.000000
_cell_angle_beta 138.180623
_cell_angle_gamma 90.000000
_cell_volume 2372.797777
_symmetry_space_group_name_H-M "C 2/M"
_symmetry_group_IT_number 12
_symmetry_cell_setting 'monoclinic'
loop_
_space_group_symop_operation_xyz
x,y,z
-x,y,-z
-x,-y,-z
x,-y,z
1/2+x,1/2+y,z
1/2-x,1/2+y,-z
1/2-x,1/2-y,-z
1/2+x,1/2-y,z
loop_
_atom_site_type_symbol
_atom_site_label
_atom_site_fract_x
_atom_site_fract_y
_atom_site_fract_z
Si Si1 0.385845 0.796987 0.170289
Si Si2 0.931004 0.205564 0.085851
Si Si3 0.509647 0.793268 0.453656
Si Si4 0.652685 0.218786 0.291127
Si Si5 0.367380 0.280166 0.961811
Si Si6 0.542121 0.784376 0.664867
Si Si7 0.802503 0.289060 0.793160
Si Si8 0.771696 0.716156 0.581397
O O1 0.411489 0.803948 0.125682
O O2 0.512624 0.717822 0.241398
O O3 0.249968 0.715741 0.115872
O O4 0.378135 0.000000 0.184828
O O5 0.076835 0.207921 0.133414
O O6 0.898407 0.000000 0.080636
O O7 0.859705 0.274596 0.011825
O O8 0.500000 0.707375 0.500000
O O9 0.445436 0.713125 0.382194
O O10 0.656772 0.790872 0.506008
O O11 0.471179 0.000000 0.441263
O O12 0.689124 0.280501 0.255992
O O13 0.737708 0.269319 0.368846
O O14 0.648563 0.000000 0.288625
O O15 0.364677 0.500000 0.960066
O O16 0.500000 0.221685 0.000000
O O17 0.659811 0.740257 0.745014
O O18 0.407898 0.724293 0.624607
O O19 0.537151 0.000000 0.660882
O O20 0.824021 0.500000 0.802729
O O21 0.766919 0.500000 0.576242
#
# Coordination Sequence:
#
# PCOD9181455 Si02
#       8
#     8   8   8   8   8   8   8   8
#     4   9  17  32  53  74 100 133 170 211 252 300
#     4  10  19  32  53  78 103 132 169 213 256 299
#     4  10  21  36  53  75 105 138 169 206 255 304
#     4   8  16  31  51  74  97 127 169 213 250 288
#     4   9  18  31  50  77 104 134 173 213 253 298
#     4  10  21  35  52  77 106 134 167 210 256 299
#     4  10  20  35  55  76 100 133 171 208 251 304
#     4  10  20  34  53  77 103 132 170 211 250 297
#
# _framework density 26.972377999999999
#
# number of rings (size 3 to 8) (size 9 to 14) (size 15 to 20)
#    0.000    2.500    0.000    3.000    0.000    2.250 
#    0.000    6.875    0.000    6.375    0.000    0.000 
#    0.000    0.000    0.000    0.000    0.000    0.000 
#
# Total GULP energy -179040.559834 kJ/mol
# GULP energy per Si atom -5595.017495 kJ/mol
# Density = 2.691099 g / cm^3
# Si number density = 26.972378 Si / 1000 Ang^3
#
#
#
# Elastic Constant Matrix: (Units=GPa)
#
#
# Indices 1 2 3 4 5 6 
#
# 1 79.8070 1.9301 6.3659 0.0000 20.8048 0.0000
# 2 1.9301 106.0011 0.0709 -0.0001 -0.4203 0.0002
# 3 6.3659 0.0709 161.3335 0.0000 21.8686 0.0000
# 4 0.0000 -0.0001 0.0000 13.8096 0.0000 7.3424
# 5 20.8048 -0.4203 21.8686 0.0000 58.6942 0.0000
# 6 0.0000 0.0002 0.0000 7.3424 0.0000 13.3178
#
#
#
# Elastic Compliance Matrix: (Units=1/GPa)
#
#
# Indices 1 2 3 4 5 6 
#
# 1 0.013816 -0.000271 0.000125 0.000000 -0.004946 0.000000
# 2 -0.000271 0.009439 -0.000016 0.000000 0.000170 0.000000
# 3 0.000125 -0.000016 0.006529 0.000000 -0.002477 0.000000
# 4 0.000000 0.000000 0.000000 0.102442 0.000000 -0.056479
# 5 -0.004946 0.000170 -0.002477 0.000000 0.019715 0.000000
# 6 0.000000 0.000000 0.000000 -0.056479 0.000000 0.106225
#
#
# Mechanical properties :
#
#
# Convention : Reuss Voigt Hill
#
# Bulk Modulus (GPa) = 33.94421 40.43060 37.18741
# Shear Modulus (GPa) = 18.63503 39.74930 29.19216
#
# Velocity S-wave (km/s) = 2.63134 3.84305 3.29340
# Velocity P-wave (km/s) = 4.67376 5.89188 5.31781
#
# Compressibility (1/GPa) = 0.02946011
#
# Stress axis : x y z
#
# Youngs Moduli (GPa) = 72.37912 105.93793 153.15840
#
# Poissons Ratio (x) = 0.02874 -0.01920
# Poissons Ratio (y) = 0.01963 0.00252
# Poissons Ratio (z) = -0.00907 0.00174
#
# Static dielectric constant tensor:
#      x y z
#    x 2.249060 0.000000 0.016850 
#    y 0.000000 1.975030 0.000000 
#    z 0.016850 0.000000 2.046880 
# 
# From -- ./inp_files/378285.got.cif
#   From: 2010.05.17/outbox.cif.g08.bks.cpg/sg12_190_cif.got.tgz:378285.got - 2010.06.03 13:09:07.
