data_PCOD9181088
_publ_section_title
;
Structure prediction by ZEFSAII (Michael W. Deem and Ramdas Pophale) SiO2 
 PCOD9181088
Probable space group: C 2/M
;
_chemical_formula_sum "Si O2"
_cell_formula_units_Z 56
_cell_length_a 27.915701
_cell_length_b 13.651053
_cell_length_c 12.522176
_cell_angle_alpha 90.000000
_cell_angle_beta 141.895383
_cell_angle_gamma 90.000000
_cell_volume 2944.757511
_symmetry_space_group_name_H-M "C 2/M"
_symmetry_group_IT_number 12
_symmetry_cell_setting 'monoclinic'
loop_
_space_group_symop_operation_xyz
x,y,z
-x,y,-z
-x,-y,-z
x,-y,z
1/2+x,1/2+y,z
1/2-x,1/2+y,-z
1/2-x,1/2-y,-z
1/2+x,1/2-y,z
loop_
_atom_site_type_symbol
_atom_site_label
_atom_site_fract_x
_atom_site_fract_y
_atom_site_fract_z
Si Si1 0.669681 0.274741 0.669268
Si Si2 0.927344 0.317807 0.310392
Si Si3 0.594368 0.887840 0.268327
Si Si4 0.822093 0.609108 0.946310
Si Si5 0.522183 0.737357 0.285980
Si Si6 0.249445 0.887348 0.331507
Si Si7 0.397196 0.260221 0.910221
O O1 0.623626 0.240192 0.692866
O O2 0.733740 0.355951 0.805937
O O3 0.604546 0.306151 0.467680
O O4 0.715453 0.181309 0.700234
O O5 0.000000 0.366420 0.500000
O O6 0.968842 0.246773 0.296867
O O7 0.870277 0.383900 0.140502
O O8 0.544681 0.846159 0.280968
O O9 0.684383 0.885423 0.461541
O O10 0.584616 0.808983 0.157834
O O11 0.573867 0.000000 0.206901
O O12 0.825726 0.500000 0.908841
O O13 0.860903 0.684910 0.932782
O O14 0.471550 0.693375 0.100846
O O15 0.169190 0.839499 0.229219
O O16 0.239453 0.000000 0.280310
#
# Coordination Sequence:
#
# PCOD9181088 Si02
#       7
#     8   8   8   8   8   8   8
#     4   9  18  35  53  71 100 133 164 202 246 290
#     4   9  18  33  52  72  99 132 162 200 248 290
#     4  10  19  32  52  76 102 131 162 200 249 300
#     4  10  20  32  50  77 103 129 164 201 242 298
#     4   9  19  32  50  73  99 131 166 202 242 290
#     4   9  19  34  52  75  98 127 170 207 239 291
#     4  10  19  33  52  73 102 132 160 203 252 291
#
# _framework density 19.016846000000001
#
# number of rings (size 3 to 8) (size 9 to 14) (size 15 to 20)
#    0.000    2.571    0.000    1.714    0.000    4.286 
#    0.000    5.000    0.000    5.571    0.000    0.000 
#    0.000    0.000    0.000    0.000    0.000    0.000 
#
# Total GULP energy -156000.002272 kJ/mol
# GULP energy per Si atom -5571.428653 kJ/mol
# Density = 1.897356 g / cm^3
# Si number density = 19.016846 Si / 1000 Ang^3
#
#
#
# Elastic Constant Matrix: (Units=GPa)
#
#
# Indices 1 2 3 4 5 6 
#
# 1 60.0912 -5.2398 23.0505 0.0000 0.7562 0.0000
# 2 -5.2398 24.9545 30.3247 0.0000 5.9918 0.0000
# 3 23.0505 30.3247 111.6921 0.0000 15.4738 0.0000
# 4 0.0000 0.0000 0.0000 6.7372 0.0000 -3.2716
# 5 0.7562 5.9918 15.4738 0.0000 30.4739 0.0000
# 6 0.0000 0.0000 0.0000 -3.2716 0.0000 8.0428
#
#
#
# Elastic Compliance Matrix: (Units=1/GPa)
#
#
# Indices 1 2 3 4 5 6 
#
# 1 0.021108 0.014418 -0.008396 0.000000 0.000905 0.000000
# 2 0.014418 0.070059 -0.021555 0.000000 -0.003188 0.000000
# 3 -0.008396 -0.021555 0.017127 0.000000 -0.004250 0.000000
# 4 0.000000 0.000000 0.000000 0.184968 0.000000 0.075241
# 5 0.000905 -0.003188 -0.004250 0.000000 0.035577 0.000000
# 6 0.000000 0.000000 0.000000 0.075241 0.000000 0.154941
#
#
# Mechanical properties :
#
#
# Convention : Reuss Voigt Hill
#
# Bulk Modulus (GPa) = 12.94879 32.55650 22.75264
# Shear Modulus (GPa) = 9.24916 18.95761 14.10338
#
# Velocity S-wave (km/s) = 2.20776 3.16077 2.72623
# Velocity P-wave (km/s) = 3.65005 5.52066 4.67977
#
# Compressibility (1/GPa) = 0.07722731
#
# Stress axis : x y z
#
# Youngs Moduli (GPa) = 47.37595 14.27359 58.38748
#
# Poissons Ratio (x) = -0.20579 0.49021
# Poissons Ratio (y) = -0.68304 1.25855
# Poissons Ratio (z) = 0.39776 0.30767
#
# Static dielectric constant tensor:
#      x y z
#    x 1.670880 0.000000 0.005500 
#    y 0.000000 1.600880 0.000000 
#    z 0.005500 0.000000 1.737600 
# 
# From -- ./inp_files/183525.got.cif
#   From: 2010.05.17/outbox.cif.g08.bks.cpg/sg12_92_cif.got.tgz:183525.got - 2010.06.03 13:09:07.
