data_PCOD9181446
_publ_section_title
;
Structure prediction by ZEFSAII (Michael W. Deem and Ramdas Pophale) SiO2 
 PCOD9181446
Probable space group: C 2/M
;
_chemical_formula_sum "Si O2"
_cell_formula_units_Z 56
_cell_length_a 22.399902
_cell_length_b 14.838455
_cell_length_c 7.888807
_cell_angle_alpha 90.000000
_cell_angle_beta 114.488856
_cell_angle_gamma 90.000000
_cell_volume 2386.203769
_symmetry_space_group_name_H-M "C 2/M"
_symmetry_group_IT_number 12
_symmetry_cell_setting 'monoclinic'
loop_
_space_group_symop_operation_xyz
x,y,z
-x,y,-z
-x,-y,-z
x,-y,z
1/2+x,1/2+y,z
1/2-x,1/2+y,-z
1/2-x,1/2-y,-z
1/2+x,1/2-y,z
loop_
_atom_site_type_symbol
_atom_site_label
_atom_site_fract_x
_atom_site_fract_y
_atom_site_fract_z
Si Si1 0.315218 0.603537 0.783399
Si Si2 0.428416 0.714270 0.074149
Si Si3 0.680394 0.104135 0.497501
Si Si4 0.108268 0.599540 0.051361
Si Si5 0.646612 0.280000 0.653606
Si Si6 0.960852 0.103326 0.634203
Si Si7 0.252466 0.101108 0.928129
O O1 0.336816 0.500000 0.788669
O O2 0.258603 0.624323 0.580696
O O3 0.376870 0.667683 0.885682
O O4 0.274704 0.607520 0.913817
O O5 0.392357 0.716731 0.214896
O O6 0.493697 0.657803 0.182926
O O7 0.438602 0.817177 0.034851
O O8 0.644037 0.106826 0.275152
O O9 0.650030 0.181156 0.579125
O O10 0.675197 0.000000 0.554026
O O11 0.079017 0.500000 0.999599
O O12 0.169696 0.608071 0.994282
O O13 0.606979 0.346485 0.482818
O O14 0.717457 0.321354 0.780171
O O15 0.000000 0.102647 0.500000
O O16 0.952611 0.000000 0.675232
O O17 0.234458 0.000000 0.843403
#
# Coordination Sequence:
#
# PCOD9181446 Si02
#       7
#     8   8   8   8   8   8   8
#     4   9  17  30  50  77 106 133 163 202 249 301
#     4  10  19  32  53  78 102 132 168 205 248 296
#     4  10  21  35  50  71 101 136 171 208 252 298
#     4  10  21  35  50  71 101 136 171 208 252 298
#     4  10  19  32  53  78 102 132 168 205 248 296
#     4   9  18  34  56  81 106 130 161 203 248 297
#     4   9  17  30  50  77 106 133 163 202 249 301
#
# _framework density 23.468239000000001
#
# number of rings (size 3 to 8) (size 9 to 14) (size 15 to 20)
#    0.000    2.429    0.000    2.571    0.000    9.714 
#    0.000    1.429    0.000    7.714    0.000    0.000 
#    0.000    0.000    0.000    0.000    0.000    0.000 
#
# Total GULP energy -156752.015824 kJ/mol
# GULP energy per Si atom -5598.286279 kJ/mol
# Density = 2.341482 g / cm^3
# Si number density = 23.468239 Si / 1000 Ang^3
#
#
#
# Elastic Constant Matrix: (Units=GPa)
#
#
# Indices 1 2 3 4 5 6 
#
# 1 75.1116 29.9879 8.8468 0.0000 -6.8273 0.0000
# 2 29.9879 185.2745 68.1754 0.0000 25.0395 0.0000
# 3 8.8468 68.1754 81.9601 0.0000 2.0273 0.0000
# 4 0.0000 0.0000 0.0000 47.5301 0.0000 12.4034
# 5 -6.8273 25.0395 2.0273 0.0000 28.2062 0.0000
# 6 0.0000 0.0000 0.0000 12.4034 0.0000 -9.5058
#
#
#
# Elastic Compliance Matrix: (Units=1/GPa)
#
#
# Indices 1 2 3 4 5 6 
#
# 1 0.015392 -0.004014 0.001499 0.000000 0.007181 0.000000
# 2 -0.004014 0.010204 -0.007821 0.000000 -0.009468 0.000000
# 3 0.001499 -0.007821 0.018397 0.000000 0.005983 0.000000
# 4 0.000000 0.000000 0.000000 0.015695 0.000000 0.020479
# 5 0.007181 -0.009468 0.005983 0.000000 0.045166 0.000000
# 6 0.000000 0.000000 0.000000 0.020479 0.000000 -0.078477
#
#
# Mechanical properties :
#
#
# Convention : Reuss Voigt Hill
#
# Bulk Modulus (GPa) = 42.87539 61.81848 52.34694
# Shear Modulus (GPa) = 91.20541 28.93518 60.07030
#
# Velocity S-wave (km/s) = 6.24081 3.51515 5.06478
# Velocity P-wave (km/s) = 8.38090 6.54779 7.52041
#
# Compressibility (1/GPa) = 0.02332340
#
# Stress axis : x y z
#
# Youngs Moduli (GPa) = 64.96888 97.99692 54.35791
#
# Poissons Ratio (x) = 0.39331 -0.08151
# Poissons Ratio (y) = 0.26075 0.42512
# Poissons Ratio (z) = -0.09742 0.76641
#
# Static dielectric constant tensor:
#      x y z
#    x 1.889660 0.000000 -0.051820 
#    y 0.000000 1.862250 0.000000 
#    z -0.051820 0.000000 1.883980 
# 
# From -- ./inp_files/96740.got.cif
#   From: 2010.05.17/outbox.cif.g08.bks.cpg/sg12_49_cif.got.tgz:96740.got - 2010.06.03 13:09:07.
