data_PCOD9181644
_publ_section_title
;
Structure prediction by ZEFSAII (Michael W. Deem and Ramdas Pophale) SiO2 
 PCOD9181644
Probable space group: C 2/M
;
_chemical_formula_sum "Si O2"
_cell_formula_units_Z 64
_cell_length_a 18.313108
_cell_length_b 23.154346
_cell_length_c 16.102725
_cell_angle_alpha 90.000000
_cell_angle_beta 148.937390
_cell_angle_gamma 90.000000
_cell_volume 3523.077020
_symmetry_space_group_name_H-M "C 2/M"
_symmetry_group_IT_number 12
_symmetry_cell_setting 'monoclinic'
loop_
_space_group_symop_operation_xyz
x,y,z
-x,y,-z
-x,-y,-z
x,-y,z
1/2+x,1/2+y,z
1/2-x,1/2+y,-z
1/2-x,1/2-y,-z
1/2+x,1/2-y,z
loop_
_atom_site_type_symbol
_atom_site_label
_atom_site_fract_x
_atom_site_fract_y
_atom_site_fract_z
Si Si1 0.880615 0.708435 0.700724
Si Si2 0.028024 0.934384 0.171829
Si Si3 0.645376 0.934679 0.564422
Si Si4 0.563200 0.725786 0.653803
Si Si5 0.080283 0.826955 0.337528
Si Si6 0.666818 0.748694 0.168569
Si Si7 0.231065 0.877776 0.167824
Si Si8 0.465214 0.846669 0.281723
O O1 0.950032 0.771354 0.750190
O O2 0.746306 0.685881 0.516307
O O3 0.809693 0.718800 0.721265
O O4 0.000059 0.664946 0.781086
O O5 0.185633 0.935226 0.288283
O O6 0.041607 0.886139 0.256053
O O7 0.993787 0.000000 0.164840
O O8 0.909275 0.912639 0.991637
O O9 0.650866 0.911697 0.664118
O O10 0.570015 0.892969 0.425395
O O11 0.593017 0.000000 0.506003
O O12 0.500000 0.723322 0.500000
O O13 0.504946 0.678826 0.660083
O O14 0.731834 0.724977 0.803208
O O15 0.514330 0.786146 0.648474
O O16 0.700125 0.680283 0.191207
O O17 0.500000 0.755354 0.000000
O O18 0.306208 0.862915 0.153336
#
# Coordination Sequence:
#
# PCOD9181644 Si02
#       8
#     8   8   8   8   8   8   8   8
#     4  10  19  33  56  80 108 144 177 225 279 323
#     4  11  23  38  55  78 110 150 188 222 267 321
#     4  11  21  34  52  75 105 146 191 225 260 314
#     4  10  19  32  53  82 104 137 177 223 276 328
#     4  10  19  33  57  78 107 141 185 225 271 324
#     4  11  21  33  53  81 112 140 175 219 277 331
#     4  11  22  34  52  77 114 145 181 222 267 319
#     4  10  21  34  52  78 110 142 184 224 270 327
#
# _framework density 18.165939000000002
#
# number of rings (size 3 to 8) (size 9 to 14) (size 15 to 20)
#    0.000    1.500    2.500    4.875    1.750    3.500 
#    0.000    3.750    0.000    0.375    0.000    0.000 
#    0.000    2.500    0.000    0.000    0.000    0.000 
#
# Total GULP energy -178258.365800 kJ/mol
# GULP energy per Si atom -5570.573931 kJ/mol
# Density = 1.812459 g / cm^3
# Si number density = 18.165939 Si / 1000 Ang^3
#
#
#
# Elastic Constant Matrix: (Units=GPa)
#
#
# Indices 1 2 3 4 5 6 
#
# 1 102.8324 40.7722 9.5348 0.0000 10.5678 0.0000
# 2 40.7722 96.1006 31.1785 0.0000 -5.5031 0.0000
# 3 9.5348 31.1785 52.4130 0.0000 7.9194 0.0000
# 4 0.0000 0.0000 0.0000 19.6863 0.0000 1.9518
# 5 10.5678 -5.5031 7.9194 0.0000 23.5771 0.0000
# 6 0.0000 0.0000 0.0000 1.9518 0.0000 18.2708
#
#
#
# Elastic Compliance Matrix: (Units=1/GPa)
#
#
# Indices 1 2 3 4 5 6 
#
# 1 0.013119 -0.007067 0.003113 0.000000 -0.008576 0.000000
# 2 -0.007067 0.017526 -0.010784 0.000000 0.010881 0.000000
# 3 0.003113 -0.010784 0.026883 0.000000 -0.012942 0.000000
# 4 0.000000 0.000000 0.000000 0.051340 0.000000 -0.005484
# 5 -0.008576 0.010881 -0.012942 0.000000 0.053145 0.000000
# 6 0.000000 0.000000 0.000000 -0.005484 0.000000 0.055318
#
#
# Mechanical properties :
#
#
# Convention : Reuss Voigt Hill
#
# Bulk Modulus (GPa) = 35.64718 46.03520 40.84119
# Shear Modulus (GPa) = 19.51919 23.63088 21.57503
#
# Velocity S-wave (km/s) = 3.28150 3.61062 3.44999
# Velocity P-wave (km/s) = 5.83296 6.54054 6.19685
#
# Compressibility (1/GPa) = 0.02805271
#
# Stress axis : x y z
#
# Youngs Moduli (GPa) = 76.22390 57.05867 37.19773
#
# Poissons Ratio (x) = 0.40324 -0.11580
# Poissons Ratio (y) = 0.53868 0.40113
# Poissons Ratio (z) = -0.23729 0.61531
#
# Static dielectric constant tensor:
#      x y z
#    x 1.705900 0.000000 0.001550 
#    y 0.000000 1.622030 0.000000 
#    z 0.001550 0.000000 1.710400 
# 
# From -- ./inp_files/228158.got.cif
#   From: 2010.05.17/outbox.cif.g08.bks.cpg/sg12_115_cif.got.tgz:228158.got - 2010.06.03 13:09:07.
