data_PCOD9181393
_publ_section_title
;
Structure prediction by ZEFSAII (Michael W. Deem and Ramdas Pophale) SiO2 
 PCOD9181393
Probable space group: C 2/M
;
_chemical_formula_sum "Si O2"
_cell_formula_units_Z 48
_cell_length_a 15.730691
_cell_length_b 15.083592
_cell_length_c 9.262331
_cell_angle_alpha 90.000000
_cell_angle_beta 104.476221
_cell_angle_gamma 90.000000
_cell_volume 2127.948136
_symmetry_space_group_name_H-M "C 2/M"
_symmetry_group_IT_number 12
_symmetry_cell_setting 'monoclinic'
loop_
_space_group_symop_operation_xyz
x,y,z
-x,y,-z
-x,-y,-z
x,-y,z
1/2+x,1/2+y,z
1/2-x,1/2+y,-z
1/2-x,1/2-y,-z
1/2+x,1/2-y,z
loop_
_atom_site_type_symbol
_atom_site_label
_atom_site_fract_x
_atom_site_fract_y
_atom_site_fract_z
Si Si1 0.172531 0.500000 0.107259
Si Si2 0.821617 0.000000 0.952390
Si Si3 0.571499 0.641125 0.158586
Si Si4 0.284224 0.846549 0.476358
Si Si5 0.930090 0.606283 0.344060
Si Si6 0.685059 0.500000 0.568171
Si Si7 0.964795 0.000000 0.274689
Si Si8 0.579250 0.153480 0.215009
O O1 0.247707 0.500000 0.265572
O O2 0.113139 0.586798 0.107173
O O3 0.225593 0.500000 0.980410
O O4 0.847052 0.084912 0.867660
O O5 0.891253 0.000000 0.115258
O O6 0.524082 0.586496 0.266899
O O7 0.593769 0.742664 0.196965
O O8 0.500000 0.641457 0.000000
O O9 0.250000 0.750000 0.500000
O O10 0.336359 0.853202 0.347991
O O11 0.207695 0.915770 0.478808
O O12 0.359256 0.872589 0.623810
O O13 0.922304 0.500000 0.340595
O O14 0.000000 0.631129 0.500000
O O15 0.979012 0.638111 0.220857
O O16 0.589764 0.500000 0.600756
#
# Coordination Sequence:
#
# PCOD9181393 Si02
#       8
#     4   4   8   8   8   4   4   8
#     4   9  17  31  52  72  95 129 167 202 234 290
#     4   8  16  33  52  70  95 127 166 202 239 290
#     4   9  18  33  53  74  97 126 161 204 248 292
#     4  10  20  32  50  75 102 130 163 203 241 283
#     4   9  16  31  52  71  95 131 170 200 231 284
#     4   9  17  31  49  72  98 130 169 198 232 289
#     4   8  16  31  52  72  93 130 169 197 234 293
#     4  10  19  32  53  76  98 128 165 201 242 292
#
# _framework density 22.556940000000001
#
# number of rings (size 3 to 8) (size 9 to 14) (size 15 to 20)
#    0.000    2.833    1.667    1.000    2.333    0.667 
#    0.000    2.083    0.000    1.000    0.000    0.000 
#    0.000    0.000    0.000    0.000    0.000    0.000 
#
# Total GULP energy -134065.538082 kJ/mol
# GULP energy per Si atom -5586.064087 kJ/mol
# Density = 2.250560 g / cm^3
# Si number density = 22.556940 Si / 1000 Ang^3
#
#
#
# Elastic Constant Matrix: (Units=GPa)
#
#
# Indices 1 2 3 4 5 6 
#
# 1 181.1223 87.8429 68.5770 0.0000 -65.9063 0.0000
# 2 87.8429 156.3759 15.7186 0.0000 -58.0383 0.0000
# 3 68.5770 15.7186 64.3233 0.0000 -14.9972 0.0000
# 4 0.0000 0.0000 0.0000 12.8666 0.0000 2.1415
# 5 -65.9063 -58.0383 -14.9972 0.0000 64.7713 0.0000
# 6 0.0000 0.0000 0.0000 2.1415 0.0000 23.7776
#
#
#
# Elastic Compliance Matrix: (Units=1/GPa)
#
#
# Indices 1 2 3 4 5 6 
#
# 1 0.016539 -0.004249 -0.014332 0.000000 0.009703 0.000000
# 2 -0.004249 0.010681 0.003322 0.000000 0.006016 0.000000
# 3 -0.014332 0.003322 0.028867 0.000000 -0.004922 0.000000
# 4 0.000000 0.000000 0.000000 0.078904 0.000000 -0.007106
# 5 0.009703 0.006016 -0.004922 0.000000 0.029564 0.000000
# 6 0.000000 0.000000 0.000000 -0.007106 0.000000 0.042696
#
#
# Mechanical properties :
#
#
# Convention : Reuss Voigt Hill
#
# Bulk Modulus (GPa) = 39.10903 82.89985 61.00444
# Shear Modulus (GPa) = 20.30130 35.59530 27.94830
#
# Velocity S-wave (km/s) = 3.00326 3.97674 3.52378
# Velocity P-wave (km/s) = 5.42233 7.61033 6.60752
#
# Compressibility (1/GPa) = 0.02556954
#
# Stress axis : x y z
#
# Youngs Moduli (GPa) = 60.46331 93.62851 34.64190
#
# Poissons Ratio (x) = 0.39779 0.49649
# Poissons Ratio (y) = 0.25689 -0.11509
# Poissons Ratio (z) = 0.86656 -0.31107
#
# Static dielectric constant tensor:
#      x y z
#    x 1.856450 0.000000 0.034720 
#    y 0.000000 1.703960 0.000000 
#    z 0.034720 0.000000 1.888770 
# 
# From -- ./inp_files/143059.got.cif
#   From: 2010.05.17/outbox.cif.g08.bks.cpg/sg12_72_cif.got.tgz:143059.got - 2010.06.03 13:09:07.
