data_PCOD9181616
_publ_section_title
;
Structure prediction by ZEFSAII (Michael W. Deem and Ramdas Pophale) SiO2 
 PCOD9181616
Probable space group: C 2/M
;
_chemical_formula_sum "Si O2"
_cell_formula_units_Z 56
_cell_length_a 20.828275
_cell_length_b 7.468382
_cell_length_c 19.426393
_cell_angle_alpha 90.000000
_cell_angle_beta 59.038248
_cell_angle_gamma 90.000000
_cell_volume 2591.263985
_symmetry_space_group_name_H-M "C 2/M"
_symmetry_group_IT_number 12
_symmetry_cell_setting 'monoclinic'
loop_
_space_group_symop_operation_xyz
x,y,z
-x,y,-z
-x,-y,-z
x,-y,z
1/2+x,1/2+y,z
1/2-x,1/2+y,-z
1/2-x,1/2-y,-z
1/2+x,1/2-y,z
loop_
_atom_site_type_symbol
_atom_site_label
_atom_site_fract_x
_atom_site_fract_y
_atom_site_fract_z
Si Si1 0.903852 0.289544 0.721998
Si Si2 0.534406 0.295900 0.549587
Si Si3 0.122812 0.218952 0.746088
Si Si4 0.765471 0.219248 0.194885
Si Si5 0.452016 0.283738 0.850837
Si Si6 0.317133 0.714366 0.016364
Si Si7 0.334188 0.285444 0.430700
O O1 0.907274 0.500000 0.704058
O O2 0.820700 0.223449 0.750268
O O3 0.919265 0.265780 0.794362
O O4 0.969568 0.200518 0.642457
O O5 0.500000 0.210939 0.500000
O O6 0.555685 0.500000 0.518488
O O7 0.606826 0.213155 0.545958
O O8 0.181286 0.275482 0.772190
O O9 0.147032 0.279323 0.656536
O O10 0.037842 0.276893 0.808519
O O11 0.122912 0.000000 0.745983
O O12 0.796438 0.280339 0.103715
O O13 0.764519 0.000000 0.194496
O O14 0.453188 0.500000 0.853386
O O15 0.394505 0.218189 0.940659
O O16 0.323943 0.500000 0.018304
O O17 0.250000 0.750000 0.000000
O O18 0.345210 0.500000 0.422167
O O19 0.250000 0.250000 0.500000
#
# Coordination Sequence:
#
# PCOD9181616 Si02
#       7
#     8   8   8   8   8   8   8
#     4  11  21  34  56  82 111 144 179 224 270 319
#     4  10  22  40  59  81 111 144 181 225 269 321
#     4   9  18  35  55  76 108 142 177 222 271 322
#     4   9  19  33  51  81 113 140 176 226 275 314
#     4  10  19  34  58  80 105 146 185 219 268 325
#     4  10  19  32  53  81 110 141 180 224 271 321
#     4  10  21  37  57  79 107 143 176 218 271 320
#
# _framework density 21.611073999999999
#
# number of rings (size 3 to 8) (size 9 to 14) (size 15 to 20)
#    0.000    2.143    2.857    0.429    2.000    1.429 
#    0.000    2.857    0.000    3.429    0.000    2.000 
#    0.000    0.000    0.000    0.000    0.000    0.000 
#
# Total GULP energy -156454.057998 kJ/mol
# GULP energy per Si atom -5587.644928 kJ/mol
# Density = 2.156189 g / cm^3
# Si number density = 21.611074 Si / 1000 Ang^3
#
#
#
# Elastic Constant Matrix: (Units=GPa)
#
#
# Indices 1 2 3 4 5 6 
#
# 1 224.4084 1.3171 85.5982 -0.0002 -11.2020 0.0005
# 2 1.3171 65.3335 -2.5205 -0.0014 0.8662 0.0019
# 3 85.5982 -2.5205 117.4945 0.0001 -18.4939 -0.0001
# 4 -0.0002 -0.0014 0.0001 -66.1683 0.0001 33.9378
# 5 -11.2020 0.8662 -18.4939 0.0001 43.1994 -0.0002
# 6 0.0005 0.0019 -0.0001 33.9378 -0.0002 -8.3362
#
#
#
# Elastic Compliance Matrix: (Units=1/GPa)
#
#
# Indices 1 2 3 4 5 6 
#
# 1 0.006182 -0.000296 -0.004564 0.000000 -0.000345 0.000000
# 2 -0.000296 0.015334 0.000519 -0.000001 -0.000162 -0.000002
# 3 -0.004564 0.000519 0.012502 0.000000 0.004158 0.000000
# 4 0.000000 -0.000001 0.000000 0.013890 0.000000 0.056546
# 5 -0.000345 -0.000162 0.004158 0.000000 0.024842 0.000001
# 6 0.000000 -0.000002 0.000000 0.056546 0.000001 0.110248
#
#
# Mechanical properties :
#
#
# Convention : Reuss Voigt Hill
#
# Bulk Modulus (GPa) = 39.47034 64.00288 51.73661
# Shear Modulus (GPa) = 24.98439 15.26176 20.12308
#
# Velocity S-wave (km/s) = 3.40382 2.66033 3.05478
# Velocity P-wave (km/s) = 5.80961 6.25432 6.03606
#
# Compressibility (1/GPa) = 0.02533548
#
# Stress axis : x y z
#
# Youngs Moduli (GPa) = 161.76976 65.21357 79.98845
#
# Poissons Ratio (x) = 0.01931 0.36508
# Poissons Ratio (y) = 0.04790 -0.04153
# Poissons Ratio (z) = 0.73834 -0.03386
#
# Static dielectric constant tensor:
#      x y z
#    x 1.755520 0.000000 0.000160 
#    y 0.000000 1.809880 0.000000 
#    z 0.000160 0.000000 1.745770 
# 
# From -- ./inp_files/319642.got.cif
#   From: 2010.05.17/outbox.cif.g08.bks.cpg/sg12_160_cif.got.tgz:319642.got - 2010.06.03 13:09:07.
