data_PCOD9181693
_publ_section_title
;
Structure prediction by ZEFSAII (Michael W. Deem and Ramdas Pophale) SiO2 
 PCOD9181693
Probable space group: C 2/M
;
_chemical_formula_sum "Si O2"
_cell_formula_units_Z 64
_cell_length_a 29.194112
_cell_length_b 13.981358
_cell_length_c 9.732584
_cell_angle_alpha 90.000000
_cell_angle_beta 61.153661
_cell_angle_gamma 90.000000
_cell_volume 3479.650509
_symmetry_space_group_name_H-M "C 2/M"
_symmetry_group_IT_number 12
_symmetry_cell_setting 'monoclinic'
loop_
_space_group_symop_operation_xyz
x,y,z
-x,y,-z
-x,-y,-z
x,-y,z
1/2+x,1/2+y,z
1/2-x,1/2+y,-z
1/2-x,1/2-y,-z
1/2+x,1/2-y,z
loop_
_atom_site_type_symbol
_atom_site_label
_atom_site_fract_x
_atom_site_fract_y
_atom_site_fract_z
Si Si1 0.783748 0.601909 0.203937
Si Si2 0.350243 0.245162 0.685196
Si Si3 0.140550 0.887656 0.082066
Si Si4 0.261075 0.106520 0.922005
Si Si5 0.796525 0.182238 0.489153
Si Si6 0.051496 0.387834 0.512484
Si Si7 0.553182 0.889706 0.835836
Si Si8 0.366874 0.736266 0.153785
O O1 0.812026 0.500000 0.170295
O O2 0.738351 0.603953 0.383324
O O3 0.823343 0.688750 0.162855
O O4 0.758139 0.608905 0.091257
O O5 0.363678 0.333397 0.766204
O O6 0.301563 0.185953 0.817470
O O7 0.331103 0.273327 0.561337
O O8 0.399985 0.176416 0.602852
O O9 0.126776 0.000000 0.108981
O O10 0.202398 0.881607 0.953652
O O11 0.112591 0.826690 0.002949
O O12 0.279763 0.000000 0.854388
O O13 0.750000 0.250000 0.500000
O O14 0.836632 0.168245 0.306448
O O15 0.063066 0.500000 0.470260
O O16 0.042844 0.376484 0.688426
O O17 0.000000 0.363190 0.500000
O O18 0.591456 0.806053 0.833379
O O19 0.573602 0.000000 0.822313
O O20 0.500000 0.884364 0.000000
#
# Coordination Sequence:
#
# PCOD9181693 Si02
#       8
#     8   8   8   8   8   8   8   8
#     4  10  19  32  53  84 119 155 197 239 287 354
#     4  12  20  38  60  84 120 162 201 242 299 355
#     4  11  24  38  57  84 119 160 209 254 286 342
#     4  10  19  32  53  85 118 155 198 241 291 348
#     4  10  21  33  53  81 116 157 197 237 288 344
#     4  10  23  41  62  95 126 151 191 242 298 365
#     4  10  22  40  63  93 124 151 186 237 302 369
#     4  11  21  39  56  84 118 160 197 240 301 358
#
# _framework density 18.392651000000001
#
# number of rings (size 3 to 8) (size 9 to 14) (size 15 to 20)
#    0.000    1.500    3.750    2.625    1.750    0.500 
#    0.000    1.875    0.000    0.750    0.000    0.000 
#    0.000    0.000    0.000    0.000    0.000    0.000 
#
# Total GULP energy -178453.738836 kJ/mol
# GULP energy per Si atom -5576.679339 kJ/mol
# Density = 1.835079 g / cm^3
# Si number density = 18.392651 Si / 1000 Ang^3
#
#
#
# Elastic Constant Matrix: (Units=GPa)
#
#
# Indices 1 2 3 4 5 6 
#
# 1 81.1071 34.5096 22.7253 0.0000 18.7409 0.0000
# 2 34.5096 93.9794 27.2597 0.0000 10.7297 0.0000
# 3 22.7253 27.2597 69.6771 0.0000 15.1017 0.0000
# 4 0.0000 0.0000 0.0000 21.0069 0.0000 -2.7407
# 5 18.7409 10.7297 15.1017 0.0000 28.8695 0.0000
# 6 0.0000 0.0000 0.0000 -2.7407 0.0000 23.8737
#
#
#
# Elastic Compliance Matrix: (Units=1/GPa)
#
#
# Indices 1 2 3 4 5 6 
#
# 1 0.016720 -0.004670 -0.001861 0.000000 -0.008145 0.000000
# 2 -0.004670 0.013439 -0.003732 0.000000 -0.000011 0.000000
# 3 -0.001861 -0.003732 0.017884 0.000000 -0.006760 0.000000
# 4 0.000000 0.000000 0.000000 0.048327 0.000000 0.005548
# 5 -0.008145 -0.000011 -0.006760 0.000000 0.043466 0.000000
# 6 0.000000 0.000000 0.000000 0.005548 0.000000 0.042524
#
#
# Mechanical properties :
#
#
# Convention : Reuss Voigt Hill
#
# Bulk Modulus (GPa) = 36.34129 45.97251 41.15690
# Shear Modulus (GPa) = 23.57834 25.43463 24.50648
#
# Velocity S-wave (km/s) = 3.58431 3.72273 3.65417
# Velocity P-wave (km/s) = 6.07710 6.59754 6.34266
#
# Compressibility (1/GPa) = 0.02751691
#
# Stress axis : x y z
#
# Youngs Moduli (GPa) = 59.80985 74.40873 55.91518
#
# Poissons Ratio (x) = 0.34748 0.10405
# Poissons Ratio (y) = 0.27930 0.20870
# Poissons Ratio (z) = 0.11130 0.27772
#
# Static dielectric constant tensor:
#      x y z
#    x 1.633510 0.000000 0.038330 
#    y 0.000000 1.654790 0.000000 
#    z 0.038330 0.000000 1.674350 
# 
# From -- ./inp_files/104525.got.cif
#   From: 2010.05.17/outbox.cif.g08.bks.cpg/sg12_53_cif.got.tgz:104525.got - 2010.06.03 13:09:07.
