data_PCOD9181277
_publ_section_title
;
Structure prediction by ZEFSAII (Michael W. Deem and Ramdas Pophale) SiO2 
 PCOD9181277
Probable space group: C 2/M
;
_chemical_formula_sum "Si O2"
_cell_formula_units_Z 56
_cell_length_a 15.352455
_cell_length_b 18.500039
_cell_length_c 10.514277
_cell_angle_alpha 90.000000
_cell_angle_beta 66.071026
_cell_angle_gamma 90.000000
_cell_volume 2729.602147
_symmetry_space_group_name_H-M "C 2/M"
_symmetry_group_IT_number 12
_symmetry_cell_setting 'monoclinic'
loop_
_space_group_symop_operation_xyz
x,y,z
-x,y,-z
-x,-y,-z
x,-y,z
1/2+x,1/2+y,z
1/2-x,1/2+y,-z
1/2-x,1/2-y,-z
1/2+x,1/2-y,z
loop_
_atom_site_type_symbol
_atom_site_label
_atom_site_fract_x
_atom_site_fract_y
_atom_site_fract_z
Si Si1 0.404465 0.419312 0.225329
Si Si2 0.881233 0.236795 0.330041
Si Si3 0.124733 0.883205 0.034739
Si Si4 0.109260 0.580633 0.976936
Si Si5 0.173197 0.231750 0.359815
Si Si6 0.704924 0.421320 0.255379
Si Si7 0.593639 0.775413 0.138057
O O1 0.387833 0.500000 0.284714
O O2 0.380348 0.350709 0.325357
O O3 0.516560 0.408615 0.127926
O O4 0.352164 0.409229 0.120164
O O5 0.873728 0.258712 0.482050
O O6 0.786328 0.259905 0.312661
O O7 0.978877 0.266151 0.212614
O O8 0.183129 0.914609 0.117506
O O9 0.128626 0.795977 0.041529
O O10 0.124387 0.500000 0.024834
O O11 0.124450 0.650197 0.056138
O O12 0.180584 0.584826 0.814280
O O13 0.000000 0.584168 0.000000
O O14 0.155456 0.146289 0.349802
O O15 0.134844 0.269145 0.255885
O O16 0.674982 0.500000 0.319722
#
# Coordination Sequence:
#
# PCOD9181277 Si02
#       7
#     8   8   8   8   8   8   8
#     4  10  19  32  52  79 113 143 172 214 275 333
#     4  10  22  38  55  78 109 146 189 236 266 320
#     4   9  19  31  52  83 111 139 170 216 273 338
#     4  10  22  36  54  84 115 144 183 231 282 328
#     4  10  22  38  56  80 107 145 194 226 271 330
#     4  10  20  34  55  80 110 140 176 227 277 329
#     4  10  21  36  60  80 111 145 185 225 281 328
#
# _framework density 20.515810999999999
#
# number of rings (size 3 to 8) (size 9 to 14) (size 15 to 20)
#    0.000    2.143    0.000    3.000    8.000    1.714 
#    0.000    0.000    0.000    8.571    0.000    0.000 
#    0.000    0.000    0.000    0.000    0.000    0.000 
#
# Total GULP energy -156351.049239 kJ/mol
# GULP energy per Si atom -5583.966044 kJ/mol
# Density = 2.046912 g / cm^3
# Si number density = 20.515811 Si / 1000 Ang^3
#
#
#
# Elastic Constant Matrix: (Units=GPa)
#
#
# Indices 1 2 3 4 5 6 
#
# 1 37.1942 -2.5728 -4.6496 0.0000 5.4972 0.0000
# 2 -2.5728 148.8633 8.1507 0.0000 4.5315 0.0000
# 3 -4.6496 8.1507 22.1993 0.0000 4.4392 0.0000
# 4 0.0000 0.0000 0.0000 8.8256 0.0000 -3.9324
# 5 5.4972 4.5315 4.4392 0.0000 14.1284 0.0000
# 6 0.0000 0.0000 0.0000 -3.9324 0.0000 12.4945
#
#
#
# Elastic Compliance Matrix: (Units=1/GPa)
#
#
# Indices 1 2 3 4 5 6 
#
# 1 0.030243 0.000474 0.009117 0.000000 -0.014784 0.000000
# 2 0.000474 0.006893 -0.002084 0.000000 -0.001740 0.000000
# 3 0.009117 -0.002084 0.051535 0.000000 -0.019072 0.000000
# 4 0.000000 0.000000 0.000000 0.131787 0.000000 0.041477
# 5 -0.014784 -0.001740 -0.019072 0.000000 0.083082 0.000000
# 6 0.000000 0.000000 0.000000 0.041477 0.000000 0.093089
#
#
# Mechanical properties :
#
#
# Convention : Reuss Voigt Hill
#
# Bulk Modulus (GPa) = 9.64462 23.34594 16.49528
# Shear Modulus (GPa) = 12.01410 20.91160 16.46285
#
# Velocity S-wave (km/s) = 2.42255 3.19610 2.83582
# Velocity P-wave (km/s) = 3.54066 5.00242 4.33362
#
# Compressibility (1/GPa) = 0.10368479
#
# Stress axis : x y z
#
# Youngs Moduli (GPa) = 33.06504 145.07866 19.40439
#
# Poissons Ratio (x) = -0.06870 -0.17691
# Poissons Ratio (y) = -0.01566 0.04043
# Poissons Ratio (z) = -0.30145 0.30228
#
# Static dielectric constant tensor:
#      x y z
#    x 1.789820 0.000000 -0.011930 
#    y 0.000000 1.741390 0.000000 
#    z -0.011930 0.000000 1.718040 
# 
# From -- ./inp_files/145491.got.cif
#   From: 2010.05.17/outbox.cif.g08.bks.cpg/sg12_73_cif.got.tgz:145491.got - 2010.06.03 13:09:07.
