data_PCOD9181405
_publ_section_title
;
Structure prediction by ZEFSAII (Michael W. Deem and Ramdas Pophale) SiO2 
 PCOD9181405
Probable space group: C 2/M
;
_chemical_formula_sum "Si O2"
_cell_formula_units_Z 56
_cell_length_a 19.869543
_cell_length_b 18.911221
_cell_length_c 9.778167
_cell_angle_alpha 90.000000
_cell_angle_beta 57.388229
_cell_angle_gamma 90.000000
_cell_volume 3094.946854
_symmetry_space_group_name_H-M "C 2/M"
_symmetry_group_IT_number 12
_symmetry_cell_setting 'monoclinic'
loop_
_space_group_symop_operation_xyz
x,y,z
-x,y,-z
-x,-y,-z
x,-y,z
1/2+x,1/2+y,z
1/2-x,1/2+y,-z
1/2-x,1/2-y,-z
1/2+x,1/2-y,z
loop_
_atom_site_type_symbol
_atom_site_label
_atom_site_fract_x
_atom_site_fract_y
_atom_site_fract_z
Si Si1 0.531001 0.079982 0.109350
Si Si2 0.832008 0.721848 0.633986
Si Si3 0.891001 0.707136 0.861407
Si Si4 0.545649 0.298845 0.683372
Si Si5 0.848245 0.799814 0.163314
Si Si6 0.055225 0.081001 0.075220
Si Si7 0.923381 0.577078 0.484013
O O1 0.597172 0.125302 0.115661
O O2 0.456887 0.077206 0.293874
O O3 0.558764 0.000000 0.052509
O O4 0.500000 0.111471 0.000000
O O5 0.836583 0.727114 0.793297
O O6 0.885801 0.783135 0.504471
O O7 0.740931 0.714074 0.687326
O O8 0.871501 0.645961 0.560985
O O9 0.979010 0.738755 0.733525
O O10 0.864017 0.742892 0.029704
O O11 0.589908 0.291035 0.780362
O O12 0.494312 0.371704 0.759047
O O13 0.868548 0.873883 0.062872
O O14 0.071603 0.000000 0.100317
O O15 0.000000 0.077419 0.000000
O O16 0.885008 0.500000 0.552780
O O17 0.000000 0.581698 0.500000
#
# Coordination Sequence:
#
# PCOD9181405 Si02
#       7
#     8   8   8   8   8   8   8
#     4  10  19  32  53  77 101 136 183 221 251 302
#     4  12  21  33  51  82 113 141 169 225 283 322
#     4  11  20  35  54  75 103 147 184 216 256 326
#     4  10  19  35  56  78 102 139 180 228 264 320
#     4  10  22  34  53  79 110 137 177 222 281 320
#     4   8  16  34  58  79  99 134 185 228 263 317
#     4  10  19  33  51  77 107 139 177 215 260 318
#
# _framework density 18.094010999999998
#
# number of rings (size 3 to 8) (size 9 to 14) (size 15 to 20)
#    0.000    1.857    2.857    3.429    0.000    0.571 
#    0.000    0.000    0.000    7.714    0.000    0.000 
#    0.000    0.000    0.000    0.000    0.000    0.000 
#
# Total GULP energy -155943.427452 kJ/mol
# GULP energy per Si atom -5569.408123 kJ/mol
# Density = 1.805283 g / cm^3
# Si number density = 18.094011 Si / 1000 Ang^3
#
#
#
# Elastic Constant Matrix: (Units=GPa)
#
#
# Indices 1 2 3 4 5 6 
#
# 1 43.2613 -3.8791 2.9307 0.0000 1.4979 0.0000
# 2 -3.8791 74.7728 5.2021 0.0000 -3.1251 0.0000
# 3 2.9307 5.2021 49.7184 0.0000 5.6700 0.0000
# 4 0.0000 0.0000 0.0000 -65.7864 0.0000 -32.5120
# 5 1.4979 -3.1251 5.6700 0.0000 34.3600 0.0000
# 6 0.0000 0.0000 0.0000 -32.5120 0.0000 -1.0031
#
#
#
# Elastic Compliance Matrix: (Units=1/GPa)
#
#
# Indices 1 2 3 4 5 6 
#
# 1 0.023351 0.001283 -0.001435 0.000000 -0.000664 0.000000
# 2 0.001283 0.013617 -0.001667 0.000000 0.001458 0.000000
# 3 -0.001435 -0.001667 0.020773 0.000000 -0.003517 0.000000
# 4 0.000000 0.000000 0.000000 0.001012 0.000000 -0.032806
# 5 -0.000664 0.001458 -0.003517 0.000000 0.029846 0.000000
# 6 0.000000 0.000000 0.000000 -0.032806 0.000000 0.066381
#
#
# Mechanical properties :
#
#
# Convention : Reuss Voigt Hill
#
# Bulk Modulus (GPa) = 18.48261 19.58444 19.03352
# Shear Modulus (GPa) = 28.30437 4.41404 16.35920
#
# Velocity S-wave (km/s) = 3.95941 1.56358 3.01012
# Velocity P-wave (km/s) = 5.58028 3.75592 4.75639
#
# Compressibility (1/GPa) = 0.05410493
#
# Stress axis : x y z
#
# Youngs Moduli (GPa) = 42.82538 73.43602 48.13867
#
# Poissons Ratio (x) = -0.09425 0.06908
# Poissons Ratio (y) = -0.05496 0.08023
# Poissons Ratio (z) = 0.06145 0.12239
#
# Static dielectric constant tensor:
#      x y z
#    x 1.636760 0.000000 -0.001110 
#    y 0.000000 1.660810 0.000000 
#    z -0.001110 0.000000 1.650770 
# 
# From -- ./inp_files/89512.got.cif
#   From: 2010.05.17/outbox.cif.g08.bks.cpg/sg12_45_cif.got.tgz:89512.got - 2010.06.03 13:09:07.
