data_PCOD9181387
_publ_section_title
;
Structure prediction by ZEFSAII (Michael W. Deem and Ramdas Pophale) SiO2 
 PCOD9181387
Probable space group: C 2/M
;
_chemical_formula_sum "Si O2"
_cell_formula_units_Z 40
_cell_length_a 11.164636
_cell_length_b 12.998254
_cell_length_c 27.162148
_cell_angle_alpha 90.000000
_cell_angle_beta 26.270631
_cell_angle_gamma 90.000000
_cell_volume 1744.682870
_symmetry_space_group_name_H-M "C 2/M"
_symmetry_group_IT_number 12
_symmetry_cell_setting 'monoclinic'
loop_
_space_group_symop_operation_xyz
x,y,z
-x,y,-z
-x,-y,-z
x,-y,z
1/2+x,1/2+y,z
1/2-x,1/2+y,-z
1/2-x,1/2-y,-z
1/2+x,1/2-y,z
loop_
_atom_site_type_symbol
_atom_site_label
_atom_site_fract_x
_atom_site_fract_y
_atom_site_fract_z
Si Si1 0.364042 0.617283 0.427801
Si Si2 0.204138 0.666713 0.590568
Si Si3 0.749961 0.109457 0.041417
Si Si4 0.531431 0.835304 0.756738
Si Si5 0.107645 0.684533 0.908983
O O1 0.361822 0.500000 0.410392
O O2 0.171364 0.625888 0.547261
O O3 0.297286 0.709075 0.414988
O O4 0.662556 0.646852 0.338409
O O5 0.500000 0.633404 0.500000
O O6 0.011740 0.634368 0.706504
O O7 0.643588 0.111798 0.136319
O O8 0.489389 0.122353 0.102194
O O9 0.878466 0.000000 0.982614
O O10 0.945160 0.206586 0.962577
O O11 0.418497 0.717947 0.799129
O O12 0.000000 0.639330 0.000000
#
# Coordination Sequence:
#
# PCOD9181387 Si02
#       5
#     8   8   8   8   8
#     4  10  20  34  54  79 104 137 179 214 254 312
#     4   9  20  36  53  75 107 139 170 217 264 303
#     4  10  20  34  54  79 104 137 179 214 254 312
#     4  10  19  32  53  76 104 136 171 214 261 302
#     4   9  20  36  53  75 107 139 170 217 264 303
#
# _framework density 22.926801999999999
#
# number of rings (size 3 to 8) (size 9 to 14) (size 15 to 20)
#    0.000    2.400    0.000    1.800    0.000    9.600 
#    0.000    0.000    0.000    9.600    0.000    0.000 
#    0.000    0.000    0.000    0.000    0.000    0.000 
#
# Total GULP energy -111484.798272 kJ/mol
# GULP energy per Si atom -5574.239914 kJ/mol
# Density = 2.287462 g / cm^3
# Si number density = 22.926802 Si / 1000 Ang^3
#
#
#
# Elastic Constant Matrix: (Units=GPa)
#
#
# Indices 1 2 3 4 5 6 
#
# 1 67.7798 29.8202 1.9259 0.0267 16.0162 0.0132
# 2 29.8202 93.4598 21.6207 0.0152 11.0192 0.0130
# 3 1.9259 21.6207 61.3021 0.0488 19.2444 0.0284
# 4 0.0267 0.0152 0.0488 5.5779 -0.0188 -8.7310
# 5 16.0162 11.0192 19.2444 -0.0188 30.8425 -0.0139
# 6 0.0132 0.0130 0.0284 -8.7310 -0.0139 5.2329
#
#
#
# Elastic Compliance Matrix: (Units=1/GPa)
#
#
# Indices 1 2 3 4 5 6 
#
# 1 0.020046 -0.006244 0.005148 0.000191 -0.011391 0.000226
# 2 -0.006244 0.013694 -0.005118 -0.000040 0.001543 -0.000053
# 3 0.005148 -0.005118 0.022659 0.000319 -0.014983 0.000370
# 4 0.000191 -0.000040 0.000319 -0.111232 -0.000436 -0.185593
# 5 -0.011391 0.001543 -0.014983 -0.000436 0.047135 -0.000496
# 6 0.000226 -0.000053 0.000370 -0.185593 -0.000496 -0.118565
#
#
# Mechanical properties :
#
#
# Convention : Reuss Voigt Hill
#
# Bulk Modulus (GPa) = 22.74222 36.58616 29.66419
# Shear Modulus (GPa) = -50.41429 19.60899 -15.40265
#
# Velocity S-wave (km/s) = -4.69436 2.92770 -2.59476
# Velocity P-wave (km/s) = 4.40926 5.23651 1.99743
#
# Compressibility (1/GPa) = 0.04397108
#
# Stress axis : x y z
#
# Youngs Moduli (GPa) = 49.88524 73.02397 44.13244
#
# Poissons Ratio (x) = 0.45597 -0.22720
# Poissons Ratio (y) = 0.31149 0.22587
# Poissons Ratio (z) = -0.25681 0.37374
#
# Static dielectric constant tensor:
#      x y z
#    x 1.880610 0.000000 -0.022820 
#    y 0.000000 1.887920 0.000010 
#    z -0.022820 0.000010 1.940910 
# 
# From -- ./inp_files/129235.got.cif
#   From: 2010.05.17/outbox.cif.g08.bks.cpg/sg12_65_cif.got.tgz:129235.got - 2010.06.03 13:09:07.
