data_PCOD9181942
_publ_section_title
;
Structure prediction by ZEFSAII (Michael W. Deem and Ramdas Pophale) SiO2 
 PCOD9181942
Probable space group: C 2/M
;
_chemical_formula_sum "Si O2"
_cell_formula_units_Z 56
_cell_length_a 22.489120
_cell_length_b 9.364456
_cell_length_c 14.452969
_cell_angle_alpha 90.000000
_cell_angle_beta 71.849208
_cell_angle_gamma 90.000000
_cell_volume 2892.313537
_symmetry_space_group_name_H-M "C 2/M"
_symmetry_group_IT_number 12
_symmetry_cell_setting 'monoclinic'
loop_
_space_group_symop_operation_xyz
x,y,z
-x,y,-z
-x,-y,-z
x,-y,z
1/2+x,1/2+y,z
1/2-x,1/2+y,-z
1/2-x,1/2-y,-z
1/2+x,1/2-y,z
loop_
_atom_site_type_symbol
_atom_site_label
_atom_site_fract_x
_atom_site_fract_y
_atom_site_fract_z
Si Si1 0.892037 0.829844 0.385702
Si Si2 0.337075 0.330438 0.224276
Si Si3 0.869343 0.666998 0.886591
Si Si4 0.021810 0.669129 0.314614
Si Si5 0.779497 0.833965 0.803176
Si Si6 0.888946 0.834486 0.598461
Si Si7 0.927434 0.666776 0.058259
O O1 0.841509 0.795669 0.331253
O O2 0.872963 0.798834 0.500497
O O3 0.955968 0.746364 0.335097
O O4 0.904024 0.000000 0.373146
O O5 0.331200 0.500000 0.215761
O O6 0.281275 0.250436 0.199645
O O7 0.400700 0.271583 0.148013
O O8 0.853209 0.500000 0.880629
O O9 0.931258 0.695214 0.794369
O O10 0.813923 0.764084 0.874350
O O11 0.887688 0.688497 0.983820
O O12 0.013368 0.500000 0.327880
O O13 0.057417 0.734375 0.385961
O O14 0.829642 0.823160 0.694986
O O15 0.765194 0.000000 0.826813
O O16 0.910474 0.000000 0.591230
O O17 0.920890 0.500000 0.090018
O O18 0.000000 0.690537 0.000000
#
# Coordination Sequence:
#
# PCOD9181942 Si02
#       7
#     8   8   8   8   8   8   8
#     4  10  21  36  53  76 110 150 184 219 271 327
#     4  11  24  39  56  80 111 145 182 226 272 321
#     4   9  19  36  58  82 111 145 178 220 272 322
#     4  10  19  32  54  85 114 140 178 226 272 320
#     4  10  21  38  59  81 106 141 186 229 269 317
#     4   9  19  36  56  78 108 146 184 222 268 324
#     4  10  21  39  62  86 112 143 178 218 268 323
#
# _framework density 19.361664000000001
#
# number of rings (size 3 to 8) (size 9 to 14) (size 15 to 20)
#    0.000    2.143    0.000    2.571    0.000    7.714 
#    0.000    0.000    0.000    0.000    0.000    0.000 
#    0.000    0.000    0.000    0.000    0.000    0.000 
#
# Total GULP energy -156424.757909 kJ/mol
# GULP energy per Si atom -5586.598497 kJ/mol
# Density = 1.931760 g / cm^3
# Si number density = 19.361664 Si / 1000 Ang^3
#
#
#
# Elastic Constant Matrix: (Units=GPa)
#
#
# Indices 1 2 3 4 5 6 
#
# 1 65.9860 32.0725 3.7807 0.0000 17.0317 0.0000
# 2 32.0725 48.1725 27.2435 0.0000 11.0052 0.0000
# 3 3.7807 27.2435 58.4558 0.0000 15.9552 0.0000
# 4 0.0000 0.0000 0.0000 14.5549 0.0000 -7.3199
# 5 17.0317 11.0052 15.9552 0.0000 18.3669 0.0000
# 6 0.0000 0.0000 0.0000 -7.3199 0.0000 28.9337
#
#
#
# Elastic Compliance Matrix: (Units=1/GPa)
#
#
# Indices 1 2 3 4 5 6 
#
# 1 0.036284 -0.027538 0.019881 0.000000 -0.034416 0.000000
# 2 -0.027538 0.049831 -0.026561 0.000000 0.018752 0.000000
# 3 0.019881 -0.026561 0.037866 0.000000 -0.035415 0.000000
# 4 0.000000 0.000000 0.000000 0.078721 0.000000 0.019915
# 5 -0.034416 0.018752 -0.035415 0.000000 0.105890 0.000000
# 6 0.000000 0.000000 0.000000 0.019915 0.000000 0.039600
#
#
# Mechanical properties :
#
#
# Convention : Reuss Voigt Hill
#
# Bulk Modulus (GPa) = 18.00336 33.20085 25.60211
# Shear Modulus (GPa) = 11.49049 19.67228 15.58138
#
# Velocity S-wave (km/s) = 2.43876 3.19100 2.83990
# Velocity P-wave (km/s) = 4.15316 5.54631 4.89951
#
# Compressibility (1/GPa) = 0.05554518
#
# Stress axis : x y z
#
# Youngs Moduli (GPa) = 27.56049 20.06800 26.40873
#
# Poissons Ratio (x) = 0.55264 -0.52504
# Poissons Ratio (y) = 0.75897 0.70144
# Poissons Ratio (z) = -0.54794 0.53302
#
# Static dielectric constant tensor:
#      x y z
#    x 1.654160 0.000000 -0.008050 
#    y 0.000000 1.644070 0.000000 
#    z -0.008050 0.000000 1.698350 
# 
# From -- ./inp_files/230878.got.cif
#   From: 2010.05.17/outbox.cif.g08.bks.cpg/sg12_116_cif.got.tgz:230878.got - 2010.06.03 13:09:07.
