data_PCOD9181840
_publ_section_title
;
Structure prediction by ZEFSAII (Michael W. Deem and Ramdas Pophale) SiO2 
 PCOD9181840
Probable space group: C 2/M
;
_chemical_formula_sum "Si O2"
_cell_formula_units_Z 48
_cell_length_a 24.512502
_cell_length_b 9.311356
_cell_length_c 10.961948
_cell_angle_alpha 90.000000
_cell_angle_beta 71.536575
_cell_angle_gamma 90.000000
_cell_volume 2373.217584
_symmetry_space_group_name_H-M "C 2/M"
_symmetry_group_IT_number 12
_symmetry_cell_setting 'monoclinic'
loop_
_space_group_symop_operation_xyz
x,y,z
-x,y,-z
-x,-y,-z
x,-y,z
1/2+x,1/2+y,z
1/2-x,1/2+y,-z
1/2-x,1/2-y,-z
1/2+x,1/2-y,z
loop_
_atom_site_type_symbol
_atom_site_label
_atom_site_fract_x
_atom_site_fract_y
_atom_site_fract_z
Si Si1 0.666388 0.665746 0.993533
Si Si2 0.233184 0.166792 0.203315
Si Si3 0.535460 0.662951 0.347404
Si Si4 0.137194 0.670608 0.398939
Si Si5 0.566604 0.168359 0.692178
Si Si6 0.567780 0.167440 0.964369
O O1 0.665307 0.500000 0.957524
O O2 0.707851 0.756728 0.875767
O O3 0.603382 0.733729 0.029645
O O4 0.694356 0.673883 0.107639
O O5 0.197065 0.250960 0.330375
O O6 0.241904 0.000000 0.228067
O O7 0.500000 0.654704 0.500000
O O8 0.551970 0.500000 0.300886
O O9 0.589913 0.760881 0.341285
O O10 0.489976 0.736462 0.289647
O O11 0.141818 0.500000 0.375938
O O12 0.112070 0.696216 0.552376
O O13 0.590546 0.190473 0.810334
O O14 0.549632 0.000000 0.694595
O O15 0.574994 0.000000 0.992894
O O16 0.500000 0.195544 0.000000
#
# Coordination Sequence:
#
# PCOD9181840 Si02
#       6
#     8   8   8   8   8   8
#     4  10  22  40  60  85 114 146 187 234 282 334
#     4  10  21  38  61  87 114 144 185 235 285 335
#     4   9  17  29  47  74 109 146 183 226 275 325
#     4  10  19  32  54  81 112 147 187 232 280 333
#     4   9  19  35  52  78 113 150 189 230 278 333
#     4  10  22  39  59  83 114 153 192 230 278 335
#
# _framework density 20.225705999999999
#
# number of rings (size 3 to 8) (size 9 to 14) (size 15 to 20)
#    0.000    2.333    0.000    2.000    2.333    5.667 
#    0.000    0.833    0.000    0.000    0.000    0.000 
#    0.000    0.000    0.000    0.000    0.000    0.000 
#
# Total GULP energy -134075.660180 kJ/mol
# GULP energy per Si atom -5586.485841 kJ/mol
# Density = 2.017967 g / cm^3
# Si number density = 20.225706 Si / 1000 Ang^3
#
#
#
# Elastic Constant Matrix: (Units=GPa)
#
#
# Indices 1 2 3 4 5 6 
#
# 1 59.2511 44.1278 9.5899 0.0000 -5.8061 0.0000
# 2 44.1278 110.2592 39.6629 0.0000 -11.3354 0.0000
# 3 9.5899 39.6629 63.7385 0.0000 -14.0494 0.0000
# 4 0.0000 0.0000 0.0000 23.4365 0.0000 -6.2678
# 5 -5.8061 -11.3354 -14.0494 0.0000 27.5387 0.0000
# 6 0.0000 0.0000 0.0000 -6.2678 0.0000 29.9310
#
#
#
# Elastic Compliance Matrix: (Units=1/GPa)
#
#
# Indices 1 2 3 4 5 6 
#
# 1 0.024674 -0.010925 0.003652 0.000000 0.002568 0.000000
# 2 -0.010925 0.016560 -0.008638 0.000000 0.000106 0.000000
# 3 0.003652 -0.008638 0.022422 0.000000 0.008654 0.000000
# 4 0.000000 0.000000 0.000000 0.045200 0.000000 0.009465
# 5 0.002568 0.000106 0.008654 0.000000 0.041313 0.000000
# 6 0.000000 0.000000 0.000000 0.009465 0.000000 0.035392
#
#
# Mechanical properties :
#
#
# Convention : Reuss Voigt Hill
#
# Bulk Modulus (GPa) = 31.41166 46.66779 39.03972
# Shear Modulus (GPa) = 21.93042 25.50579 23.71810
#
# Velocity S-wave (km/s) = 3.29642 3.55499 3.42814
# Velocity P-wave (km/s) = 5.48204 6.32252 5.91722
#
# Compressibility (1/GPa) = 0.03183532
#
# Stress axis : x y z
#
# Youngs Moduli (GPa) = 40.52813 60.38656 44.59870
#
# Poissons Ratio (x) = 0.65971 -0.16287
# Poissons Ratio (y) = 0.44276 0.38523
# Poissons Ratio (z) = -0.14801 0.52160
#
# Static dielectric constant tensor:
#      x y z
#    x 1.693010 0.000000 -0.015440 
#    y 0.000000 1.685950 0.000000 
#    z -0.015440 0.000000 1.763400 
# 
# From -- ./inp_files/172918.got.cif
#   From: 2010.05.17/outbox.cif.g08.bks.cpg/sg12_87_cif.got.tgz:172918.got - 2010.06.03 13:09:07.
