data_PCOD9181457
_publ_section_title
;
Structure prediction by ZEFSAII (Michael W. Deem and Ramdas Pophale) SiO2 
 PCOD9181457
Probable space group: C 2/M
;
_chemical_formula_sum "Si O2"
_cell_formula_units_Z 56
_cell_length_a 19.116623
_cell_length_b 7.798641
_cell_length_c 30.165253
_cell_angle_alpha 90.000000
_cell_angle_beta 38.013542
_cell_angle_gamma 90.000000
_cell_volume 2769.557618
_symmetry_space_group_name_H-M "C 2/M"
_symmetry_group_IT_number 12
_symmetry_cell_setting 'monoclinic'
loop_
_space_group_symop_operation_xyz
x,y,z
-x,y,-z
-x,-y,-z
x,-y,z
1/2+x,1/2+y,z
1/2-x,1/2+y,-z
1/2-x,1/2-y,-z
1/2+x,1/2-y,z
loop_
_atom_site_type_symbol
_atom_site_label
_atom_site_fract_x
_atom_site_fract_y
_atom_site_fract_z
Si Si1 0.963734 0.297305 0.291804
Si Si2 0.382087 0.704292 0.429858
Si Si3 0.539732 0.710104 0.431358
Si Si4 0.158276 0.200332 0.132461
Si Si5 0.701156 0.790036 0.703962
Si Si6 0.916429 0.289513 0.002534
Si Si7 0.005697 0.700403 0.863878
O O1 0.974390 0.500000 0.279738
O O2 0.933262 0.263735 0.357614
O O3 0.861723 0.237740 0.310216
O O4 0.080270 0.219400 0.214941
O O5 0.390374 0.500000 0.426396
O O6 0.250000 0.750000 0.500000
O O7 0.454849 0.769853 0.435287
O O8 0.500000 0.763745 0.500000
O O9 0.538672 0.500000 0.431687
O O10 0.669114 0.765481 0.358447
O O11 0.286112 0.265503 0.074220
O O12 0.090830 0.286158 0.125599
O O13 0.164650 0.000000 0.117894
O O14 0.620096 0.728290 0.784276
O O15 0.701555 0.000000 0.704339
O O16 0.915590 0.500000 0.002982
O O17 0.000000 0.235191 0.000000
O O18 0.962624 0.228190 0.931882
O O19 0.028321 0.500000 0.860666
#
# Coordination Sequence:
#
# PCOD9181457 Si02
#       7
#     8   8   8   8   8   8   8
#     4  10  20  36  57  78 104 136 170 212 260 311
#     4  11  22  35  55  81 108 138 172 213 257 303
#     4   9  17  30  50  76 102 131 172 214 247 289
#     4  10  19  32  53  78 103 133 172 217 261 310
#     4   8  15  29  51  75  96 128 175 218 252 295
#     4   9  18  31  49  75 104 136 178 223 259 301
#     4   9  17  31  52  75 101 135 173 215 263 312
#
# _framework density 20.219836999999998
#
# number of rings (size 3 to 8) (size 9 to 14) (size 15 to 20)
#    0.000    2.571    0.000    3.429    0.000    3.429 
#    0.000    5.000    0.000   21.857    0.000    0.000 
#    0.000    0.000    0.000    0.000    0.000    0.000 
#
# Total GULP energy -156278.938103 kJ/mol
# GULP energy per Si atom -5581.390647 kJ/mol
# Density = 2.017382 g / cm^3
# Si number density = 20.219837 Si / 1000 Ang^3
#
#
#
# Elastic Constant Matrix: (Units=GPa)
#
#
# Indices 1 2 3 4 5 6 
#
# 1 145.5643 -6.2122 129.8872 0.0004 -7.4349 0.0291
# 2 -6.2122 25.0386 -6.4460 -0.0014 -2.4283 -0.0072
# 3 129.8872 -6.4460 190.0440 -0.0003 -9.8626 0.0001
# 4 0.0004 -0.0014 -0.0003 14.9155 0.0009 -2.7965
# 5 -7.4349 -2.4283 -9.8626 0.0009 39.0320 -0.0010
# 6 0.0291 -0.0072 0.0001 -2.7965 -0.0010 14.6399
#
#
#
# Elastic Compliance Matrix: (Units=1/GPa)
#
#
# Indices 1 2 3 4 5 6 
#
# 1 0.017656 0.001331 -0.012000 -0.000007 0.000414 -0.000036
# 2 0.001331 0.040715 0.000624 0.000007 0.002944 0.000019
# 3 -0.012000 0.000624 0.013546 0.000005 0.001176 0.000025
# 4 -0.000007 0.000007 0.000005 0.069534 -0.000001 0.013282
# 5 0.000414 0.002944 0.001176 -0.000001 0.026179 0.000002
# 6 -0.000036 0.000019 0.000025 0.013282 0.000002 0.070844
#
#
# Mechanical properties :
#
#
# Convention : Reuss Voigt Hill
#
# Bulk Modulus (GPa) = 19.29536 66.12277 42.70906
# Shear Modulus (GPa) = 18.12652 29.94535 24.03594
#
# Velocity S-wave (km/s) = 2.99736 3.85254 3.45154
# Velocity P-wave (km/s) = 4.64138 7.24999 6.08707
#
# Compressibility (1/GPa) = 0.05182594
#
# Stress axis : x y z
#
# Youngs Moduli (GPa) = 56.63921 24.56111 73.82359
#
# Poissons Ratio (x) = -0.03269 0.88590
# Poissons Ratio (y) = -0.07540 -0.04606
# Poissons Ratio (z) = 0.67969 -0.01533
#
# Static dielectric constant tensor:
#      x y z
#    x 1.686470 0.000000 -0.003030 
#    y 0.000000 1.767030 0.000000 
#    z -0.003030 0.000000 1.692020 
# 
# From -- ./inp_files/377674.got.cif
#   From: 2010.05.17/outbox.cif.g08.bks.cpg/sg12_189_cif.got.tgz:377674.got - 2010.06.03 13:09:07.
