data_PCOD9181670
_publ_section_title
;
Structure prediction by ZEFSAII (Michael W. Deem and Ramdas Pophale) SiO2 
 PCOD9181670
Probable space group: C 2/M
;
_chemical_formula_sum "Si O2"
_cell_formula_units_Z 40
_cell_length_a 24.141044
_cell_length_b 12.507842
_cell_length_c 10.129356
_cell_angle_alpha 90.000000
_cell_angle_beta 128.222832
_cell_angle_gamma 90.000000
_cell_volume 2402.854604
_symmetry_space_group_name_H-M "C 2/M"
_symmetry_group_IT_number 12
_symmetry_cell_setting 'monoclinic'
loop_
_space_group_symop_operation_xyz
x,y,z
-x,y,-z
-x,-y,-z
x,-y,z
1/2+x,1/2+y,z
1/2-x,1/2+y,-z
1/2-x,1/2-y,-z
1/2+x,1/2-y,z
loop_
_atom_site_type_symbol
_atom_site_label
_atom_site_fract_x
_atom_site_fract_y
_atom_site_fract_z
Si Si1 0.661258 0.696808 0.457185
Si Si2 0.955041 0.627165 0.063612
Si Si3 0.010042 0.787853 0.360999
Si Si4 0.887497 0.000000 0.781251
Si Si5 0.035630 0.000000 0.840418
Si Si6 0.188297 0.627020 0.287748
O O1 0.592388 0.695421 0.446212
O O2 0.651002 0.605624 0.329370
O O3 0.734182 0.668001 0.636580
O O4 0.668776 0.808799 0.392051
O O5 0.964806 0.500000 0.095379
O O6 0.981892 0.692739 0.227410
O O7 0.873631 0.648771 0.908109
O O8 0.000000 0.660084 0.000000
O O9 0.000000 0.767860 0.500000
O O10 0.968457 0.894381 0.254110
O O11 0.963249 0.000000 0.819269
O O12 0.902782 0.000000 0.959507
O O13 0.189612 0.500000 0.312027
#
# Coordination Sequence:
#
# PCOD9181670 Si02
#       6
#     8   8   8   4   4   8
#     4  10  19  32  53  83 110 138 178 226 274 322
#     4  10  20  36  58  81 107 142 186 235 273 317
#     4  11  22  36  54  82 116 149 184 219 272 333
#     4   9  16  30  52  80 107 134 181 227 264 317
#     4   9  19  30  52  78 110 148 175 220 267 319
#     4  10  19  33  55  82 108 137 178 232 278 314
#
# _framework density 16.646865999999999
#
# number of rings (size 3 to 8) (size 9 to 14) (size 15 to 20)
#    0.000    2.000    3.000    1.500    2.800    0.400 
#    0.000    1.000    0.000    0.000    0.000    0.000 
#    0.000    0.000    0.000    0.000    0.000    0.000 
#
# Total GULP energy -111555.617642 kJ/mol
# GULP energy per Si atom -5577.780882 kJ/mol
# Density = 1.660898 g / cm^3
# Si number density = 16.646866 Si / 1000 Ang^3
#
#
#
# Elastic Constant Matrix: (Units=GPa)
#
#
# Indices 1 2 3 4 5 6 
#
# 1 84.3246 38.1757 73.3407 0.0000 5.6060 0.0000
# 2 38.1757 71.0846 58.3058 0.0000 -6.5741 0.0000
# 3 73.3407 58.3058 137.0362 0.0000 -2.2066 0.0000
# 4 0.0000 0.0000 0.0000 13.4157 0.0000 8.7165
# 5 5.6060 -6.5741 -2.2066 0.0000 31.1321 0.0000
# 6 0.0000 0.0000 0.0000 8.7165 0.0000 11.6608
#
#
#
# Elastic Compliance Matrix: (Units=1/GPa)
#
#
# Indices 1 2 3 4 5 6 
#
# 1 0.023750 -0.004304 -0.010975 0.000000 -0.005963 0.000000
# 2 -0.004304 0.022877 -0.007348 0.000000 0.005085 0.000000
# 3 -0.010975 -0.007348 0.016323 0.000000 0.001582 0.000000
# 4 0.000000 0.000000 0.000000 0.144926 0.000000 -0.108333
# 5 -0.005963 0.005085 0.001582 0.000000 0.034381 0.000000
# 6 0.000000 0.000000 0.000000 -0.108333 0.000000 0.166736
#
#
# Mechanical properties :
#
#
# Convention : Reuss Voigt Hill
#
# Bulk Modulus (GPa) = 56.51452 70.23220 63.37336
# Shear Modulus (GPa) = 10.86612 19.41659 15.14135
#
# Velocity S-wave (km/s) = 2.55765 3.41894 3.01917
# Velocity P-wave (km/s) = 6.53796 7.60701 7.09265
#
# Compressibility (1/GPa) = 0.01769457
#
# Stress axis : x y z
#
# Youngs Moduli (GPa) = 42.10594 43.71278 61.26201
#
# Poissons Ratio (x) = 0.18813 0.67238
# Poissons Ratio (y) = 0.18121 0.45017
# Poissons Ratio (z) = 0.46213 0.32121
#
# Static dielectric constant tensor:
#      x y z
#    x 1.555100 0.000000 0.038610 
#    y 0.000000 1.574880 0.000000 
#    z 0.038610 0.000000 1.551360 
# 
# From -- ./inp_files/83503.got.cif
#   From: 2010.05.17/outbox.cif.g08.bks.cpg/sg12_42_cif.got.tgz:83503.got - 2010.06.03 13:09:07.
