data_PCOD9181307
_publ_section_title
;
Structure prediction by ZEFSAII (Michael W. Deem and Ramdas Pophale) SiO2 
 PCOD9181307
Probable space group: C 2/M
;
_chemical_formula_sum "Si O2"
_cell_formula_units_Z 64
_cell_length_a 20.886557
_cell_length_b 8.781931
_cell_length_c 32.058106
_cell_angle_alpha 90.000000
_cell_angle_beta 141.713662
_cell_angle_gamma 90.000000
_cell_volume 3643.346350
_symmetry_space_group_name_H-M "C 2/M"
_symmetry_group_IT_number 12
_symmetry_cell_setting 'monoclinic'
loop_
_space_group_symop_operation_xyz
x,y,z
-x,y,-z
-x,-y,-z
x,-y,z
1/2+x,1/2+y,z
1/2-x,1/2+y,-z
1/2-x,1/2-y,-z
1/2+x,1/2-y,z
loop_
_atom_site_type_symbol
_atom_site_label
_atom_site_fract_x
_atom_site_fract_y
_atom_site_fract_z
Si Si1 0.809186 0.817060 0.990039
Si Si2 0.866758 0.182589 0.149102
Si Si3 0.720911 0.816461 0.367781
Si Si4 0.556465 0.683017 0.647511
Si Si5 0.932945 0.682095 0.506816
Si Si6 0.996678 0.817396 0.862484
Si Si7 0.718473 0.816947 0.269404
Si Si8 0.496609 0.182527 0.290071
O O1 0.746461 0.748301 0.919401
O O2 0.800635 0.000000 0.985479
O O3 0.750000 0.750000 0.000000
O O4 0.928400 0.776627 0.060468
O O5 0.915310 0.247746 0.215899
O O6 0.942885 0.227415 0.149390
O O7 0.862413 0.000000 0.147878
O O8 0.817206 0.739871 0.439833
O O9 0.719609 0.768449 0.318554
O O10 0.611539 0.777893 0.332639
O O11 0.733549 0.000000 0.375505
O O12 0.552399 0.500000 0.647210
O O13 0.484524 0.741292 0.573281
O O14 0.674310 0.729638 0.697055
O O15 0.522092 0.752796 0.673663
O O16 0.934663 0.500000 0.512388
O O17 0.000000 0.722528 0.500000
O O18 0.883981 0.746198 0.804567
O O19 0.987882 0.000000 0.857208
O O20 0.713577 0.000000 0.266531
O O21 0.487618 0.000000 0.285384
#
# Coordination Sequence:
#
# PCOD9181307 Si02
#       8
#     8   8   8   8   8   8   8   8
#     4   9  17  29  46  76 113 149 187 230 281 330
#     4  10  19  32  52  80 113 151 188 227 280 335
#     4  10  21  38  60  85 111 146 187 229 279 333
#     4  11  24  41  60  82 113 150 186 228 279 338
#     4  11  23  38  60  88 114 144 184 232 281 330
#     4   9  18  30  50  81 114 145 183 232 278 324
#     4  10  20  35  57  83 110 145 188 230 277 330
#     4  11  23  39  59  84 115 149 187 232 279 333
#
# _framework density 17.566268999999998
#
# number of rings (size 3 to 8) (size 9 to 14) (size 15 to 20)
#    0.000    1.875    2.500    2.625    0.000    6.000 
#    0.000    0.000    0.000    0.750    0.000    5.250 
#    0.000    0.000    0.000    0.000    0.000    0.000 
#
# Total GULP energy -178620.337467 kJ/mol
# GULP energy per Si atom -5581.885546 kJ/mol
# Density = 1.752629 g / cm^3
# Si number density = 17.566269 Si / 1000 Ang^3
#
#
#
# Elastic Constant Matrix: (Units=GPa)
#
#
# Indices 1 2 3 4 5 6 
#
# 1 94.9908 37.5169 58.4912 0.0000 -3.6117 -0.0001
# 2 37.5169 45.4641 52.4543 0.0000 -1.5277 -0.0001
# 3 58.4912 52.4543 173.9910 0.0000 4.2365 0.0000
# 4 0.0000 0.0000 0.0000 37.2721 0.0000 -0.5771
# 5 -3.6117 -1.5277 4.2365 0.0000 23.1155 0.0000
# 6 -0.0001 -0.0001 0.0000 -0.5771 0.0000 23.8064
#
#
#
# Elastic Compliance Matrix: (Units=1/GPa)
#
#
# Indices 1 2 3 4 5 6 
#
# 1 0.016245 -0.010681 -0.002296 0.000000 0.002253 0.000000
# 2 -0.010681 0.041142 -0.008878 0.000000 0.002677 0.000000
# 3 -0.002296 -0.008878 0.009260 0.000000 -0.002643 0.000000
# 4 0.000000 0.000000 0.000000 0.026840 0.000000 0.000651
# 5 0.002253 0.002677 -0.002643 0.000000 0.044274 0.000000
# 6 0.000000 0.000000 0.000000 0.000651 0.000000 0.042021
#
#
# Mechanical properties :
#
#
# Convention : Reuss Voigt Hill
#
# Bulk Modulus (GPa) = 43.59603 67.93008 55.76306
# Shear Modulus (GPa) = 21.63205 27.90436 24.76821
#
# Velocity S-wave (km/s) = 3.51302 3.98995 3.75905
# Velocity P-wave (km/s) = 6.42860 7.74474 7.11716
#
# Compressibility (1/GPa) = 0.02293787
#
# Stress axis : x y z
#
# Youngs Moduli (GPa) = 61.55660 24.30598 107.98919
#
# Poissons Ratio (x) = 0.25960 0.24795
# Poissons Ratio (y) = 0.65747 0.95873
# Poissons Ratio (z) = 0.14134 0.21579
#
# Static dielectric constant tensor:
#      x y z
#    x 1.586460 0.000000 -0.001310 
#    y 0.000000 1.590020 0.000000 
#    z -0.001310 0.000000 1.602350 
# 
# From -- ./inp_files/378462.got.cif
#   From: 2010.05.17/outbox.cif.g08.bks.cpg/sg12_190_cif.got.tgz:378462.got - 2010.06.03 13:09:07.
