data_PCOD9181603
_publ_section_title
;
Structure prediction by ZEFSAII (Michael W. Deem and Ramdas Pophale) SiO2 
 PCOD9181603
Probable space group: C 2/M
;
_chemical_formula_sum "Si O2"
_cell_formula_units_Z 56
_cell_length_a 21.380872
_cell_length_b 7.788477
_cell_length_c 31.008938
_cell_angle_alpha 90.000000
_cell_angle_beta 146.550237
_cell_angle_gamma 90.000000
_cell_volume 2846.285667
_symmetry_space_group_name_H-M "C 2/M"
_symmetry_group_IT_number 12
_symmetry_cell_setting 'monoclinic'
loop_
_space_group_symop_operation_xyz
x,y,z
-x,y,-z
-x,-y,-z
x,-y,z
1/2+x,1/2+y,z
1/2-x,1/2+y,-z
1/2-x,1/2-y,-z
1/2+x,1/2-y,z
loop_
_atom_site_type_symbol
_atom_site_label
_atom_site_fract_x
_atom_site_fract_y
_atom_site_fract_z
Si Si1 0.669137 0.205846 0.230419
Si Si2 0.901575 0.794111 0.322773
Si Si3 0.682886 0.292084 0.339284
Si Si4 0.933958 0.292583 0.504951
Si Si5 0.304958 0.796998 0.098516
Si Si6 0.035278 0.201855 0.734645
Si Si7 0.418875 0.792322 0.074592
O O1 0.781414 0.274560 0.271554
O O2 0.674904 0.241303 0.284720
O O3 0.547529 0.269280 0.143258
O O4 0.668921 0.000000 0.225048
O O5 0.936529 0.724565 0.296069
O O6 0.997636 0.761505 0.413584
O O7 0.888596 0.000000 0.311289
O O8 0.681337 0.500000 0.339346
O O9 0.803764 0.233883 0.427655
O O10 0.575303 0.226114 0.304464
O O11 0.933465 0.500000 0.503596
O O12 0.000000 0.232588 0.500000
O O13 0.359030 0.718446 0.172177
O O14 0.371272 0.731876 0.093858
O O15 0.323401 0.000000 0.111595
O O16 0.172956 0.762579 0.013542
O O17 0.011781 0.000000 0.714819
O O18 0.418816 0.000000 0.075520
#
# Coordination Sequence:
#
# PCOD9181603 Si02
#       7
#     8   8   8   8   8   8   8
#     4  10  19  34  55  80 106 135 178 222 260 308
#     4  10  22  37  55  79 108 142 177 217 266 317
#     4  10  20  34  55  78 105 140 178 218 262 313
#     4  10  20  35  54  79 108 139 177 220 266 313
#     4  10  19  32  53  81 108 137 175 218 263 311
#     4  10  21  37  54  77 110 144 176 214 266 319
#     4   9  18  32  52  79 107 135 173 220 264 308
#
# _framework density 19.674765000000001
#
# number of rings (size 3 to 8) (size 9 to 14) (size 15 to 20)
#    0.000    2.143    2.857    0.429    0.000    3.143 
#    0.000    0.714    0.000    4.286    0.000    0.000 
#    0.000    0.000    0.000    0.000    0.000    0.000 
#
# Total GULP energy -156298.599003 kJ/mol
# GULP energy per Si atom -5582.092822 kJ/mol
# Density = 1.962998 g / cm^3
# Si number density = 19.674765 Si / 1000 Ang^3
#
#
#
# Elastic Constant Matrix: (Units=GPa)
#
#
# Indices 1 2 3 4 5 6 
#
# 1 154.6899 4.2168 91.4000 0.0000 1.8125 0.0004
# 2 4.2168 23.2377 -7.9657 -0.0001 5.1111 0.0017
# 3 91.4000 -7.9657 147.8046 0.0001 15.4580 -0.0002
# 4 0.0000 -0.0001 0.0001 18.6168 -0.0001 -6.5788
# 5 1.8125 5.1111 15.4580 -0.0001 31.8617 0.0000
# 6 0.0004 0.0017 -0.0002 -6.5788 0.0000 13.4402
#
#
#
# Elastic Compliance Matrix: (Units=1/GPa)
#
#
# Indices 1 2 3 4 5 6 
#
# 1 0.010998 -0.005420 -0.007499 0.000000 0.003882 0.000000
# 2 -0.005420 0.048882 0.007136 -0.000002 -0.010995 -0.000007
# 3 -0.007499 0.007136 0.012497 0.000000 -0.006781 -0.000001
# 4 0.000000 -0.000002 0.000000 0.064949 0.000001 0.031792
# 5 0.003882 -0.010995 -0.006781 0.000001 0.036218 0.000002
# 6 0.000000 -0.000007 -0.000001 0.031792 0.000002 0.089965
#
#
# Mechanical properties :
#
#
# Convention : Reuss Voigt Hill
#
# Bulk Modulus (GPa) = 16.44468 55.67047 36.05757
# Shear Modulus (GPa) = 16.92940 28.65582 22.79261
#
# Velocity S-wave (km/s) = 2.93655 3.82052 3.40732
# Velocity P-wave (km/s) = 4.45804 6.91510 5.81776
#
# Compressibility (1/GPa) = 0.06080993
#
# Stress axis : x y z
#
# Youngs Moduli (GPa) = 90.92934 20.45763 80.02180
#
# Poissons Ratio (x) = 0.11088 0.60007
# Poissons Ratio (y) = 0.49284 -0.57103
# Poissons Ratio (z) = 0.68186 -0.14598
#
# Static dielectric constant tensor:
#      x y z
#    x 1.690090 0.000000 0.031400 
#    y 0.000000 1.722860 0.000000 
#    z 0.031400 0.000000 1.671930 
# 
# From -- ./inp_files/380580.got.cif
#   From: 2010.05.17/outbox.cif.g08.bks.cpg/sg12_191_cif.got.tgz:380580.got - 2010.06.03 13:09:07.
