data_PCOD9181916
_publ_section_title
;
Structure prediction by ZEFSAII (Michael W. Deem and Ramdas Pophale) SiO2 
 PCOD9181916
Probable space group: C 2/M
;
_chemical_formula_sum "Si O2"
_cell_formula_units_Z 64
_cell_length_a 11.859390
_cell_length_b 16.391466
_cell_length_c 17.156791
_cell_angle_alpha 90.000000
_cell_angle_beta 121.438340
_cell_angle_gamma 90.000000
_cell_volume 2845.562033
_symmetry_space_group_name_H-M "C 2/M"
_symmetry_group_IT_number 12
_symmetry_cell_setting 'monoclinic'
loop_
_space_group_symop_operation_xyz
x,y,z
-x,y,-z
-x,-y,-z
x,-y,z
1/2+x,1/2+y,z
1/2-x,1/2+y,-z
1/2-x,1/2-y,-z
1/2+x,1/2-y,z
loop_
_atom_site_type_symbol
_atom_site_label
_atom_site_fract_x
_atom_site_fract_y
_atom_site_fract_z
Si Si1 0.281926 0.858651 0.940076
Si Si2 0.712605 0.403907 0.235535
Si Si3 0.882171 0.655283 0.693568
Si Si4 0.476183 0.329733 0.239011
Si Si5 0.472320 0.845418 0.405369
Si Si6 0.013675 0.591274 0.109659
Si Si7 0.567459 0.654942 0.601459
Si Si8 0.856070 0.095818 0.953021
O O1 0.357318 0.906149 0.898499
O O2 0.167521 0.811851 0.851190
O O3 0.413390 0.839185 0.040436
O O4 0.199508 0.896472 0.981240
O O5 0.738474 0.500000 0.249030
O O6 0.566752 0.384994 0.215372
O O7 0.822549 0.360541 0.326302
O O8 0.725358 0.373362 0.150712
O O9 0.942229 0.746077 0.723458
O O10 0.944715 0.605961 0.787542
O O11 0.724603 0.655358 0.644352
O O12 0.932176 0.623303 0.628267
O O13 0.459083 0.371588 0.318303
O O14 0.500000 0.881050 0.500000
O O15 0.487551 0.747708 0.415962
O O16 0.953787 0.500000 0.081006
O O17 0.500000 0.615655 0.500000
O O18 0.868903 0.000000 0.940680
O O19 0.000000 0.135272 0.000000
#
# Coordination Sequence:
#
# PCOD9181916 Si02
#       8
#     8   8   8   8   8   8   8   8
#     4  11  21  39  62  90 122 164 210 257 296 371
#     4  11  23  39  61  92 132 168 206 259 315 374
#     4  11  23  43  67  94 130 162 209 266 316 375
#     4  11  23  40  67  95 127 163 215 261 315 372
#     4  10  23  39  65  92 121 163 213 257 313 377
#     4  11  24  41  66  92 125 168 211 257 315 377
#     4  10  22  41  69  95 120 163 212 267 318 372
#     4  10  19  32  54  83 117 162 202 238 294 361
#
# _framework density 22.491164000000001
#
# number of rings (size 3 to 8) (size 9 to 14) (size 15 to 20)
#    0.000    1.375    3.750    2.250    1.750    4.750 
#    0.000    2.500    0.000    0.750    0.000    0.000 
#    0.000    0.000    0.000    0.000    0.000    0.000 
#
# Total GULP energy -178370.811199 kJ/mol
# GULP energy per Si atom -5574.087850 kJ/mol
# Density = 2.243997 g / cm^3
# Si number density = 22.491164 Si / 1000 Ang^3
#
#
#
# Elastic Constant Matrix: (Units=GPa)
#
#
# Indices 1 2 3 4 5 6 
#
# 1 57.4273 -53.3729 5.3960 0.0000 -22.9750 0.0000
# 2 -53.3729 -25.0021 -32.5562 0.0000 -9.6379 0.0000
# 3 5.3960 -32.5562 123.3845 0.0000 -28.3096 0.0000
# 4 0.0000 0.0000 0.0000 15.1255 0.0000 0.8042
# 5 -22.9750 -9.6379 -28.3096 0.0000 46.3779 0.0000
# 6 0.0000 0.0000 0.0000 0.8042 0.0000 12.3085
#
#
#
# Elastic Compliance Matrix: (Units=1/GPa)
#
#
# Indices 1 2 3 4 5 6 
#
# 1 0.007296 -0.010921 -0.003363 0.000000 -0.000709 0.000000
# 2 -0.010921 -0.008082 -0.003816 0.000000 -0.009419 0.000000
# 3 -0.003363 -0.003816 0.007769 0.000000 0.002283 0.000000
# 4 0.000000 0.000000 0.000000 0.066344 0.000000 -0.004335
# 5 -0.000709 -0.009419 0.002283 0.000000 0.020647 0.000000
# 6 0.000000 0.000000 0.000000 -0.004335 0.000000 0.081528
#
#
# Mechanical properties :
#
#
# Convention : Reuss Voigt Hill
#
# Bulk Modulus (GPa) = -34.22352 -0.58407 -17.40379
# Shear Modulus (GPa) = 24.75700 30.51856 27.63778
#
# Velocity S-wave (km/s) = 3.32134 3.68763 3.50927
# Velocity P-wave (km/s) = 0.73554 4.22743 2.94365
#
# Compressibility (1/GPa) = -0.02921967
#
# Stress axis : x y z
#
# Youngs Moduli (GPa) = 137.06992 -123.72900 128.72152
#
# Poissons Ratio (x) = -1.35130 0.43293
# Poissons Ratio (y) = 1.49700 0.49122
# Poissons Ratio (z) = 0.46101 -0.47216
#
# Static dielectric constant tensor:
#      x y z
#    x 1.836250 0.000000 -0.016280 
#    y 0.000000 1.910580 0.000000 
#    z -0.016280 0.000000 1.876510 
# 
# From -- ./inp_files/265104.got.cif
#   From: 2010.05.17/outbox.cif.g08.bks.cpg/sg12_133_cif.got.tgz:265104.got - 2010.06.03 13:09:07.
