data_PCOD9181080
_publ_section_title
;
Structure prediction by ZEFSAII (Michael W. Deem and Ramdas Pophale) SiO2 
 PCOD9181080
Probable space group: C 2/M
;
_chemical_formula_sum "Si O2"
_cell_formula_units_Z 64
_cell_length_a 18.732024
_cell_length_b 8.811585
_cell_length_c 23.275657
_cell_angle_alpha 90.000000
_cell_angle_beta 112.146030
_cell_angle_gamma 90.000000
_cell_volume 3558.424009
_symmetry_space_group_name_H-M "C 2/M"
_symmetry_group_IT_number 12
_symmetry_cell_setting 'monoclinic'
loop_
_space_group_symop_operation_xyz
x,y,z
-x,y,-z
-x,-y,-z
x,-y,z
1/2+x,1/2+y,z
1/2-x,1/2+y,-z
1/2-x,1/2-y,-z
1/2+x,1/2-y,z
loop_
_atom_site_type_symbol
_atom_site_label
_atom_site_fract_x
_atom_site_fract_y
_atom_site_fract_z
Si Si1 0.209642 0.816660 0.251600
Si Si2 0.235969 0.317992 0.134232
Si Si3 0.042698 0.183448 0.249741
Si Si4 0.673064 0.682670 0.006148
Si Si5 0.400529 0.683902 0.129479
Si Si6 0.084471 0.824708 0.495452
Si Si7 0.485801 0.181102 0.633905
Si Si8 0.351604 0.817609 0.375127
O O1 0.223195 0.742827 0.193955
O O2 0.126274 0.774421 0.250955
O O3 0.276787 0.771863 0.316442
O O4 0.212634 0.000000 0.246408
O O5 0.232475 0.500000 0.131340
O O6 0.174566 0.249997 0.070318
O O7 0.321534 0.270665 0.137975
O O8 0.975121 0.237636 0.186380
O O9 0.029559 0.247281 0.309122
O O10 0.039303 0.000000 0.251436
O O11 0.677681 0.500000 0.010170
O O12 0.750000 0.750000 0.000000
O O13 0.607048 0.725943 0.940089
O O14 0.401870 0.500000 0.131022
O O15 0.141428 0.753515 0.559605
O O16 0.000000 0.816164 0.500000
O O17 0.074178 0.737974 0.432492
O O18 0.102711 0.000000 0.490537
O O19 0.571335 0.225030 0.637159
O O20 0.483115 0.000000 0.636654
O O21 0.351989 0.000000 0.381135
#
# Coordination Sequence:
#
# PCOD9181080 Si02
#       8
#     8   8   8   8   8   8   8   8
#     4  10  21  35  51  72 100 134 167 203 247 293
#     4  10  19  32  52  76 101 130 166 207 248 293
#     4  10  20  35  52  71  99 132 168 206 243 290
#     4   9  16  29  50  76 103 128 161 205 251 296
#     4   8  16  31  52  76  98 126 164 204 245 289
#     4   9  17  30  51  78 102 126 161 203 245 289
#     4  10  19  32  52  76 102 130 160 200 248 294
#     4   9  18  33  52  76 103 129 161 201 248 296
#
# _framework density 17.985491
#
# number of rings (size 3 to 8) (size 9 to 14) (size 15 to 20)
#    0.000    2.625    0.000    3.000    0.000    3.000 
#    0.000    4.375    0.000    3.750    0.000    0.000 
#    0.000    0.000    0.000    0.000    0.000    0.000 
#
# Total GULP energy -178412.900477 kJ/mol
# GULP energy per Si atom -5575.403140 kJ/mol
# Density = 1.794456 g / cm^3
# Si number density = 17.985491 Si / 1000 Ang^3
#
#
#
# Elastic Constant Matrix: (Units=GPa)
#
#
# Indices 1 2 3 4 5 6 
#
# 1 71.6298 28.9502 82.2377 0.0000 12.9499 0.0000
# 2 28.9502 30.8456 47.5746 0.0000 7.6684 0.0000
# 3 82.2377 47.5746 214.4027 0.0000 21.2367 0.0000
# 4 0.0000 0.0000 0.0000 35.7275 0.0000 -7.0623
# 5 12.9499 7.6684 21.2367 0.0000 -3.3679 0.0000
# 6 0.0000 0.0000 0.0000 -7.0623 0.0000 14.2488
#
#
#
# Elastic Compliance Matrix: (Units=1/GPa)
#
#
# Indices 1 2 3 4 5 6 
#
# 1 0.027605 -0.016773 -0.008370 0.000000 0.015177 0.000000
# 2 -0.016773 0.055882 -0.007498 0.000000 0.015464 0.000000
# 3 -0.008370 -0.007498 0.008874 0.000000 0.006703 0.000000
# 4 0.000000 0.000000 0.000000 0.031030 0.000000 0.015380
# 5 0.015177 0.015464 0.006703 0.000000 -0.161087 0.000000
# 6 0.000000 0.000000 0.000000 0.015380 0.000000 0.077804
#
#
# Mechanical properties :
#
#
# Convention : Reuss Voigt Hill
#
# Bulk Modulus (GPa) = 36.92772 70.48924 53.70848
# Shear Modulus (GPa) = 43.69998 19.86272 31.78135
#
# Velocity S-wave (km/s) = 4.93458 3.32682 4.20820
# Velocity P-wave (km/s) = 7.28308 7.35080 7.31702
#
# Compressibility (1/GPa) = 0.02707993
#
# Stress axis : x y z
#
# Youngs Moduli (GPa) = 36.22499 17.89496 112.68319
#
# Poissons Ratio (x) = 0.30014 0.94316
# Poissons Ratio (y) = 0.60759 0.84491
# Poissons Ratio (z) = 0.30320 0.13418
#
# Static dielectric constant tensor:
#      x y z
#    x 1.596550 0.000000 0.016680 
#    y 0.000000 1.603870 0.000000 
#    z 0.016680 0.000000 1.622800 
# 
# From -- ./inp_files/320015.got.cif
#   From: 2010.05.17/outbox.cif.g08.bks.cpg/sg12_161_cif.got.tgz:320015.got - 2010.06.03 13:09:07.
