data_PCOD9181668
_publ_section_title
;
Structure prediction by ZEFSAII (Michael W. Deem and Ramdas Pophale) SiO2 
 PCOD9181668
Probable space group: C 2/M
;
_chemical_formula_sum "Si O2"
_cell_formula_units_Z 48
_cell_length_a 7.689600
_cell_length_b 25.542208
_cell_length_c 18.562363
_cell_angle_alpha 90.000000
_cell_angle_beta 133.658969
_cell_angle_gamma 90.000000
_cell_volume 2637.612570
_symmetry_space_group_name_H-M "C 2/M"
_symmetry_group_IT_number 12
_symmetry_cell_setting 'monoclinic'
loop_
_space_group_symop_operation_xyz
x,y,z
-x,y,-z
-x,-y,-z
x,-y,z
1/2+x,1/2+y,z
1/2-x,1/2+y,-z
1/2-x,1/2-y,-z
1/2+x,1/2-y,z
loop_
_atom_site_type_symbol
_atom_site_label
_atom_site_fract_x
_atom_site_fract_y
_atom_site_fract_z
Si Si1 0.860270 0.061948 0.891065
Si Si2 0.355642 0.308043 0.532804
Si Si3 0.486663 0.096353 0.419923
Si Si4 0.261559 0.060520 0.883758
Si Si5 0.452945 0.624195 0.299399
Si Si6 0.855046 0.560853 0.688204
O O1 0.596872 0.082749 0.796286
O O2 0.036947 0.065002 0.873672
O O3 0.822185 0.000000 0.895274
O O4 0.000000 0.084503 0.000000
O O5 0.500000 0.316101 0.500000
O O6 0.250000 0.250000 0.500000
O O7 0.510112 0.320034 0.649932
O O8 0.142089 0.350661 0.472859
O O9 0.500000 0.066711 0.500000
O O10 0.591830 0.068043 0.380809
O O11 0.205945 0.110107 0.334764
O O12 0.235619 0.104570 0.814929
O O13 0.261680 0.000000 0.854728
O O14 0.500000 0.066162 0.000000
O O15 0.377407 0.589463 0.347123
O O16 0.830826 0.500000 0.696692
#
# Coordination Sequence:
#
# PCOD9181668 Si02
#       6
#     8   8   8   8   8   8
#     4   9  17  30  48  73 108 152 201 239 268 317
#     4  11  22  42  65  87 110 142 190 249 305 353
#     4  10  22  38  55  81 112 145 194 239 283 349
#     4  10  19  32  53  82 119 161 199 235 280 338
#     4  11  21  36  58  85 117 149 195 245 285 348
#     4  11  21  34  53  78 117 159 189 230 285 342
#
# _framework density 18.198277000000001
#
# number of rings (size 3 to 8) (size 9 to 14) (size 15 to 20)
#    0.000    1.667    3.333    3.000    0.000    3.667 
#    0.000    8.333    0.000    0.000    0.000    5.833 
#    0.000    0.000    0.000    0.000    0.000    0.000 
#
# Total GULP energy -133686.352673 kJ/mol
# GULP energy per Si atom -5570.264695 kJ/mol
# Density = 1.815686 g / cm^3
# Si number density = 18.198277 Si / 1000 Ang^3
#
#
#
# Elastic Constant Matrix: (Units=GPa)
#
#
# Indices 1 2 3 4 5 6 
#
# 1 110.6799 24.9905 18.9556 0.0000 -0.9762 0.0000
# 2 24.9905 63.2908 37.4041 0.0000 -3.1775 0.0000
# 3 18.9556 37.4041 88.4465 0.0000 -13.9848 0.0000
# 4 0.0000 0.0000 0.0000 19.5461 0.0000 -0.6968
# 5 -0.9762 -3.1775 -13.9848 0.0000 35.7041 0.0000
# 6 0.0000 0.0000 0.0000 -0.6968 0.0000 18.7548
#
#
#
# Elastic Compliance Matrix: (Units=1/GPa)
#
#
# Indices 1 2 3 4 5 6 
#
# 1 0.009949 -0.003539 -0.000685 0.000000 -0.000311 0.000000
# 2 -0.003539 0.022424 -0.008980 0.000000 -0.001619 0.000000
# 3 -0.000685 -0.008980 0.016120 0.000000 0.005496 0.000000
# 4 0.000000 0.000000 0.000000 0.051229 0.000000 0.001903
# 5 -0.000311 -0.001619 0.005496 0.000000 0.030008 0.000000
# 6 0.000000 0.000000 0.000000 0.001903 0.000000 0.053390
#
#
# Mechanical properties :
#
#
# Convention : Reuss Voigt Hill
#
# Bulk Modulus (GPa) = 45.28249 47.23528 46.25888
# Shear Modulus (GPa) = 23.05323 26.87214 24.96268
#
# Velocity S-wave (km/s) = 3.56305 3.84686 3.70767
# Velocity P-wave (km/s) = 6.47024 6.76339 6.61843
#
# Compressibility (1/GPa) = 0.02208359
#
# Stress axis : x y z
#
# Youngs Moduli (GPa) = 100.51553 44.59578 62.03545
#
# Poissons Ratio (x) = 0.15784 0.04247
# Poissons Ratio (y) = 0.35576 0.55710
# Poissons Ratio (z) = 0.06881 0.40049
#
# Static dielectric constant tensor:
#      x y z
#    x 1.656390 0.000000 -0.010040 
#    y 0.000000 1.590220 0.000000 
#    z -0.010040 0.000000 1.719030 
# 
# From -- ./inp_files/302194.got.cif
#   From: 2010.05.17/outbox.cif.g08.bks.cpg/sg12_152_cif.got.tgz:302194.got - 2010.06.03 13:09:07.
