data_PCOD9181974
_publ_section_title
;
Structure prediction by ZEFSAII (Michael W. Deem and Ramdas Pophale) SiO2 
 PCOD9181974
Probable space group: C 2/M
;
_chemical_formula_sum "Si O2"
_cell_formula_units_Z 48
_cell_length_a 20.311881
_cell_length_b 7.383748
_cell_length_c 14.125189
_cell_angle_alpha 90.000000
_cell_angle_beta 73.556572
_cell_angle_gamma 90.000000
_cell_volume 2031.819061
_symmetry_space_group_name_H-M "C 2/M"
_symmetry_group_IT_number 12
_symmetry_cell_setting 'monoclinic'
loop_
_space_group_symop_operation_xyz
x,y,z
-x,y,-z
-x,-y,-z
x,-y,z
1/2+x,1/2+y,z
1/2-x,1/2+y,-z
1/2-x,1/2-y,-z
1/2+x,1/2-y,z
loop_
_atom_site_type_symbol
_atom_site_label
_atom_site_fract_x
_atom_site_fract_y
_atom_site_fract_z
Si Si1 0.152558 0.214066 0.642535
Si Si2 0.921256 0.778458 0.518560
Si Si3 0.210622 0.216117 0.114047
Si Si4 0.079058 0.220383 0.069682
Si Si5 0.710838 0.717533 0.320599
Si Si6 0.078861 0.779359 0.859363
O O1 0.113514 0.282959 0.565938
O O2 0.233991 0.235542 0.621336
O O3 0.121149 0.288198 0.753120
O O4 0.139031 0.000000 0.647365
O O5 0.865984 0.723648 0.620837
O O6 0.000000 0.719554 0.500000
O O7 0.922771 0.000000 0.518223
O O8 0.133265 0.280722 0.124827
O O9 0.233807 0.286414 0.207219
O O10 0.209719 0.000000 0.123299
O O11 0.250000 0.250000 0.000000
O O12 0.000822 0.273992 0.117690
O O13 0.079326 0.000000 0.069446
O O14 0.101709 0.278586 0.954901
O O15 0.709722 0.500000 0.318895
O O16 0.081300 0.000000 0.858838
#
# Coordination Sequence:
#
# PCOD9181974 Si02
#       6
#     8   8   8   8   8   8
#     4  10  19  32  55  79 102 137 178 219 260 310
#     4   9  19  34  54  81 108 134 174 226 270 306
#     4  10  20  32  50  74 104 139 173 212 259 312
#     4   8  14  25  41  66  98 125 160 211 256 293
#     4  10  21  35  52  77 110 144 172 211 268 318
#     4   8  14  24  43  71  96 122 162 212 256 291
#
# _framework density 23.624151000000001
#
# number of rings (size 3 to 8) (size 9 to 14) (size 15 to 20)
#    0.000    2.833    0.000    2.500    2.333    2.000 
#    0.000    0.000    0.000    3.000    0.000    4.667 
#    0.000    0.000    0.000    0.000    0.000    0.000 
#
# Total GULP energy -133998.366074 kJ/mol
# GULP energy per Si atom -5583.265253 kJ/mol
# Density = 2.357038 g / cm^3
# Si number density = 23.624151 Si / 1000 Ang^3
#
#
#
# Elastic Constant Matrix: (Units=GPa)
#
#
# Indices 1 2 3 4 5 6 
#
# 1 142.6151 -8.6988 72.9823 0.0000 18.2606 0.0000
# 2 -8.6988 81.2365 2.2087 0.0000 3.4955 0.0000
# 3 72.9823 2.2087 129.8671 0.0000 8.5791 0.0000
# 4 0.0000 0.0000 0.0000 1.5879 0.0000 1.8872
# 5 18.2606 3.4955 8.5791 0.0000 39.4490 0.0000
# 6 0.0000 0.0000 0.0000 1.8872 0.0000 8.5513
#
#
#
# Elastic Compliance Matrix: (Units=1/GPa)
#
#
# Indices 1 2 3 4 5 6 
#
# 1 0.010479 0.001437 -0.005666 0.000000 -0.003746 0.000000
# 2 0.001437 0.012556 -0.000917 0.000000 -0.001578 0.000000
# 3 -0.005666 -0.000917 0.010877 0.000000 0.000338 0.000000
# 4 0.000000 0.000000 0.000000 0.853648 0.000000 -0.188396
# 5 -0.003746 -0.001578 0.000338 0.000000 0.027149 0.000000
# 6 0.000000 0.000000 0.000000 -0.188396 0.000000 0.158519
#
#
# Mechanical properties :
#
#
# Convention : Reuss Voigt Hill
#
# Bulk Modulus (GPa) = 42.33418 54.07813 48.20616
# Shear Modulus (GPa) = 4.58130 29.06609 16.82369
#
# Velocity S-wave (km/s) = 1.39408 3.51145 2.67149
# Velocity P-wave (km/s) = 4.53322 6.27543 5.47408
#
# Compressibility (1/GPa) = 0.02362157
#
# Stress axis : x y z
#
# Youngs Moduli (GPa) = 95.43333 79.64012 91.93363
#
# Poissons Ratio (x) = -0.11446 0.52087
# Poissons Ratio (y) = -0.13716 0.08430
# Poissons Ratio (z) = 0.54070 0.07303
#
# Static dielectric constant tensor:
#      x y z
#    x 1.873100 0.000000 -0.004710 
#    y 0.000000 1.938700 0.000000 
#    z -0.004710 0.000000 1.934440 
# 
# From -- ./inp_files/153526.got.cif
#   From: 2010.05.17/outbox.cif.g08.bks.cpg/sg12_77_cif.got.tgz:153526.got - 2010.06.03 13:09:07.
