data_PCOD9181297
_publ_section_title
;
Structure prediction by ZEFSAII (Michael W. Deem and Ramdas Pophale) SiO2 
 PCOD9181297
Probable space group: C 2/M
;
_chemical_formula_sum "Si O2"
_cell_formula_units_Z 56
_cell_length_a 21.006082
_cell_length_b 8.701444
_cell_length_c 27.291726
_cell_angle_alpha 90.000000
_cell_angle_beta 39.465288
_cell_angle_gamma 90.000000
_cell_volume 3170.724700
_symmetry_space_group_name_H-M "C 2/M"
_symmetry_group_IT_number 12
_symmetry_cell_setting 'monoclinic'
loop_
_space_group_symop_operation_xyz
x,y,z
-x,y,-z
-x,-y,-z
x,-y,z
1/2+x,1/2+y,z
1/2-x,1/2+y,-z
1/2-x,1/2-y,-z
1/2+x,1/2-y,z
loop_
_atom_site_type_symbol
_atom_site_label
_atom_site_fract_x
_atom_site_fract_y
_atom_site_fract_z
Si Si1 0.305525 0.684388 0.821404
Si Si2 0.405165 0.686057 0.089966
Si Si3 0.556865 0.685323 0.820596
Si Si4 0.661662 0.685186 0.085387
Si Si5 0.674553 0.684380 0.503889
Si Si6 0.010339 0.684139 0.664775
Si Si7 0.158254 0.315310 0.666627
O O1 0.307223 0.500000 0.817534
O O2 0.198570 0.746321 0.867846
O O3 0.323491 0.731451 0.867185
O O4 0.398937 0.751692 0.735862
O O5 0.399769 0.500000 0.091461
O O6 0.420919 0.733576 0.137084
O O7 0.500000 0.732276 0.000000
O O8 0.558303 0.500000 0.818708
O O9 0.445848 0.737318 0.870735
O O10 0.631666 0.745410 0.734630
O O11 0.663767 0.500000 0.081998
O O12 0.750000 0.750000 0.000000
O O13 0.670638 0.500000 0.509578
O O14 0.750000 0.750000 0.500000
O O15 0.568511 0.753705 0.582469
O O16 0.731621 0.725472 0.419675
O O17 0.010077 0.500000 0.664103
O O18 0.075766 0.732849 0.674234
O O19 0.152821 0.500000 0.672725
#
# Coordination Sequence:
#
# PCOD9181297 Si02
#       7
#     8   8   8   8   8   8   8
#     4  11  22  36  56  81 110 142 180 229 276 323
#     4  10  22  40  59  77 105 146 187 226 273 329
#     4  10  20  35  55  78 106 141 181 224 269 322
#     4  10  21  35  53  79 105 136 176 222 275 323
#     4   9  17  29  47  76 112 146 181 220 268 322
#     4  10  19  32  52  80 111 146 183 219 272 327
#     4   9  18  31  50  79 111 143 177 218 269 320
#
# _framework density 17.661577000000001
#
# number of rings (size 3 to 8) (size 9 to 14) (size 15 to 20)
#    0.000    2.143    1.429    3.000    0.000    6.571 
#    0.000    0.000    0.000    0.857    0.000    6.000 
#    0.000    0.000    0.000    0.000    0.000    0.000 
#
# Total GULP energy -156209.722528 kJ/mol
# GULP energy per Si atom -5578.918662 kJ/mol
# Density = 1.762138 g / cm^3
# Si number density = 17.661577 Si / 1000 Ang^3
#
#
#
# Elastic Constant Matrix: (Units=GPa)
#
#
# Indices 1 2 3 4 5 6 
#
# 1 91.9603 30.7568 60.3929 0.0001 -6.3594 -0.0001
# 2 30.7568 26.7646 44.7158 -0.0004 -0.9157 0.0008
# 3 60.3929 44.7158 189.2568 0.0003 -3.7123 -0.0003
# 4 0.0001 -0.0004 0.0003 36.8479 0.0001 -0.4575
# 5 -6.3594 -0.9157 -3.7123 0.0001 25.5342 0.0000
# 6 -0.0001 0.0008 -0.0003 -0.4575 0.0000 23.2147
#
#
#
# Elastic Compliance Matrix: (Units=1/GPa)
#
#
# Indices 1 2 3 4 5 6 
#
# 1 0.018224 -0.018540 -0.001363 0.000000 0.003676 0.000001
# 2 -0.018540 0.080591 -0.013197 0.000001 -0.003646 -0.000003
# 3 -0.001363 -0.013197 0.008846 0.000000 0.000473 0.000001
# 4 0.000000 0.000001 0.000000 0.027145 0.000000 0.000535
# 5 0.003676 -0.003646 0.000473 0.000000 0.040017 0.000000
# 6 0.000001 -0.000003 0.000001 0.000535 0.000000 0.043087
#
#
# Mechanical properties :
#
#
# Convention : Reuss Voigt Hill
#
# Bulk Modulus (GPa) = 24.11820 64.41253 44.26536
# Shear Modulus (GPa) = 16.78250 28.59380 22.68815
#
# Velocity S-wave (km/s) = 3.08592 4.02802 3.58803
# Velocity P-wave (km/s) = 5.13640 7.62777 6.50252
#
# Compressibility (1/GPa) = 0.04146246
#
# Stress axis : x y z
#
# Youngs Moduli (GPa) = 54.87171 12.40835 113.04523
#
# Poissons Ratio (x) = 0.23005 0.15408
# Poissons Ratio (y) = 1.01731 1.49182
# Poissons Ratio (z) = 0.07479 0.16375
#
# Static dielectric constant tensor:
#      x y z
#    x 1.579100 0.000000 0.014600 
#    y 0.000000 1.598930 0.000000 
#    z 0.014600 0.000000 1.604040 
# 
# From -- ./inp_files/362981.got.cif
#   From: 2010.05.17/outbox.cif.g08.bks.cpg/sg12_182_cif.got.tgz:362981.got - 2010.06.03 13:09:07.
