data_PCOD9181415
_publ_section_title
;
Structure prediction by ZEFSAII (Michael W. Deem and Ramdas Pophale) SiO2 
 PCOD9181415
Probable space group: C 2/M
;
_chemical_formula_sum "Si O2"
_cell_formula_units_Z 56
_cell_length_a 24.980519
_cell_length_b 7.651128
_cell_length_c 36.022039
_cell_angle_alpha 90.000000
_cell_angle_beta 155.242840
_cell_angle_gamma 90.000000
_cell_volume 2883.195683
_symmetry_space_group_name_H-M "C 2/M"
_symmetry_group_IT_number 12
_symmetry_cell_setting 'monoclinic'
loop_
_space_group_symop_operation_xyz
x,y,z
-x,y,-z
-x,-y,-z
x,-y,z
1/2+x,1/2+y,z
1/2-x,1/2+y,-z
1/2-x,1/2-y,-z
1/2+x,1/2-y,z
loop_
_atom_site_type_symbol
_atom_site_label
_atom_site_fract_x
_atom_site_fract_y
_atom_site_fract_z
Si Si1 0.187430 0.713862 0.593324
Si Si2 0.760522 0.797162 0.078978
Si Si3 0.492282 0.213304 0.119706
Si Si4 0.718112 0.795724 0.207048
Si Si5 0.533235 0.295863 0.230677
Si Si6 0.079345 0.710982 0.605222
Si Si7 0.140970 0.799072 0.079981
O O1 0.189362 0.500000 0.594741
O O2 0.328052 0.778034 0.671174
O O3 0.152870 0.766780 0.613838
O O4 0.067713 0.767079 0.492547
O O5 0.901208 0.717413 0.162918
O O6 0.710982 0.789926 0.089836
O O7 0.772445 0.000000 0.075227
O O8 0.646787 0.725116 0.981666
O O9 0.599831 0.269560 0.157824
O O10 0.524142 0.281765 0.180418
O O11 0.494150 0.000000 0.121985
O O12 0.844974 0.773557 0.311294
O O13 0.717859 0.708666 0.166776
O O14 0.696081 0.000000 0.186436
O O15 0.536446 0.500000 0.243748
O O16 0.081208 0.500000 0.606823
O O17 0.122610 0.000000 0.056924
O O18 0.000000 0.724409 0.000000
#
# Coordination Sequence:
#
# PCOD9181415 Si02
#       7
#     8   8   8   8   8   8   8
#     4   8  15  28  49  76 103 133 168 209 252 296
#     4  10  21  36  52  73 104 140 172 208 255 302
#     4  10  20  32  47  73 108 141 166 200 256 304
#     4  11  21  33  52  76 106 136 166 209 258 303
#     4  10  19  32  53  77 103 138 176 207 245 303
#     4   9  16  30  51  74 103 135 169 209 253 299
#     4  11  23  37  55  76  97 131 177 217 251 296
#
# _framework density 19.422893999999999
#
# number of rings (size 3 to 8) (size 9 to 14) (size 15 to 20)
#    0.000    2.143    2.857    2.143    0.000    2.286 
#    0.000    2.143    0.000    0.857    0.000    0.000 
#    0.000    0.000    0.000    0.000    0.000    0.000 
#
# Total GULP energy -156279.929256 kJ/mol
# GULP energy per Si atom -5581.426045 kJ/mol
# Density = 1.937869 g / cm^3
# Si number density = 19.422894 Si / 1000 Ang^3
#
#
#
# Elastic Constant Matrix: (Units=GPa)
#
#
# Indices 1 2 3 4 5 6 
#
# 1 38.3304 -8.7892 33.7368 -0.0020 17.1315 0.0001
# 2 -8.7892 37.5701 -3.5490 0.0018 4.5383 0.0013
# 3 33.7368 -3.5490 153.8097 0.0000 22.1933 -0.0019
# 4 -0.0020 0.0018 0.0000 1.4204 0.0005 -4.4645
# 5 17.1315 4.5383 22.1933 0.0005 33.2159 0.0008
# 6 0.0001 0.0013 -0.0019 -4.4645 0.0008 11.9748
#
#
#
# Elastic Compliance Matrix: (Units=1/GPa)
#
#
# Indices 1 2 3 4 5 6 
#
# 1 0.043197 0.011878 -0.006366 -0.000285 -0.019649 -0.000108
# 2 0.011878 0.030560 -0.000458 0.000161 -0.009996 0.000057
# 3 -0.006366 -0.000458 0.008194 0.000015 -0.002129 0.000007
# 4 -0.000285 0.000161 0.000015 -4.096079 0.000211 -1.527130
# 5 -0.019649 -0.009996 -0.002129 0.000211 0.043029 0.000077
# 6 -0.000108 0.000057 0.000007 -1.527130 0.000077 -0.485847
#
#
# Mechanical properties :
#
#
# Convention : Reuss Voigt Hill
#
# Bulk Modulus (GPa) = 10.86245 30.27862 20.57054
# Shear Modulus (GPa) = -1.12705 23.20964 11.04130
#
# Velocity S-wave (km/s) = -0.76258 3.46057 2.38684
# Velocity P-wave (km/s) = 2.19758 5.62053 4.26731
#
# Compressibility (1/GPa) = 0.09206025
#
# Stress axis : x y z
#
# Youngs Moduli (GPa) = 23.14954 32.72272 122.03314
#
# Poissons Ratio (x) = -0.38868 0.77683
# Poissons Ratio (y) = -0.27497 0.05588
# Poissons Ratio (z) = 0.14736 0.01498
#
# Static dielectric constant tensor:
#      x y z
#    x 1.648380 0.000000 0.037580 
#    y 0.000000 1.722410 0.000000 
#    z 0.037580 0.000000 1.705210 
# 
# From -- ./inp_files/237324.got.cif
#   From: 2010.05.17/outbox.cif.g08.bks.cpg/sg12_119_cif.got.tgz:237324.got - 2010.06.03 13:09:07.
