data_PCOD9181392
_publ_section_title
;
Structure prediction by ZEFSAII (Michael W. Deem and Ramdas Pophale) SiO2 
 PCOD9181392
Probable space group: C 2/M
;
_chemical_formula_sum "Si O2"
_cell_formula_units_Z 64
_cell_length_a 20.408769
_cell_length_b 7.636806
_cell_length_c 29.463718
_cell_angle_alpha 90.000000
_cell_angle_beta 148.727200
_cell_angle_gamma 90.000000
_cell_volume 2383.846960
_symmetry_space_group_name_H-M "C 2/M"
_symmetry_group_IT_number 12
_symmetry_cell_setting 'monoclinic'
loop_
_space_group_symop_operation_xyz
x,y,z
-x,y,-z
-x,-y,-z
x,-y,z
1/2+x,1/2+y,z
1/2-x,1/2+y,-z
1/2-x,1/2-y,-z
1/2+x,1/2-y,z
loop_
_atom_site_type_symbol
_atom_site_label
_atom_site_fract_x
_atom_site_fract_y
_atom_site_fract_z
Si Si1 0.067640 0.293614 0.644619
Si Si2 0.648630 0.203507 0.103719
Si Si3 0.790071 0.702618 0.460413
Si Si4 0.855470 0.795455 0.404240
Si Si5 0.021597 0.789657 0.812632
Si Si6 0.479367 0.288513 0.685365
Si Si7 0.568409 0.208735 0.149161
Si Si8 0.790837 0.284775 0.957567
O O1 0.067257 0.500000 0.636636
O O2 0.926585 0.215922 0.551391
O O3 0.076831 0.261903 0.703757
O O4 0.157542 0.223203 0.657975
O O5 0.649984 0.281827 0.155332
O O6 0.717084 0.274579 0.099821
O O7 0.688883 0.000000 0.130841
O O8 0.500000 0.203264 0.000000
O O9 0.797902 0.500000 0.478111
O O10 0.775597 0.706181 0.396799
O O11 0.663977 0.776918 0.408392
O O12 0.000000 0.732733 0.500000
O O13 0.847646 0.000000 0.409636
O O14 0.920980 0.736649 0.790956
O O15 0.164512 0.726999 0.908041
O O16 0.002702 0.727514 0.750233
O O17 0.021780 0.000000 0.812235
O O18 0.477794 0.500000 0.685375
O O19 0.569503 0.000000 0.143051
O O20 0.425855 0.276247 0.055248
O O21 0.793533 0.500000 0.959091
#
# Coordination Sequence:
#
# PCOD9181392 Si02
#       8
#     8   8   8   8   8   8   8   8
#     4  10  19  32  53  76  96 123 162 205 245 290
#     4   7  11  22  43  69  90 110 145 192 232 264
#     4   9  18  33  52  73  97 127 163 202 245 290
#     4   9  17  30  51  78 103 124 152 196 246 294
#     4  10  20  32  46  66  96 130 157 188 235 288
#     4  10  21  35  48  66  98 135 166 201 246 291
#     4   9  16  28  49  72  92 118 156 201 238 273
#     4   8  14  27  48  71  92 119 157 195 233 279
#
# _framework density 26.847359999999998
#
# number of rings (size 3 to 8) (size 9 to 14) (size 15 to 20)
#    0.000    3.000    0.000    3.000    0.000    3.000 
#    0.000    1.250    0.000    5.625    0.000    0.000 
#    0.000    0.000    0.000    0.000    0.000    0.000 
#
# Total GULP energy -178799.481249 kJ/mol
# GULP energy per Si atom -5587.483789 kJ/mol
# Density = 2.678625 g / cm^3
# Si number density = 26.847360 Si / 1000 Ang^3
#
#
#
# Elastic Constant Matrix: (Units=GPa)
#
#
# Indices 1 2 3 4 5 6 
#
# 1 232.9620 4.0517 33.0809 0.0001 -22.3850 0.0000
# 2 4.0517 71.6955 -4.0301 0.0013 0.3076 -0.0012
# 3 33.0809 -4.0301 79.8439 0.0001 -26.0005 0.0001
# 4 0.0001 0.0013 0.0001 7.3367 0.0000 -10.5123
# 5 -22.3850 0.3076 -26.0005 0.0000 57.2530 0.0001
# 6 0.0000 -0.0012 0.0001 -10.5123 0.0001 18.8236
#
#
#
# Elastic Compliance Matrix: (Units=1/GPa)
#
#
# Indices 1 2 3 4 5 6 
#
# 1 0.004628 -0.000355 -0.001579 0.000000 0.001094 0.000000
# 2 -0.000355 0.014019 0.000921 -0.000006 0.000204 -0.000002
# 3 -0.001579 0.000921 0.015283 -0.000002 0.006318 -0.000001
# 4 0.000000 -0.000006 -0.000002 0.682142 -0.000002 0.380952
# 5 0.001094 0.000204 0.006318 -0.000002 0.020762 -0.000001
# 6 0.000000 -0.000002 -0.000001 0.380952 -0.000001 0.265874
#
#
# Mechanical properties :
#
#
# Convention : Reuss Voigt Hill
#
# Bulk Modulus (GPa) = 31.34430 50.07849 40.71139
# Shear Modulus (GPa) = 4.92432 40.10925 22.51679
#
# Velocity S-wave (km/s) = 1.35579 3.86939 2.89917
# Velocity P-wave (km/s) = 3.76181 6.21743 5.13847
#
# Compressibility (1/GPa) = 0.03190373
#
# Stress axis : x y z
#
# Youngs Moduli (GPa) = 216.07134 71.33255 65.43399
#
# Poissons Ratio (x) = 0.02532 0.10333
# Poissons Ratio (y) = 0.07671 -0.06028
# Poissons Ratio (z) = 0.34119 -0.06571
#
# Static dielectric constant tensor:
#      x y z
#    x 2.080430 0.000000 -0.015970 
#    y 0.000000 1.974950 0.000000 
#    z -0.015970 0.000000 2.290500 
# 
# From -- ./inp_files/365243.got.cif
#   From: 2010.05.17/outbox.cif.g08.bks.cpg/sg12_183_cif.got.tgz:365243.got - 2010.06.03 13:09:07.
