data_PCOD9181108
_publ_section_title
;
Structure prediction by ZEFSAII (Michael W. Deem and Ramdas Pophale) SiO2 
 PCOD9181108
Probable space group: C 2/M
;
_chemical_formula_sum "Si O2"
_cell_formula_units_Z 40
_cell_length_a 20.674541
_cell_length_b 7.993629
_cell_length_c 12.925821
_cell_angle_alpha 90.000000
_cell_angle_beta 46.425050
_cell_angle_gamma 90.000000
_cell_volume 1547.605928
_symmetry_space_group_name_H-M "C 2/M"
_symmetry_group_IT_number 12
_symmetry_cell_setting 'monoclinic'
loop_
_space_group_symop_operation_xyz
x,y,z
-x,y,-z
-x,-y,-z
x,-y,z
1/2+x,1/2+y,z
1/2-x,1/2+y,-z
1/2-x,1/2-y,-z
1/2+x,1/2-y,z
loop_
_atom_site_type_symbol
_atom_site_label
_atom_site_fract_x
_atom_site_fract_y
_atom_site_fract_z
Si Si1 0.369365 0.808449 0.853511
Si Si2 0.983760 0.200494 0.901907
Si Si3 0.952355 0.188190 0.444082
Si Si4 0.821805 0.798739 0.334948
Si Si5 0.777065 0.302078 0.749674
O O1 0.392102 0.740160 0.942526
O O2 0.469483 0.789741 0.697885
O O3 0.305561 0.732799 0.832865
O O4 0.344197 0.000000 0.891588
O O5 0.078029 0.252616 0.744804
O O6 0.983474 0.000000 0.907466
O O7 0.000000 0.264251 0.000000
O O8 0.000000 0.159223 0.500000
O O9 0.935784 0.000000 0.417329
O O10 0.750000 0.750000 0.500000
O O11 0.862639 0.720349 0.578263
O O12 0.797531 0.732680 0.246659
O O13 0.820189 0.000000 0.328208
O O14 0.762380 0.500000 0.781718
#
# Coordination Sequence:
#
# PCOD9181108 Si02
#       5
#     8   8   8   8   8
#     4  10  19  32  52  76 104 140 181 224 270 323
#     4  10  22  40  59  79 108 147 186 224 271 328
#     4   9  16  26  44  73 107 139 173 215 263 316
#     4  10  21  37  57  82 112 145 181 223 272 323
#     4   9  18  32  50  75 107 141 178 223 273 321
#
# _framework density 25.846373
#
# number of rings (size 3 to 8) (size 9 to 14) (size 15 to 20)
#    0.000    2.400    0.000    2.400    0.000    8.400 
#    0.000    1.000    0.000    0.000    0.000    0.000 
#    0.000    0.000    0.000    0.000    0.000    0.000 
#
# Total GULP energy -111517.981430 kJ/mol
# GULP energy per Si atom -5575.899072 kJ/mol
# Density = 2.578755 g / cm^3
# Si number density = 25.846373 Si / 1000 Ang^3
#
#
#
# Elastic Constant Matrix: (Units=GPa)
#
#
# Indices 1 2 3 4 5 6 
#
# 1 246.2874 14.6284 58.9115 0.0001 39.6654 -0.0001
# 2 14.6284 40.8354 13.1247 0.0001 2.8869 -0.0001
# 3 58.9115 13.1247 104.6128 0.0001 24.9996 -0.0001
# 4 0.0001 0.0001 0.0001 25.4638 0.0000 3.2848
# 5 39.6654 2.8869 24.9996 0.0000 51.3943 0.0000
# 6 -0.0001 -0.0001 -0.0001 3.2848 0.0000 30.1939
#
#
#
# Elastic Compliance Matrix: (Units=1/GPa)
#
#
# Indices 1 2 3 4 5 6 
#
# 1 0.005068 -0.000954 -0.002051 0.000000 -0.002860 0.000000
# 2 -0.000954 0.025698 -0.002849 0.000000 0.000679 0.000000
# 3 -0.002051 -0.002849 0.012056 0.000000 -0.004122 0.000000
# 4 0.000000 0.000000 0.000000 0.039830 0.000000 -0.004333
# 5 -0.002860 0.000679 -0.004122 0.000000 0.023632 0.000000
# 6 0.000000 0.000000 0.000000 -0.004333 0.000000 0.033591
#
#
# Mechanical properties :
#
#
# Convention : Reuss Voigt Hill
#
# Bulk Modulus (GPa) = 32.13914 62.78498 47.46206
# Shear Modulus (GPa) = 30.87279 41.74848 36.31063
#
# Velocity S-wave (km/s) = 3.45986 4.02338 3.75222
# Velocity P-wave (km/s) = 5.33128 6.77701 6.09715
#
# Compressibility (1/GPa) = 0.03111471
#
# Stress axis : x y z
#
# Youngs Moduli (GPa) = 197.30858 38.91344 82.94382
#
# Poissons Ratio (x) = 0.03713 0.17010
# Poissons Ratio (y) = 0.18827 0.23630
# Poissons Ratio (z) = 0.40465 0.11086
#
# Static dielectric constant tensor:
#      x y z
#    x 2.090130 0.000000 0.025930 
#    y 0.000000 1.972020 0.000000 
#    z 0.025930 0.000000 2.260480 
# 
# From -- ./inp_files/179070.got.cif
#   From: 2010.05.17/outbox.cif.g08.bks.cpg/sg12_90_cif.got.tgz:179070.got - 2010.06.03 13:09:07.
