data_PCOD9181572
_publ_section_title
;
Structure prediction by ZEFSAII (Michael W. Deem and Ramdas Pophale) SiO2 
 PCOD9181572
Probable space group: C 2/M
;
_chemical_formula_sum "Si O2"
_cell_formula_units_Z 64
_cell_length_a 22.502036
_cell_length_b 17.802881
_cell_length_c 19.241655
_cell_angle_alpha 90.000000
_cell_angle_beta 24.428071
_cell_angle_gamma 90.000000
_cell_volume 3187.741770
_symmetry_space_group_name_H-M "C 2/M"
_symmetry_group_IT_number 12
_symmetry_cell_setting 'monoclinic'
loop_
_space_group_symop_operation_xyz
x,y,z
-x,y,-z
-x,-y,-z
x,-y,z
1/2+x,1/2+y,z
1/2-x,1/2+y,-z
1/2-x,1/2-y,-z
1/2+x,1/2-y,z
loop_
_atom_site_type_symbol
_atom_site_label
_atom_site_fract_x
_atom_site_fract_y
_atom_site_fract_z
Si Si1 0.564324 0.089715 0.007181
Si Si2 0.278918 0.911047 0.382412
Si Si3 0.663692 0.172031 0.394096
Si Si4 0.142719 0.583247 0.125044
Si Si5 0.076873 0.159865 0.490472
Si Si6 0.317885 0.149385 0.776976
Si Si7 0.226875 0.184269 0.131751
Si Si8 0.203691 0.412233 0.487322
O O1 0.439062 0.114812 0.193283
O O2 0.588895 0.000000 0.986420
O O3 0.500000 0.104214 0.000000
O O4 0.703330 0.135856 0.880159
O O5 0.180618 0.895479 0.420731
O O6 0.230771 0.883065 0.509530
O O7 0.289582 0.000000 0.379757
O O8 0.663085 0.262183 0.388195
O O9 0.492226 0.155891 0.584136
O O10 0.725141 0.137364 0.257282
O O11 0.734723 0.138643 0.387463
O O12 0.175830 0.500000 0.061044
O O13 0.205014 0.591226 0.136622
O O14 0.969767 0.589162 0.315787
O O15 0.205607 0.648434 0.009323
O O16 0.000000 0.138217 0.500000
O O17 0.944117 0.174002 0.684023
O O18 0.253069 0.228035 0.873434
O O19 0.241679 0.500000 0.434073
#
# Coordination Sequence:
#
# PCOD9181572 Si02
#       8
#     8   8   8   8   8   8   8   8
#     4  10  20  33  51  76 107 141 179 222 267 317
#     4  10  21  36  52  78 112 143 183 228 268 318
#     4   9  17  34  55  78 110 142 178 226 273 322
#     4  10  19  32  53  80 109 141 183 224 270 325
#     4  11  21  36  55  78 111 147 182 222 266 323
#     4   9  18  32  52  79 110 142 174 228 274 319
#     4  11  19  33  55  79 109 143 176 219 269 324
#     4   9  18  34  56  81 108 141 181 228 275 321
#
# _framework density 20.076909000000001
#
# number of rings (size 3 to 8) (size 9 to 14) (size 15 to 20)
#    0.000    2.125    3.750    1.500    0.000    2.250 
#    0.000    2.500    0.000    0.000    0.000    0.000 
#    0.000    3.500    0.000    0.000    0.000    0.000 
#
# Total GULP energy -178317.454418 kJ/mol
# GULP energy per Si atom -5572.420451 kJ/mol
# Density = 2.003121 g / cm^3
# Si number density = 20.076909 Si / 1000 Ang^3
#
#
#
# Elastic Constant Matrix: (Units=GPa)
#
#
# Indices 1 2 3 4 5 6 
#
# 1 128.6846 36.1048 20.7471 0.0001 33.6346 -0.0001
# 2 36.1048 30.3131 13.1395 0.0036 7.6070 -0.0019
# 3 20.7471 13.1395 24.9549 0.0022 12.2799 -0.0012
# 4 0.0001 0.0036 0.0022 10.5135 -0.0001 6.3998
# 5 33.6346 7.6070 12.2799 -0.0001 30.3319 -0.0002
# 6 -0.0001 -0.0019 -0.0012 6.3998 -0.0002 32.6835
#
#
#
# Elastic Compliance Matrix: (Units=1/GPa)
#
#
# Indices 1 2 3 4 5 6 
#
# 1 0.015625 -0.016119 0.002540 0.000006 -0.014312 -0.000002
# 2 -0.016119 0.059473 -0.024187 -0.000019 0.012752 0.000006
# 3 0.002540 -0.024187 0.061312 -0.000006 -0.021572 0.000002
# 4 0.000006 -0.000019 -0.000006 0.107987 0.000001 -0.021145
# 5 -0.014312 0.012752 -0.021572 0.000001 0.054374 0.000000
# 6 -0.000002 0.000006 0.000002 -0.021145 0.000000 0.034737
#
#
# Mechanical properties :
#
#
# Convention : Reuss Voigt Hill
#
# Bulk Modulus (GPa) = 16.42727 35.99281 26.21004
# Shear Modulus (GPa) = 11.64598 22.30320 16.97459
#
# Velocity S-wave (km/s) = 2.41107 3.33661 2.91087
# Velocity P-wave (km/s) = 3.99387 5.72803 4.93768
#
# Compressibility (1/GPa) = 0.06087439
#
# Stress axis : x y z
#
# Youngs Moduli (GPa) = 64.00113 16.81445 16.31015
#
# Poissons Ratio (x) = 0.27104 -0.04142
# Poissons Ratio (y) = 1.03166 0.39450
# Poissons Ratio (z) = -0.16254 0.40670
#
# Static dielectric constant tensor:
#      x y z
#    x 1.774320 0.000000 0.049670 
#    y 0.000000 1.698040 0.000000 
#    z 0.049670 0.000000 1.725980 
# 
# From -- ./inp_files/285194.got.cif
#   From: 2010.05.17/outbox.cif.g08.bks.cpg/sg12_143_cif.got.tgz:285194.got - 2010.06.03 13:09:07.
