data_PCOD9181410
_publ_section_title
;
Structure prediction by ZEFSAII (Michael W. Deem and Ramdas Pophale) SiO2 
 PCOD9181410
Probable space group: C 2/M
;
_chemical_formula_sum "Si O2"
_cell_formula_units_Z 56
_cell_length_a 14.750871
_cell_length_b 9.557213
_cell_length_c 21.831247
_cell_angle_alpha 90.000000
_cell_angle_beta 96.217715
_cell_angle_gamma 90.000000
_cell_volume 3059.603882
_symmetry_space_group_name_H-M "C 2/M"
_symmetry_group_IT_number 12
_symmetry_cell_setting 'monoclinic'
loop_
_space_group_symop_operation_xyz
x,y,z
-x,y,-z
-x,-y,-z
x,-y,z
1/2+x,1/2+y,z
1/2-x,1/2+y,-z
1/2-x,1/2-y,-z
1/2+x,1/2-y,z
loop_
_atom_site_type_symbol
_atom_site_label
_atom_site_fract_x
_atom_site_fract_y
_atom_site_fract_z
Si Si1 0.352620 0.839220 0.072423
Si Si2 0.887021 0.835694 0.821765
Si Si3 0.727651 0.167281 0.407395
Si Si4 0.367679 0.660800 0.957529
Si Si5 0.896143 0.832951 0.509781
Si Si6 0.089068 0.162631 0.806273
Si Si7 0.746376 0.333688 0.731102
O O1 0.242544 0.837487 0.057544
O O2 0.376882 0.760286 0.136524
O O3 0.382577 0.000000 0.075938
O O4 0.391405 0.757251 0.016537
O O5 0.903435 0.793348 0.893655
O O6 0.811021 0.745931 0.783094
O O7 0.981312 0.820957 0.792646
O O8 0.860715 0.000000 0.821782
O O9 0.823727 0.192445 0.449471
O O10 0.647752 0.249203 0.436766
O O11 0.737199 0.210343 0.337404
O O12 0.710940 0.000000 0.409001
O O13 0.394999 0.500000 0.971070
O O14 0.000000 0.793489 0.500000
O O15 0.895991 0.000000 0.522410
O O16 0.144263 0.190505 0.748377
O O17 0.106419 0.000000 0.825120
O O18 0.763686 0.500000 0.735752
#
# Coordination Sequence:
#
# PCOD9181410 Si02
#       7
#     8   8   8   8   8   8   8
#     4  10  19  32  53  77 102 134 175 222 272 326
#     4  10  21  37  56  78 103 138 182 225 267 321
#     4   9  19  35  54  80 114 146 178 215 262 311
#     4   9  18  33  52  74 101 134 174 221 274 325
#     4   9  18  34  58  86 113 143 180 220 257 302
#     4  10  21  36  55  77 104 139 177 219 273 323
#     4  10  21  37  55  77 109 145 177 218 265 313
#
# _framework density 18.303023
#
# number of rings (size 3 to 8) (size 9 to 14) (size 15 to 20)
#    0.000    2.429    1.429    0.429    0.000    4.286 
#    0.000    5.714    0.000    0.000    0.000    0.000 
#    0.000    0.000    0.000    0.000    0.000    0.000 
#
# Total GULP energy -156234.293800 kJ/mol
# GULP energy per Si atom -5579.796207 kJ/mol
# Density = 1.826136 g / cm^3
# Si number density = 18.303023 Si / 1000 Ang^3
#
#
#
# Elastic Constant Matrix: (Units=GPa)
#
#
# Indices 1 2 3 4 5 6 
#
# 1 93.6392 31.8898 41.0602 0.0000 -27.7805 0.0000
# 2 31.8898 37.6274 34.3592 0.0000 -15.7376 0.0000
# 3 41.0602 34.3592 95.0002 0.0000 -33.0856 0.0000
# 4 0.0000 0.0000 0.0000 29.3645 0.0000 -1.4061
# 5 -27.7805 -15.7376 -33.0856 0.0000 22.6886 0.0000
# 6 0.0000 0.0000 0.0000 -1.4061 0.0000 11.5393
#
#
#
# Elastic Compliance Matrix: (Units=1/GPa)
#
#
# Indices 1 2 3 4 5 6 
#
# 1 0.018832 -0.009827 0.002177 0.000000 0.019416 0.000000
# 2 -0.009827 0.046923 -0.011336 0.000000 0.003984 0.000000
# 3 0.002177 -0.011336 0.024130 0.000000 0.029990 0.000000
# 4 0.000000 0.000000 0.000000 0.034255 0.000000 0.004174
# 5 0.019416 0.003984 0.029990 0.000000 0.114345 0.000000
# 6 0.000000 0.000000 0.000000 0.004174 0.000000 0.087169
#
#
# Mechanical properties :
#
#
# Convention : Reuss Voigt Hill
#
# Bulk Modulus (GPa) = 19.26329 48.98723 34.12526
# Shear Modulus (GPa) = 13.12580 20.64899 16.88739
#
# Velocity S-wave (km/s) = 2.68085 3.36247 3.04082
# Velocity P-wave (km/s) = 4.48666 6.47284 5.56901
#
# Compressibility (1/GPa) = 0.05191222
#
# Stress axis : x y z
#
# Youngs Moduli (GPa) = 53.10170 21.31165 41.44243
#
# Poissons Ratio (x) = 0.20944 -0.09022
# Poissons Ratio (y) = 0.52185 0.46978
# Poissons Ratio (z) = -0.11561 0.24158
#
# Static dielectric constant tensor:
#      x y z
#    x 1.644470 0.000000 -0.018690 
#    y 0.000000 1.617940 0.000000 
#    z -0.018690 0.000000 1.610120 
# 
# From -- ./inp_files/309058.got.cif
#   From: 2010.05.17/outbox.cif.g08.bks.cpg/sg12_155_cif.got.tgz:309058.got - 2010.06.03 13:09:07.
