data_PCOD9181574
_publ_section_title
;
Structure prediction by ZEFSAII (Michael W. Deem and Ramdas Pophale) SiO2 
 PCOD9181574
Probable space group: C 2/M
;
_chemical_formula_sum "Si O2"
_cell_formula_units_Z 60
_cell_length_a 25.903025
_cell_length_b 8.401925
_cell_length_c 15.200807
_cell_angle_alpha 90.000000
_cell_angle_beta 74.511962
_cell_angle_gamma 90.000000
_cell_volume 3188.097402
_symmetry_space_group_name_H-M "C 2/M"
_symmetry_group_IT_number 12
_symmetry_cell_setting 'monoclinic'
loop_
_space_group_symop_operation_xyz
x,y,z
-x,y,-z
-x,-y,-z
x,-y,z
1/2+x,1/2+y,z
1/2-x,1/2+y,-z
1/2-x,1/2-y,-z
1/2+x,1/2-y,z
loop_
_atom_site_type_symbol
_atom_site_label
_atom_site_fract_x
_atom_site_fract_y
_atom_site_fract_z
Si Si1 0.000000 0.740553 0.500000
Si Si2 0.507205 0.177621 0.290605
Si Si3 0.121647 0.808491 0.182042
Si Si4 0.188425 0.807696 0.789986
Si Si5 0.804151 0.810008 0.685589
Si Si6 0.306966 0.692603 0.010980
Si Si7 0.112464 0.686274 0.488970
Si Si8 0.894839 0.813548 0.318412
O O1 0.006009 0.673251 0.397972
O O2 0.061874 0.798261 0.483502
O O3 0.564692 0.235141 0.232167
O O4 0.458446 0.287263 0.281506
O O5 0.496486 0.000000 0.263686
O O6 0.164154 0.767933 0.239148
O O7 0.116069 0.000000 0.183798
O O8 0.146774 0.756130 0.077870
O O9 0.243336 0.745007 0.723121
O O10 0.184788 0.752188 0.892719
O O11 0.138441 0.762010 0.751643
O O12 0.190699 0.000000 0.790787
O O13 0.836416 0.727900 0.592188
O O14 0.806353 0.000000 0.673478
O O15 0.306434 0.500000 0.010782
O O16 0.250000 0.750000 0.000000
O O17 0.097004 0.500000 0.481836
O O18 0.122130 0.716756 0.587140
O O19 0.884067 0.000000 0.338832
#
# Coordination Sequence:
#
# PCOD9181574 Si02
#       8
#     4   8   8   8   8   8   8   8
#     4  10  19  32  53  80 109 142 185 230 273 326
#     4  11  21  36  58  84 114 152 192 233 282 339
#     4  10  21  36  55  87 121 146 181 235 291 338
#     4  10  22  40  62  83 112 154 194 232 285 345
#     4  11  22  35  56  88 120 150 186 236 289 334
#     4  10  20  37  60  87 115 147 187 235 290 344
#     4  11  21  36  56  83 116 154 194 233 281 341
#     4  10  22  40  58  82 114 152 196 238 279 336
#
# _framework density 18.820001999999999
#
# number of rings (size 3 to 8) (size 9 to 14) (size 15 to 20)
#    0.000    1.600    2.667    3.600    0.000    2.667 
#    0.000    2.667    0.000    4.000    0.000    0.000 
#    0.000    0.000    0.000    0.000    0.000    0.000 
#
# Total GULP energy -167276.144624 kJ/mol
# GULP energy per Si atom -5575.871487 kJ/mol
# Density = 1.877717 g / cm^3
# Si number density = 18.820002 Si / 1000 Ang^3
#
#
#
# Elastic Constant Matrix: (Units=GPa)
#
#
# Indices 1 2 3 4 5 6 
#
# 1 123.9814 20.9550 77.0875 0.0000 3.9367 0.0000
# 2 20.9550 24.0565 21.9835 0.0000 3.1340 0.0000
# 3 77.0875 21.9835 115.2190 0.0000 -8.3138 0.0000
# 4 0.0000 0.0000 0.0000 12.6642 0.0000 -2.2419
# 5 3.9367 3.1340 -8.3138 0.0000 38.9865 0.0000
# 6 0.0000 0.0000 0.0000 -2.2419 0.0000 24.1251
#
#
#
# Elastic Compliance Matrix: (Units=1/GPa)
#
#
# Indices 1 2 3 4 5 6 
#
# 1 0.014552 -0.003833 -0.009231 0.000000 -0.003130 0.000000
# 2 -0.003833 0.052872 -0.007924 0.000000 -0.005553 0.000000
# 3 -0.009231 -0.007924 0.016738 0.000000 0.005138 0.000000
# 4 0.000000 0.000000 0.000000 0.080283 0.000000 0.007461
# 5 -0.003130 -0.005553 0.005138 0.000000 0.027508 0.000000
# 6 0.000000 0.000000 0.000000 0.007461 0.000000 0.042144
#
#
# Mechanical properties :
#
#
# Convention : Reuss Voigt Hill
#
# Bulk Modulus (GPa) = 23.70429 55.92319 39.81374
# Shear Modulus (GPa) = 17.23333 24.70390 20.96862
#
# Velocity S-wave (km/s) = 3.02932 3.62697 3.34153
# Velocity P-wave (km/s) = 4.98581 6.87889 6.00739
#
# Compressibility (1/GPa) = 0.04218646
#
# Stress axis : x y z
#
# Youngs Moduli (GPa) = 68.71748 18.91351 59.74556
#
# Poissons Ratio (x) = 0.07250 0.55150
# Poissons Ratio (y) = 0.26340 0.47343
# Poissons Ratio (z) = 0.63431 0.14987
#
# Static dielectric constant tensor:
#      x y z
#    x 1.629670 0.000000 0.004090 
#    y 0.000000 1.660970 0.000000 
#    z 0.004090 0.000000 1.639460 
# 
# From -- ./inp_files/238546.got.cif
#   From: 2010.05.17/outbox.cif.g08.bks.cpg/sg12_120_cif.got.tgz:238546.got - 2010.06.03 13:09:07.
