data_PCOD9181688
_publ_section_title
;
Structure prediction by ZEFSAII (Michael W. Deem and Ramdas Pophale) SiO2 
 PCOD9181688
Probable space group: C 2/M
;
_chemical_formula_sum "Si O2"
_cell_formula_units_Z 56
_cell_length_a 28.207113
_cell_length_b 17.420848
_cell_length_c 9.498726
_cell_angle_alpha 90.000000
_cell_angle_beta 39.939598
_cell_angle_gamma 90.000000
_cell_volume 2996.501992
_symmetry_space_group_name_H-M "C 2/M"
_symmetry_group_IT_number 12
_symmetry_cell_setting 'monoclinic'
loop_
_space_group_symop_operation_xyz
x,y,z
-x,y,-z
-x,-y,-z
x,-y,z
1/2+x,1/2+y,z
1/2-x,1/2+y,-z
1/2-x,1/2-y,-z
1/2+x,1/2-y,z
loop_
_atom_site_type_symbol
_atom_site_label
_atom_site_fract_x
_atom_site_fract_y
_atom_site_fract_z
Si Si1 0.303908 0.688505 0.302276
Si Si2 0.408681 0.910020 0.901766
Si Si3 0.677543 0.084840 0.620800
Si Si4 0.545750 0.851359 0.761636
Si Si5 0.902423 0.753603 0.823950
Si Si6 0.069381 0.795191 0.538903
Si Si7 0.084496 0.908666 0.752368
O O1 0.250000 0.750000 0.500000
O O2 0.242735 0.628046 0.396403
O O3 0.360876 0.643744 0.276219
O O4 0.347048 0.723299 0.073123
O O5 0.488261 0.895201 0.793186
O O6 0.402827 0.839412 0.806448
O O7 0.402048 0.000000 0.875094
O O8 0.349370 0.891763 0.161034
O O9 0.604860 0.091975 0.692715
O O10 0.703864 0.000000 0.580375
O O11 0.584888 0.780280 0.597089
O O12 0.500000 0.818883 0.000000
O O13 0.888489 0.791567 0.704898
O O14 0.982881 0.782224 0.695329
O O15 0.084016 0.869970 0.598770
O O16 0.103595 0.000000 0.709579
O O17 0.000000 0.901906 0.000000
#
# Coordination Sequence:
#
# PCOD9181688 Si02
#       7
#     8   8   8   8   8   8   8
#     4  12  22  38  61  89 118 156 198 245 300 365
#     4   9  17  32  55  84 118 154 194 240 287 343
#     4  10  19  32  53  84 116 148 190 244 295 342
#     4   9  17  31  57  85 114 153 196 236 281 352
#     4  10  21  37  58  87 117 155 199 242 304 357
#     4  10  20  38  61  85 115 152 198 247 294 357
#     4  11  23  41  65  92 118 156 211 262 298 344
#
# _framework density 18.688458000000001
#
# number of rings (size 3 to 8) (size 9 to 14) (size 15 to 20)
#    0.000    1.857    2.857    2.143    2.000    1.714 
#    0.000   12.143    0.000    0.000    0.000    0.000 
#    0.000    0.000    0.000    0.000    0.000    0.000 
#
# Total GULP energy -155982.739035 kJ/mol
# GULP energy per Si atom -5570.812108 kJ/mol
# Density = 1.864592 g / cm^3
# Si number density = 18.688458 Si / 1000 Ang^3
#
#
#
# Elastic Constant Matrix: (Units=GPa)
#
#
# Indices 1 2 3 4 5 6 
#
# 1 42.1966 36.7533 34.0899 0.0000 9.6944 0.0000
# 2 36.7533 107.1051 56.8227 0.0000 10.1417 0.0000
# 3 34.0899 56.8227 99.2632 0.0000 9.2456 0.0000
# 4 0.0000 0.0000 0.0000 24.0657 0.0000 -3.1421
# 5 9.6944 10.1417 9.2456 0.0000 26.0899 0.0000
# 6 0.0000 0.0000 0.0000 -3.1421 0.0000 10.3124
#
#
#
# Elastic Compliance Matrix: (Units=1/GPa)
#
#
# Indices 1 2 3 4 5 6 
#
# 1 0.039472 -0.008568 -0.007854 0.000000 -0.008553 0.000000
# 2 -0.008568 0.015438 -0.005825 0.000000 -0.000753 0.000000
# 3 -0.007854 -0.005825 0.016157 0.000000 -0.000543 0.000000
# 4 0.000000 0.000000 0.000000 0.043275 0.000000 0.013185
# 5 -0.008553 -0.000753 -0.000543 0.000000 0.041992 0.000000
# 6 0.000000 0.000000 0.000000 0.013185 0.000000 0.100988
#
#
# Mechanical properties :
#
#
# Convention : Reuss Voigt Hill
#
# Bulk Modulus (GPa) = 37.63348 55.98853 46.81100
# Shear Modulus (GPa) = 16.09406 20.15353 18.12379
#
# Velocity S-wave (km/s) = 2.93776 3.28745 3.11752
# Velocity P-wave (km/s) = 5.62923 6.66586 6.16936
#
# Compressibility (1/GPa) = 0.02657209
#
# Stress axis : x y z
#
# Youngs Moduli (GPa) = 25.33464 64.77355 61.89372
#
# Poissons Ratio (x) = 0.55497 0.48614
# Poissons Ratio (y) = 0.21706 0.36053
# Poissons Ratio (z) = 0.19899 0.37731
#
# Static dielectric constant tensor:
#      x y z
#    x 1.666250 0.000000 -0.011930 
#    y 0.000000 1.748950 0.000000 
#    z -0.011930 0.000000 1.680030 
# 
# From -- ./inp_files/75832.got.cif
#   From: 2010.05.17/outbox.cif.g08.bks.cpg/sg12_38_cif.got.tgz:75832.got - 2010.06.03 13:09:07.
