data_PCOD9181723
_publ_section_title
;
Structure prediction by ZEFSAII (Michael W. Deem and Ramdas Pophale) SiO2 
 PCOD9181723
Probable space group: C 2/M
;
_chemical_formula_sum "Si O2"
_cell_formula_units_Z 64
_cell_length_a 30.020557
_cell_length_b 7.437949
_cell_length_c 15.827270
_cell_angle_alpha 90.000000
_cell_angle_beta 52.703158
_cell_angle_gamma 90.000000
_cell_volume 2811.395163
_symmetry_space_group_name_H-M "C 2/M"
_symmetry_group_IT_number 12
_symmetry_cell_setting 'monoclinic'
loop_
_space_group_symop_operation_xyz
x,y,z
-x,y,-z
-x,-y,-z
x,-y,z
1/2+x,1/2+y,z
1/2-x,1/2+y,-z
1/2-x,1/2-y,-z
1/2+x,1/2-y,z
loop_
_atom_site_type_symbol
_atom_site_label
_atom_site_fract_x
_atom_site_fract_y
_atom_site_fract_z
Si Si1 0.130986 0.209104 0.994593
Si Si2 0.663156 0.218523 0.319043
Si Si3 0.990632 0.780174 0.914541
Si Si4 0.313299 0.212809 0.898267
Si Si5 0.311541 0.714409 0.393735
Si Si6 0.572304 0.279738 0.670662
Si Si7 0.959652 0.207399 0.474047
Si Si8 0.717548 0.280097 0.756606
O O1 0.181199 0.281733 0.878659
O O2 0.127541 0.000000 0.974620
O O3 0.070183 0.284564 0.045274
O O4 0.146658 0.218517 0.074301
O O5 0.673795 0.279216 0.210420
O O6 0.604201 0.286788 0.420341
O O7 0.717782 0.275766 0.309290
O O8 0.660942 0.000000 0.323119
O O9 0.037527 0.726074 0.793331
O O10 0.991626 0.000000 0.912731
O O11 0.000000 0.723957 0.000000
O O12 0.320008 0.000000 0.887403
O O13 0.250000 0.250000 0.000000
O O14 0.318555 0.500000 0.381636
O O15 0.250000 0.750000 0.500000
O O16 0.363462 0.781103 0.389991
O O17 0.311022 0.779342 0.297463
O O18 0.572433 0.500000 0.666008
O O19 0.543655 0.215296 0.616876
O O20 0.000000 0.287712 0.500000
O O21 0.978230 0.000000 0.442942
O O22 0.718958 0.500000 0.755436
#
# Coordination Sequence:
#
# PCOD9181723 Si02
#       8
#     8   8   8   8   8   8   8   8
#     4  10  19  33  56  82 111 144 182 224 274 334
#     4  10  21  37  55  76 108 141 180 224 266 327
#     4   9  17  30  54  85 112 144 186 227 273 328
#     4  11  22  37  56  82 114 146 183 228 278 333
#     4  10  19  32  54  76 104 137 173 223 272 319
#     4   9  18  33  50  77 111 139 177 228 270 315
#     4  10  22  37  54  77 108 144 183 227 273 317
#     4   9  17  32  52  78 106 136 171 216 270 323
#
# _framework density 22.764496999999999
#
# number of rings (size 3 to 8) (size 9 to 14) (size 15 to 20)
#    0.000    2.250    1.250    1.875    1.750    4.250 
#    0.000    0.625    0.000    1.125    0.000    0.000 
#    0.000    0.000    0.000    0.000    0.000    0.000 
#
# Total GULP energy -178809.424995 kJ/mol
# GULP energy per Si atom -5587.794531 kJ/mol
# Density = 2.271268 g / cm^3
# Si number density = 22.764497 Si / 1000 Ang^3
#
#
#
# Elastic Constant Matrix: (Units=GPa)
#
#
# Indices 1 2 3 4 5 6 
#
# 1 193.4253 1.4656 55.3069 0.0002 10.4952 -0.0004
# 2 1.4656 65.6402 -3.1767 0.0005 -0.3443 -0.0013
# 3 55.3069 -3.1767 104.3621 -0.0001 14.2447 0.0001
# 4 0.0002 0.0005 -0.0001 9.1291 0.0000 -4.7074
# 5 10.4952 -0.3443 14.2447 0.0000 41.8579 0.0001
# 6 -0.0004 -0.0013 0.0001 -4.7074 0.0001 -4.8405
#
#
#
# Elastic Compliance Matrix: (Units=1/GPa)
#
#
# Indices 1 2 3 4 5 6 
#
# 1 0.006107 -0.000293 -0.003184 0.000000 -0.000450 0.000000
# 2 -0.000293 0.015271 0.000622 -0.000002 -0.000013 -0.000002
# 3 -0.003184 0.000622 0.011723 0.000000 -0.003186 0.000000
# 4 0.000000 -0.000002 0.000000 0.072956 0.000000 -0.070949
# 5 -0.000450 -0.000013 -0.003186 0.000000 0.025087 0.000000
# 6 0.000000 -0.000002 0.000000 -0.070949 0.000000 -0.137592
#
#
# Mechanical properties :
#
#
# Convention : Reuss Voigt Hill
#
# Bulk Modulus (GPa) = 36.50792 52.29103 44.39947
# Shear Modulus (GPa) = 595.77075 29.88474 312.82774
#
# Velocity S-wave (km/s) = 16.19502 3.62716 11.73531
# Velocity P-wave (km/s) = 19.12529 6.36883 14.25375
#
# Compressibility (1/GPa) = 0.02739132
#
# Stress axis : x y z
#
# Youngs Moduli (GPa) = 163.74715 65.48307 85.30143
#
# Poissons Ratio (x) = 0.01917 0.27159
# Poissons Ratio (y) = 0.04795 -0.05303
# Poissons Ratio (z) = 0.52135 -0.04071
#
# Static dielectric constant tensor:
#      x y z
#    x 1.837340 0.000000 0.000300 
#    y 0.000000 1.886040 0.000000 
#    z 0.000300 0.000000 1.824850 
# 
# From -- ./inp_files/249780.got.cif
#   From: 2010.05.17/outbox.cif.g08.bks.cpg/sg12_125_cif.got.tgz:249780.got - 2010.06.03 13:09:07.
