data_PCOD9181636
_publ_section_title
;
Structure prediction by ZEFSAII (Michael W. Deem and Ramdas Pophale) SiO2 
 PCOD9181636
Probable space group: C 2/M
;
_chemical_formula_sum "Si O2"
_cell_formula_units_Z 64
_cell_length_a 20.115861
_cell_length_b 15.437169
_cell_length_c 18.932266
_cell_angle_alpha 90.000000
_cell_angle_beta 33.345829
_cell_angle_gamma 90.000000
_cell_volume 3231.674777
_symmetry_space_group_name_H-M "C 2/M"
_symmetry_group_IT_number 12
_symmetry_cell_setting 'monoclinic'
loop_
_space_group_symop_operation_xyz
x,y,z
-x,y,-z
-x,-y,-z
x,-y,z
1/2+x,1/2+y,z
1/2-x,1/2+y,-z
1/2-x,1/2-y,-z
1/2+x,1/2-y,z
loop_
_atom_site_type_symbol
_atom_site_label
_atom_site_fract_x
_atom_site_fract_y
_atom_site_fract_z
Si Si1 0.309803 0.686207 0.688203
Si Si2 0.028458 0.097274 0.869412
Si Si3 0.617030 0.100358 0.935163
Si Si4 0.076082 0.399048 0.268970
Si Si5 0.292268 0.895043 0.993398
Si Si6 0.809898 0.855102 0.149706
Si Si7 0.044132 0.225034 0.574333
Si Si8 0.007986 0.103617 0.251914
O O1 0.231139 0.604218 0.780597
O O2 0.225757 0.762362 0.790686
O O3 0.429198 0.693112 0.630058
O O4 0.344867 0.706596 0.576814
O O5 0.135847 0.097307 0.830156
O O6 0.058847 0.120127 0.762859
O O7 0.975991 0.000000 0.912854
O O8 0.918776 0.151956 0.997805
O O9 0.587636 0.000000 0.975931
O O10 0.500000 0.138905 0.000000
O O11 0.654812 0.136699 0.978587
O O12 0.033436 0.500000 0.303743
O O13 0.129111 0.370666 0.145124
O O14 0.192353 0.396000 0.217889
O O15 0.983369 0.325114 0.379400
O O16 0.293047 0.000000 0.992520
O O17 0.150092 0.871868 0.115624
O O18 0.047079 0.163390 0.639127
O O19 0.002474 0.000000 0.273202
#
# Coordination Sequence:
#
# PCOD9181636 Si02
#       8
#     8   8   8   8   8   8   8   8
#     4  10  22  38  54  81 116 146 195 240 270 343
#     4  10  19  32  54  86 113 141 184 227 286 350
#     4  10  21  37  59  84 113 150 189 238 295 342
#     4  10  19  35  58  83 116 150 187 241 289 334
#     4   9  17  32  55  85 112 140 185 237 289 340
#     4  10  19  32  53  81 114 148 181 232 289 332
#     4  10  22  38  56  84 114 152 201 232 276 344
#     4  10  19  34  57  85 115 146 185 239 289 336
#
# _framework density 19.803972000000002
#
# number of rings (size 3 to 8) (size 9 to 14) (size 15 to 20)
#    0.000    2.125    2.500    1.500    1.750    2.000 
#    0.000    8.125    0.000    0.000    0.000    0.000 
#    0.000    0.000    0.000    0.000    0.000    0.000 
#
# Total GULP energy -178370.437783 kJ/mol
# GULP energy per Si atom -5574.076181 kJ/mol
# Density = 1.975890 g / cm^3
# Si number density = 19.803972 Si / 1000 Ang^3
#
#
#
# Elastic Constant Matrix: (Units=GPa)
#
#
# Indices 1 2 3 4 5 6 
#
# 1 80.7201 33.4722 49.9173 0.0000 31.5566 0.0000
# 2 33.4722 50.7011 25.1896 0.0000 16.2478 0.0000
# 3 49.9173 25.1896 86.8830 0.0000 36.7366 0.0000
# 4 0.0000 0.0000 0.0000 8.6010 0.0000 6.5845
# 5 31.5566 16.2478 36.7366 0.0000 30.9799 0.0000
# 6 0.0000 0.0000 0.0000 6.5845 0.0000 18.2880
#
#
#
# Elastic Compliance Matrix: (Units=1/GPa)
#
#
# Indices 1 2 3 4 5 6 
#
# 1 0.025396 -0.009339 -0.006049 0.000000 -0.013797 0.000000
# 2 -0.009339 0.027606 -0.001080 0.000000 -0.003685 0.000000
# 3 -0.006049 -0.001080 0.024977 0.000000 -0.022890 0.000000
# 4 0.000000 0.000000 0.000000 0.160508 0.000001 -0.057791
# 5 -0.013797 -0.003685 -0.022890 0.000001 0.075408 0.000000
# 6 0.000000 0.000000 0.000000 -0.057791 0.000000 0.075488
#
#
# Mechanical properties :
#
#
# Convention : Reuss Voigt Hill
#
# Bulk Modulus (GPa) = 22.20156 48.38473 35.29314
# Shear Modulus (GPa) = 11.43288 18.88876 15.16082
#
# Velocity S-wave (km/s) = 2.40532 3.09169 2.76985
# Velocity P-wave (km/s) = 4.35305 6.10161 5.29994
#
# Compressibility (1/GPa) = 0.04504188
#
# Stress axis : x y z
#
# Youngs Moduli (GPa) = 39.37643 36.22339 40.03713
#
# Poissons Ratio (x) = 0.33829 0.24220
# Poissons Ratio (y) = 0.36774 0.04325
# Poissons Ratio (z) = 0.23820 0.03913
#
# Static dielectric constant tensor:
#      x y z
#    x 1.721710 0.000000 0.013140 
#    y 0.000000 1.783180 0.000000 
#    z 0.013140 0.000000 1.708630 
# 
# From -- ./inp_files/226831.got.cif
#   From: 2010.05.17/outbox.cif.g08.bks.cpg/sg12_114_cif.got.tgz:226831.got - 2010.06.03 13:09:07.
