data_PCOD9181744
_publ_section_title
;
Structure prediction by ZEFSAII (Michael W. Deem and Ramdas Pophale) SiO2 
 PCOD9181744
Probable space group: C 2/M
;
_chemical_formula_sum "Si O2"
_cell_formula_units_Z 56
_cell_length_a 22.002186
_cell_length_b 20.884384
_cell_length_c 11.250384
_cell_angle_alpha 90.000000
_cell_angle_beta 30.136608
_cell_angle_gamma 90.000000
_cell_volume 2595.454477
_symmetry_space_group_name_H-M "C 2/M"
_symmetry_group_IT_number 12
_symmetry_cell_setting 'monoclinic'
loop_
_space_group_symop_operation_xyz
x,y,z
-x,y,-z
-x,-y,-z
x,-y,z
1/2+x,1/2+y,z
1/2-x,1/2+y,-z
1/2-x,1/2-y,-z
1/2+x,1/2-y,z
loop_
_atom_site_type_symbol
_atom_site_label
_atom_site_fract_x
_atom_site_fract_y
_atom_site_fract_z
Si Si1 0.028202 0.575048 0.685426
Si Si2 0.692468 0.155878 0.842269
Si Si3 0.994895 0.757322 0.865408
Si Si4 0.583608 0.612571 0.958758
Si Si5 0.811781 0.345169 0.435069
Si Si6 0.774176 0.426749 0.825620
Si Si7 0.142095 0.923304 0.288041
O O1 0.010076 0.500000 0.701105
O O2 0.117320 0.591286 0.644064
O O3 0.105771 0.601104 0.440959
O O4 0.904803 0.608150 0.931828
O O5 0.694132 0.154467 0.696434
O O6 0.816535 0.127320 0.682483
O O7 0.627475 0.224254 0.977407
O O8 0.111856 0.714033 0.637838
O O9 0.991586 0.832376 0.846303
O O10 0.000000 0.750351 0.000000
O O11 0.682213 0.651701 0.714389
O O12 0.664469 0.574581 0.915299
O O13 0.500000 0.579537 0.000000
O O14 0.806347 0.500000 0.795386
O O15 0.719564 0.402571 0.040656
O O16 0.000000 0.919132 0.500000
O O17 0.165273 0.000000 0.275805
#
# Coordination Sequence:
#
# PCOD9181744 Si02
#       7
#     8   8   8   8   8   8   8
#     4   9  17  32  55  81 108 136 173 225 280 319
#     4  10  19  32  54  78 106 143 178 217 268 319
#     4   8  17  33  51  79 109 135 170 224 265 311
#     4  10  20  33  56  82 105 147 181 211 276 330
#     4   9  19  33  50  84 117 132 173 231 266 318
#     4   9  20  38  54  76 111 141 180 232 261 308
#     4  10  22  38  53  74 108 147 186 222 259 315
#
# _framework density 21.576180999999998
#
# number of rings (size 3 to 8) (size 9 to 14) (size 15 to 20)
#    0.000    2.714    0.000    1.714    2.000    7.714 
#    0.000    2.857    0.000    0.000    0.000    0.000 
#    0.000    0.000    0.000    0.000    0.000    0.000 
#
# Total GULP energy -155907.748783 kJ/mol
# GULP energy per Si atom -5568.133885 kJ/mol
# Density = 2.152707 g / cm^3
# Si number density = 21.576181 Si / 1000 Ang^3
#
#
#
# Elastic Constant Matrix: (Units=GPa)
#
#
# Indices 1 2 3 4 5 6 
#
# 1 79.4796 12.7777 23.8942 0.0001 -5.7909 -0.0001
# 2 12.7777 45.2088 16.7680 0.0001 -3.8630 0.0000
# 3 23.8942 16.7680 89.3830 0.0002 8.2999 -0.0002
# 4 0.0001 0.0001 0.0002 22.9800 -0.0001 -7.6598
# 5 -5.7909 -3.8630 8.2999 -0.0001 35.9104 0.0001
# 6 -0.0001 0.0000 -0.0002 -7.6598 0.0001 16.0302
#
#
#
# Elastic Compliance Matrix: (Units=1/GPa)
#
#
# Indices 1 2 3 4 5 6 
#
# 1 0.014274 -0.002444 -0.003624 0.000000 0.002877 0.000000
# 2 -0.002444 0.024674 -0.004277 0.000000 0.003249 0.000000
# 3 -0.003624 -0.004277 0.013342 0.000000 -0.004128 0.000000
# 4 0.000000 0.000000 0.000000 0.051760 0.000000 0.024733
# 5 0.002877 0.003249 -0.004128 0.000000 0.029615 0.000000
# 6 0.000000 0.000000 0.000000 0.024733 0.000000 0.074201
#
#
# Mechanical properties :
#
#
# Convention : Reuss Voigt Hill
#
# Bulk Modulus (GPa) = 31.64624 35.66125 33.65374
# Shear Modulus (GPa) = 20.91257 25.69289 23.30273
#
# Velocity S-wave (km/s) = 3.11665 3.45454 3.28993
# Velocity P-wave (km/s) = 5.25836 5.69875 5.48298
#
# Compressibility (1/GPa) = 0.03159934
#
# Stress axis : x y z
#
# Youngs Moduli (GPa) = 70.05748 40.52779 74.94895
#
# Poissons Ratio (x) = 0.09906 0.27164
# Poissons Ratio (y) = 0.17124 0.32056
# Poissons Ratio (z) = 0.25391 0.17334
#
# Static dielectric constant tensor:
#      x y z
#    x 1.818630 0.000000 -0.025710 
#    y 0.000000 1.816390 0.000000 
#    z -0.025710 0.000000 1.878810 
# 
# From -- ./inp_files/170282.got.cif
#   From: 2010.05.17/outbox.cif.g08.bks.cpg/sg12_86_cif.got.tgz:170282.got - 2010.06.03 13:09:07.
