data_PCOD9181478
_publ_section_title
;
Structure prediction by ZEFSAII (Michael W. Deem and Ramdas Pophale) SiO2 
 PCOD9181478
Probable space group: C 2/M
;
_chemical_formula_sum "Si O2"
_cell_formula_units_Z 56
_cell_length_a 28.152274
_cell_length_b 7.413072
_cell_length_c 13.209729
_cell_angle_alpha 90.000000
_cell_angle_beta 66.218342
_cell_angle_gamma 90.000000
_cell_volume 2522.718839
_symmetry_space_group_name_H-M "C 2/M"
_symmetry_group_IT_number 12
_symmetry_cell_setting 'monoclinic'
loop_
_space_group_symop_operation_xyz
x,y,z
-x,y,-z
-x,-y,-z
x,-y,z
1/2+x,1/2+y,z
1/2-x,1/2+y,-z
1/2-x,1/2-y,-z
1/2+x,1/2-y,z
loop_
_atom_site_type_symbol
_atom_site_label
_atom_site_fract_x
_atom_site_fract_y
_atom_site_fract_z
Si Si1 0.411063 0.705893 0.329641
Si Si2 0.138666 0.213183 0.014152
Si Si3 0.704654 0.785778 0.618516
Si Si4 0.441514 0.720607 0.523467
Si Si5 0.557575 0.279336 0.915862
Si Si6 0.642733 0.721070 0.238013
Si Si7 0.741082 0.783181 0.807679
O O1 0.430919 0.500000 0.314347
O O2 0.349017 0.704157 0.373333
O O3 0.426964 0.785193 0.423574
O O4 0.431304 0.786547 0.207170
O O5 0.100655 0.284725 0.959246
O O6 0.198000 0.236880 0.927955
O O7 0.128309 0.000000 0.028098
O O8 0.130379 0.282850 0.134617
O O9 0.750000 0.750000 0.500000
O O10 0.720903 0.718056 0.715708
O O11 0.696453 0.000000 0.632804
O O12 0.500000 0.772930 0.500000
O O13 0.439482 0.500000 0.524968
O O14 0.399601 0.778311 0.643157
O O15 0.560898 0.500000 0.910485
O O16 0.500000 0.231446 0.000000
O O17 0.642938 0.500000 0.237253
O O18 0.700945 0.779577 0.217331
O O19 0.743578 0.000000 0.799936
#
# Coordination Sequence:
#
# PCOD9181478 Si02
#       7
#     8   8   8   8   8   8   8
#     4  10  19  34  55  79 110 141 178 224 268 318
#     4  10  19  32  53  78 105 135 172 216 259 312
#     4  11  22  35  55  79 108 143 179 220 268 321
#     4   9  18  31  51  79 107 138 178 221 265 314
#     4   9  18  30  49  79 109 136 171 219 268 308
#     4   9  18  31  48  73 104 136 172 215 262 309
#     4  10  20  35  52  74 107 139 170 213 265 317
#
# _framework density 22.198273
#
# number of rings (size 3 to 8) (size 9 to 14) (size 15 to 20)
#    0.000    2.286    1.429    1.714    2.000    2.857 
#    0.000    0.000    0.000    3.000    0.000    0.000 
#    0.000    0.000    0.000    0.000    0.000    0.000 
#
# Total GULP energy -156507.881105 kJ/mol
# GULP energy per Si atom -5589.567182 kJ/mol
# Density = 2.214775 g / cm^3
# Si number density = 22.198273 Si / 1000 Ang^3
#
#
#
# Elastic Constant Matrix: (Units=GPa)
#
#
# Indices 1 2 3 4 5 6 
#
# 1 161.2268 -0.4576 154.9950 0.0000 4.5081 0.0000
# 2 -0.4576 75.7853 1.2121 0.0000 8.9368 0.0000
# 3 154.9950 1.2121 211.4286 0.0000 23.8503 0.0000
# 4 0.0000 0.0000 0.0000 -16.9360 0.0000 -15.7681
# 5 4.5081 8.9368 23.8503 0.0000 40.8657 0.0000
# 6 0.0000 0.0000 0.0000 -15.7681 0.0000 5.5775
#
#
#
# Elastic Compliance Matrix: (Units=1/GPa)
#
#
# Indices 1 2 3 4 5 6 
#
# 1 0.023172 -0.000517 -0.017886 0.000000 0.007996 0.000000
# 2 -0.000517 0.013571 0.000674 0.000000 -0.003304 0.000000
# 3 -0.017886 0.000674 0.018875 0.000000 -0.009190 0.000000
# 4 0.000000 0.000000 0.000000 -0.016256 0.000000 -0.045959
# 5 0.007996 -0.003304 -0.009190 0.000000 0.029674 0.000000
# 6 0.000000 0.000000 0.000000 -0.045959 0.000000 0.049363
#
#
# Mechanical properties :
#
#
# Convention : Reuss Voigt Hill
#
# Bulk Modulus (GPa) = 49.60496 84.43773 67.02134
# Shear Modulus (GPa) = 31.13771 25.41418 28.27594
#
# Velocity S-wave (km/s) = 3.74934 3.38727 3.57289
# Velocity P-wave (km/s) = 6.41391 7.30881 6.87593
#
# Compressibility (1/GPa) = 0.02015928
#
# Stress axis : x y z
#
# Youngs Moduli (GPa) = 43.15497 73.68714 52.98106
#
# Poissons Ratio (x) = 0.03809 0.94763
# Poissons Ratio (y) = 0.02231 -0.03570
# Poissons Ratio (z) = 0.77188 -0.04965
#
# Static dielectric constant tensor:
#      x y z
#    x 1.748430 0.000000 0.039520 
#    y 0.000000 1.875750 0.000000 
#    z 0.039520 0.000000 1.760470 
# 
# From -- ./inp_files/186834.got.cif
#   From: 2010.05.17/outbox.cif.g08.bks.cpg/sg12_94_cif.got.tgz:186834.got - 2010.06.03 13:09:07.
