data_PCOD9181975
_publ_section_title
;
Structure prediction by ZEFSAII (Michael W. Deem and Ramdas Pophale) SiO2 
 PCOD9181975
Probable space group: C 2/M
;
_chemical_formula_sum "Si O2"
_cell_formula_units_Z 52
_cell_length_a 21.781601
_cell_length_b 20.609905
_cell_length_c 6.437685
_cell_angle_alpha 90.000000
_cell_angle_beta 108.692345
_cell_angle_gamma 90.000000
_cell_volume 2737.546773
_symmetry_space_group_name_H-M "C 2/M"
_symmetry_group_IT_number 12
_symmetry_cell_setting 'monoclinic'
loop_
_space_group_symop_operation_xyz
x,y,z
-x,y,-z
-x,-y,-z
x,-y,z
1/2+x,1/2+y,z
1/2-x,1/2+y,-z
1/2-x,1/2-y,-z
1/2+x,1/2-y,z
loop_
_atom_site_type_symbol
_atom_site_label
_atom_site_fract_x
_atom_site_fract_y
_atom_site_fract_z
Si Si1 0.181868 0.179967 0.211161
Si Si2 0.334186 0.863975 0.765543
Si Si3 0.909322 0.264576 0.117368
Si Si4 0.000000 0.676601 0.500000
Si Si5 0.240603 0.424490 0.951154
Si Si6 0.311163 0.753588 0.390069
Si Si7 0.890190 0.428910 0.464931
O O1 0.207138 0.114877 0.130191
O O2 0.239821 0.232158 0.219632
O O3 0.180566 0.189683 0.458622
O O4 0.113362 0.204417 0.048220
O O5 0.319551 0.813279 0.562286
O O6 0.365470 0.923124 0.674639
O O7 0.385893 0.827476 0.965660
O O8 0.276391 0.888323 0.851153
O O9 0.863932 0.256300 0.270404
O O10 0.980361 0.278403 0.283476
O O11 0.940524 0.628581 0.480406
O O12 0.257755 0.500000 0.000501
O O13 0.173063 0.422532 0.749389
O O14 0.918673 0.500000 0.456997
#
# Coordination Sequence:
#
# PCOD9181975 Si02
#       7
#     8   8   8   4   8   8   8
#     4  10  20  33  55  80 101 137 171 218 278 320
#     4  11  18  36  52  81 104 143 181 220 265 312
#     4  11  22  34  55  74 107 138 179 228 268 304
#     4  12  21  42  50  72 105 148 188 232 254 298
#     4  11  22  37  54  79 112 142 175 217 263 326
#     4  10  19  32  55  79 105 132 174 226 271 319
#     4  11  23  37  52  73 109 150 189 221 253 304
#
# _framework density 18.995107999999998
#
# number of rings (size 3 to 8) (size 9 to 14) (size 15 to 20)
#    0.000    1.231    6.154    1.154    4.308    0.615 
#    0.000    0.769    0.000    0.000    0.000    0.538 
#    0.000    1.231    0.000    0.000    0.000    0.000 
#
# Total GULP energy -144936.568087 kJ/mol
# GULP energy per Si atom -5574.483388 kJ/mol
# Density = 1.895187 g / cm^3
# Si number density = 18.995108 Si / 1000 Ang^3
#
#
#
# Elastic Constant Matrix: (Units=GPa)
#
#
# Indices 1 2 3 4 5 6 
#
# 1 22.8216 15.2144 11.6044 0.0000 6.9375 0.0000
# 2 15.2144 70.0416 24.9857 0.0000 7.7485 0.0000
# 3 11.6044 24.9857 92.3392 0.0000 4.3517 0.0000
# 4 0.0000 0.0000 0.0000 19.4433 0.0000 -0.7631
# 5 6.9375 7.7485 4.3517 0.0000 37.8730 0.0000
# 6 0.0000 0.0000 0.0000 -0.7631 0.0000 30.2599
#
#
#
# Elastic Compliance Matrix: (Units=1/GPa)
#
#
# Indices 1 2 3 4 5 6 
#
# 1 0.054508 -0.009614 -0.003892 0.000000 -0.007570 0.000000
# 2 -0.009614 0.017790 -0.003536 0.000000 -0.001472 0.000000
# 3 -0.003892 -0.003536 0.012274 0.000000 0.000026 0.000000
# 4 0.000000 0.000000 0.000000 0.051482 0.000000 0.001298
# 5 -0.007570 -0.001472 0.000026 0.000000 0.028089 0.000000
# 6 0.000000 0.000000 0.000000 0.001298 0.000000 0.033080
#
#
# Mechanical properties :
#
#
# Convention : Reuss Voigt Hill
#
# Bulk Modulus (GPa) = 19.80683 32.09015 25.94849
# Shear Modulus (GPa) = 20.15017 26.40844 23.27930
#
# Velocity S-wave (km/s) = 3.26054 3.73269 3.50457
# Velocity P-wave (km/s) = 4.96234 5.95884 5.48328
#
# Compressibility (1/GPa) = 0.05048764
#
# Stress axis : x y z
#
# Youngs Moduli (GPa) = 18.34599 56.21158 81.47096
#
# Poissons Ratio (x) = 0.54044 0.31707
# Poissons Ratio (y) = 0.17638 0.28809
# Poissons Ratio (z) = 0.07140 0.19877
#
# Static dielectric constant tensor:
#      x y z
#    x 1.705030 0.000000 0.004560 
#    y 0.000000 1.719820 0.000000 
#    z 0.004560 0.000000 1.735150 
# 
# From -- ./inp_files/25469.got.cif
#   From: 2010.05.17/outbox.cif.g08.bks.cpg/sg12_13_cif.got.tgz:25469.got - 2010.06.03 13:09:07.
