data_PCOD9181548
_publ_section_title
;
Structure prediction by ZEFSAII (Michael W. Deem and Ramdas Pophale) SiO2 
 PCOD9181548
Probable space group: C 2/M
;
_chemical_formula_sum "Si O2"
_cell_formula_units_Z 48
_cell_length_a 14.784181
_cell_length_b 20.029578
_cell_length_c 12.711076
_cell_angle_alpha 90.000000
_cell_angle_beta 133.030079
_cell_angle_gamma 90.000000
_cell_volume 2751.478533
_symmetry_space_group_name_H-M "C 2/M"
_symmetry_group_IT_number 12
_symmetry_cell_setting 'monoclinic'
loop_
_space_group_symop_operation_xyz
x,y,z
-x,y,-z
-x,-y,-z
x,-y,z
1/2+x,1/2+y,z
1/2-x,1/2+y,-z
1/2-x,1/2-y,-z
1/2+x,1/2-y,z
loop_
_atom_site_type_symbol
_atom_site_label
_atom_site_fract_x
_atom_site_fract_y
_atom_site_fract_z
Si Si1 0.865860 0.425305 0.444113
Si Si2 0.279224 0.076394 0.605229
Si Si3 0.277688 0.786545 0.326865
Si Si4 0.559842 0.322190 0.434507
Si Si5 0.938740 0.682670 0.838012
Si Si6 0.127562 0.257722 0.831906
O O1 0.828396 0.500000 0.380042
O O2 0.864858 0.425481 0.569517
O O3 0.775945 0.364856 0.344869
O O4 0.000000 0.411270 0.500000
O O5 0.157749 0.120631 0.484397
O O6 0.353098 0.118593 0.750168
O O7 0.250049 0.000000 0.610906
O O8 0.367260 0.747416 0.480694
O O9 0.149587 0.747559 0.233845
O O10 0.330931 0.778766 0.251708
O O11 0.500000 0.340465 0.500000
O O12 0.457462 0.306849 0.264791
O O13 0.039078 0.692362 0.825796
O O14 0.000000 0.678766 0.000000
O O15 0.250000 0.250000 0.000000
#
# Coordination Sequence:
#
# PCOD9181548 Si02
#       6
#     8   8   8   8   8   8
#     4  10  19  32  53  80 106 134 171 217 269 318
#     4  10  21  36  55  78 106 141 182 225 266 317
#     4  10  19  35  55  80 106 137 177 229 266 309
#     4   9  19  34  57  80 103 135 182 224 267 312
#     4  11  21  34  53  79 107 141 181 220 272 319
#     4  11  20  33  54  82 110 138 170 225 269 316
#
# _framework density 17.445164999999999
#
# number of rings (size 3 to 8) (size 9 to 14) (size 15 to 20)
#    0.000    1.833    1.667    4.500    0.000    3.333 
#    0.000    0.000    0.000    1.500    0.000    0.000 
#    0.000    0.000    0.000    0.000    0.000    0.000 
#
# Total GULP energy -133778.543789 kJ/mol
# GULP energy per Si atom -5574.105991 kJ/mol
# Density = 1.740546 g / cm^3
# Si number density = 17.445165 Si / 1000 Ang^3
#
#
#
# Elastic Constant Matrix: (Units=GPa)
#
#
# Indices 1 2 3 4 5 6 
#
# 1 71.7733 23.3039 21.5817 0.0000 0.6560 0.0000
# 2 23.3039 131.7601 59.8625 0.0000 7.5473 0.0000
# 3 21.5817 59.8625 116.4016 0.0000 13.5446 0.0000
# 4 0.0000 0.0000 0.0000 9.2474 0.0000 -0.0382
# 5 0.6560 7.5473 13.5446 0.0000 18.8325 0.0000
# 6 0.0000 0.0000 0.0000 -0.0382 0.0000 20.7991
#
#
#
# Elastic Compliance Matrix: (Units=1/GPa)
#
#
# Indices 1 2 3 4 5 6 
#
# 1 0.015133 -0.001839 -0.002057 0.000000 0.001689 0.000000
# 2 -0.001839 0.010129 -0.004805 0.000000 -0.000539 0.000000
# 3 -0.002057 -0.004805 0.012235 0.000000 -0.006802 0.000000
# 4 0.000000 0.000000 0.000000 0.108139 0.000000 0.000199
# 5 0.001689 -0.000539 -0.006802 0.000000 0.058149 0.000000
# 6 0.000000 0.000000 0.000000 0.000199 0.000000 0.048079
#
#
# Mechanical properties :
#
#
# Convention : Reuss Voigt Hill
#
# Bulk Modulus (GPa) = 49.76337 58.82570 54.29453
# Shear Modulus (GPa) = 18.11829 24.12161 21.11995
#
# Velocity S-wave (km/s) = 3.22620 3.72252 3.48321
# Velocity P-wave (km/s) = 6.51655 7.22978 6.88241
#
# Compressibility (1/GPa) = 0.02009510
#
# Stress axis : x y z
#
# Youngs Moduli (GPa) = 66.08178 98.72752 81.73250
#
# Poissons Ratio (x) = 0.18155 0.16809
# Poissons Ratio (y) = 0.12152 0.39276
# Poissons Ratio (z) = 0.13590 0.47442
#
# Static dielectric constant tensor:
#      x y z
#    x 1.631300 0.000000 0.012730 
#    y 0.000000 1.593630 0.000000 
#    z 0.012730 0.000000 1.585540 
# 
# From -- ./inp_files/146924.got.cif
#   From: 2010.05.17/outbox.cif.g08.bks.cpg/sg12_74_cif.got.tgz:146924.got - 2010.06.03 13:09:07.
