data_PCOD9181714
_publ_section_title
;
Structure prediction by ZEFSAII (Michael W. Deem and Ramdas Pophale) SiO2 
 PCOD9181714
Probable space group: C 2/M
;
_chemical_formula_sum "Si O2"
_cell_formula_units_Z 40
_cell_length_a 9.917706
_cell_length_b 27.046089
_cell_length_c 11.973404
_cell_angle_alpha 90.000000
_cell_angle_beta 142.482693
_cell_angle_gamma 90.000000
_cell_volume 1955.921304
_symmetry_space_group_name_H-M "C 2/M"
_symmetry_group_IT_number 12
_symmetry_cell_setting 'monoclinic'
loop_
_space_group_symop_operation_xyz
x,y,z
-x,y,-z
-x,-y,-z
x,-y,z
1/2+x,1/2+y,z
1/2-x,1/2+y,-z
1/2-x,1/2-y,-z
1/2+x,1/2-y,z
loop_
_atom_site_type_symbol
_atom_site_label
_atom_site_fract_x
_atom_site_fract_y
_atom_site_fract_z
Si Si1 0.106090 0.596772 0.954481
Si Si2 0.085150 0.055819 0.223778
Si Si3 0.716197 0.557427 0.568541
Si Si4 0.802111 0.193026 0.017694
Si Si5 0.276763 0.844162 0.282877
O O1 0.181865 0.653539 0.018232
O O2 0.917236 0.591123 0.738356
O O3 0.324017 0.567209 0.060006
O O4 0.000000 0.577682 0.000000
O O5 0.167120 0.061180 0.405523
O O6 0.209119 0.097913 0.235744
O O7 0.127535 0.000000 0.213101
O O8 0.500000 0.569806 0.500000
O O9 0.771100 0.500000 0.629499
O O10 0.723260 0.177060 0.841874
O O11 0.750000 0.250000 0.000000
O O12 0.064164 0.182319 0.199414
O O13 0.500000 0.837591 0.500000
#
# Coordination Sequence:
#
# PCOD9181714 Si02
#       5
#     8   8   8   8   8
#     4  11  21  35  59  87 120 161 204 250 300 358
#     4  10  21  37  60  90 125 163 199 242 297 358
#     4  10  19  32  53  86 124 158 194 238 290 352
#     4  10  24  43  64  87 120 157 202 260 312 354
#     4  10  22  43  65  90 124 157 203 251 297 367
#
# _framework density 20.450721000000001
#
# number of rings (size 3 to 8) (size 9 to 14) (size 15 to 20)
#    0.000    1.800    2.000    1.800    2.800    2.000 
#    0.000   10.000    0.000    0.000    0.000    0.000 
#    0.000    0.000    0.000    0.000    0.000    0.000 
#
# Total GULP energy -111824.234641 kJ/mol
# GULP energy per Si atom -5591.211732 kJ/mol
# Density = 2.040417 g / cm^3
# Si number density = 20.450721 Si / 1000 Ang^3
#
#
#
# Elastic Constant Matrix: (Units=GPa)
#
#
# Indices 1 2 3 4 5 6 
#
# 1 69.7072 34.5488 37.3312 0.0000 -0.7311 0.0000
# 2 34.5488 151.1027 51.9962 0.0000 8.2769 0.0000
# 3 37.3312 51.9962 146.9370 0.0000 19.4863 0.0000
# 4 0.0000 0.0000 0.0000 10.9253 0.0000 -5.1216
# 5 -0.7311 8.2769 19.4863 0.0000 23.9985 0.0000
# 6 0.0000 0.0000 0.0000 -5.1216 0.0000 17.3073
#
#
#
# Elastic Compliance Matrix: (Units=1/GPa)
#
#
# Indices 1 2 3 4 5 6 
#
# 1 0.018128 -0.002967 -0.004219 0.000000 0.005001 0.000000
# 2 -0.002967 0.008026 -0.001913 0.000000 -0.001305 0.000000
# 3 -0.004219 -0.001913 0.009508 0.000000 -0.007189 0.000000
# 4 0.000000 0.000000 0.000000 0.106273 0.000000 0.031449
# 5 0.005001 -0.001305 -0.007189 0.000000 0.048109 0.000000
# 6 0.000000 0.000000 0.000000 0.031449 0.000000 0.067085
#
#
# Mechanical properties :
#
#
# Convention : Reuss Voigt Hill
#
# Bulk Modulus (GPa) = 57.26193 68.38881 62.82537
# Shear Modulus (GPa) = 17.78409 26.70427 22.24418
#
# Velocity S-wave (km/s) = 2.95211 3.61749 3.30160
# Velocity P-wave (km/s) = 6.29926 7.13874 6.73210
#
# Compressibility (1/GPa) = 0.01746361
#
# Stress axis : x y z
#
# Youngs Moduli (GPa) = 55.16270 124.59023 105.17478
#
# Poissons Ratio (x) = 0.36967 0.44373
# Poissons Ratio (y) = 0.16367 0.20124
# Poissons Ratio (z) = 0.23273 0.23839
#
# Static dielectric constant tensor:
#      x y z
#    x 1.763460 0.000000 -0.009290 
#    y 0.000000 1.710610 0.000000 
#    z -0.009290 0.000000 1.710020 
# 
# From -- ./inp_files/208520.got.cif
#   From: 2010.05.17/outbox.cif.g08.bks.cpg/sg12_105_cif.got.tgz:208520.got - 2010.06.03 13:09:07.
