data_PCOD9181663
_publ_section_title
;
Structure prediction by ZEFSAII (Michael W. Deem and Ramdas Pophale) SiO2 
 PCOD9181663
Probable space group: C 2/M
;
_chemical_formula_sum "Si O2"
_cell_formula_units_Z 40
_cell_length_a 15.865876
_cell_length_b 16.804632
_cell_length_c 15.328981
_cell_angle_alpha 90.000000
_cell_angle_beta 151.820932
_cell_angle_gamma 90.000000
_cell_volume 1930.006562
_symmetry_space_group_name_H-M "C 2/M"
_symmetry_group_IT_number 12
_symmetry_cell_setting 'monoclinic'
loop_
_space_group_symop_operation_xyz
x,y,z
-x,y,-z
-x,-y,-z
x,-y,z
1/2+x,1/2+y,z
1/2-x,1/2+y,-z
1/2-x,1/2-y,-z
1/2+x,1/2-y,z
loop_
_atom_site_type_symbol
_atom_site_label
_atom_site_fract_x
_atom_site_fract_y
_atom_site_fract_z
Si Si1 0.909783 0.091101 0.643925
Si Si2 0.648318 0.787511 0.694808
Si Si3 0.011797 0.594557 0.726357
Si Si4 0.748814 0.817112 0.073310
Si Si5 0.363450 0.585273 0.796546
O O1 0.699233 0.110004 0.449664
O O2 0.959543 0.094927 0.792253
O O3 0.051510 0.149017 0.730285
O O4 0.932368 0.000000 0.634965
O O5 0.500000 0.744739 0.500000
O O6 0.576944 0.848410 0.706023
O O7 0.786258 0.728751 0.868566
O O8 0.737975 0.843239 0.704794
O O9 0.036085 0.500000 0.729223
O O10 0.120064 0.617360 0.913202
O O11 0.750000 0.750000 0.000000
O O12 0.265735 0.500000 0.701930
O O13 0.500000 0.581569 0.000000
#
# Coordination Sequence:
#
# PCOD9181663 Si02
#       5
#     8   8   8   8   8
#     4  10  20  36  59  83 107 146 194 235 271 323
#     4  11  21  35  52  83 121 148 177 222 291 343
#     4  10  20  36  60  82 108 148 192 235 274 322
#     4  10  22  36  53  81 120 153 184 222 277 344
#     4  10  19  32  53  82 115 145 180 228 281 332
#
# _framework density 20.725318999999999
#
# number of rings (size 3 to 8) (size 9 to 14) (size 15 to 20)
#    0.000    1.800    2.000    3.600    0.000    5.600 
#    3.600    0.000    0.000    2.400    0.000    2.800 
#    0.000    0.000    0.000    0.000    0.000    0.000 
#
# Total GULP energy -111478.969388 kJ/mol
# GULP energy per Si atom -5573.948469 kJ/mol
# Density = 2.067815 g / cm^3
# Si number density = 20.725319 Si / 1000 Ang^3
#
#
#
# Elastic Constant Matrix: (Units=GPa)
#
#
# Indices 1 2 3 4 5 6 
#
# 1 23.0654 17.8346 3.3014 -0.0010 -8.5071 -0.0033
# 2 17.8346 52.2635 22.7891 0.0004 1.3026 0.0051
# 3 3.3014 22.7891 74.7768 -0.0015 -19.5358 -0.0202
# 4 -0.0010 0.0004 -0.0015 26.3557 -0.0012 -29.5347
# 5 -8.5071 1.3026 -19.5358 -0.0012 34.4378 -0.0104
# 6 -0.0033 0.0051 -0.0202 -29.5347 -0.0104 -218.8865
#
#
#
# Elastic Compliance Matrix: (Units=1/GPa)
#
#
# Indices 1 2 3 4 5 6 
#
# 1 0.077663 -0.033403 0.014197 0.000000 0.028502 -0.000005
# 2 -0.033403 0.037343 -0.014594 0.000001 -0.017943 0.000003
# 3 0.014197 -0.014594 0.021430 -0.000001 0.016216 -0.000003
# 4 0.000000 0.000001 -0.000001 0.032959 -0.000001 -0.004447
# 5 0.028502 -0.017943 0.016216 -0.000001 0.045956 -0.000004
# 6 -0.000005 0.000003 -0.000003 -0.004447 -0.000004 -0.003969
#
#
# Mechanical properties :
#
#
# Convention : Reuss Voigt Hill
#
# Bulk Modulus (GPa) = 14.52680 26.43953 20.48316
# Shear Modulus (GPa) = 16.56027 -24.53989 -3.98981
#
# Velocity S-wave (km/s) = 2.82979 -3.44474 -1.38898
# Velocity P-wave (km/s) = 4.20730 1.74265 2.70781
#
# Compressibility (1/GPa) = 0.06883829
#
# Stress axis : x y z
#
# Youngs Moduli (GPa) = 12.87613 26.77883 46.66267
#
# Poissons Ratio (x) = 0.89449 -0.66249
# Poissons Ratio (y) = 0.43010 0.68097
# Poissons Ratio (z) = -0.18281 0.39080
#
# Static dielectric constant tensor:
#      x y z
#    x 1.753160 0.000000 0.109360 
#    y 0.000000 1.788270 0.000000 
#    z 0.109360 0.000000 2.001390 
# 
# From -- ./inp_files/58955.got.cif
#   From: 2010.05.17/outbox.cif.g08.bks.cpg/sg12_30_cif.got.tgz:58955.got - 2010.06.03 13:09:07.
