data_PCOD9181224
_publ_section_title
;
Structure prediction by ZEFSAII (Michael W. Deem and Ramdas Pophale) SiO2 
 PCOD9181224
Probable space group: C 2/M
;
_chemical_formula_sum "Si O2"
_cell_formula_units_Z 56
_cell_length_a 34.372411
_cell_length_b 8.829854
_cell_length_c 26.173699
_cell_angle_alpha 90.000000
_cell_angle_beta 154.892285
_cell_angle_gamma 90.000000
_cell_volume 3370.726477
_symmetry_space_group_name_H-M "C 2/M"
_symmetry_group_IT_number 12
_symmetry_cell_setting 'monoclinic'
loop_
_space_group_symop_operation_xyz
x,y,z
-x,y,-z
-x,-y,-z
x,-y,z
1/2+x,1/2+y,z
1/2-x,1/2+y,-z
1/2-x,1/2-y,-z
1/2+x,1/2-y,z
loop_
_atom_site_type_symbol
_atom_site_label
_atom_site_fract_x
_atom_site_fract_y
_atom_site_fract_z
Si Si1 0.234878 0.319499 0.064074
Si Si2 0.213697 0.817116 0.333795
Si Si3 0.389872 0.181939 0.182765
Si Si4 0.604569 0.181440 0.109974
Si Si5 0.623000 0.318530 0.020638
Si Si6 0.424151 0.317927 0.738963
Si Si7 0.591336 0.182691 0.391585
O O1 0.236226 0.500000 0.071593
O O2 0.331660 0.260226 0.157972
O O3 0.161545 0.281746 0.931854
O O4 0.200698 0.242001 0.075010
O O5 0.170987 0.743016 0.232914
O O6 0.151086 0.775098 0.308171
O O7 0.318078 0.772133 0.469794
O O8 0.209499 0.000000 0.323664
O O9 0.495369 0.229624 0.303163
O O10 0.385402 0.000000 0.183933
O O11 0.608584 0.000000 0.112623
O O12 0.500000 0.226099 0.000000
O O13 0.628791 0.249821 0.083836
O O14 0.625868 0.500000 0.026831
O O15 0.524464 0.273674 0.879181
O O16 0.422576 0.500000 0.731883
O O17 0.405452 0.245454 0.661988
O O18 0.590584 0.000000 0.387641
#
# Coordination Sequence:
#
# PCOD9181224 Si02
#       7
#     8   8   8   8   8   8   8
#     4  10  19  32  52  78 107 139 175 219 265 313
#     4  10  21  37  54  76 107 145 183 217 261 315
#     4   9  18  32  50  76 108 140 174 214 262 317
#     4  11  23  37  55  78 104 139 182 226 265 305
#     4  11  21  34  55  79 108 142 175 218 267 314
#     4  10  20  32  50  78 110 143 177 213 259 315
#     4  10  20  34  54  78 109 145 178 216 262 315
#
# _framework density 16.613630000000001
#
# number of rings (size 3 to 8) (size 9 to 14) (size 15 to 20)
#    0.000    1.857    2.857    1.714    0.000    3.429 
#    0.000    0.000    0.000    0.857    0.000    6.000 
#    0.000    0.000    0.000    0.000    0.000    0.000 
#
# Total GULP energy -156341.374732 kJ/mol
# GULP energy per Si atom -5583.620526 kJ/mol
# Density = 1.657582 g / cm^3
# Si number density = 16.613630 Si / 1000 Ang^3
#
#
#
# Elastic Constant Matrix: (Units=GPa)
#
#
# Indices 1 2 3 4 5 6 
#
# 1 161.9385 50.3281 88.2163 0.0000 2.4134 0.0000
# 2 50.3281 29.8012 41.3094 0.0000 -2.0006 0.0000
# 3 88.2163 41.3094 137.7685 0.0000 -3.6459 0.0000
# 4 0.0000 0.0000 0.0000 21.6974 0.0000 -5.4516
# 5 2.4134 -2.0006 -3.6459 0.0000 18.2334 0.0000
# 6 0.0000 0.0000 0.0000 -5.4516 0.0000 30.9538
#
#
#
# Elastic Compliance Matrix: (Units=1/GPa)
#
#
# Indices 1 2 3 4 5 6 
#
# 1 0.014138 -0.019629 -0.003291 0.000000 -0.004683 0.000000
# 2 -0.019629 0.084824 -0.012617 0.000000 0.009382 0.000000
# 3 -0.003291 -0.012617 0.013194 0.000000 0.001690 0.000000
# 4 0.000000 0.000000 0.000000 0.048222 0.000000 0.008493
# 5 -0.004683 0.009382 0.001690 0.000000 0.056831 0.000000
# 6 0.000000 0.000000 0.000000 0.008493 0.000000 0.033802
#
#
# Mechanical properties :
#
#
# Convention : Reuss Voigt Hill
#
# Bulk Modulus (GPa) = 24.34176 76.57953 50.46064
# Shear Modulus (GPa) = 14.89070 24.15387 19.52228
#
# Velocity S-wave (km/s) = 2.99706 3.81709 3.43166
# Velocity P-wave (km/s) = 5.16333 8.10070 6.79269
#
# Compressibility (1/GPa) = 0.04108167
#
# Stress axis : x y z
#
# Youngs Moduli (GPa) = 70.73013 11.78916 75.79157
#
# Poissons Ratio (x) = 0.23140 0.24946
# Poissons Ratio (y) = 1.38833 0.95628
# Poissons Ratio (z) = 0.23280 0.14875
#
# Static dielectric constant tensor:
#      x y z
#    x 1.536320 0.000000 0.021450 
#    y 0.000000 1.551500 0.000000 
#    z 0.021450 0.000000 1.544060 
# 
# From -- ./inp_files/237314.got.cif
#   From: 2010.05.17/outbox.cif.g08.bks.cpg/sg12_119_cif.got.tgz:237314.got - 2010.06.03 13:09:07.
