data_PCOD9181030
_publ_section_title
;
Structure prediction by ZEFSAII (Michael W. Deem and Ramdas Pophale) SiO2 
 PCOD9181030
Probable space group: C 2/M
;
_chemical_formula_sum "Si O2"
_cell_formula_units_Z 56
_cell_length_a 19.242627
_cell_length_b 9.101649
_cell_length_c 32.319079
_cell_angle_alpha 90.000000
_cell_angle_beta 35.059728
_cell_angle_gamma 90.000000
_cell_volume 3251.476142
_symmetry_space_group_name_H-M "C 2/M"
_symmetry_group_IT_number 12
_symmetry_cell_setting 'monoclinic'
loop_
_space_group_symop_operation_xyz
x,y,z
-x,y,-z
-x,-y,-z
x,-y,z
1/2+x,1/2+y,z
1/2-x,1/2+y,-z
1/2-x,1/2-y,-z
1/2+x,1/2-y,z
loop_
_atom_site_type_symbol
_atom_site_label
_atom_site_fract_x
_atom_site_fract_y
_atom_site_fract_z
Si Si1 0.692665 0.672710 0.303603
Si Si2 0.617405 0.176274 0.856483
Si Si3 0.353049 0.670285 0.072839
Si Si4 0.130558 0.674406 0.419332
Si Si5 0.745683 0.330447 0.436083
Si Si6 0.830312 0.676985 0.997337
Si Si7 0.927955 0.168828 0.401651
O O1 0.707539 0.500000 0.306204
O O2 0.806111 0.721571 0.220928
O O3 0.667936 0.758400 0.357586
O O4 0.570372 0.686702 0.336452
O O5 0.670983 0.252050 0.871532
O O6 0.629278 0.000000 0.855697
O O7 0.474335 0.207166 0.920652
O O8 0.314356 0.500000 0.091021
O O9 0.305473 0.754750 0.055186
O O10 0.500000 0.672812 0.000000
O O11 0.124578 0.500000 0.418835
O O12 0.224506 0.726088 0.407943
O O13 0.000000 0.728264 0.500000
O O14 0.747548 0.500000 0.422572
O O15 0.865536 0.282877 0.401736
O O16 0.636340 0.310673 0.522380
O O17 0.813367 0.500000 0.005901
O O18 0.750000 0.750000 0.000000
O O19 0.900243 0.000000 0.402737
#
# Coordination Sequence:
#
# PCOD9181030 Si02
#       7
#     8   8   8   8   8   8   8
#     4  10  20  36  56  77 104 138 176 218 269 321
#     4   9  19  35  55  79 107 139 175 218 264 312
#     4   9  17  31  53  79 106 137 173 210 250 304
#     4  11  22  34  51  76 105 137 177 224 268 315
#     4  10  19  32  52  74  98 129 169 215 261 310
#     4  10  19  33  55  83 112 141 176 216 259 308
#     4   9  18  32  51  74  99 128 164 211 262 312
#
# _framework density 17.222947000000001
#
# number of rings (size 3 to 8) (size 9 to 14) (size 15 to 20)
#    0.000    2.286    1.429    1.714    0.000    4.571 
#    0.000    1.429    0.000    0.000    0.000    0.000 
#    0.000    0.000    0.000    0.000    0.000    0.000 
#
# Total GULP energy -156101.238892 kJ/mol
# GULP energy per Si atom -5575.044246 kJ/mol
# Density = 1.718375 g / cm^3
# Si number density = 17.222947 Si / 1000 Ang^3
#
#
#
# Elastic Constant Matrix: (Units=GPa)
#
#
# Indices 1 2 3 4 5 6 
#
# 1 99.0612 52.2159 42.7322 0.0000 19.0516 -0.0018
# 2 52.2159 59.3640 48.1099 0.0002 12.7674 0.0006
# 3 42.7322 48.1099 93.2260 0.0000 20.0189 -0.0002
# 4 0.0000 0.0002 0.0000 18.1198 0.0001 6.3975
# 5 19.0516 12.7674 20.0189 0.0001 20.0013 0.0000
# 6 -0.0018 0.0006 -0.0002 6.3975 0.0000 34.3180
#
#
#
# Elastic Compliance Matrix: (Units=1/GPa)
#
#
# Indices 1 2 3 4 5 6 
#
# 1 0.020299 -0.017014 0.001650 0.000000 -0.010126 0.000001
# 2 -0.017014 0.043536 -0.015516 0.000000 0.003945 -0.000002
# 3 0.001650 -0.015516 0.020620 0.000000 -0.012306 0.000000
# 4 0.000000 0.000000 0.000000 0.059077 0.000000 -0.011013
# 5 -0.010126 0.003945 -0.012306 0.000000 0.069440 -0.000001
# 6 0.000001 -0.000002 0.000000 -0.011013 -0.000001 0.031192
#
#
# Mechanical properties :
#
#
# Convention : Reuss Voigt Hill
#
# Bulk Modulus (GPa) = 44.06100 59.75192 51.90646
# Shear Modulus (GPa) = 15.94961 21.72736 18.83849
#
# Velocity S-wave (km/s) = 3.04644 3.55566 3.31085
# Velocity P-wave (km/s) = 6.16544 7.18509 6.69470
#
# Compressibility (1/GPa) = 0.02269581
#
# Stress axis : x y z
#
# Youngs Moduli (GPa) = 49.26461 22.96928 48.49776
#
# Poissons Ratio (x) = 0.39080 -0.08004
# Poissons Ratio (y) = 0.83819 0.75247
# Poissons Ratio (z) = -0.08130 0.35638
#
# Static dielectric constant tensor:
#      x y z
#    x 1.573300 0.000000 -0.000850 
#    y 0.000000 1.579930 0.000000 
#    z -0.000850 0.000000 1.586670 
# 
# From -- ./inp_files/314362.got.cif
#   From: 2010.05.17/outbox.cif.g08.bks.cpg/sg12_158_cif.got.tgz:314362.got - 2010.06.03 13:09:07.
