data_PCOD9181152
_publ_section_title
;
Structure prediction by ZEFSAII (Michael W. Deem and Ramdas Pophale) SiO2 
 PCOD9181152
Probable space group: C 2/M
;
_chemical_formula_sum "Si O2"
_cell_formula_units_Z 64
_cell_length_a 22.014613
_cell_length_b 13.374497
_cell_length_c 13.312435
_cell_angle_alpha 90.000000
_cell_angle_beta 106.994232
_cell_angle_gamma 90.000000
_cell_volume 3748.484274
_symmetry_space_group_name_H-M "C 2/M"
_symmetry_group_IT_number 12
_symmetry_cell_setting 'monoclinic'
loop_
_space_group_symop_operation_xyz
x,y,z
-x,y,-z
-x,-y,-z
x,-y,z
1/2+x,1/2+y,z
1/2-x,1/2+y,-z
1/2-x,1/2-y,-z
1/2+x,1/2-y,z
loop_
_atom_site_type_symbol
_atom_site_label
_atom_site_fract_x
_atom_site_fract_y
_atom_site_fract_z
Si Si1 0.635095 0.614547 0.674077
Si Si2 0.250630 0.747702 0.218746
Si Si3 0.432895 0.615782 0.571763
Si Si4 0.543615 0.726028 0.111283
Si Si5 0.356837 0.883094 0.173215
Si Si6 0.152300 0.885465 0.275220
Si Si7 0.860192 0.618735 0.934826
Si Si8 0.961910 0.762132 0.271205
O O1 0.651467 0.500000 0.693913
O O2 0.698333 0.678942 0.701281
O O3 0.595354 0.627281 0.552419
O O4 0.591450 0.651601 0.745174
O O5 0.293444 0.822884 0.173034
O O6 0.209065 0.811409 0.276452
O O7 0.202855 0.677768 0.131895
O O8 0.458145 0.500000 0.592946
O O9 0.377403 0.624750 0.628092
O O10 0.484799 0.699542 0.624682
O O11 0.595599 0.646075 0.172537
O O12 0.581598 0.824354 0.091927
O O13 0.498712 0.746061 0.184547
O O14 0.500000 0.689081 0.000000
O O15 0.417850 0.835870 0.260382
O O16 0.350010 0.000000 0.192049
O O17 0.367201 0.870921 0.058487
O O18 0.171067 0.000000 0.269089
O O19 0.857593 0.500000 0.910231
#
# Coordination Sequence:
#
# PCOD9181152 Si02
#       8
#     8   8   8   8   8   8   8   8
#     4  10  20  34  55  80 102 132 172 216 260 301
#     4  10  20  34  53  75 107 134 172 216 254 302
#     4   9  18  34  56  79 103 132 170 214 261 306
#     4  10  19  33  51  74 105 132 169 212 252 304
#     4  10  20  33  52  74 102 143 178 207 249 302
#     4   9  19  34  52  74 103 139 171 208 256 304
#     4  10  20  34  53  75 102 139 176 212 252 297
#     4  10  19  32  52  77 104 133 166 212 256 307
#
# _framework density 17.073568000000002
#
# number of rings (size 3 to 8) (size 9 to 14) (size 15 to 20)
#    0.000    2.250    1.250    1.875    0.000    3.000 
#    0.000    0.000    0.000    6.750    0.000    0.000 
#    0.000    0.000    0.000    0.000    0.000    0.000 
#
# Total GULP energy -178298.940449 kJ/mol
# GULP energy per Si atom -5571.841889 kJ/mol
# Density = 1.703471 g / cm^3
# Si number density = 17.073568 Si / 1000 Ang^3
#
#
#
# Elastic Constant Matrix: (Units=GPa)
#
#
# Indices 1 2 3 4 5 6 
#
# 1 107.3372 54.0617 34.6689 0.0000 -3.2848 0.0000
# 2 54.0617 111.2179 42.4148 0.0000 -5.2099 0.0000
# 3 34.6689 42.4148 45.1362 0.0000 -4.5046 0.0000
# 4 0.0000 0.0000 0.0000 22.0450 0.0000 2.5009
# 5 -3.2848 -5.2099 -4.5046 0.0000 19.5385 0.0000
# 6 0.0000 0.0000 0.0000 2.5009 0.0000 19.5789
#
#
#
# Elastic Compliance Matrix: (Units=1/GPa)
#
#
# Indices 1 2 3 4 5 6 
#
# 1 0.013472 -0.004060 -0.006565 0.000000 -0.000331 0.000000
# 2 -0.004060 0.015247 -0.011127 0.000000 0.000817 0.000000
# 3 -0.006565 -0.011127 0.038125 0.000000 0.004719 0.000000
# 4 0.000000 0.000000 0.000000 0.046029 0.000000 -0.005879
# 5 -0.000331 0.000817 0.004719 0.000000 0.052431 0.000000
# 6 0.000000 0.000000 0.000000 -0.005879 0.000000 0.051826
#
#
# Mechanical properties :
#
#
# Convention : Reuss Voigt Hill
#
# Bulk Modulus (GPa) = 42.84806 58.44247 50.64527
# Shear Modulus (GPa) = 18.62782 21.06887 19.84834
#
# Velocity S-wave (km/s) = 3.30666 3.51665 3.41327
# Velocity P-wave (km/s) = 6.30312 7.12694 6.72765
#
# Compressibility (1/GPa) = 0.02333828
#
# Stress axis : x y z
#
# Youngs Moduli (GPa) = 74.22917 65.58715 26.22923
#
# Poissons Ratio (x) = 0.26630 0.17220
# Poissons Ratio (y) = 0.30139 0.29186
# Poissons Ratio (z) = 0.48734 0.72981
#
# Static dielectric constant tensor:
#      x y z
#    x 1.590640 0.000000 0.003100 
#    y 0.000000 1.567670 0.000000 
#    z 0.003100 0.000000 1.563390 
# 
# From -- ./inp_files/232513.got.cif
#   From: 2010.05.17/outbox.cif.g08.bks.cpg/sg12_117_cif.got.tgz:232513.got - 2010.06.03 13:09:07.
