data_PCOD9181160
_publ_section_title
;
Structure prediction by ZEFSAII (Michael W. Deem and Ramdas Pophale) SiO2 
 PCOD9181160
Probable space group: C 2/M
;
_chemical_formula_sum "Si O2"
_cell_formula_units_Z 56
_cell_length_a 18.529832
_cell_length_b 7.713786
_cell_length_c 19.236080
_cell_angle_alpha 90.000000
_cell_angle_beta 102.358776
_cell_angle_gamma 90.000000
_cell_volume 2685.796400
_symmetry_space_group_name_H-M "C 2/M"
_symmetry_group_IT_number 12
_symmetry_cell_setting 'monoclinic'
loop_
_space_group_symop_operation_xyz
x,y,z
-x,y,-z
-x,-y,-z
x,-y,z
1/2+x,1/2+y,z
1/2-x,1/2+y,-z
1/2-x,1/2-y,-z
1/2+x,1/2-y,z
loop_
_atom_site_type_symbol
_atom_site_label
_atom_site_fract_x
_atom_site_fract_y
_atom_site_fract_z
Si Si1 0.711385 0.701970 0.162821
Si Si2 0.833310 0.293647 0.992510
Si Si3 0.873982 0.287807 0.147345
Si Si4 0.509389 0.786839 0.713604
Si Si5 0.779906 0.207215 0.429888
Si Si6 0.656287 0.798693 0.299691
Si Si7 0.553714 0.795918 0.570386
O O1 0.719070 0.500000 0.181269
O O2 0.661045 0.719826 0.083627
O O3 0.793481 0.768044 0.159619
O O4 0.678685 0.789492 0.223953
O O5 0.840989 0.500000 0.988091
O O6 0.750000 0.250000 0.000000
O O7 0.881638 0.232776 0.068288
O O8 0.872361 0.500000 0.146005
O O9 0.937694 0.230919 0.212596
O O10 0.425381 0.725658 0.705627
O O11 0.539678 0.727663 0.645085
O O12 0.510499 0.000000 0.715857
O O13 0.750000 0.250000 0.500000
O O14 0.721253 0.276098 0.361056
O O15 0.861552 0.278319 0.433992
O O16 0.785701 0.000000 0.423938
O O17 0.650687 0.000000 0.319497
O O18 0.500000 0.720692 0.500000
O O19 0.535719 0.000000 0.571503
#
# Coordination Sequence:
#
# PCOD9181160 Si02
#       7
#     8   8   8   8   8   8   8
#     4  10  19  32  52  77 104 136 175 218 267 321
#     4   9  16  28  48  75 104 133 172 220 268 319
#     4   8  15  28  49  75  98 128 173 218 259 308
#     4   9  17  32  53  75 102 136 176 220 264 315
#     4  11  23  38  57  83 113 144 180 221 269 323
#     4  10  21  36  54  77 105 138 176 219 265 314
#     4  10  20  36  59  84 110 143 181 221 269 323
#
# _framework density 20.850425999999999
#
# number of rings (size 3 to 8) (size 9 to 14) (size 15 to 20)
#    0.000    2.429    0.000    3.857    0.000    4.857 
#    0.000    1.429    0.000   10.286    0.000    0.000 
#    0.000    0.000    0.000    0.000    0.000    0.000 
#
# Total GULP energy -156250.033970 kJ/mol
# GULP energy per Si atom -5580.358356 kJ/mol
# Density = 2.080297 g / cm^3
# Si number density = 20.850426 Si / 1000 Ang^3
#
#
#
# Elastic Constant Matrix: (Units=GPa)
#
#
# Indices 1 2 3 4 5 6 
#
# 1 109.2734 -17.1007 81.7261 0.0000 12.8845 0.0000
# 2 -17.1007 29.2843 -14.8696 0.0000 7.0144 0.0000
# 3 81.7261 -14.8696 196.4842 0.0000 18.5865 0.0000
# 4 0.0000 0.0000 0.0000 12.9654 0.0000 -6.2020
# 5 12.8845 7.0144 18.5865 0.0000 31.8549 0.0000
# 6 0.0000 0.0000 0.0000 -6.2020 0.0000 15.3961
#
#
#
# Elastic Compliance Matrix: (Units=1/GPa)
#
#
# Indices 1 2 3 4 5 6 
#
# 1 0.014603 0.006994 -0.005123 0.000000 -0.004457 0.000000
# 2 0.006994 0.042105 0.001505 0.000000 -0.012979 0.000000
# 3 -0.005123 0.001505 0.007588 0.000000 -0.002687 0.000000
# 4 0.000000 0.000000 0.000000 0.095538 0.000000 0.038485
# 5 -0.004457 -0.012979 -0.002687 0.000000 0.037621 0.000000
# 6 0.000000 0.000000 0.000000 0.038485 0.000000 0.080454
#
#
# Mechanical properties :
#
#
# Convention : Reuss Voigt Hill
#
# Bulk Modulus (GPa) = 14.07494 48.28373 31.17934
# Shear Modulus (GPa) = 16.95832 31.06234 24.01033
#
# Velocity S-wave (km/s) = 2.85499 3.86394 3.39713
# Velocity P-wave (km/s) = 4.19917 6.56614 5.51123
#
# Compressibility (1/GPa) = 0.07104824
#
# Stress axis : x y z
#
# Youngs Moduli (GPa) = 68.47898 23.75013 131.77929
#
# Poissons Ratio (x) = -0.16610 0.67512
# Poissons Ratio (y) = -0.47893 -0.19834
# Poissons Ratio (z) = 0.35082 -0.03575
#
# Static dielectric constant tensor:
#      x y z
#    x 1.650220 0.000000 0.050820 
#    y 0.000000 1.790260 0.000000 
#    z 0.050820 0.000000 1.740030 
# 
# From -- ./inp_files/275515.got.cif
#   From: 2010.05.17/outbox.cif.g08.bks.cpg/sg12_138_cif.got.tgz:275515.got - 2010.06.03 13:09:07.
