data_PCOD9181006
_publ_section_title
;
Structure prediction by ZEFSAII (Michael W. Deem and Ramdas Pophale) SiO2 
 PCOD9181006
Probable space group: C 2/M
;
_chemical_formula_sum "Si O2"
_cell_formula_units_Z 64
_cell_length_a 13.120978
_cell_length_b 13.397286
_cell_length_c 23.015459
_cell_angle_alpha 90.000000
_cell_angle_beta 68.693327
_cell_angle_gamma 90.000000
_cell_volume 3769.250134
_symmetry_space_group_name_H-M "C 2/M"
_symmetry_group_IT_number 12
_symmetry_cell_setting 'monoclinic'
loop_
_space_group_symop_operation_xyz
x,y,z
-x,y,-z
-x,-y,-z
x,-y,z
1/2+x,1/2+y,z
1/2-x,1/2+y,-z
1/2-x,1/2-y,-z
1/2+x,1/2-y,z
loop_
_atom_site_type_symbol
_atom_site_label
_atom_site_fract_x
_atom_site_fract_y
_atom_site_fract_z
Si Si1 0.101171 0.881667 0.156744
Si Si2 0.832192 0.315767 0.520383
Si Si3 0.593708 0.738177 0.741669
Si Si4 0.977648 0.726214 0.594215
Si Si5 0.368908 0.387567 0.377122
Si Si6 0.267200 0.270329 0.175132
Si Si7 0.965083 0.118694 0.072058
Si Si8 0.573868 0.118016 0.277792
O O1 0.206562 0.818904 0.154215
O O2 0.001069 0.835660 0.214646
O O3 0.063044 0.865315 0.098063
O O4 0.112903 0.000000 0.164047
O O5 0.750000 0.250000 0.500000
O O6 0.890926 0.256424 0.560866
O O7 0.748566 0.391792 0.566999
O O8 0.929533 0.343366 0.455888
O O9 0.646848 0.677049 0.677965
O O10 0.673305 0.763417 0.777932
O O11 0.534511 0.836075 0.729360
O O12 0.923276 0.671927 0.660142
O O13 0.041871 0.824388 0.603883
O O14 0.407075 0.500000 0.357447
O O15 0.359088 0.322828 0.116868
O O16 0.174906 0.347517 0.216681
O O17 0.941114 0.000000 0.077563
O O18 0.000000 0.147495 0.000000
O O19 0.571598 0.000000 0.284512
#
# Coordination Sequence:
#
# PCOD9181006 Si02
#       8
#     8   8   8   8   8   8   8   8
#     4   9  18  32  50  73 100 131 164 197 239 285
#     4   9  18  33  49  66  94 127 156 195 242 288
#     4   9  19  33  48  71 101 126 157 202 243 281
#     4   9  19  34  49  69  99 125 154 200 245 285
#     4  10  19  32  52  73  93 125 165 199 237 288
#     4  10  19  32  52  75  99 128 162 200 237 281
#     4   9  18  33  52  74 101 131 163 200 239 279
#     4  10  20  33  51  73  96 125 160 197 240 288
#
# _framework density 16.979505
#
# number of rings (size 3 to 8) (size 9 to 14) (size 15 to 20)
#    0.000    2.625    0.000    1.500    0.000    4.500 
#    0.000    6.250    0.000   12.375    0.000    0.000 
#    0.000    0.000    0.000    0.000    0.000    0.000 
#
# Total GULP energy -178203.545518 kJ/mol
# GULP energy per Si atom -5568.860797 kJ/mol
# Density = 1.694086 g / cm^3
# Si number density = 16.979505 Si / 1000 Ang^3
#
#
#
# Elastic Constant Matrix: (Units=GPa)
#
#
# Indices 1 2 3 4 5 6 
#
# 1 105.9324 52.7062 44.6733 0.0000 9.6789 0.0000
# 2 52.7062 52.9928 30.3954 0.0000 2.2276 0.0000
# 3 44.6733 30.3954 95.7006 0.0000 4.4312 0.0000
# 4 0.0000 0.0000 0.0000 13.8466 0.0000 -1.5070
# 5 9.6789 2.2276 4.4312 0.0000 19.9263 0.0000
# 6 0.0000 0.0000 0.0000 -1.5070 0.0000 13.8823
#
#
#
# Elastic Compliance Matrix: (Units=1/GPa)
#
#
# Indices 1 2 3 4 5 6 
#
# 1 0.020643 -0.018210 -0.003519 0.000000 -0.007209 0.000000
# 2 -0.018210 0.039156 -0.004186 0.000000 0.005399 0.000000
# 3 -0.003519 -0.004186 0.013459 0.000000 -0.000816 0.000000
# 4 0.000000 0.000000 0.000000 0.073083 0.000000 0.007933
# 5 -0.007209 0.005399 -0.000816 0.000000 0.053264 0.000000
# 6 0.000000 0.000000 0.000000 0.007933 0.000000 0.072895
#
#
# Mechanical properties :
#
#
# Convention : Reuss Voigt Hill
#
# Bulk Modulus (GPa) = 46.66606 56.68620 51.67613
# Shear Modulus (GPa) = 15.08421 17.98776 16.53599
#
# Velocity S-wave (km/s) = 2.98380 3.25834 3.12409
# Velocity P-wave (km/s) = 6.27807 6.90024 6.59649
#
# Compressibility (1/GPa) = 0.02142885
#
# Stress axis : x y z
#
# Youngs Moduli (GPa) = 48.44311 25.53898 74.29961
#
# Poissons Ratio (x) = 0.46506 0.26144
# Poissons Ratio (y) = 0.88214 0.31101
# Poissons Ratio (z) = 0.17046 0.10690
#
# Static dielectric constant tensor:
#      x y z
#    x 1.587820 0.000000 -0.003190 
#    y 0.000000 1.536250 0.000000 
#    z -0.003190 0.000000 1.589430 
# 
# From -- ./inp_files/335630.got.cif
#   From: 2010.05.17/outbox.cif.g08.bks.cpg/sg12_168_cif.got.tgz:335630.got - 2010.06.03 13:09:07.
