data_PCOD9181066
_publ_section_title
;
Structure prediction by ZEFSAII (Michael W. Deem and Ramdas Pophale) SiO2 
 PCOD9181066
Probable space group: C 2/M
;
_chemical_formula_sum "Si O2"
_cell_formula_units_Z 56
_cell_length_a 16.392565
_cell_length_b 7.543093
_cell_length_c 21.498537
_cell_angle_alpha 90.000000
_cell_angle_beta 52.532728
_cell_angle_gamma 90.000000
_cell_volume 2109.901492
_symmetry_space_group_name_H-M "C 2/M"
_symmetry_group_IT_number 12
_symmetry_cell_setting 'monoclinic'
loop_
_space_group_symop_operation_xyz
x,y,z
-x,y,-z
-x,-y,-z
x,-y,z
1/2+x,1/2+y,z
1/2-x,1/2+y,-z
1/2-x,1/2-y,-z
1/2+x,1/2-y,z
loop_
_atom_site_type_symbol
_atom_site_label
_atom_site_fract_x
_atom_site_fract_y
_atom_site_fract_z
Si Si1 0.361459 0.297160 0.695082
Si Si2 0.870351 0.214326 0.885117
Si Si3 0.617988 0.791417 0.448210
Si Si4 0.133976 0.794223 0.976411
Si Si5 0.649404 0.704721 0.835982
Si Si6 0.097868 0.786063 0.593070
Si Si7 0.418786 0.283979 0.264989
O O1 0.365332 0.500000 0.714528
O O2 0.330214 0.290426 0.636400
O O3 0.273291 0.205890 0.775488
O O4 0.477881 0.226835 0.643293
O O5 0.758060 0.286810 0.923910
O O6 0.959213 0.254318 0.794786
O O7 0.861233 0.000000 0.891777
O O8 0.902472 0.276239 0.939934
O O9 0.500000 0.722531 0.500000
O O10 0.651909 0.769558 0.503917
O O11 0.618436 0.000000 0.435449
O O12 0.110824 0.716245 0.919064
O O13 0.103913 0.000000 0.988238
O O14 0.614898 0.500000 0.850653
O O15 0.619186 0.785328 0.783762
O O16 0.129016 0.723952 0.647548
O O17 0.099890 0.000000 0.591738
O O18 0.405510 0.500000 0.270593
#
# Coordination Sequence:
#
# PCOD9181066 Si02
#       7
#     8   8   8   8   8   8   8
#     4  10  19  32  52  75  98 127 163 201 241 289
#     4   9  17  32  53  74  97 128 166 203 241 288
#     4   9  17  30  50  76 101 124 155 200 249 290
#     4   9  18  31  50  76 101 126 160 204 248 287
#     4  10  20  33  48  70 101 132 163 201 244 288
#     4   9  17  31  51  73  96 125 163 203 241 286
#     4   9  18  32  50  71  97 131 167 201 239 286
#
# _framework density 26.541522000000001
#
# number of rings (size 3 to 8) (size 9 to 14) (size 15 to 20)
#    0.000    2.714    0.000    1.714    0.000    4.571 
#    0.000    5.714    0.000    0.000    0.000    5.000 
#    0.000    0.000    0.000    0.000    0.000    0.000 
#
# Total GULP energy -156512.688225 kJ/mol
# GULP energy per Si atom -5589.738865 kJ/mol
# Density = 2.648111 g / cm^3
# Si number density = 26.541522 Si / 1000 Ang^3
#
#
#
# Elastic Constant Matrix: (Units=GPa)
#
#
# Indices 1 2 3 4 5 6 
#
# 1 88.3447 -2.0750 42.0422 0.0001 22.0510 0.0006
# 2 -2.0750 72.7776 3.8231 0.0002 -0.4579 0.0014
# 3 42.0422 3.8231 210.4904 0.0000 25.4870 0.0001
# 4 0.0001 0.0002 0.0000 8.5680 0.0000 2.1188
# 5 22.0510 -0.4579 25.4870 0.0000 57.7842 0.0002
# 6 0.0006 0.0014 0.0001 2.1188 0.0002 -2.5741
#
#
#
# Elastic Compliance Matrix: (Units=1/GPa)
#
#
# Indices 1 2 3 4 5 6 
#
# 1 0.013405 0.000471 -0.002184 -0.000001 -0.004149 0.000003
# 2 0.000471 0.013773 -0.000355 -0.000002 0.000086 0.000006
# 3 -0.002184 -0.000355 0.005380 0.000000 -0.001543 0.000000
# 4 -0.000001 -0.000002 0.000000 0.096974 0.000000 0.079822
# 5 -0.004149 0.000086 -0.001543 0.000000 0.019570 0.000000
# 6 0.000003 0.000006 0.000000 0.079822 0.000000 -0.322780
#
#
# Mechanical properties :
#
#
# Convention : Reuss Voigt Hill
#
# Bulk Modulus (GPa) = 35.18230 51.02149 43.10190
# Shear Modulus (GPa) = -31.23661 34.61044 1.68691
#
# Velocity S-wave (km/s) = -3.43431 3.61503 0.79809
# Velocity P-wave (km/s) = 1.56258 6.05719 4.13811
#
# Compressibility (1/GPa) = 0.02842338
#
# Stress axis : x y z
#
# Youngs Moduli (GPa) = 74.59884 72.60543 185.86727
#
# Poissons Ratio (x) = -0.03418 0.40587
# Poissons Ratio (y) = -0.03512 0.06591
# Poissons Ratio (z) = 0.16290 0.02575
#
# Static dielectric constant tensor:
#      x y z
#    x 2.177850 0.000000 0.038480 
#    y 0.000000 2.030300 0.000000 
#    z 0.038480 0.000000 2.042250 
# 
# From -- ./inp_files/313672.got.cif
#   From: 2010.05.17/outbox.cif.g08.bks.cpg/sg12_157_cif.got.tgz:313672.got - 2010.06.03 13:09:07.
