data_PCOD9181652
_publ_section_title
;
Structure prediction by ZEFSAII (Michael W. Deem and Ramdas Pophale) SiO2 
 PCOD9181652
Probable space group: C 2/M
;
_chemical_formula_sum "Si O2"
_cell_formula_units_Z 64
_cell_length_a 29.196509
_cell_length_b 8.734229
_cell_length_c 14.592602
_cell_angle_alpha 90.000000
_cell_angle_beta 86.949459
_cell_angle_gamma 90.000000
_cell_volume 3715.971702
_symmetry_space_group_name_H-M "C 2/M"
_symmetry_group_IT_number 12
_symmetry_cell_setting 'monoclinic'
loop_
_space_group_symop_operation_xyz
x,y,z
-x,y,-z
-x,-y,-z
x,-y,z
1/2+x,1/2+y,z
1/2-x,1/2+y,-z
1/2-x,1/2-y,-z
1/2+x,1/2-y,z
loop_
_atom_site_type_symbol
_atom_site_label
_atom_site_fract_x
_atom_site_fract_y
_atom_site_fract_z
Si Si1 0.551939 0.315920 0.526162
Si Si2 0.902572 0.315863 0.957142
Si Si3 0.977070 0.315714 0.808653
Si Si4 0.637666 0.682974 0.856900
Si Si5 0.426556 0.816718 0.278033
Si Si6 0.331330 0.316536 0.816500
Si Si7 0.592851 0.316278 0.332135
Si Si8 0.759150 0.816290 0.100191
O O1 0.500000 0.278880 0.500000
O O2 0.554011 0.500000 0.538862
O O3 0.564903 0.235934 0.619195
O O4 0.584733 0.271784 0.437883
O O5 0.900378 0.500000 0.959720
O O6 0.950586 0.269151 0.904162
O O7 0.862743 0.252297 0.894519
O O8 0.893210 0.250982 0.058070
O O9 0.977140 0.500000 0.807253
O O10 0.945880 0.257732 0.728028
O O11 0.028817 0.264386 0.785517
O O12 0.635328 0.500000 0.859626
O O13 0.617909 0.744559 0.763926
O O14 0.690225 0.728659 0.871389
O O15 0.423881 0.000000 0.274032
O O16 0.329495 0.500000 0.827602
O O17 0.358521 0.279782 0.719943
O O18 0.281098 0.246968 0.831145
O O19 0.586813 0.500000 0.327585
O O20 0.756873 0.000000 0.096081
O O21 0.750000 0.750000 0.000000
#
# Coordination Sequence:
#
# PCOD9181652 Si02
#       8
#     8   8   8   8   8   8   8   8
#     4  10  19  34  57  82 109 144 182 221 267 318
#     4  10  19  33  53  76 107 145 182 218 261 315
#     4   9  19  33  50  76 109 144 180 219 262 313
#     4  11  24  39  54  76 107 143 183 225 271 323
#     4  11  23  37  54  78 110 146 183 225 272 319
#     4  10  19  32  53  82 112 139 175 221 268 319
#     4   9  18  32  53  81 110 141 177 219 265 315
#     4  11  22  36  57  81 107 140 180 226 273 322
#
# _framework density 17.222950999999998
#
# number of rings (size 3 to 8) (size 9 to 14) (size 15 to 20)
#    0.000    1.875    2.500    1.875    0.000    4.250 
#    0.000    2.500    0.000    0.750    0.000    0.000 
#    0.000    0.000    0.000    0.000    0.000    0.000 
#
# Total GULP energy -178628.312355 kJ/mol
# GULP energy per Si atom -5582.134761 kJ/mol
# Density = 1.718375 g / cm^3
# Si number density = 17.222951 Si / 1000 Ang^3
#
#
#
# Elastic Constant Matrix: (Units=GPa)
#
#
# Indices 1 2 3 4 5 6 
#
# 1 109.0161 33.6736 60.2968 0.0000 0.1110 0.0000
# 2 33.6736 33.8388 29.4840 0.0000 2.1548 0.0000
# 3 60.2968 29.4840 97.1822 0.0000 1.2901 0.0000
# 4 0.0000 0.0000 0.0000 25.6839 0.0000 -2.9587
# 5 0.1110 2.1548 1.2901 0.0000 25.0063 0.0000
# 6 0.0000 0.0000 0.0000 -2.9587 0.0000 21.0047
#
#
#
# Elastic Compliance Matrix: (Units=1/GPa)
#
#
# Indices 1 2 3 4 5 6 
#
# 1 0.016136 -0.010051 -0.006977 0.000000 0.001154 0.000000
# 2 -0.010051 0.046633 -0.007865 0.000000 -0.003568 0.000000
# 3 -0.006977 -0.007865 0.017007 0.000000 -0.000169 0.000000
# 4 0.000000 0.000000 0.000000 0.039577 0.000000 0.005575
# 5 0.001154 -0.003568 -0.000169 0.000000 0.040301 0.000000
# 6 0.000000 0.000000 0.000000 0.005575 0.000000 0.048394
#
#
# Mechanical properties :
#
#
# Convention : Reuss Voigt Hill
#
# Bulk Modulus (GPa) = 33.34376 54.10509 43.72443
# Shear Modulus (GPa) = 18.66854 22.11115 20.38984
#
# Velocity S-wave (km/s) = 3.29589 3.58693 3.44448
# Velocity P-wave (km/s) = 5.82116 6.97406 6.42353
#
# Compressibility (1/GPa) = 0.02999062
#
# Stress axis : x y z
#
# Youngs Moduli (GPa) = 61.97509 21.44391 58.79827
#
# Poissons Ratio (x) = 0.21553 0.41025
# Poissons Ratio (y) = 0.62290 0.46242
# Poissons Ratio (z) = 0.43242 0.16865
#
# Static dielectric constant tensor:
#      x y z
#    x 1.595950 0.000000 -0.025210 
#    y 0.000000 1.577530 0.000000 
#    z -0.025210 0.000000 1.573950 
# 
# From -- ./inp_files/244101.got.cif
#   From: 2010.05.17/outbox.cif.g08.bks.cpg/sg12_123_cif.got.tgz:244101.got - 2010.06.03 13:09:07.
