data_PCOD9181786
_publ_section_title
;
Structure prediction by ZEFSAII (Michael W. Deem and Ramdas Pophale) SiO2 
 PCOD9181786
Probable space group: C 2/M
;
_chemical_formula_sum "Si O2"
_cell_formula_units_Z 58
_cell_length_a 22.301921
_cell_length_b 9.901390
_cell_length_c 14.733653
_cell_angle_alpha 90.000000
_cell_angle_beta 99.086720
_cell_angle_gamma 90.000000
_cell_volume 3212.655696
_symmetry_space_group_name_H-M "C 2/M"
_symmetry_group_IT_number 12
_symmetry_cell_setting 'monoclinic'
loop_
_space_group_symop_operation_xyz
x,y,z
-x,y,-z
-x,-y,-z
x,-y,z
1/2+x,1/2+y,z
1/2-x,1/2+y,-z
1/2-x,1/2-y,-z
1/2+x,1/2-y,z
loop_
_atom_site_type_symbol
_atom_site_label
_atom_site_fract_x
_atom_site_fract_y
_atom_site_fract_z
Si Si1 0.853611 0.336436 0.805689
Si Si2 0.896840 0.339836 0.621038
Si Si3 0.901970 0.841467 0.167811
Si Si4 0.966393 0.248232 0.362949
Si Si5 0.845405 0.343932 0.421997
Si Si6 0.000000 0.000000 0.500000
Si Si7 0.216278 0.841296 0.738088
Si Si8 0.428177 0.160325 0.000439
O O1 0.859399 0.500000 0.805598
O O2 0.878932 0.284567 0.715362
O O3 0.782329 0.304828 0.791906
O O4 0.891518 0.293160 0.902302
O O5 0.886404 0.500000 0.619899
O O6 0.857098 0.289193 0.526627
O O7 0.967696 0.315380 0.620303
O O8 0.948846 0.794597 0.256869
O O9 0.835941 0.825465 0.198910
O O10 0.909368 0.748370 0.082147
O O11 0.910775 0.000000 0.149254
O O12 0.911573 0.337186 0.389432
O O13 0.971038 0.117250 0.426998
O O14 0.825187 0.500000 0.419411
O O15 0.802005 0.249961 0.351934
O O16 0.217316 0.000000 0.711879
O O17 0.416091 0.000000 0.013097
O O18 0.500000 0.174215 0.000000
#
# Coordination Sequence:
#
# PCOD9181786 Si02
#       8
#     8   8   8   8   8   2   8   8
#     4   9  19  37  57  78 105 141 186 226 268 324
#     4  10  19  32  54  80 108 142 179 227 278 319
#     4  10  21  35  54  80 109 141 177 222 271 317
#     4  11  20  33  54  80 114 144 186 218 269 325
#     4  10  20  32  52  81 115 142 179 229 275 320
#     4  12  20  32  54  80 114 156 182 224 250 346
#     4   9  20  37  57  77 106 147 186 222 265 325
#     4  10  21  38  60  84 107 137 178 223 272 329
#
# _framework density 18.053599999999999
#
# number of rings (size 3 to 8) (size 9 to 14) (size 15 to 20)
#    0.000    2.069    2.069    1.241    0.966    6.345 
#    0.000    0.690    1.517    0.000    0.000    0.000 
#    0.000    0.000    0.000    0.000    0.000    0.000 
#
# Total GULP energy -161496.232165 kJ/mol
# GULP energy per Si atom -5568.835592 kJ/mol
# Density = 1.801251 g / cm^3
# Si number density = 18.053600 Si / 1000 Ang^3
#
#
#
# Elastic Constant Matrix: (Units=GPa)
#
#
# Indices 1 2 3 4 5 6 
#
# 1 56.0391 16.0287 50.2468 0.0000 31.9698 0.0000
# 2 16.0287 50.2613 60.5577 0.0000 10.3667 0.0000
# 3 50.2468 60.5577 159.8823 0.0000 32.3048 0.0000
# 4 0.0000 0.0000 0.0000 33.1313 0.0000 5.5728
# 5 31.9698 10.3667 32.3048 0.0000 22.3974 0.0000
# 6 0.0000 0.0000 0.0000 5.5728 0.0000 -4.3165
#
#
#
# Elastic Compliance Matrix: (Units=1/GPa)
#
#
# Indices 1 2 3 4 5 6 
#
# 1 0.097582 0.001560 -0.004190 0.000000 -0.133966 0.000000
# 2 0.001560 0.036920 -0.014919 0.000000 0.002203 0.000000
# 3 -0.004190 -0.014919 0.014986 0.000000 -0.008729 0.000000
# 4 0.000000 0.000000 0.000000 0.024798 0.000000 0.032016
# 5 -0.133966 0.002203 -0.008729 0.000000 0.247440 0.000000
# 6 0.000000 0.000000 0.000000 0.032016 0.000000 -0.190337
#
#
# Mechanical properties :
#
#
# Convention : Reuss Voigt Hill
#
# Bulk Modulus (GPa) = 8.74208 57.76100 33.25154
# Shear Modulus (GPa) = 16.41407 19.53241 17.97324
#
# Velocity S-wave (km/s) = 3.01854 3.29281 3.15865
# Velocity P-wave (km/s) = 4.12330 6.82059 5.63569
#
# Compressibility (1/GPa) = 0.11438925
#
# Stress axis : x y z
#
# Youngs Moduli (GPa) = 10.24780 27.08573 66.72875
#
# Poissons Ratio (x) = -0.04226 0.27960
# Poissons Ratio (y) = -0.01599 0.99556
# Poissons Ratio (z) = 0.04294 0.40410
#
# Static dielectric constant tensor:
#      x y z
#    x 1.615140 0.000000 -0.003920 
#    y 0.000000 1.596090 0.000000 
#    z -0.003920 0.000000 1.626890 
# 
# From -- ./inp_files/237655.got.cif
#   From: 2010.05.17/outbox.cif.g08.bks.cpg/sg12_119_cif.got.tgz:237655.got - 2010.06.03 13:09:07.
