data_PCOD9181378
_publ_section_title
;
Structure prediction by ZEFSAII (Michael W. Deem and Ramdas Pophale) SiO2 
 PCOD9181378
Probable space group: C 2/M
;
_chemical_formula_sum "Si O2"
_cell_formula_units_Z 56
_cell_length_a 21.914698
_cell_length_b 7.591004
_cell_length_c 18.863430
_cell_angle_alpha 90.000000
_cell_angle_beta 122.418716
_cell_angle_gamma 90.000000
_cell_volume 2648.966500
_symmetry_space_group_name_H-M "C 2/M"
_symmetry_group_IT_number 12
_symmetry_cell_setting 'monoclinic'
loop_
_space_group_symop_operation_xyz
x,y,z
-x,y,-z
-x,-y,-z
x,-y,z
1/2+x,1/2+y,z
1/2-x,1/2+y,-z
1/2-x,1/2-y,-z
1/2+x,1/2-y,z
loop_
_atom_site_type_symbol
_atom_site_label
_atom_site_fract_x
_atom_site_fract_y
_atom_site_fract_z
Si Si1 0.995874 0.201199 0.386515
Si Si2 0.167721 0.788565 0.969130
Si Si3 0.108277 0.214614 0.231163
Si Si4 0.584889 0.284691 0.058733
Si Si5 0.958739 0.784719 0.208458
Si Si6 0.260473 0.712008 0.589583
Si Si7 0.614871 0.201297 0.567043
O O1 0.971904 0.275339 0.296566
O O2 0.061195 0.297594 0.466218
O O3 0.928490 0.202955 0.398146
O O4 0.020834 0.000000 0.391828
O O5 0.114031 0.723409 0.874153
O O6 0.161558 0.000000 0.967936
O O7 0.250000 0.750000 0.000000
O O8 0.134345 0.725608 0.023461
O O9 0.117038 0.270012 0.154978
O O10 0.028261 0.265502 0.205871
O O11 0.167339 0.275109 0.325510
O O12 0.110589 0.000000 0.233117
O O13 0.583996 0.500000 0.057254
O O14 0.500000 0.231698 0.000000
O O15 0.956169 0.000000 0.208825
O O16 0.260192 0.500000 0.594605
O O17 0.250000 0.750000 0.500000
O O18 0.190751 0.777445 0.589476
O O19 0.624985 0.000000 0.596947
#
# Coordination Sequence:
#
# PCOD9181378 Si02
#       7
#     8   8   8   8   8   8   8
#     4  10  19  32  53  75  96 135 181 214 250 308
#     4  10  20  34  53  80 109 137 169 214 270 318
#     4   9  16  29  51  78 102 130 173 222 261 299
#     4   9  15  28  53  80 102 129 173 223 259 298
#     4   9  17  30  50  76 103 129 169 219 261 301
#     4  10  21  34  51  75 105 136 169 214 264 310
#     4  10  20  34  49  72 106 138 166 211 268 312
#
# _framework density 21.140319999999999
#
# number of rings (size 3 to 8) (size 9 to 14) (size 15 to 20)
#    0.000    2.429    1.429    2.571    0.000    3.429 
#    0.000    2.857    0.000    2.143    0.000    0.000 
#    0.000    0.000    0.000    0.000    0.000    0.000 
#
# Total GULP energy -156288.400931 kJ/mol
# GULP energy per Si atom -5581.728605 kJ/mol
# Density = 2.109220 g / cm^3
# Si number density = 21.140320 Si / 1000 Ang^3
#
#
#
# Elastic Constant Matrix: (Units=GPa)
#
#
# Indices 1 2 3 4 5 6 
#
# 1 127.2139 -6.1324 69.2474 0.0000 10.3413 -0.0001
# 2 -6.1324 46.3602 -3.9227 0.0000 -0.5403 0.0000
# 3 69.2474 -3.9227 149.4299 0.0000 -11.7555 0.0000
# 4 0.0000 0.0000 0.0000 0.7754 0.0000 -9.4527
# 5 10.3413 -0.5403 -11.7555 0.0000 33.3523 0.0000
# 6 -0.0001 0.0000 0.0000 -9.4527 0.0000 -270.2231
#
#
#
# Elastic Compliance Matrix: (Units=1/GPa)
#
#
# Indices 1 2 3 4 5 6 
#
# 1 0.011480 0.000969 -0.005732 0.000000 -0.005564 0.000000
# 2 0.000969 0.021710 0.000129 0.000001 0.000097 0.000000
# 3 -0.005732 0.000129 0.009763 0.000000 0.005220 0.000000
# 4 0.000000 0.000001 0.000000 0.904087 0.000000 -0.031626
# 5 -0.005564 0.000097 0.005220 0.000000 0.033550 0.000000
# 6 0.000000 0.000000 0.000000 -0.031626 0.000000 -0.002594
#
#
# Mechanical properties :
#
#
# Convention : Reuss Voigt Hill
#
# Bulk Modulus (GPa) = 29.68852 49.04317 39.36585
# Shear Modulus (GPa) = 5.00754 -29.63163 -12.31204
#
# Velocity S-wave (km/s) = 1.54073 -3.74794 -2.41591
# Velocity P-wave (km/s) = 4.15201 2.12599 3.29841
#
# Compressibility (1/GPa) = 0.03368305
#
# Stress axis : x y z
#
# Youngs Moduli (GPa) = 87.10701 46.06098 102.43182
#
# Poissons Ratio (x) = -0.04462 0.58717
# Poissons Ratio (y) = -0.08438 -0.01318
# Poissons Ratio (z) = 0.49933 -0.00593
#
# Static dielectric constant tensor:
#      x y z
#    x 1.737760 0.000000 -0.004930 
#    y 0.000000 1.787730 0.000000 
#    z -0.004930 0.000000 1.749510 
# 
# From -- ./inp_files/281632.got.cif
#   From: 2010.05.17/outbox.cif.g08.bks.cpg/sg12_141_cif.got.tgz:281632.got - 2010.06.03 13:09:07.
