data_PCOD9181097
_publ_section_title
;
Structure prediction by ZEFSAII (Michael W. Deem and Ramdas Pophale) SiO2 
 PCOD9181097
Probable space group: C 2/M
;
_chemical_formula_sum "Si O2"
_cell_formula_units_Z 56
_cell_length_a 33.091846
_cell_length_b 18.264256
_cell_length_c 9.602105
_cell_angle_alpha 90.000000
_cell_angle_beta 30.293627
_cell_angle_gamma 90.000000
_cell_volume 2927.464946
_symmetry_space_group_name_H-M "C 2/M"
_symmetry_group_IT_number 12
_symmetry_cell_setting 'monoclinic'
loop_
_space_group_symop_operation_xyz
x,y,z
-x,y,-z
-x,-y,-z
x,-y,z
1/2+x,1/2+y,z
1/2-x,1/2+y,-z
1/2-x,1/2-y,-z
1/2+x,1/2-y,z
loop_
_atom_site_type_symbol
_atom_site_label
_atom_site_fract_x
_atom_site_fract_y
_atom_site_fract_z
Si Si1 0.757705 0.411758 0.146020
Si Si2 0.078937 0.088479 0.684660
Si Si3 0.578899 0.086304 0.846968
Si Si4 0.165557 0.336449 0.832408
Si Si5 0.326212 0.664852 0.172172
Si Si6 0.013979 0.087592 0.302157
Si Si7 0.759833 0.585824 0.814239
O O1 0.761004 0.500000 0.149597
O O2 0.667835 0.385627 0.455424
O O3 0.821826 0.376561 0.058409
O O4 0.767419 0.394226 0.953656
O O5 0.059148 0.104107 0.582433
O O6 0.080455 0.000000 0.698114
O O7 0.000000 0.115657 0.000000
O O8 0.599229 0.129616 0.927395
O O9 0.654715 0.092539 0.517459
O O10 0.569358 0.000000 0.908803
O O11 0.500000 0.111496 0.000000
O O12 0.249262 0.346635 0.499287
O O13 0.154383 0.250457 0.888919
O O14 0.301155 0.633346 0.095866
O O15 0.403127 0.621192 0.997069
O O16 0.000000 0.113973 0.500000
O O17 0.022934 0.000000 0.277382
O O18 0.734692 0.500000 0.882247
#
# Coordination Sequence:
#
# PCOD9181097 Si02
#       7
#     8   8   8   8   8   8   8
#     4  10  19  33  53  78 106 135 176 224 265 314
#     4   9  17  28  45  72 102 130 162 204 255 303
#     4   9  18  36  59  78  98 129 174 224 270 318
#     4  10  21  35  53  77 105 140 179 218 266 321
#     4  10  20  35  51  74 108 142 179 215 257 321
#     4  10  19  32  52  76 102 136 177 217 256 306
#     4   9  18  33  55  78 100 134 174 214 264 315
#
# _framework density 19.129179000000001
#
# number of rings (size 3 to 8) (size 9 to 14) (size 15 to 20)
#    0.000    2.429    0.000    2.571    0.000    5.714 
#    0.000    7.143    0.000    3.429    0.000    0.000 
#    0.000    0.000    0.000    0.000    0.000    0.000 
#
# Total GULP energy -156232.843727 kJ/mol
# GULP energy per Si atom -5579.744419 kJ/mol
# Density = 1.908564 g / cm^3
# Si number density = 19.129179 Si / 1000 Ang^3
#
#
#
# Elastic Constant Matrix: (Units=GPa)
#
#
# Indices 1 2 3 4 5 6 
#
# 1 156.9140 54.7788 28.9616 0.0000 -4.7918 0.0000
# 2 54.7788 32.2079 15.3370 0.0000 -0.4964 0.0000
# 3 28.9616 15.3370 22.8943 0.0000 -0.8005 0.0000
# 4 0.0000 0.0000 0.0000 14.1666 0.0000 -0.7381
# 5 -4.7918 -0.4964 -0.8005 0.0000 36.3382 0.0000
# 6 0.0000 0.0000 0.0000 -0.7381 0.0000 1.9010
#
#
#
# Elastic Compliance Matrix: (Units=1/GPa)
#
#
# Indices 1 2 3 4 5 6 
#
# 1 0.015921 -0.025683 -0.002877 0.000000 0.001685 0.000000
# 2 -0.025683 0.087021 -0.025904 0.000000 -0.002768 0.000000
# 3 -0.002877 -0.025904 0.064695 0.000000 0.000692 0.000000
# 4 0.000000 0.000000 0.000000 0.072046 0.000000 0.027974
# 5 0.001685 -0.002768 0.000692 0.000000 0.027719 0.000000
# 6 0.000000 0.000000 0.000000 0.027974 0.000000 0.536901
#
#
# Mechanical properties :
#
#
# Convention : Reuss Voigt Hill
#
# Bulk Modulus (GPa) = 17.03244 45.57456 31.30350
# Shear Modulus (GPa) = 5.36021 18.01041 11.68531
#
# Velocity S-wave (km/s) = 1.67577 3.07174 2.47425
# Velocity P-wave (km/s) = 3.55914 6.03797 4.95604
#
# Compressibility (1/GPa) = 0.05871148
#
# Stress axis : x y z
#
# Youngs Moduli (GPa) = 62.80951 11.49145 15.45710
#
# Poissons Ratio (x) = 0.29513 0.04446
# Poissons Ratio (y) = 1.61311 0.40040
# Poissons Ratio (z) = 0.18068 0.29767
#
# Static dielectric constant tensor:
#      x y z
#    x 1.670610 0.000000 0.019680 
#    y 0.000000 1.636070 0.000000 
#    z 0.019680 0.000000 1.690320 
# 
# From -- ./inp_files/87827.got.cif
#   From: 2010.05.17/outbox.cif.g08.bks.cpg/sg12_44_cif.got.tgz:87827.got - 2010.06.03 13:09:07.
