data_PCOD9181971
_publ_section_title
;
Structure prediction by ZEFSAII (Michael W. Deem and Ramdas Pophale) SiO2 
 PCOD9181971
Probable space group: C 2/M
;
_chemical_formula_sum "Si O2"
_cell_formula_units_Z 56
_cell_length_a 30.436741
_cell_length_b 18.696412
_cell_length_c 8.913036
_cell_angle_alpha 90.000000
_cell_angle_beta 38.693304
_cell_angle_gamma 90.000000
_cell_volume 3170.788823
_symmetry_space_group_name_H-M "C 2/M"
_symmetry_group_IT_number 12
_symmetry_cell_setting 'monoclinic'
loop_
_space_group_symop_operation_xyz
x,y,z
-x,y,-z
-x,-y,-z
x,-y,z
1/2+x,1/2+y,z
1/2-x,1/2+y,-z
1/2-x,1/2-y,-z
1/2+x,1/2-y,z
loop_
_atom_site_type_symbol
_atom_site_label
_atom_site_fract_x
_atom_site_fract_y
_atom_site_fract_z
Si Si1 0.739126 0.083201 0.926224
Si Si2 0.741373 0.363807 0.454225
Si Si3 0.180328 0.795851 0.140083
Si Si4 0.383784 0.161470 0.587624
Si Si5 0.149145 0.767209 0.880093
Si Si6 0.650340 0.919391 0.616029
Si Si7 0.968897 0.667810 0.919196
O O1 0.759975 0.095096 0.698105
O O2 0.798324 0.125878 0.862143
O O3 0.734262 0.000000 0.976989
O O4 0.663684 0.121707 0.161170
O O5 0.794572 0.297047 0.288845
O O6 0.670428 0.328486 0.705274
O O7 0.778100 0.411215 0.483486
O O8 0.122213 0.746978 0.377102
O O9 0.250000 0.750000 0.000000
O O10 0.160940 0.794161 0.017402
O O11 0.349660 0.135407 0.522292
O O12 0.465629 0.142776 0.355709
O O13 0.074729 0.731166 0.041879
O O14 0.639572 0.000000 0.591028
O O15 0.586375 0.894949 0.893978
O O16 0.000000 0.689412 0.000000
#
# Coordination Sequence:
#
# PCOD9181971 Si02
#       7
#     8   8   8   8   8   8   8
#     4  11  22  34  54  85 117 145 179 231 289 332
#     4  10  19  32  55  76 109 143 190 234 282 309
#     4  10  19  35  54  82 107 143 186 232 280 326
#     4  10  20  35  53  79 115 147 186 226 266 333
#     4  10  19  34  56  79 105 143 190 242 266 319
#     4  10  20  34  52  79 115 154 190 224 270 330
#     4   9  21  34  54  82 111 148 197 225 270 322
#
# _framework density 17.66122
#
# number of rings (size 3 to 8) (size 9 to 14) (size 15 to 20)
#    0.000    2.000    2.857    2.571    6.000    3.714 
#    0.000    0.714    0.000    2.571    0.000    5.000 
#    0.000    0.000    0.000    0.000    0.000    0.000 
#
# Total GULP energy -156032.132582 kJ/mol
# GULP energy per Si atom -5572.576164 kJ/mol
# Density = 1.762102 g / cm^3
# Si number density = 17.661220 Si / 1000 Ang^3
#
#
#
# Elastic Constant Matrix: (Units=GPa)
#
#
# Indices 1 2 3 4 5 6 
#
# 1 69.8604 25.0927 14.2326 0.0000 7.4391 0.0000
# 2 25.0927 84.0442 37.3664 0.0000 -1.6528 0.0000
# 3 14.2326 37.3664 54.2551 0.0000 16.3408 0.0000
# 4 0.0000 0.0000 0.0000 16.7242 0.0000 0.2857
# 5 7.4391 -1.6528 16.3408 0.0000 13.2343 0.0000
# 6 0.0000 0.0000 0.0000 0.2857 0.0000 8.4737
#
#
#
# Elastic Compliance Matrix: (Units=1/GPa)
#
#
# Indices 1 2 3 4 5 6 
#
# 1 0.018422 -0.009717 0.008508 0.000000 -0.022073 0.000000
# 2 -0.009717 0.031256 -0.034705 0.000000 0.052216 0.000000
# 3 0.008508 -0.034705 0.068215 0.000000 -0.093344 0.000000
# 4 0.000000 0.000000 0.000000 0.059828 0.000000 -0.002017
# 5 -0.022073 0.052216 -0.093344 0.000000 0.209745 0.000000
# 6 0.000000 0.000000 0.000000 -0.002017 0.000000 0.118081
#
#
# Mechanical properties :
#
#
# Convention : Reuss Voigt Hill
#
# Bulk Modulus (GPa) = 21.70810 40.17146 30.93978
# Shear Modulus (GPa) = 8.43556 16.45096 12.44326
#
# Velocity S-wave (km/s) = 2.18785 3.05532 2.65722
# Velocity P-wave (km/s) = 4.32439 5.93646 5.19336
#
# Compressibility (1/GPa) = 0.04606574
#
# Stress axis : x y z
#
# Youngs Moduli (GPa) = 54.28422 31.99355 14.65953
#
# Poissons Ratio (x) = 0.31087 -0.12472
# Poissons Ratio (y) = 0.52746 0.50875
# Poissons Ratio (z) = -0.46183 1.11032
#
# Static dielectric constant tensor:
#      x y z
#    x 1.621450 0.000000 0.016960 
#    y 0.000000 1.624240 0.000000 
#    z 0.016960 0.000000 1.649300 
# 
# From -- ./inp_files/112584.got.cif
#   From: 2010.05.17/outbox.cif.g08.bks.cpg/sg12_57_cif.got.tgz:112584.got - 2010.06.03 13:09:07.
