data_PCOD9181079
_publ_section_title
;
Structure prediction by ZEFSAII (Michael W. Deem and Ramdas Pophale) SiO2 
 PCOD9181079
Probable space group: C 2/M
;
_chemical_formula_sum "Si O2"
_cell_formula_units_Z 48
_cell_length_a 17.382422
_cell_length_b 9.341251
_cell_length_c 13.739453
_cell_angle_alpha 90.000000
_cell_angle_beta 101.782713
_cell_angle_gamma 90.000000
_cell_volume 2183.916289
_symmetry_space_group_name_H-M "C 2/M"
_symmetry_group_IT_number 12
_symmetry_cell_setting 'monoclinic'
loop_
_space_group_symop_operation_xyz
x,y,z
-x,y,-z
-x,-y,-z
x,-y,z
1/2+x,1/2+y,z
1/2-x,1/2+y,-z
1/2-x,1/2-y,-z
1/2+x,1/2-y,z
loop_
_atom_site_type_symbol
_atom_site_label
_atom_site_fract_x
_atom_site_fract_y
_atom_site_fract_z
Si Si1 0.452570 0.838116 0.226719
Si Si2 0.802869 0.337256 0.938040
Si Si3 0.186952 0.836233 0.362858
Si Si4 0.064633 0.337987 0.441064
Si Si5 0.427535 0.335214 0.858371
Si Si6 0.808884 0.837795 0.278955
O O1 0.518120 0.850052 0.327665
O O2 0.493755 0.747165 0.152732
O O3 0.380958 0.753862 0.256778
O O4 0.430805 0.000000 0.192425
O O5 0.818370 0.500000 0.974698
O O6 0.880650 0.250698 0.928762
O O7 0.752130 0.346837 0.826228
O O8 0.750000 0.250000 0.000000
O O9 0.138025 0.761106 0.435849
O O10 0.129590 0.837808 0.252268
O O11 0.262244 0.744577 0.351048
O O12 0.206853 0.000000 0.390500
O O13 0.086877 0.500000 0.478392
O O14 0.000000 0.280530 0.500000
O O15 0.441960 0.500000 0.888439
O O16 0.831893 0.000000 0.311937
#
# Coordination Sequence:
#
# PCOD9181079 Si02
#       6
#     8   8   8   8   8   8
#     4  10  19  32  52  76 101 130 166 206 246 291
#     4  10  20  34  53  76 101 130 164 203 246 292
#     4   9  17  30  50  74  98 128 167 205 242 291
#     4   9  18  33  52  74 101 132 165 203 248 295
#     4   9  17  31  51  73  99 131 165 201 243 294
#     4  10  20  34  52  74 101 132 165 202 246 294
#
# _framework density 21.978864999999999
#
# number of rings (size 3 to 8) (size 9 to 14) (size 15 to 20)
#    0.000    2.500    0.000    2.500    0.000    7.000 
#    0.000    1.667    0.000    5.000    0.000    0.000 
#    0.000    0.000    0.000    0.000    0.000    0.000 
#
# Total GULP energy -134134.578436 kJ/mol
# GULP energy per Si atom -5588.940768 kJ/mol
# Density = 2.192884 g / cm^3
# Si number density = 21.978865 Si / 1000 Ang^3
#
#
#
# Elastic Constant Matrix: (Units=GPa)
#
#
# Indices 1 2 3 4 5 6 
#
# 1 153.6144 125.4519 39.6745 0.0000 -65.5115 0.0000
# 2 125.4519 250.3888 42.7398 0.0000 -64.1806 0.0000
# 3 39.6745 42.7398 70.6713 0.0000 -21.0258 0.0000
# 4 0.0000 0.0000 0.0000 11.5219 0.0000 -10.8794
# 5 -65.5115 -64.1806 -21.0258 0.0000 66.5070 0.0000
# 6 0.0000 0.0000 0.0000 -10.8794 0.0000 16.5118
#
#
#
# Elastic Compliance Matrix: (Units=1/GPa)
#
#
# Indices 1 2 3 4 5 6 
#
# 1 0.015070 -0.004638 -0.002837 0.000000 0.009471 0.000000
# 2 -0.004638 0.006965 -0.001068 0.000000 0.001815 0.000000
# 3 -0.002837 -0.001068 0.016834 0.000000 0.001496 0.000000
# 4 0.000000 0.000000 0.000000 0.229695 0.000000 0.151342
# 5 0.009471 0.001815 0.001496 0.000000 0.026590 0.000000
# 6 0.000000 0.000000 0.000000 0.151342 0.000000 0.160280
#
#
# Mechanical properties :
#
#
# Convention : Reuss Voigt Hill
#
# Bulk Modulus (GPa) = 45.91128 98.93409 72.42268
# Shear Modulus (GPa) = 10.42140 36.69535 23.55838
#
# Velocity S-wave (km/s) = 2.17987 4.09048 3.27749
# Velocity P-wave (km/s) = 5.22207 8.21099 6.88078
#
# Compressibility (1/GPa) = 0.02178114
#
# Stress axis : x y z
#
# Youngs Moduli (GPa) = 66.35847 143.56755 59.40323
#
# Poissons Ratio (x) = 0.66593 0.16853
# Poissons Ratio (y) = 0.30780 0.06347
# Poissons Ratio (z) = 0.18827 0.15340
#
# Static dielectric constant tensor:
#      x y z
#    x 1.778250 0.000000 0.053200 
#    y 0.000000 1.787340 0.000000 
#    z 0.053200 0.000000 1.837520 
# 
# From -- ./inp_files/221517.got.cif
#   From: 2010.05.17/outbox.cif.g08.bks.cpg/sg12_111_cif.got.tgz:221517.got - 2010.06.03 13:09:07.
