data_PCOD9181469
_publ_section_title
;
Structure prediction by ZEFSAII (Michael W. Deem and Ramdas Pophale) SiO2 
 PCOD9181469
Probable space group: C 2/M
;
_chemical_formula_sum "Si O2"
_cell_formula_units_Z 40
_cell_length_a 17.454137
_cell_length_b 9.819304
_cell_length_c 10.807430
_cell_angle_alpha 90.000000
_cell_angle_beta 71.264936
_cell_angle_gamma 90.000000
_cell_volume 1754.114210
_symmetry_space_group_name_H-M "C 2/M"
_symmetry_group_IT_number 12
_symmetry_cell_setting 'monoclinic'
loop_
_space_group_symop_operation_xyz
x,y,z
-x,y,-z
-x,-y,-z
x,-y,z
1/2+x,1/2+y,z
1/2-x,1/2+y,-z
1/2-x,1/2-y,-z
1/2+x,1/2-y,z
loop_
_atom_site_type_symbol
_atom_site_label
_atom_site_fract_x
_atom_site_fract_y
_atom_site_fract_z
Si Si1 0.219121 0.290047 0.383069
Si Si2 0.443998 0.847117 0.419415
Si Si3 0.396792 0.656691 0.211949
Si Si4 0.130092 0.344781 0.002494
Si Si5 0.679648 0.353499 0.170557
O O1 0.250000 0.250000 0.500000
O O2 0.139242 0.366946 0.462387
O O3 0.298203 0.351521 0.276781
O O4 0.189124 0.168779 0.310954
O O5 0.500000 0.791241 0.500000
O O6 0.429996 0.743961 0.312013
O O7 0.470583 0.000000 0.364512
O O8 0.426256 0.500000 0.190264
O O9 0.408022 0.749082 0.083610
O O10 0.099761 0.500000 0.018986
O O11 0.227011 0.352390 0.924144
O O12 0.128915 0.266672 0.133741
O O13 0.644403 0.500000 0.156024
#
# Coordination Sequence:
#
# PCOD9181469 Si02
#       5
#     8   8   8   8   8
#     4   9  19  32  51  77 105 134 169 210 254 300
#     4  10  21  36  53  74 103 138 173 210 254 304
#     4  10  19  32  53  78 104 134 170 212 254 300
#     4   9  17  29  47  73 104 135 167 206 253 303
#     4   9  17  29  47  73 104 135 168 208 253 300
#
# _framework density 22.803533000000002
#
# number of rings (size 3 to 8) (size 9 to 14) (size 15 to 20)
#    0.000    2.600    0.000    1.800    0.000   14.000 
#    0.000    0.000    0.000    1.200    0.000    7.000 
#    0.000    0.000    0.000    0.000    0.000    0.000 
#
# Total GULP energy -111437.651333 kJ/mol
# GULP energy per Si atom -5571.882567 kJ/mol
# Density = 2.275163 g / cm^3
# Si number density = 22.803533 Si / 1000 Ang^3
#
#
#
# Elastic Constant Matrix: (Units=GPa)
#
#
# Indices 1 2 3 4 5 6 
#
# 1 84.3637 31.1134 29.8530 0.0000 21.0263 0.0000
# 2 31.1134 193.1765 59.2741 0.0000 38.1714 0.0000
# 3 29.8530 59.2741 86.1736 0.0000 34.8156 0.0000
# 4 0.0000 0.0000 0.0000 10.1219 0.0000 -0.2105
# 5 21.0263 38.1714 34.8156 0.0000 37.3726 0.0000
# 6 0.0000 0.0000 0.0000 -0.2105 0.0000 -4.3868
#
#
#
# Elastic Compliance Matrix: (Units=1/GPa)
#
#
# Indices 1 2 3 4 5 6 
#
# 1 0.014206 -0.000505 -0.002491 0.000000 -0.005157 0.000000
# 2 -0.000505 0.006976 -0.002982 0.000000 -0.004063 0.000000
# 3 -0.002491 -0.002982 0.020400 0.000000 -0.014557 0.000000
# 4 0.000000 0.000000 0.000000 0.098697 0.000000 -0.004736
# 5 -0.005157 -0.004063 -0.014557 0.000000 0.047370 0.000000
# 6 0.000000 0.000000 0.000000 -0.004736 0.000000 -0.227728
#
#
# Mechanical properties :
#
#
# Convention : Reuss Voigt Hill
#
# Bulk Modulus (GPa) = 33.75350 67.13275 50.44313
# Shear Modulus (GPa) = -273.98220 24.85309 -124.56455
#
# Velocity S-wave (km/s) = -10.97314 3.30491 -7.39890
# Velocity P-wave (km/s) = 12.07114 6.63828 7.12901
#
# Compressibility (1/GPa) = 0.02962656
#
# Stress axis : x y z
#
# Youngs Moduli (GPa) = 70.39166 143.35486 49.02035
#
# Poissons Ratio (x) = 0.07238 0.12210
# Poissons Ratio (y) = 0.03554 0.14617
# Poissons Ratio (z) = 0.17534 0.42745
#
# Static dielectric constant tensor:
#      x y z
#    x 1.912740 0.000000 -0.099480 
#    y 0.000000 1.849850 0.000000 
#    z -0.099480 0.000000 1.818570 
# 
# From -- ./inp_files/162485.got.cif
#   From: 2010.05.17/outbox.cif.g08.bks.cpg/sg12_82_cif.got.tgz:162485.got - 2010.06.03 13:09:07.
