data_PCOD9181490
_publ_section_title
;
Structure prediction by ZEFSAII (Michael W. Deem and Ramdas Pophale) SiO2 
 PCOD9181490
Probable space group: C 2/M
;
_chemical_formula_sum "Si O2"
_cell_formula_units_Z 56
_cell_length_a 24.071360
_cell_length_b 23.114142
_cell_length_c 10.924547
_cell_angle_alpha 90.000000
_cell_angle_beta 25.849798
_cell_angle_gamma 90.000000
_cell_volume 2650.218712
_symmetry_space_group_name_H-M "C 2/M"
_symmetry_group_IT_number 12
_symmetry_cell_setting 'monoclinic'
loop_
_space_group_symop_operation_xyz
x,y,z
-x,y,-z
-x,-y,-z
x,-y,z
1/2+x,1/2+y,z
1/2-x,1/2+y,-z
1/2-x,1/2-y,-z
1/2+x,1/2-y,z
loop_
_atom_site_type_symbol
_atom_site_label
_atom_site_fract_x
_atom_site_fract_y
_atom_site_fract_z
Si Si1 0.109245 0.594441 0.373351
Si Si2 0.421357 0.334107 0.424480
Si Si3 0.301759 0.435663 0.797848
Si Si4 0.679942 0.172764 0.720472
Si Si5 0.838082 0.799101 0.174128
Si Si6 0.934478 0.565025 0.929284
Si Si7 0.331311 0.225384 0.726253
O O1 0.106789 0.663820 0.370251
O O2 0.000000 0.570501 0.500000
O O3 0.064950 0.575222 0.595105
O O4 0.242086 0.575399 0.050206
O O5 0.398241 0.386675 0.562530
O O6 0.297458 0.329459 0.583573
O O7 0.427832 0.274651 0.488826
O O8 0.542232 0.338153 0.097295
O O9 0.355117 0.500000 0.684490
O O10 0.181437 0.432248 0.941195
O O11 0.743404 0.173977 0.461466
O O12 0.617412 0.235869 0.865225
O O13 0.593026 0.118099 0.925416
O O14 0.762869 0.787668 0.198915
O O15 0.932559 0.500000 0.985178
O O16 0.250000 0.250000 0.000000
#
# Coordination Sequence:
#
# PCOD9181490 Si02
#       7
#     8   8   8   8   8   8   8
#     4  10  19  32  53  78 108 138 174 223 274 323
#     4  10  19  33  55  80 105 139 176 217 267 320
#     4   9  17  31  50  78 109 136 178 223 262 315
#     4   9  19  36  54  80 106 137 182 221 262 318
#     4  10  21  35  54  76 110 144 172 218 269 320
#     4   9  17  31  56  82 104 137 180 231 273 305
#     4  11  22  33  51  83 109 137 173 219 270 320
#
# _framework density 21.130330000000001
#
# number of rings (size 3 to 8) (size 9 to 14) (size 15 to 20)
#    0.000    2.286    1.429    1.714    4.000    1.714 
#    0.000    2.857    0.000    8.571    0.000    0.000 
#    0.000    0.000    0.000    0.000    0.000    0.000 
#
# Total GULP energy -156397.007125 kJ/mol
# GULP energy per Si atom -5585.607397 kJ/mol
# Density = 2.108224 g / cm^3
# Si number density = 21.130330 Si / 1000 Ang^3
#
#
#
# Elastic Constant Matrix: (Units=GPa)
#
#
# Indices 1 2 3 4 5 6 
#
# 1 41.7831 16.2559 19.3892 0.0000 12.7697 0.0000
# 2 16.2559 125.2159 61.3165 0.0000 15.0361 0.0001
# 3 19.3892 61.3165 125.1314 0.0002 29.1584 -0.0002
# 4 0.0000 0.0000 0.0002 19.1329 -0.0002 0.5275
# 5 12.7697 15.0361 29.1584 -0.0002 26.7124 0.0000
# 6 0.0000 0.0001 -0.0002 0.5275 0.0000 10.2124
#
#
#
# Elastic Compliance Matrix: (Units=1/GPa)
#
#
# Indices 1 2 3 4 5 6 
#
# 1 0.028634 -0.001940 -0.000739 0.000000 -0.011790 0.000000
# 2 -0.001940 0.010642 -0.005008 0.000000 0.000404 0.000000
# 3 -0.000739 -0.005008 0.013171 0.000000 -0.011205 0.000000
# 4 0.000000 0.000000 0.000000 0.052341 0.000001 -0.002704
# 5 -0.011790 0.000404 -0.011205 0.000001 0.055075 0.000000
# 6 0.000000 0.000000 0.000000 -0.002704 0.000000 0.098060
#
#
# Mechanical properties :
#
#
# Convention : Reuss Voigt Hill
#
# Bulk Modulus (GPa) = 26.97394 54.00595 40.48994
# Shear Modulus (GPa) = 17.50363 24.22279 20.86321
#
# Velocity S-wave (km/s) = 2.88126 3.38945 3.14564
# Velocity P-wave (km/s) = 4.88488 6.39780 5.69183
#
# Compressibility (1/GPa) = 0.03707282
#
# Stress axis : x y z
#
# Youngs Moduli (GPa) = 34.92375 93.96703 75.92270
#
# Poissons Ratio (x) = 0.18226 0.05612
# Poissons Ratio (y) = 0.06774 0.38025
# Poissons Ratio (z) = 0.02581 0.47062
#
# Static dielectric constant tensor:
#      x y z
#    x 1.821030 0.000000 -0.020450 
#    y 0.000000 1.754530 0.000000 
#    z -0.020450 0.000000 1.761900 
# 
# From -- ./inp_files/133168.got.cif
#   From: 2010.05.17/outbox.cif.g08.bks.cpg/sg12_67_cif.got.tgz:133168.got - 2010.06.03 13:09:07.
