data_PCOD9181449
_publ_section_title
;
Structure prediction by ZEFSAII (Michael W. Deem and Ramdas Pophale) SiO2 
 PCOD9181449
Probable space group: C 2/M
;
_chemical_formula_sum "Si O2"
_cell_formula_units_Z 64
_cell_length_a 29.581938
_cell_length_b 8.425741
_cell_length_c 14.431738
_cell_angle_alpha 90.000000
_cell_angle_beta 104.239733
_cell_angle_gamma 90.000000
_cell_volume 3486.585955
_symmetry_space_group_name_H-M "C 2/M"
_symmetry_group_IT_number 12
_symmetry_cell_setting 'monoclinic'
loop_
_space_group_symop_operation_xyz
x,y,z
-x,y,-z
-x,-y,-z
x,-y,z
1/2+x,1/2+y,z
1/2-x,1/2+y,-z
1/2-x,1/2-y,-z
1/2+x,1/2-y,z
loop_
_atom_site_type_symbol
_atom_site_label
_atom_site_fract_x
_atom_site_fract_y
_atom_site_fract_z
Si Si1 0.026968 0.308866 0.220901
Si Si2 0.805003 0.690032 0.324684
Si Si3 0.016011 0.691471 0.609004
Si Si4 0.699091 0.807849 0.271162
Si Si5 0.433135 0.310063 0.084453
Si Si6 0.608177 0.192054 0.128981
Si Si7 0.196827 0.690992 0.473495
Si Si8 0.609990 0.310911 0.743927
O O1 0.028429 0.500000 0.226005
O O2 0.074239 0.254649 0.195475
O O3 0.015255 0.251410 0.319220
O O4 0.983866 0.259490 0.133915
O O5 0.806904 0.500000 0.322772
O O6 0.751211 0.741891 0.285992
O O7 0.822164 0.744758 0.436447
O O8 0.839860 0.758401 0.266747
O O9 0.013105 0.500000 0.606179
O O10 0.068880 0.737775 0.660417
O O11 0.000000 0.749848 0.500000
O O12 0.661057 0.756814 0.176873
O O13 0.679233 0.760626 0.363257
O O14 0.702524 0.000000 0.271653
O O15 0.436752 0.500000 0.084258
O O16 0.400935 0.262627 0.155803
O O17 0.412327 0.250982 0.977872
O O18 0.607693 0.000000 0.128011
O O19 0.195585 0.500000 0.474654
O O20 0.250000 0.750000 0.500000
O O21 0.606148 0.500000 0.736837
#
# Coordination Sequence:
#
# PCOD9181449 Si02
#       8
#     8   8   8   8   8   8   8   8
#     4   9  18  33  53  77 104 134 168 203 245 302
#     4  10  19  32  53  78 102 133 173 211 247 294
#     4   9  18  33  54  80 109 138 168 205 246 291
#     4   9  18  33  51  74 106 137 165 203 251 300
#     4  10  21  36  53  73  98 129 168 214 258 301
#     4  10  20  33  52  76 101 132 167 206 254 304
#     4   8  15  28  47  70  97 128 160 196 238 287
#     4  10  21  36  53  73 100 136 174 210 253 303
#
# _framework density 18.356065999999998
#
# number of rings (size 3 to 8) (size 9 to 14) (size 15 to 20)
#    0.000    2.625    0.000    1.500    0.000    5.750 
#    0.000    4.375    0.000    1.500    0.000    0.000 
#    0.000    0.000    0.000    0.000    0.000    0.000 
#
# Total GULP energy -178333.439694 kJ/mol
# GULP energy per Si atom -5572.919990 kJ/mol
# Density = 1.831429 g / cm^3
# Si number density = 18.356066 Si / 1000 Ang^3
#
#
#
# Elastic Constant Matrix: (Units=GPa)
#
#
# Indices 1 2 3 4 5 6 
#
# 1 97.0632 8.6845 49.6176 0.0000 -9.0109 0.0000
# 2 8.6845 5.0922 12.9856 0.0000 -2.8922 0.0000
# 3 49.6176 12.9856 120.7081 0.0000 6.7627 0.0000
# 4 0.0000 0.0000 0.0000 16.7944 0.0000 0.3213
# 5 -9.0109 -2.8922 6.7627 0.0000 12.9892 0.0000
# 6 0.0000 0.0000 0.0000 0.3213 0.0000 19.7500
#
#
#
# Elastic Compliance Matrix: (Units=1/GPa)
#
#
# Indices 1 2 3 4 5 6 
#
# 1 0.015234 0.000217 -0.007087 0.000000 0.014306 0.000000
# 2 0.000217 0.376481 -0.046656 0.000000 0.108270 0.000000
# 3 -0.007087 -0.046656 0.017587 0.000000 -0.024462 0.000000
# 4 0.000000 0.000000 0.000000 0.059562 0.000000 -0.000969
# 5 0.014306 0.108270 -0.024462 0.000000 0.123755 0.000000
# 6 0.000000 0.000000 0.000000 -0.000969 0.000000 0.050649
#
#
# Mechanical properties :
#
#
# Convention : Reuss Voigt Hill
#
# Bulk Modulus (GPa) = 3.30852 40.60432 21.95642
# Shear Modulus (GPa) = 5.87495 20.01178 12.94337
#
# Velocity S-wave (km/s) = 1.79095 3.30540 2.65830
# Velocity P-wave (km/s) = 2.46637 6.06102 4.62704
#
# Compressibility (1/GPa) = 0.30224968
#
# Stress axis : x y z
#
# Youngs Moduli (GPa) = 65.64269 2.65618 56.85961
#
# Poissons Ratio (x) = -0.00058 0.40295
# Poissons Ratio (y) = -0.01423 2.65285
# Poissons Ratio (z) = 0.46520 0.12393
#
# Static dielectric constant tensor:
#      x y z
#    x 1.614360 0.000000 -0.025760 
#    y 0.000000 1.631280 0.000000 
#    z -0.025760 0.000000 1.649500 
# 
# From -- ./inp_files/243890.got.cif
#   From: 2010.05.17/outbox.cif.g08.bks.cpg/sg12_122_cif.got.tgz:243890.got - 2010.06.03 13:09:07.
