data_PCOD9181649
_publ_section_title
;
Structure prediction by ZEFSAII (Michael W. Deem and Ramdas Pophale) SiO2 
 PCOD9181649
Probable space group: C 2/M
;
_chemical_formula_sum "Si O2"
_cell_formula_units_Z 48
_cell_length_a 28.148899
_cell_length_b 8.552867
_cell_length_c 11.396801
_cell_angle_alpha 90.000000
_cell_angle_beta 58.442269
_cell_angle_gamma 90.000000
_cell_volume 2338.047996
_symmetry_space_group_name_H-M "C 2/M"
_symmetry_group_IT_number 12
_symmetry_cell_setting 'monoclinic'
loop_
_space_group_symop_operation_xyz
x,y,z
-x,y,-z
-x,-y,-z
x,-y,z
1/2+x,1/2+y,z
1/2-x,1/2+y,-z
1/2-x,1/2-y,-z
1/2+x,1/2-y,z
loop_
_atom_site_type_symbol
_atom_site_label
_atom_site_fract_x
_atom_site_fract_y
_atom_site_fract_z
Si Si1 0.176667 0.189914 0.836867
Si Si2 0.216291 0.312400 0.430860
Si Si3 0.479521 0.188246 0.341434
Si Si4 0.612511 0.313490 0.687335
Si Si5 0.585962 0.188156 0.337735
Si Si6 0.312576 0.686921 0.920009
O O1 0.241361 0.234410 0.727380
O O2 0.137420 0.244134 0.780272
O O3 0.175265 0.000000 0.835014
O O4 0.161953 0.239267 0.986774
O O5 0.212179 0.500000 0.436486
O O6 0.250000 0.250000 0.500000
O O7 0.155256 0.244760 0.531031
O O8 0.448626 0.255727 0.268422
O O9 0.542377 0.236949 0.291798
O O10 0.442950 0.235231 0.502978
O O11 0.478511 0.000000 0.336369
O O12 0.613761 0.500000 0.687380
O O13 0.646891 0.252374 0.233608
O O14 0.588753 0.000000 0.335228
O O15 0.310946 0.500000 0.918614
O O16 0.250000 0.750000 0.000000
#
# Coordination Sequence:
#
# PCOD9181649 Si02
#       6
#     8   8   8   8   8   8
#     4   8  18  35  51  72 109 149 180 217 271 330
#     4   9  16  29  48  72 104 143 179 219 268 319
#     4   9  19  37  61  83 109 145 182 227 284 334
#     4  10  19  32  53  82 110 140 183 229 274 327
#     4   9  20  40  60  81 110 146 186 227 277 334
#     4  11  23  39  58  81 111 150 188 225 272 329
#
# _framework density 20.529948000000001
#
# number of rings (size 3 to 8) (size 9 to 14) (size 15 to 20)
#    0.000    2.667    0.000    3.500    2.333    1.333 
#    0.000   11.667    0.000    5.000    0.000    0.000 
#    0.000    0.000    0.000    0.000    0.000    0.000 
#
# Total GULP energy -133824.565756 kJ/mol
# GULP energy per Si atom -5576.023573 kJ/mol
# Density = 2.048322 g / cm^3
# Si number density = 20.529948 Si / 1000 Ang^3
#
#
#
# Elastic Constant Matrix: (Units=GPa)
#
#
# Indices 1 2 3 4 5 6 
#
# 1 117.3521 14.4364 11.8893 0.0000 -5.8213 0.0000
# 2 14.4364 26.1255 7.0412 0.0000 -3.8709 0.0000
# 3 11.8893 7.0412 60.9048 0.0000 -6.7641 0.0000
# 4 0.0000 0.0000 0.0000 15.2970 0.0000 -2.1042
# 5 -5.8213 -3.8709 -6.7641 0.0000 27.7754 0.0000
# 6 0.0000 0.0000 0.0000 -2.1042 0.0000 27.1579
#
#
#
# Elastic Compliance Matrix: (Units=1/GPa)
#
#
# Indices 1 2 3 4 5 6 
#
# 1 0.009262 -0.004656 -0.001157 0.000000 0.001010 0.000000
# 2 -0.004656 0.042407 -0.003542 0.000000 0.004072 0.000000
# 3 -0.001157 -0.003542 0.017444 0.000000 0.003512 0.000000
# 4 0.000000 0.000000 0.000000 0.066077 0.000000 0.005120
# 5 0.001010 0.004072 0.003512 0.000000 0.037638 0.000000
# 6 0.000000 0.000000 0.000000 0.005120 0.000000 0.037218
#
#
# Mechanical properties :
#
#
# Convention : Reuss Voigt Hill
#
# Bulk Modulus (GPa) = 19.83998 30.12401 24.98200
# Shear Modulus (GPa) = 20.36184 25.44709 22.90447
#
# Velocity S-wave (km/s) = 3.15272 3.52449 3.34378
# Velocity P-wave (km/s) = 4.78934 5.59176 5.20603
#
# Compressibility (1/GPa) = 0.05040327
#
# Stress axis : x y z
#
# Youngs Moduli (GPa) = 107.97347 23.58075 57.32466
#
# Poissons Ratio (x) = 0.10979 0.06635
# Poissons Ratio (y) = 0.50274 0.20302
# Poissons Ratio (z) = 0.12497 0.08351
#
# Static dielectric constant tensor:
#      x y z
#    x 1.766740 0.000000 0.016090 
#    y 0.000000 1.692650 0.000000 
#    z 0.016090 0.000000 1.747200 
# 
# From -- ./inp_files/179739.got.cif
#   From: 2010.05.17/outbox.cif.g08.bks.cpg/sg12_90_cif.got.tgz:179739.got - 2010.06.03 13:09:07.
