data_PCOD9181757
_publ_section_title
;
Structure prediction by ZEFSAII (Michael W. Deem and Ramdas Pophale) SiO2 
 PCOD9181757
Probable space group: C 2/M
;
_chemical_formula_sum "Si O2"
_cell_formula_units_Z 44
_cell_length_a 10.849705
_cell_length_b 16.731258
_cell_length_c 11.935022
_cell_angle_alpha 90.000000
_cell_angle_beta 113.316258
_cell_angle_gamma 90.000000
_cell_volume 1989.621494
_symmetry_space_group_name_H-M "C 2/M"
_symmetry_group_IT_number 12
_symmetry_cell_setting 'monoclinic'
loop_
_space_group_symop_operation_xyz
x,y,z
-x,y,-z
-x,-y,-z
x,-y,z
1/2+x,1/2+y,z
1/2-x,1/2+y,-z
1/2-x,1/2-y,-z
1/2+x,1/2-y,z
loop_
_atom_site_type_symbol
_atom_site_label
_atom_site_fract_x
_atom_site_fract_y
_atom_site_fract_z
Si Si1 0.740954 0.360205 0.871483
Si Si2 0.362916 0.402216 0.513943
Si Si3 0.098638 0.593062 0.282230
Si Si4 0.500000 0.306206 0.000000
Si Si5 0.063665 0.908252 0.220095
Si Si6 0.140411 0.693648 0.866458
O O1 0.847947 0.397435 0.826185
O O2 0.595921 0.401440 0.809867
O O3 0.721568 0.265361 0.835600
O O4 0.785597 0.363408 0.017219
O O5 0.500000 0.376666 0.500000
O O6 0.367073 0.500000 0.516569
O O7 0.226350 0.379815 0.401852
O O8 0.365489 0.374566 0.643689
O O9 0.071511 0.500000 0.295893
O O10 0.965186 0.645839 0.245338
O O11 0.586066 0.363699 0.111731
O O12 0.437823 0.249023 0.070766
O O13 0.101212 0.000000 0.220241
#
# Coordination Sequence:
#
# PCOD9181757 Si02
#       6
#     8   8   8   4   8   8
#     4  10  19  33  53  76 113 146 172 229 288 327
#     4   9  17  31  51  79 110 138 178 237 282 315
#     4  11  20  34  59  84 108 145 193 231 273 335
#     4  10  19  34  49  72 108 146 170 220 271 336
#     4  10  19  32  54  79 103 139 185 224 268 329
#     4  10  21  35  51  78 114 148 178 224 287 330
#
# _framework density 22.114758999999999
#
# number of rings (size 3 to 8) (size 9 to 14) (size 15 to 20)
#    0.000    2.000    3.636    0.818    0.000    2.182 
#    0.000    3.636    4.000    0.000    0.000    0.000 
#    0.000   40.727    0.000    0.000    0.000    0.000 
#
# Total GULP energy -122719.155950 kJ/mol
# GULP energy per Si atom -5578.143452 kJ/mol
# Density = 2.206442 g / cm^3
# Si number density = 22.114759 Si / 1000 Ang^3
#
#
#
# Elastic Constant Matrix: (Units=GPa)
#
#
# Indices 1 2 3 4 5 6 
#
# 1 18.0846 10.0180 16.0364 0.0000 5.0339 0.0000
# 2 10.0180 54.0677 36.3913 0.0000 6.0309 0.0000
# 3 16.0364 36.3913 151.7373 0.0000 16.6316 0.0000
# 4 0.0000 0.0000 0.0000 -1.2557 0.0000 60.0313
# 5 5.0339 6.0309 16.6316 0.0000 38.6345 0.0000
# 6 0.0000 0.0000 0.0000 60.0313 0.0000 -61.5682
#
#
#
# Elastic Compliance Matrix: (Units=1/GPa)
#
#
# Indices 1 2 3 4 5 6 
#
# 1 0.065339 -0.008654 -0.004245 0.000000 -0.005335 0.000000
# 2 -0.008654 0.023257 -0.004606 0.000000 -0.000520 0.000000
# 3 -0.004245 -0.004606 0.008401 0.000000 -0.002344 0.000000
# 4 0.000000 0.000000 0.000000 0.017459 0.000000 0.017023
# 5 -0.005335 -0.000520 -0.002344 0.000000 0.027669 0.000000
# 6 0.000000 0.000000 0.000000 0.017023 0.000000 0.000356
#
#
# Mechanical properties :
#
#
# Convention : Reuss Voigt Hill
#
# Bulk Modulus (GPa) = 16.13268 38.75343 27.44306
# Shear Modulus (GPa) = 25.23299 5.92504 15.57902
#
# Velocity S-wave (km/s) = 3.38154 1.63861 2.65705
# Velocity P-wave (km/s) = 4.74944 4.59803 4.67435
#
# Compressibility (1/GPa) = 0.06198598
#
# Stress axis : x y z
#
# Youngs Moduli (GPa) = 15.30483 42.99770 119.03873
#
# Poissons Ratio (x) = 0.37210 0.50533
# Poissons Ratio (y) = 0.13245 0.54831
# Poissons Ratio (z) = 0.06497 0.19805
#
# Static dielectric constant tensor:
#      x y z
#    x 1.943140 0.000000 0.055650 
#    y 0.000000 1.829280 0.000000 
#    z 0.055650 0.000000 1.858390 
# 
# From -- ./inp_files/215627.got.cif
#   From: 2010.05.17/outbox.cif.g08.bks.cpg/sg12_108_cif.got.tgz:215627.got - 2010.06.03 13:09:07.
