data_PCOD9181082
_publ_section_title
;
Structure prediction by ZEFSAII (Michael W. Deem and Ramdas Pophale) SiO2 
 PCOD9181082
Probable space group: C 2/M
;
_chemical_formula_sum "Si O2"
_cell_formula_units_Z 56
_cell_length_a 18.931081
_cell_length_b 9.281741
_cell_length_c 24.615325
_cell_angle_alpha 90.000000
_cell_angle_beta 47.583612
_cell_angle_gamma 90.000000
_cell_volume 3193.163889
_symmetry_space_group_name_H-M "C 2/M"
_symmetry_group_IT_number 12
_symmetry_cell_setting 'monoclinic'
loop_
_space_group_symop_operation_xyz
x,y,z
-x,y,-z
-x,-y,-z
x,-y,z
1/2+x,1/2+y,z
1/2-x,1/2+y,-z
1/2-x,1/2-y,-z
1/2+x,1/2-y,z
loop_
_atom_site_type_symbol
_atom_site_label
_atom_site_fract_x
_atom_site_fract_y
_atom_site_fract_z
Si Si1 0.106676 0.170634 0.106558
Si Si2 0.285077 0.331243 0.060509
Si Si3 0.101854 0.661107 0.917368
Si Si4 0.207717 0.828900 0.354623
Si Si5 0.520074 0.832631 0.424469
Si Si6 0.671710 0.327590 0.502057
Si Si7 0.414144 0.167462 0.203735
O O1 0.190122 0.242035 0.098178
O O2 0.005047 0.239052 0.172745
O O3 0.104882 0.000000 0.114198
O O4 0.139194 0.201871 0.027277
O O5 0.264695 0.500000 0.068772
O O6 0.330918 0.281752 0.092657
O O7 0.139704 0.500000 0.910486
O O8 0.091672 0.673479 0.858487
O O9 0.000000 0.672671 0.000000
O O10 0.123179 0.744103 0.367823
O O11 0.200057 0.809116 0.423712
O O12 0.312951 0.784631 0.280556
O O13 0.196024 0.000000 0.349952
O O14 0.500000 0.829983 0.500000
O O15 0.433527 0.746556 0.440371
O O16 0.521924 0.000000 0.406425
O O17 0.667344 0.500000 0.515309
O O18 0.750000 0.250000 0.500000
O O19 0.429197 0.000000 0.211445
#
# Coordination Sequence:
#
# PCOD9181082 Si02
#       7
#     8   8   8   8   8   8   8
#     4  10  20  33  51  74 100 132 171 215 262 311
#     4  10  20  33  51  73  99 130 170 218 263 310
#     4  10  19  32  52  76 101 131 169 214 259 304
#     4   9  19  35  54  77 106 140 173 209 256 309
#     4   9  17  31  53  79 106 136 171 209 249 299
#     4  10  19  33  55  82 109 137 173 213 253 301
#     4  10  20  35  54  76 105 138 172 212 262 312
#
# _framework density 17.537464
#
# number of rings (size 3 to 8) (size 9 to 14) (size 15 to 20)
#    0.000    2.286    1.429    1.714    0.000    4.857 
#    0.000    1.429    0.000    0.000    0.000    0.000 
#    0.000    0.000    0.000    0.000    0.000    0.000 
#
# Total GULP energy -156142.384688 kJ/mol
# GULP energy per Si atom -5576.513739 kJ/mol
# Density = 1.749755 g / cm^3
# Si number density = 17.537464 Si / 1000 Ang^3
#
#
#
# Elastic Constant Matrix: (Units=GPa)
#
#
# Indices 1 2 3 4 5 6 
#
# 1 101.5331 74.8174 33.2503 0.0000 -33.2955 0.0000
# 2 74.8174 93.9985 42.3703 0.0000 -30.3980 0.0000
# 3 33.2503 42.3703 74.9205 0.0000 -36.0198 0.0000
# 4 0.0000 0.0000 0.0000 19.9556 0.0000 -7.8405
# 5 -33.2955 -30.3980 -36.0198 0.0000 31.8839 0.0000
# 6 0.0000 0.0000 0.0000 -7.8405 0.0000 38.4224
#
#
#
# Elastic Compliance Matrix: (Units=1/GPa)
#
#
# Indices 1 2 3 4 5 6 
#
# 1 0.028244 -0.019728 0.008229 0.000000 0.019982 0.000000
# 2 -0.019728 0.029619 -0.009463 0.000000 -0.003053 0.000000
# 3 0.008229 -0.009463 0.032485 0.000000 0.036269 0.000000
# 4 0.000000 0.000000 0.000000 0.054479 0.000000 0.011117
# 5 0.019982 -0.003053 0.036269 0.000000 0.090294 0.000000
# 6 0.000000 0.000000 0.000000 0.011117 0.000000 0.028295
#
#
# Mechanical properties :
#
#
# Convention : Reuss Voigt Hill
#
# Bulk Modulus (GPa) = 20.65131 63.48091 42.06611
# Shear Modulus (GPa) = 15.55309 26.05332 20.80321
#
# Velocity S-wave (km/s) = 2.98123 3.85850 3.44788
# Velocity P-wave (km/s) = 4.86327 7.49177 6.31578
#
# Compressibility (1/GPa) = 0.04842309
#
# Stress axis : x y z
#
# Youngs Moduli (GPa) = 35.40615 33.76258 30.78386
#
# Poissons Ratio (x) = 0.66605 -0.25331
# Poissons Ratio (y) = 0.69848 0.29131
# Poissons Ratio (z) = -0.29135 0.31950
#
# Static dielectric constant tensor:
#      x y z
#    x 1.578500 0.000000 0.004980 
#    y 0.000000 1.597970 0.000000 
#    z 0.004980 0.000000 1.601530 
# 
# From -- ./inp_files/313299.got.cif
#   From: 2010.05.17/outbox.cif.g08.bks.cpg/sg12_157_cif.got.tgz:313299.got - 2010.06.03 13:09:07.
