data_PCOD9181140
_publ_section_title
;
Structure prediction by ZEFSAII (Michael W. Deem and Ramdas Pophale) SiO2 
 PCOD9181140
Probable space group: C 2/M
;
_chemical_formula_sum "Si O2"
_cell_formula_units_Z 60
_cell_length_a 29.969224
_cell_length_b 7.576607
_cell_length_c 19.758662
_cell_angle_alpha 90.000000
_cell_angle_beta 141.066235
_cell_angle_gamma 90.000000
_cell_volume 2819.414168
_symmetry_space_group_name_H-M "C 2/M"
_symmetry_group_IT_number 12
_symmetry_cell_setting 'monoclinic'
loop_
_space_group_symop_operation_xyz
x,y,z
-x,y,-z
-x,-y,-z
x,-y,z
1/2+x,1/2+y,z
1/2-x,1/2+y,-z
1/2-x,1/2-y,-z
1/2+x,1/2-y,z
loop_
_atom_site_type_symbol
_atom_site_label
_atom_site_fract_x
_atom_site_fract_y
_atom_site_fract_z
Si Si1 0.727300 0.784759 0.628945
Si Si2 0.607857 0.214921 0.383018
Si Si3 0.449206 0.784334 0.201048
Si Si4 0.685023 0.212362 0.872824
Si Si5 0.888158 0.699492 0.985832
Si Si6 0.500000 0.742714 0.000000
Si Si7 0.384162 0.208426 0.763955
Si Si8 0.270247 0.797694 0.219702
O O1 0.670078 0.725407 0.506042
O O2 0.805916 0.724099 0.701984
O O3 0.709708 0.720392 0.683893
O O4 0.728447 0.000000 0.630882
O O5 0.529030 0.272619 0.311181
O O6 0.618507 0.264439 0.317276
O O7 0.609291 0.000000 0.385912
O O8 0.388058 0.724157 0.179894
O O9 0.427265 0.731006 0.098926
O O10 0.450024 0.000000 0.202317
O O11 0.701538 0.281659 0.817133
O O12 0.680654 0.000000 0.863393
O O13 0.750000 0.250000 0.000000
O O14 0.865024 0.500000 0.974313
O O15 0.941840 0.690333 0.986406
O O16 0.815572 0.798577 0.884455
O O17 0.441269 0.685056 0.875183
O O18 0.406802 0.000000 0.793906
O O19 0.295429 0.000000 0.250582
#
# Coordination Sequence:
#
# PCOD9181140 Si02
#       8
#     8   8   8   8   8   4   8   8
#     4  10  21  36  50  69 102 140 170 200 244 298
#     4   9  18  33  52  72  98 133 172 210 246 286
#     4   9  17  30  51  76  97 125 167 209 248 292
#     4  10  19  32  52  77 103 128 162 206 253 306
#     4  11  19  31  52  76 102 133 167 205 248 295
#     4  12  21  30  51  84 109 124 163 218 253 288
#     4  11  20  32  53  77 100 129 168 212 248 289
#     4  10  21  34  48  73 107 135 161 202 254 304
#
# _framework density 21.281016999999999
#
# number of rings (size 3 to 8) (size 9 to 14) (size 15 to 20)
#    0.000    1.867    4.000    1.600    0.000    0.000 
#    0.000    2.000    0.000    6.400    0.000    0.000 
#    0.000    3.200    0.000    0.000    0.000    0.000 
#
# Total GULP energy -167303.161336 kJ/mol
# GULP energy per Si atom -5576.772045 kJ/mol
# Density = 2.123258 g / cm^3
# Si number density = 21.281017 Si / 1000 Ang^3
#
#
#
# Elastic Constant Matrix: (Units=GPa)
#
#
# Indices 1 2 3 4 5 6 
#
# 1 173.3393 6.0322 72.0404 0.0000 -21.5895 0.0000
# 2 6.0322 57.2051 10.4665 0.0001 -5.5410 -0.0002
# 3 72.0404 10.4665 178.0690 0.0000 -26.3951 0.0000
# 4 0.0000 0.0001 0.0000 -24.4113 0.0000 25.6898
# 5 -21.5895 -5.5410 -26.3951 0.0000 25.7239 0.0000
# 6 0.0000 -0.0002 0.0000 25.6898 0.0000 -43.5151
#
#
#
# Elastic Compliance Matrix: (Units=1/GPa)
#
#
# Indices 1 2 3 4 5 6 
#
# 1 0.007208 0.000026 -0.002382 0.000000 0.003610 0.000000
# 2 0.000026 0.017902 -0.000575 0.000000 0.003287 0.000000
# 3 -0.002382 -0.000575 0.007429 0.000000 0.005499 0.000000
# 4 0.000000 0.000000 0.000000 -0.108168 0.000000 -0.063859
# 5 0.003610 0.003287 0.005499 0.000000 0.048255 0.000000
# 6 0.000000 0.000000 0.000000 -0.063859 0.000000 -0.060681
#
#
# Mechanical properties :
#
#
# Convention : Reuss Voigt Hill
#
# Bulk Modulus (GPa) = 37.48955 65.07684 51.28320
# Shear Modulus (GPa) = -68.21322 12.89779 -27.65771
#
# Velocity S-wave (km/s) = -5.66773 2.46452 -3.60897
# Velocity P-wave (km/s) = 5.01759 6.22452 2.60465
#
# Compressibility (1/GPa) = 0.02667410
#
# Stress axis : x y z
#
# Youngs Moduli (GPa) = 138.73545 55.85986 134.61554
#
# Poissons Ratio (x) = -0.00143 0.32071
# Poissons Ratio (y) = -0.00354 0.07745
# Poissons Ratio (z) = 0.33053 0.03214
#
# Static dielectric constant tensor:
#      x y z
#    x 1.750070 0.000000 -0.023490 
#    y 0.000000 1.837870 0.000000 
#    z -0.023490 0.000000 1.728500 
# 
# From -- ./inp_files/292916.got.cif
#   From: 2010.05.17/outbox.cif.g08.bks.cpg/sg12_147_cif.got.tgz:292916.got - 2010.06.03 13:09:07.
