data_PCOD9181799
_publ_section_title
;
Structure prediction by ZEFSAII (Michael W. Deem and Ramdas Pophale) SiO2 
 PCOD9181799
Probable space group: C 2/M
;
_chemical_formula_sum "Si O2"
_cell_formula_units_Z 56
_cell_length_a 16.236480
_cell_length_b 7.853179
_cell_length_c 27.039564
_cell_angle_alpha 90.000000
_cell_angle_beta 39.225194
_cell_angle_gamma 90.000000
_cell_volume 2180.260169
_symmetry_space_group_name_H-M "C 2/M"
_symmetry_group_IT_number 12
_symmetry_cell_setting 'monoclinic'
loop_
_space_group_symop_operation_xyz
x,y,z
-x,y,-z
-x,-y,-z
x,-y,z
1/2+x,1/2+y,z
1/2-x,1/2+y,-z
1/2-x,1/2-y,-z
1/2+x,1/2-y,z
loop_
_atom_site_type_symbol
_atom_site_label
_atom_site_fract_x
_atom_site_fract_y
_atom_site_fract_z
Si Si1 0.901169 0.793587 0.473828
Si Si2 0.347716 0.300799 0.053630
Si Si3 0.460695 0.198488 0.233793
Si Si4 0.213484 0.303256 0.812630
Si Si5 0.000519 0.206861 0.671377
Si Si6 0.929172 0.806320 0.913642
Si Si7 0.187394 0.791957 0.382104
O O1 0.813502 0.731397 0.560159
O O2 0.900529 0.732067 0.417472
O O3 0.048242 0.752652 0.423635
O O4 0.889250 0.000000 0.478113
O O5 0.305771 0.500000 0.073346
O O6 0.277686 0.209479 0.131688
O O7 0.500000 0.299706 0.000000
O O8 0.351970 0.223890 0.995914
O O9 0.481120 0.226660 0.282168
O O10 0.568311 0.259169 0.145021
O O11 0.314754 0.271825 0.294641
O O12 0.454830 0.000000 0.226752
O O13 0.196557 0.500000 0.806439
O O14 0.351573 0.244021 0.727532
O O15 0.082150 0.211709 0.857079
O O16 0.004220 0.000000 0.671020
O O17 0.891058 0.000000 0.935089
O O18 0.193158 0.000000 0.380197
#
# Coordination Sequence:
#
# PCOD9181799 Si02
#       7
#     8   8   8   8   8   8   8
#     4   8  14  29  53  75  99 132 167 206 254 305
#     4   8  16  31  51  76 103 131 165 207 256 307
#     4  11  22  34  50  75 105 136 175 217 254 298
#     4  10  19  32  54  81 105 131 170 215 253 299
#     4  10  21  35  50  73 106 142 175 206 250 306
#     4  10  20  35  55  77 103 135 170 209 257 311
#     4   8  15  29  51  78 101 126 167 214 255 298
#
# _framework density 25.685006999999999
#
# number of rings (size 3 to 8) (size 9 to 14) (size 15 to 20)
#    0.000    2.714    0.000    3.857    0.000    7.143 
#    0.000    0.714    0.000    0.857    0.000    6.000 
#    0.000    0.000    0.000    0.000    0.000    0.000 
#
# Total GULP energy -156415.851839 kJ/mol
# GULP energy per Si atom -5586.280423 kJ/mol
# Density = 2.562655 g / cm^3
# Si number density = 25.685007 Si / 1000 Ang^3
#
#
#
# Elastic Constant Matrix: (Units=GPa)
#
#
# Indices 1 2 3 4 5 6 
#
# 1 82.3709 -2.9040 27.5903 0.0001 28.8444 0.0011
# 2 -2.9040 29.7689 5.2726 0.0002 0.2323 0.0022
# 3 27.5903 5.2726 192.5966 0.0000 33.9560 0.0000
# 4 0.0001 0.0002 0.0000 -0.7936 -0.0001 1.7264
# 5 28.8444 0.2323 33.9560 -0.0001 56.0804 0.0001
# 6 0.0011 0.0022 0.0000 1.7264 0.0001 15.6381
#
#
#
# Elastic Compliance Matrix: (Units=1/GPa)
#
#
# Indices 1 2 3 4 5 6 
#
# 1 0.015023 0.001687 -0.000935 0.000001 -0.007168 -0.000001
# 2 0.001687 0.033956 -0.001112 0.000000 -0.000335 -0.000005
# 3 -0.000935 -0.001112 0.005901 0.000000 -0.003088 0.000000
# 4 0.000001 0.000000 0.000000 -1.016077 -0.000002 0.112173
# 5 -0.007168 -0.000335 -0.003088 -0.000002 0.023389 0.000001
# 6 -0.000001 -0.000005 0.000000 0.112173 0.000001 0.051563
#
#
# Mechanical properties :
#
#
# Convention : Reuss Voigt Hill
#
# Bulk Modulus (GPa) = 18.46372 40.51716 29.49044
# Shear Modulus (GPa) = -5.76387 32.50347 13.36980
#
# Velocity S-wave (km/s) = -1.49964 3.56120 2.28399
# Velocity P-wave (km/s) = 2.05074 5.72000 4.29674
#
# Compressibility (1/GPa) = 0.05416027
#
# Stress axis : x y z
#
# Youngs Moduli (GPa) = 66.56578 29.44962 169.46583
#
# Poissons Ratio (x) = -0.04968 0.15837
# Poissons Ratio (y) = -0.11229 0.18849
# Poissons Ratio (z) = 0.06221 0.03275
#
# Static dielectric constant tensor:
#      x y z
#    x 2.163660 0.000000 0.035180 
#    y 0.000000 1.919610 0.000000 
#    z 0.035180 0.000000 2.040860 
# 
# From -- ./inp_files/362901.got.cif
#   From: 2010.05.17/outbox.cif.g08.bks.cpg/sg12_182_cif.got.tgz:362901.got - 2010.06.03 13:09:07.
