data_PCOD9181470
_publ_section_title
;
Structure prediction by ZEFSAII (Michael W. Deem and Ramdas Pophale) SiO2 
 PCOD9181470
Probable space group: C 2/M
;
_chemical_formula_sum "Si O2"
_cell_formula_units_Z 40
_cell_length_a 18.167353
_cell_length_b 7.502666
_cell_length_c 26.344017
_cell_angle_alpha 90.000000
_cell_angle_beta 149.272228
_cell_angle_gamma 90.000000
_cell_volume 1834.745632
_symmetry_space_group_name_H-M "C 2/M"
_symmetry_group_IT_number 12
_symmetry_cell_setting 'monoclinic'
loop_
_space_group_symop_operation_xyz
x,y,z
-x,y,-z
-x,-y,-z
x,-y,z
1/2+x,1/2+y,z
1/2-x,1/2+y,-z
1/2-x,1/2-y,-z
1/2+x,1/2-y,z
loop_
_atom_site_type_symbol
_atom_site_label
_atom_site_fract_x
_atom_site_fract_y
_atom_site_fract_z
Si Si1 0.838537 0.781665 0.302250
Si Si2 0.332760 0.713327 0.496982
Si Si3 0.829571 0.711990 0.099937
Si Si4 0.659841 0.782099 0.295657
Si Si5 0.659520 0.207138 0.100088
O O1 0.746640 0.728993 0.296909
O O2 0.758787 0.718825 0.203945
O O3 0.003389 0.719713 0.403525
O O4 0.843341 0.000000 0.304279
O O5 0.341490 0.500000 0.496256
O O6 0.250000 0.750000 0.500000
O O7 0.242763 0.779177 0.395242
O O8 0.834230 0.500000 0.109529
O O9 0.741634 0.785424 0.095491
O O10 0.994221 0.777743 0.196552
O O11 0.750000 0.750000 0.000000
O O12 0.657888 0.000000 0.294761
O O13 0.637529 0.000000 0.101321
O O14 0.500000 0.287284 0.000000
#
# Coordination Sequence:
#
# PCOD9181470 Si02
#       5
#     8   8   8   8   8
#     4   9  17  31  53  78 102 134 176 214 251 303
#     4  10  19  32  53  78 104 134 170 212 255 304
#     4  11  22  36  55  78 106 138 174 217 263 312
#     4   9  18  33  53  77 103 134 173 215 257 303
#     4  10  20  35  55  78 107 141 175 214 260 310
#
# _framework density 21.801386999999998
#
# number of rings (size 3 to 8) (size 9 to 14) (size 15 to 20)
#    0.000    2.200    0.000    3.600    0.000    6.000 
#    0.000    1.000    0.000    6.000    0.000    0.000 
#    0.000    0.000    0.000    0.000    0.000    0.000 
#
# Total GULP energy -111807.018656 kJ/mol
# GULP energy per Si atom -5590.350933 kJ/mol
# Density = 2.175177 g / cm^3
# Si number density = 21.801387 Si / 1000 Ang^3
#
#
#
# Elastic Constant Matrix: (Units=GPa)
#
#
# Indices 1 2 3 4 5 6 
#
# 1 191.6962 -20.5220 138.9182 0.0000 7.0785 -0.0002
# 2 -20.5220 57.6634 0.7763 0.0001 4.6553 -0.0009
# 3 138.9182 0.7763 270.6185 0.0000 5.9576 0.0001
# 4 0.0000 0.0001 0.0000 0.7151 0.0000 -4.1142
# 5 7.0785 4.6553 5.9576 0.0000 52.3085 0.0000
# 6 -0.0002 -0.0009 0.0001 -4.1142 0.0000 23.7911
#
#
#
# Elastic Compliance Matrix: (Units=1/GPa)
#
#
# Indices 1 2 3 4 5 6 
#
# 1 0.008915 0.003314 -0.004564 0.000105 -0.000981 0.000018
# 2 0.003314 0.018699 -0.001712 0.000467 -0.001918 0.000082
# 3 -0.004564 -0.001712 0.006041 -0.000066 0.000082 -0.000011
# 4 0.000105 0.000467 -0.000066273.655613 -0.000148 47.323331
# 5 -0.000981 -0.001918 0.000082 -0.000148 0.019411 -0.000026
# 6 0.000018 0.000082 -0.000011 47.323331 -0.000026 8.225668
#
#
# Mechanical properties :
#
#
# Convention : Reuss Voigt Hill
#
# Bulk Modulus (GPa) = 36.06282 84.25810 60.16046
# Shear Modulus (GPa) = 0.01773 42.08333 21.05053
#
# Velocity S-wave (km/s) = 0.09029 4.39829 3.11072
# Velocity P-wave (km/s) = 4.07287 8.03276 6.36842
#
# Compressibility (1/GPa) = 0.02772939
#
# Stress axis : x y z
#
# Youngs Moduli (GPa) = 112.16627 53.47833 165.52325
#
# Poissons Ratio (x) = -0.17721 0.75552
# Poissons Ratio (y) = -0.37167 0.28344
# Poissons Ratio (z) = 0.51198 0.09158
#
# Static dielectric constant tensor:
#      x y z
#    x 1.656200 0.000000 0.039550 
#    y 0.000000 1.839090 0.000000 
#    z 0.039550 0.000000 1.761310 
# 
# From -- ./inp_files/140481.got.cif
#   From: 2010.05.17/outbox.cif.g08.bks.cpg/sg12_71_cif.got.tgz:140481.got - 2010.06.03 13:09:07.
