data_PCOD9181438
_publ_section_title
;
Structure prediction by ZEFSAII (Michael W. Deem and Ramdas Pophale) SiO2 
 PCOD9181438
Probable space group: C 2/M
;
_chemical_formula_sum "Si O2"
_cell_formula_units_Z 44
_cell_length_a 24.806436
_cell_length_b 17.274614
_cell_length_c 21.698585
_cell_angle_alpha 90.000000
_cell_angle_beta 15.159582
_cell_angle_gamma 90.000000
_cell_volume 2431.586497
_symmetry_space_group_name_H-M "C 2/M"
_symmetry_group_IT_number 12
_symmetry_cell_setting 'monoclinic'
loop_
_space_group_symop_operation_xyz
x,y,z
-x,y,-z
-x,-y,-z
x,-y,z
1/2+x,1/2+y,z
1/2-x,1/2+y,-z
1/2-x,1/2-y,-z
1/2+x,1/2-y,z
loop_
_atom_site_type_symbol
_atom_site_label
_atom_site_fract_x
_atom_site_fract_y
_atom_site_fract_z
Si Si1 0.377416 0.913653 0.071887
Si Si2 0.197574 0.301003 0.181259
Si Si3 0.500000 0.297333 0.500000
Si Si4 0.988162 0.092352 0.940841
Si Si5 0.920019 0.315136 0.254375
Si Si6 0.640535 0.172277 0.539286
O O1 0.196829 0.852455 0.282085
O O2 0.301404 0.000000 0.140088
O O3 0.500000 0.917579 0.000000
O O4 0.522377 0.880121 0.858328
O O5 0.027802 0.256456 0.409744
O O6 0.078204 0.331322 0.253389
O O7 0.304055 0.364837 0.107564
O O8 0.381021 0.241962 0.960898
O O9 0.196508 0.119932 0.677185
O O10 0.964671 0.000000 0.963838
O O11 0.000000 0.115495 0.000000
O O12 0.733816 0.259846 0.437418
O O13 0.873742 0.348122 0.372909
#
# Coordination Sequence:
#
# PCOD9181438 Si02
#       6
#     8   8   4   8   8   8
#     4  10  20  34  52  75 105 137 169 208 256 308
#     4  10  19  33  56  79 102 136 176 216 261 311
#     4  10  19  32  53  78 100 128 170 214 253 302
#     4  10  22  37  52  77 109 138 176 221 263 314
#     4   9  20  34  53  80 107 134 175 219 256 310
#     4  10  19  35  56  77 104 140 175 216 265 310
#
# _framework density 18.095182999999999
#
# number of rings (size 3 to 8) (size 9 to 14) (size 15 to 20)
#    0.000    2.182    0.000    3.000    0.000    6.545 
#    0.000    2.273    0.000    0.000    0.000    0.000 
#    0.000    0.000    0.000    0.000    0.000    0.000 
#
# Total GULP energy -122747.658482 kJ/mol
# GULP energy per Si atom -5579.439022 kJ/mol
# Density = 1.805400 g / cm^3
# Si number density = 18.095183 Si / 1000 Ang^3
#
#
#
# Elastic Constant Matrix: (Units=GPa)
#
#
# Indices 1 2 3 4 5 6 
#
# 1 123.6046 43.0879 47.9175 0.0040 7.4022 0.0389
# 2 43.0879 63.4205 18.9346 0.0327 8.0367 0.0682
# 3 47.9175 18.9346 58.9259 0.0258 16.8829 0.0852
# 4 0.0040 0.0327 0.0258 23.9476 0.0109 24.9943
# 5 7.4022 8.0367 16.8829 0.0109 37.3538 -0.0081
# 6 0.0389 0.0682 0.0852 24.9943 -0.0081 62.6832
#
#
#
# Elastic Compliance Matrix: (Units=1/GPa)
#
#
# Indices 1 2 3 4 5 6 
#
# 1 0.014391 -0.007104 -0.010385 0.000005 0.003371 0.000011
# 2 -0.007104 0.021012 -0.000096 -0.000011 -0.003070 -0.000014
# 3 -0.010385 -0.000096 0.028548 0.000019 -0.010824 -0.000041
# 4 0.000005 -0.000011 0.000019 0.071524 -0.000034 -0.028520
# 5 0.003371 -0.003070 -0.010824 -0.000034 0.031656 0.000034
# 6 0.000011 -0.000014 -0.000041 -0.028520 0.000034 0.027325
#
#
# Mechanical properties :
#
#
# Convention : Reuss Voigt Hill
#
# Bulk Modulus (GPa) = 34.74535 51.75901 43.25218
# Shear Modulus (GPa) = 20.90143 33.86433 27.38288
#
# Velocity S-wave (km/s) = 3.40234 4.33073 3.89430
# Velocity P-wave (km/s) = 5.88877 7.32617 6.64644
#
# Compressibility (1/GPa) = 0.02878083
#
# Stress axis : x y z
#
# Youngs Moduli (GPa) = 69.48854 47.59296 35.02904
#
# Poissons Ratio (x) = 0.33808 0.36379
# Poissons Ratio (y) = 0.49362 0.00335
# Poissons Ratio (z) = 0.72167 0.00455
#
# Static dielectric constant tensor:
#      x y z
#    x 1.634420 -0.000020 -0.009400 
#    y -0.000020 1.607310 0.000030 
#    z -0.009400 0.000030 1.627990 
# 
# From -- ./inp_files/285108.got.cif
#   From: 2010.05.17/outbox.cif.g08.bks.cpg/sg12_143_cif.got.tgz:285108.got - 2010.06.03 13:09:07.
