data_PCOD9181412
_publ_section_title
;
Structure prediction by ZEFSAII (Michael W. Deem and Ramdas Pophale) SiO2 
 PCOD9181412
Probable space group: C 2/M
;
_chemical_formula_sum "Si O2"
_cell_formula_units_Z 64
_cell_length_a 34.072874
_cell_length_b 9.063582
_cell_length_c 16.038946
_cell_angle_alpha 90.000000
_cell_angle_beta 132.822302
_cell_angle_gamma 90.000000
_cell_volume 3632.988786
_symmetry_space_group_name_H-M "C 2/M"
_symmetry_group_IT_number 12
_symmetry_cell_setting 'monoclinic'
loop_
_space_group_symop_operation_xyz
x,y,z
-x,y,-z
-x,-y,-z
x,-y,z
1/2+x,1/2+y,z
1/2-x,1/2+y,-z
1/2-x,1/2-y,-z
1/2+x,1/2-y,z
loop_
_atom_site_type_symbol
_atom_site_label
_atom_site_fract_x
_atom_site_fract_y
_atom_site_fract_z
Si Si1 0.596361 0.332779 0.254782
Si Si2 0.822571 0.175706 0.033217
Si Si3 0.711378 0.334724 0.505435
Si Si4 0.649580 0.321070 0.574462
Si Si5 0.067915 0.323405 0.868316
Si Si6 0.554643 0.673442 0.026360
Si Si7 0.214466 0.176067 0.831587
Si Si8 0.049020 0.324112 0.342459
O O1 0.572876 0.500000 0.224762
O O2 0.655145 0.341415 0.376375
O O3 0.597531 0.288916 0.160023
O O4 0.564337 0.227888 0.270873
O O5 0.771414 0.241733 0.910424
O O6 0.825161 0.000000 0.024674
O O7 0.878280 0.249097 0.087730
O O8 0.810609 0.205584 0.113686
O O9 0.732444 0.500000 0.549236
O O10 0.750000 0.250000 0.500000
O O11 0.693942 0.271862 0.570024
O O12 0.644965 0.500000 0.560572
O O13 0.673009 0.283388 0.698643
O O14 0.592454 0.252794 0.465639
O O15 0.073001 0.500000 0.874061
O O16 0.013626 0.283955 0.738787
O O17 0.059181 0.268312 0.950375
O O18 0.559275 0.500000 0.010943
O O19 0.500000 0.694772 0.000000
O O20 0.224117 0.000000 0.839128
O O21 0.054396 0.500000 0.357218
#
# Coordination Sequence:
#
# PCOD9181412 Si02
#       8
#     8   8   8   8   8   8   8   8
#     4   9  18  33  50  70  99 137 177 220 270 317
#     4  10  21  37  60  86 110 141 178 223 278 333
#     4   9  18  31  47  69 100 134 168 208 255 306
#     4   9  19  36  58  79 103 140 181 221 272 327
#     4  11  23  36  52  78 115 150 184 227 275 327
#     4  10  19  32  53  77 102 137 182 227 270 317
#     4   9  19  39  63  85 109 137 178 228 280 334
#     4  10  20  33  51  77 107 142 183 222 264 317
#
# _framework density 17.616350000000001
#
# number of rings (size 3 to 8) (size 9 to 14) (size 15 to 20)
#    0.000    2.375    1.250    1.875    0.000    6.250 
#    0.000    3.125    0.000    3.750    0.000    0.000 
#    0.000    0.000    0.000    0.000    0.000    0.000 
#
# Total GULP energy -178315.780442 kJ/mol
# GULP energy per Si atom -5572.368139 kJ/mol
# Density = 1.757625 g / cm^3
# Si number density = 17.616350 Si / 1000 Ang^3
#
#
#
# Elastic Constant Matrix: (Units=GPa)
#
#
# Indices 1 2 3 4 5 6 
#
# 1 100.7412 49.6857 50.7459 0.0000 18.3693 0.0000
# 2 49.6857 51.0798 43.5518 0.0000 8.6772 0.0000
# 3 50.7459 43.5518 129.7242 0.0000 0.3796 0.0000
# 4 0.0000 0.0000 0.0000 24.5016 0.0000 3.4052
# 5 18.3693 8.6772 0.3796 0.0000 17.4357 0.0000
# 6 0.0000 0.0000 0.0000 3.4052 0.0000 27.5787
#
#
#
# Elastic Compliance Matrix: (Units=1/GPa)
#
#
# Indices 1 2 3 4 5 6 
#
# 1 0.022513 -0.016546 -0.003207 0.000000 -0.015414 0.000000
# 2 -0.016546 0.043153 -0.008004 0.000000 -0.003870 0.000000
# 3 -0.003207 -0.008004 0.011629 0.000000 0.007108 0.000000
# 4 0.000000 0.000000 0.000000 0.041526 0.000000 -0.005127
# 5 -0.015414 -0.003870 0.007108 0.000000 0.075364 0.000000
# 6 0.000000 0.000000 0.000000 -0.005127 0.000000 0.036893
#
#
# Mechanical properties :
#
#
# Convention : Reuss Voigt Hill
#
# Bulk Modulus (GPa) = 45.90819 63.27911 54.59365
# Shear Modulus (GPa) = 17.01537 23.07400 20.04468
#
# Velocity S-wave (km/s) = 3.11124 3.62305 3.37686
# Velocity P-wave (km/s) = 6.24684 7.31441 6.80160
#
# Compressibility (1/GPa) = 0.02178260
#
# Stress axis : x y z
#
# Youngs Moduli (GPa) = 44.41936 23.17329 85.98934
#
# Poissons Ratio (x) = 0.38342 0.27574
# Poissons Ratio (y) = 0.73495 0.68825
# Poissons Ratio (z) = 0.14244 0.18548
#
# Static dielectric constant tensor:
#      x y z
#    x 1.594130 0.000000 0.007480 
#    y 0.000000 1.613210 0.000000 
#    z 0.007480 0.000000 1.637140 
# 
# From -- ./inp_files/249196.got.cif
#   From: 2010.05.17/outbox.cif.g08.bks.cpg/sg12_125_cif.got.tgz:249196.got - 2010.06.03 13:09:07.
