data_PCOD9181773
_publ_section_title
;
Structure prediction by ZEFSAII (Michael W. Deem and Ramdas Pophale) SiO2 
 PCOD9181773
Probable space group: C 2/M
;
_chemical_formula_sum "Si O2"
_cell_formula_units_Z 64
_cell_length_a 15.990409
_cell_length_b 7.658123
_cell_length_c 25.047521
_cell_angle_alpha 90.000000
_cell_angle_beta 74.070986
_cell_angle_gamma 90.000000
_cell_volume 2949.458046
_symmetry_space_group_name_H-M "C 2/M"
_symmetry_group_IT_number 12
_symmetry_cell_setting 'monoclinic'
loop_
_space_group_symop_operation_xyz
x,y,z
-x,y,-z
-x,-y,-z
x,-y,z
1/2+x,1/2+y,z
1/2-x,1/2+y,-z
1/2-x,1/2-y,-z
1/2+x,1/2-y,z
loop_
_atom_site_type_symbol
_atom_site_label
_atom_site_fract_x
_atom_site_fract_y
_atom_site_fract_z
Si Si1 0.357125 0.288846 0.428825
Si Si2 0.481306 0.297956 0.823511
Si Si3 0.647219 0.288979 0.243893
Si Si4 0.048823 0.786022 0.367834
Si Si5 0.835214 0.792829 0.554012
Si Si6 0.685523 0.289682 0.937510
Si Si7 0.660868 0.708342 0.822201
Si Si8 0.377123 0.793504 0.940795
O O1 0.357093 0.500000 0.429781
O O2 0.448097 0.231520 0.387510
O O3 0.267043 0.234921 0.416948
O O4 0.352967 0.224090 0.491135
O O5 0.488417 0.500000 0.805679
O O6 0.407783 0.222513 0.797538
O O7 0.577512 0.219418 0.805579
O O8 0.448514 0.289864 0.890199
O O9 0.648040 0.500000 0.243457
O O10 0.599226 0.230542 0.305968
O O11 0.746902 0.235269 0.221402
O O12 0.101384 0.725552 0.411055
O O13 0.049178 0.000000 0.368160
O O14 0.850858 0.000000 0.548555
O O15 0.688780 0.500000 0.935477
O O16 0.664359 0.222793 0.882348
O O17 0.782155 0.227758 0.937638
O O18 0.620607 0.239999 0.996507
O O19 0.647533 0.500000 0.829109
O O20 0.381288 0.000000 0.931052
#
# Coordination Sequence:
#
# PCOD9181773 Si02
#       8
#     8   8   8   8   8   8   8   8
#     4   9  17  31  53  79 107 139 174 213 257 308
#     4  10  21  36  55  76 102 136 172 211 261 312
#     4  10  21  37  55  76 102 135 177 223 258 296
#     4   9  18  33  53  75 103 140 179 212 254 312
#     4   9  17  31  52  78 108 140 173 212 258 307
#     4   9  18  33  53  76 104 136 167 204 257 315
#     4  10  21  38  57  77 103 138 174 211 260 316
#     4  10  19  32  54  80 105 133 168 210 256 308
#
# _framework density 21.698900999999999
#
# number of rings (size 3 to 8) (size 9 to 14) (size 15 to 20)
#    0.000    2.500    1.250    0.750    0.000    4.500 
#    0.000    5.625    0.000    3.000    0.000    0.000 
#    0.000    0.000    0.000    0.000    0.000    0.000 
#
# Total GULP energy -178655.229726 kJ/mol
# GULP energy per Si atom -5582.975929 kJ/mol
# Density = 2.164951 g / cm^3
# Si number density = 21.698901 Si / 1000 Ang^3
#
#
#
# Elastic Constant Matrix: (Units=GPa)
#
#
# Indices 1 2 3 4 5 6 
#
# 1 84.6978 -6.6429 16.7481 0.0000 -38.4946 0.0000
# 2 -6.6429 37.0237 -12.7577 0.0000 6.8769 0.0000
# 3 16.7481 -12.7577 46.3577 0.0000 -20.0792 0.0000
# 4 0.0000 0.0000 0.0000 10.2918 0.0000 -6.6300
# 5 -38.4946 6.8769 -20.0792 0.0000 10.9938 0.0000
# 6 0.0000 0.0000 0.0000 -6.6300 0.0000 17.5100
#
#
#
# Elastic Compliance Matrix: (Units=1/GPa)
#
#
# Indices 1 2 3 4 5 6 
#
# 1 -0.002821 0.001409 -0.015574 0.000000 -0.039204 0.000000
# 2 0.001409 0.029860 0.008403 0.000000 0.001604 0.000000
# 3 -0.015574 0.008403 0.017301 0.000000 -0.028189 0.000000
# 4 0.000000 0.000000 0.000000 0.128511 0.000000 0.048660
# 5 -0.039204 0.001604 -0.028189 0.000000 -0.098800 0.000000
# 6 0.000000 0.000000 0.000000 0.048660 0.000000 0.075535
#
#
# Mechanical properties :
#
#
# Convention : Reuss Voigt Hill
#
# Bulk Modulus (GPa) = 30.47165 18.08602 24.27883
# Shear Modulus (GPa) = 29.06183 19.14124 24.10153
#
# Velocity S-wave (km/s) = 3.66365 2.97329 3.33637
# Velocity P-wave (km/s) = 5.65419 4.48780 5.10442
#
# Compressibility (1/GPa) = 0.03281739
#
# Stress axis : x y z
#
# Youngs Moduli (GPa) = -354.44699 33.48936 57.80096
#
# Poissons Ratio (x) = -0.04720 0.90017
# Poissons Ratio (y) = 0.49953 -0.48571
# Poissons Ratio (z) = -5.52004 -0.28142
#
# Static dielectric constant tensor:
#      x y z
#    x 1.802540 0.000000 0.011680 
#    y 0.000000 1.808620 0.000000 
#    z 0.011680 0.000000 1.767780 
# 
# From -- ./inp_files/359726.got.cif
#   From: 2010.05.17/outbox.cif.g08.bks.cpg/sg12_180_cif.got.tgz:359726.got - 2010.06.03 13:09:07.
