data_PCOD9181408
_publ_section_title
;
Structure prediction by ZEFSAII (Michael W. Deem and Ramdas Pophale) SiO2 
 PCOD9181408
Probable space group: C 2/M
;
_chemical_formula_sum "Si O2"
_cell_formula_units_Z 64
_cell_length_a 29.184253
_cell_length_b 7.364999
_cell_length_c 23.852384
_cell_angle_alpha 90.000000
_cell_angle_beta 31.470902
_cell_angle_gamma 90.000000
_cell_volume 2676.566532
_symmetry_space_group_name_H-M "C 2/M"
_symmetry_group_IT_number 12
_symmetry_cell_setting 'monoclinic'
loop_
_space_group_symop_operation_xyz
x,y,z
-x,y,-z
-x,-y,-z
x,-y,z
1/2+x,1/2+y,z
1/2-x,1/2+y,-z
1/2-x,1/2-y,-z
1/2+x,1/2-y,z
loop_
_atom_site_type_symbol
_atom_site_label
_atom_site_fract_x
_atom_site_fract_y
_atom_site_fract_z
Si Si1 0.841014 0.208389 0.974265
Si Si2 0.853129 0.783483 0.384207
Si Si3 0.851121 0.780550 0.836923
Si Si4 0.774918 0.781750 0.238334
Si Si5 0.418605 0.286418 0.549310
Si Si6 0.452951 0.278719 0.391201
Si Si7 0.926961 0.777751 0.996001
Si Si8 0.381572 0.721286 0.228574
O O1 0.738394 0.213501 0.097454
O O2 0.897840 0.285689 0.964757
O O3 0.870015 0.000000 0.938196
O O4 0.849172 0.286475 0.903581
O O5 0.750000 0.750000 0.500000
O O6 0.906437 0.713996 0.382676
O O7 0.879287 0.714760 0.295117
O O8 0.868123 0.000000 0.367135
O O9 0.944298 0.729154 0.714738
O O10 0.845408 0.000000 0.842638
O O11 0.676841 0.730523 0.323631
O O12 0.852720 0.717316 0.116611
O O13 0.800439 0.720229 0.274586
O O14 0.777537 0.000000 0.235168
O O15 0.500000 0.210728 0.500000
O O16 0.436957 0.500000 0.523790
O O17 0.412683 0.214307 0.491886
O O18 0.448286 0.500000 0.393851
O O19 0.924953 0.000000 0.999460
O O20 0.028195 0.726862 0.896814
O O21 0.380084 0.500000 0.231998
#
# Coordination Sequence:
#
# PCOD9181408 Si02
#       8
#     8   8   8   8   8   8   8   8
#     4   9  17  29  46  72 100 126 159 200 247 292
#     4  10  19  32  53  77 102 132 167 208 254 302
#     4   9  17  30  49  69  94 127 164 204 242 289
#     4  10  20  34  54  79 104 131 169 215 258 298
#     4  10  22  38  54  72  99 137 177 213 253 305
#     4   9  18  33  52  72  94 128 171 204 242 299
#     4   9  17  30  51  76 104 135 167 203 250 306
#     4   9  17  31  53  80 106 134 170 208 250 306
#
# _framework density 23.91123
#
# number of rings (size 3 to 8) (size 9 to 14) (size 15 to 20)
#    0.000    2.625    0.000    1.875    1.750    4.750 
#    0.000    1.250    0.000    5.250    0.000    0.000 
#    0.000    0.000    0.000    0.000    0.000    0.000 
#
# Total GULP energy -178781.372219 kJ/mol
# GULP energy per Si atom -5586.917882 kJ/mol
# Density = 2.385681 g / cm^3
# Si number density = 23.911230 Si / 1000 Ang^3
#
#
#
# Elastic Constant Matrix: (Units=GPa)
#
#
# Indices 1 2 3 4 5 6 
#
# 1 96.4417 1.1874 33.2326 -0.0529 -19.6298 0.0473
# 2 1.1874 86.1548 -13.0050 0.2086 6.3460 -0.1906
# 3 33.2326 -13.0050 124.2481 0.9103 -11.1424 -0.8131
# 4 -0.0529 0.2086 0.9103 -482.4205 -0.2395 440.7656
# 5 -19.6298 6.3460 -11.1424 -0.2395 33.9808 0.2126
# 6 0.0473 -0.1906 -0.8131 440.7656 0.2126 -416.8310
#
#
#
# Elastic Compliance Matrix: (Units=1/GPa)
#
#
# Indices 1 2 3 4 5 6 
#
# 1 0.012736 -0.001104 -0.002930 -0.000018 0.006603 -0.000008
# 2 -0.001104 0.012003 0.001333 0.000012 -0.002442 0.000003
# 3 -0.002930 0.001333 0.009064 0.000028 0.001031 0.000012
# 4 -0.000018 0.000012 0.000028 -0.061177 -0.000030 -0.064689
# 5 0.006603 -0.002442 0.001031 -0.000030 0.034037 -0.000014
# 6 -0.000008 0.000003 0.000012 -0.064689 -0.000014 -0.070803
#
#
# Mechanical properties :
#
#
# Convention : Reuss Voigt Hill
#
# Bulk Modulus (GPa) = 35.21076 38.85273 37.03175
# Shear Modulus (GPa) = -101.48094 -154.02550 -127.75322
#
# Velocity S-wave (km/s) = -6.52172 -8.03464 -7.31738
# Velocity P-wave (km/s) = 6.47710 8.35403 7.47471
#
# Compressibility (1/GPa) = 0.02840041
#
# Stress axis : x y z
#
# Youngs Moduli (GPa) = 78.51729 83.31065 110.32822
#
# Poissons Ratio (x) = 0.09198 0.32325
# Poissons Ratio (y) = 0.08669 -0.14702
# Poissons Ratio (z) = 0.23005 -0.11102
#
# Static dielectric constant tensor:
#      x y z
#    x 1.902240 -0.000040 0.013610 
#    y -0.000040 1.927430 0.000040 
#    z 0.013610 0.000040 1.887120 
# 
# From -- ./inp_files/351732.got.cif
#   From: 2010.05.17/outbox.cif.g08.bks.cpg/sg12_176_cif.got.tgz:351732.got - 2010.06.03 13:09:07.
