data_PCOD9181625
_publ_section_title
;
Structure prediction by ZEFSAII (Michael W. Deem and Ramdas Pophale) SiO2 
 PCOD9181625
Probable space group: C 2/M
;
_chemical_formula_sum "Si O2"
_cell_formula_units_Z 64
_cell_length_a 30.868772
_cell_length_b 8.745560
_cell_length_c 12.686866
_cell_angle_alpha 90.000000
_cell_angle_beta 79.359303
_cell_angle_gamma 90.000000
_cell_volume 3366.111053
_symmetry_space_group_name_H-M "C 2/M"
_symmetry_group_IT_number 12
_symmetry_cell_setting 'monoclinic'
loop_
_space_group_symop_operation_xyz
x,y,z
-x,y,-z
-x,-y,-z
x,-y,z
1/2+x,1/2+y,z
1/2-x,1/2+y,-z
1/2-x,1/2-y,-z
1/2+x,1/2-y,z
loop_
_atom_site_type_symbol
_atom_site_label
_atom_site_fract_x
_atom_site_fract_y
_atom_site_fract_z
Si Si1 0.150187 0.315468 0.877236
Si Si2 0.398719 0.182429 0.884825
Si Si3 0.623988 0.824758 0.487667
Si Si4 0.535493 0.831904 0.392833
Si Si5 0.989061 0.176968 0.799128
Si Si6 0.248230 0.315840 0.883389
Si Si7 0.338067 0.316840 0.727892
Si Si8 0.589635 0.316760 0.722254
O O1 0.146822 0.500000 0.867463
O O2 0.201583 0.271880 0.853012
O O3 0.122239 0.235906 0.799256
O O4 0.129806 0.273837 0.000189
O O5 0.449291 0.237253 0.876331
O O6 0.375348 0.251680 0.791280
O O7 0.397607 0.000000 0.875315
O O8 0.581243 0.825635 0.431830
O O9 0.657799 0.739846 0.394606
O O10 0.608247 0.749178 0.603722
O O11 0.637501 0.000000 0.501818
O O12 0.500000 0.825120 0.500000
O O13 0.526362 0.699601 0.314697
O O14 0.531568 0.000000 0.341043
O O15 0.039586 0.235535 0.774729
O O16 0.989200 0.000000 0.830929
O O17 0.248730 0.500000 0.890511
O O18 0.291128 0.268769 0.798286
O O19 0.250000 0.250000 0.000000
O O20 0.341696 0.500000 0.727626
O O21 0.587676 0.500000 0.714251
#
# Coordination Sequence:
#
# PCOD9181625 Si02
#       8
#     8   8   8   8   8   8   8   8
#     4  10  23  43  64  87 118 158 204 248 295 359
#     4  11  22  37  60  89 122 157 199 249 298 357
#     4  11  22  37  60  88 122 161 202 249 297 355
#     4  10  19  32  53  81 112 150 198 245 289 345
#     4  11  23  36  55  85 122 159 198 248 301 354
#     4  10  21  39  65  95 124 154 194 246 303 361
#     4  11  22  36  60  95 128 155 190 247 309 358
#     4  11  25  42  60  85 120 164 208 249 297 356
#
# _framework density 19.013038000000002
#
# number of rings (size 3 to 8) (size 9 to 14) (size 15 to 20)
#    0.000    1.375    3.750    1.875    0.000    4.750 
#    0.000    3.125    0.000    0.000    0.000    0.000 
#    0.000    0.000    0.000    0.000    0.000    0.000 
#
# Total GULP energy -178582.651355 kJ/mol
# GULP energy per Si atom -5580.707855 kJ/mol
# Density = 1.896976 g / cm^3
# Si number density = 19.013038 Si / 1000 Ang^3
#
#
#
# Elastic Constant Matrix: (Units=GPa)
#
#
# Indices 1 2 3 4 5 6 
#
# 1 136.8049 34.5504 64.6353 0.0000 -17.7446 0.0000
# 2 34.5504 49.3573 28.6302 0.0000 -4.3703 0.0000
# 3 64.6353 28.6302 68.5825 0.0000 -15.6149 0.0000
# 4 0.0000 0.0000 0.0000 30.2817 0.0000 0.9306
# 5 -17.7446 -4.3703 -15.6149 0.0000 35.1326 0.0000
# 6 0.0000 0.0000 0.0000 0.9306 0.0000 19.0039
#
#
#
# Elastic Compliance Matrix: (Units=1/GPa)
#
#
# Indices 1 2 3 4 5 6 
#
# 1 0.013518 -0.002820 -0.011223 0.000000 0.001488 0.000000
# 2 -0.002820 0.027427 -0.009278 0.000000 -0.002136 0.000000
# 3 -0.011223 -0.009278 0.030572 0.000000 0.006765 0.000000
# 4 0.000000 0.000000 0.000000 0.033073 0.000000 -0.001619
# 5 0.001488 -0.002136 0.006765 0.000000 0.031956 0.000000
# 6 0.000000 0.000000 0.000000 -0.001619 0.000000 0.052700
#
#
# Mechanical properties :
#
#
# Convention : Reuss Voigt Hill
#
# Bulk Modulus (GPa) = 40.20393 56.70850 48.45621
# Shear Modulus (GPa) = 20.47658 25.34557 22.91107
#
# Velocity S-wave (km/s) = 3.28529 3.65507 3.47510
# Velocity P-wave (km/s) = 5.96508 6.90678 6.45313
#
# Compressibility (1/GPa) = 0.02487319
#
# Stress axis : x y z
#
# Youngs Moduli (GPa) = 73.97708 36.45984 32.70967
#
# Poissons Ratio (x) = 0.10283 0.36712
# Poissons Ratio (y) = 0.20865 0.30348
# Poissons Ratio (z) = 0.83028 0.33828
#
# Static dielectric constant tensor:
#      x y z
#    x 1.681620 0.000000 -0.042680 
#    y 0.000000 1.688720 0.000000 
#    z -0.042680 0.000000 1.650360 
# 
# From -- ./inp_files/187522.got.cif
#   From: 2010.05.17/outbox.cif.g08.bks.cpg/sg12_94_cif.got.tgz:187522.got - 2010.06.03 13:09:07.
