data_PCOD9181845
_publ_section_title
;
Structure prediction by ZEFSAII (Michael W. Deem and Ramdas Pophale) SiO2 
 PCOD9181845
Probable space group: C 2/M
;
_chemical_formula_sum "Si O2"
_cell_formula_units_Z 56
_cell_length_a 5.274624
_cell_length_b 14.665215
_cell_length_c 34.388679
_cell_angle_alpha 90.000000
_cell_angle_beta 103.168283
_cell_angle_gamma 90.000000
_cell_volume 2590.138015
_symmetry_space_group_name_H-M "C 2/M"
_symmetry_group_IT_number 12
_symmetry_cell_setting 'monoclinic'
loop_
_space_group_symop_operation_xyz
x,y,z
-x,y,-z
-x,-y,-z
x,-y,z
1/2+x,1/2+y,z
1/2-x,1/2+y,-z
1/2-x,1/2-y,-z
1/2+x,1/2-y,z
loop_
_atom_site_type_symbol
_atom_site_label
_atom_site_fract_x
_atom_site_fract_y
_atom_site_fract_z
Si Si1 0.776193 0.352500 0.517607
Si Si2 0.634729 0.388324 0.044720
Si Si3 0.445204 0.691617 0.259166
Si Si4 0.209177 0.308864 0.174226
Si Si5 0.965172 0.611066 0.609317
Si Si6 0.798361 0.609247 0.910709
Si Si7 0.465516 0.390762 0.344660
O O1 0.500000 0.396907 0.500000
O O2 0.750000 0.250000 0.500000
O O3 0.853040 0.352034 0.565116
O O4 0.000000 0.397208 0.500000
O O5 0.637792 0.500000 0.044347
O O6 0.455109 0.358718 0.074590
O O7 0.932217 0.358520 0.060322
O O8 0.500000 0.358962 0.000000
O O9 0.234158 0.772538 0.259269
O O10 0.326265 0.642938 0.216791
O O11 0.451141 0.637883 0.299481
O O12 0.421196 0.228388 0.173819
O O13 0.204079 0.364264 0.134341
O O14 0.959406 0.500000 0.606759
O O15 0.781029 0.640036 0.638594
O O16 0.261624 0.640059 0.627114
O O17 0.798052 0.500000 0.913544
O O18 0.466506 0.500000 0.346304
#
# Coordination Sequence:
#
# PCOD9181845 Si02
#       7
#     8   8   8   8   8   8   8
#     4  10  21  38  53  78 112 141 182 226 262 311
#     4   9  17  30  50  77 109 140 178 235 286 324
#     4  10  21  39  57  86 112 145 186 221 270 331
#     4  10  21  37  57  76 113 149 178 222 277 336
#     4  10  21  38  59  82 111 147 182 219 273 327
#     4  10  19  32  54  82 104 137 192 231 269 330
#     4  10  21  39  60  86 116 145 180 226 276 327
#
# _framework density 21.620471999999999
#
# number of rings (size 3 to 8) (size 9 to 14) (size 15 to 20)
#    0.000    2.143    0.000    3.000    0.000    2.857 
#   15.429    0.000    0.000   18.857    0.000    0.000 
#    0.000    0.000    0.000    0.000    0.000    0.000 
#
# Total GULP energy -156466.350255 kJ/mol
# GULP energy per Si atom -5588.083938 kJ/mol
# Density = 2.157126 g / cm^3
# Si number density = 21.620472 Si / 1000 Ang^3
#
#
#
# Elastic Constant Matrix: (Units=GPa)
#
#
# Indices 1 2 3 4 5 6 
#
# 1 105.2033 -7.4729 -12.2199 0.0000 3.1152 0.0000
# 2 -7.4729 48.4668 -4.4585 0.0000 3.5776 0.0000
# 3 -12.2199 -4.4585 91.1056 0.0000 -2.5755 0.0000
# 4 0.0000 0.0000 0.0000 35.8940 0.0000 -10.7290
# 5 3.1152 3.5776 -2.5755 0.0000 41.0442 0.0000
# 6 0.0000 0.0000 0.0000 -10.7290 0.0000 -4.1684
#
#
#
# Elastic Compliance Matrix: (Units=1/GPa)
#
#
# Indices 1 2 3 4 5 6 
#
# 1 0.009810 0.001699 0.001376 0.000000 -0.000806 0.000000
# 2 0.001699 0.021146 0.001209 0.000000 -0.001896 0.000000
# 3 0.001376 0.001209 0.011234 0.000000 0.000495 0.000000
# 4 0.000000 0.000000 0.000000 0.015746 0.000000 -0.040528
# 5 -0.000806 -0.001896 0.000495 0.000000 0.024622 0.000000
# 6 0.000000 0.000000 0.000000 -0.040528 0.000000 -0.135586
#
#
# Mechanical properties :
#
#
# Convention : Reuss Voigt Hill
#
# Bulk Modulus (GPa) = 19.70164 21.83035 20.76600
# Shear Modulus (GPa) = -111.91146 32.48244 -39.71451
#
# Velocity S-wave (km/s) = -7.20237 3.88028 -4.29055
# Velocity P-wave (km/s) = 7.74812 5.49494 3.86257
#
# Compressibility (1/GPa) = 0.05075718
#
# Stress axis : x y z
#
# Youngs Moduli (GPa) = 101.93911 47.29074 89.01539
#
# Poissons Ratio (x) = -0.08033 -0.12249
# Poissons Ratio (y) = -0.17316 -0.10762
# Poissons Ratio (z) = -0.14028 -0.05718
#
# Static dielectric constant tensor:
#      x y z
#    x 1.779180 0.000000 -0.000040 
#    y 0.000000 1.784400 0.000000 
#    z -0.000040 0.000000 1.754580 
# 
# From -- ./inp_files/354931.got.cif
#   From: 2010.05.17/outbox.cif.g08.bks.cpg/sg12_178_cif.got.tgz:354931.got - 2010.06.03 13:09:07.
