data_PCOD9181420
_publ_section_title
;
Structure prediction by ZEFSAII (Michael W. Deem and Ramdas Pophale) SiO2 
 PCOD9181420
Probable space group: C 2/M
;
_chemical_formula_sum "Si O2"
_cell_formula_units_Z 44
_cell_length_a 5.175211
_cell_length_b 15.274659
_cell_length_c 32.914410
_cell_angle_alpha 90.000000
_cell_angle_beta 123.689374
_cell_angle_gamma 90.000000
_cell_volume 2164.904497
_symmetry_space_group_name_H-M "C 2/M"
_symmetry_group_IT_number 12
_symmetry_cell_setting 'monoclinic'
loop_
_space_group_symop_operation_xyz
x,y,z
-x,y,-z
-x,-y,-z
x,-y,z
1/2+x,1/2+y,z
1/2-x,1/2+y,-z
1/2-x,1/2-y,-z
1/2+x,1/2-y,z
loop_
_atom_site_type_symbol
_atom_site_label
_atom_site_fract_x
_atom_site_fract_y
_atom_site_fract_z
Si Si1 0.694024 0.691141 0.895227
Si Si2 0.212582 0.195035 0.365258
Si Si3 0.000000 0.687573 0.000000
Si Si4 0.790122 0.394596 0.206968
Si Si5 0.856846 0.605649 0.530751
Si Si6 0.991490 0.894252 0.264016
O O1 0.480448 0.769969 0.894410
O O2 0.468745 0.636363 0.847034
O O3 0.827869 0.642125 0.947085
O O4 0.411483 0.275428 0.364306
O O5 0.443735 0.144361 0.415346
O O6 0.109955 0.139509 0.317363
O O7 0.250000 0.750000 0.000000
O O8 0.792460 0.500000 0.207546
O O9 0.700282 0.364157 0.244449
O O10 0.136326 0.364724 0.226097
O O11 0.500000 0.634637 0.500000
O O12 0.863401 0.500000 0.534359
O O13 0.000000 0.630934 0.500000
O O14 0.995330 0.000000 0.264853
#
# Coordination Sequence:
#
# PCOD9181420 Si02
#       6
#     8   8   4   8   8   8
#     4  10  19  32  53  77 104 139 177 219 264 317
#     4  12  25  38  58  87 115 141 176 227 273 309
#     4   8  16  30  47  72 103 136 174 212 260 318
#     4  10  21  36  55  79 106 139 179 223 269 314
#     4  10  22  41  63  84 110 148 186 215 257 323
#     4  10  22  40  57  75 108 148 180 214 263 326
#
# _framework density 20.324224000000001
#
# number of rings (size 3 to 8) (size 9 to 14) (size 15 to 20)
#    0.000    1.818    0.000    3.818    0.000    6.545 
#    0.000    7.727    0.000    0.000    0.000   11.455 
#    0.000    0.000    0.000    0.000    0.000    0.000 
#
# Total GULP energy -122925.075733 kJ/mol
# GULP energy per Si atom -5587.503442 kJ/mol
# Density = 2.027796 g / cm^3
# Si number density = 20.324224 Si / 1000 Ang^3
#
#
#
# Elastic Constant Matrix: (Units=GPa)
#
#
# Indices 1 2 3 4 5 6 
#
# 1 80.3990 -2.3157 -3.4387 -0.0003 -2.8048 0.0001
# 2 -2.3157 16.7033 8.8744 0.0000 -1.7288 0.0000
# 3 -3.4387 8.8744 131.2831 -0.0004 2.1911 0.0000
# 4 -0.0003 0.0000 -0.0004 46.2377 -0.0002 11.6060
# 5 -2.8048 -1.7288 2.1911 -0.0002 33.2334 0.0000
# 6 0.0001 0.0000 0.0000 11.6060 0.0000 -0.6503
#
#
#
# Elastic Compliance Matrix: (Units=1/GPa)
#
#
# Indices 1 2 3 4 5 6 
#
# 1 0.012536 0.001754 0.000191 0.000000 0.001137 0.000001
# 2 0.001754 0.062756 -0.004258 0.000000 0.003693 0.000001
# 3 0.000191 -0.004258 0.007922 0.000000 -0.000728 0.000000
# 4 0.000000 0.000000 0.000000 0.003947 0.000000 0.070438
# 5 0.001137 0.003693 -0.000728 0.000000 0.030426 0.000001
# 6 0.000001 0.000001 0.000000 0.070438 0.000001 -0.280623
#
#
# Mechanical properties :
#
#
# Convention : Reuss Voigt Hill
#
# Bulk Modulus (GPa) = 12.72442 26.06950 19.39696
# Shear Modulus (GPa) = -37.81761 30.78186 -3.51788
#
# Velocity S-wave (km/s) = -4.31828 3.89593 -1.31706
# Velocity P-wave (km/s) = 4.31151 5.75260 2.69289
#
# Compressibility (1/GPa) = 0.07858902
#
# Stress axis : x y z
#
# Youngs Moduli (GPa) = 79.76832 15.93468 126.22933
#
# Poissons Ratio (x) = -0.02795 -0.02409
# Poissons Ratio (y) = -0.13993 0.53747
# Poissons Ratio (z) = -0.01522 0.06785
#
# Static dielectric constant tensor:
#      x y z
#    x 1.703380 0.000000 0.003050 
#    y 0.000000 1.714680 0.000000 
#    z 0.003050 0.000000 1.706950 
# 
# From -- ./inp_files/331038.got.cif
#   From: 2010.05.17/outbox.cif.g08.bks.cpg/sg12_166_cif.got.tgz:331038.got - 2010.06.03 13:09:07.
