data_PCOD9181837
_publ_section_title
;
Structure prediction by ZEFSAII (Michael W. Deem and Ramdas Pophale) SiO2 
 PCOD9181837
Probable space group: C 2/M
;
_chemical_formula_sum "Si O2"
_cell_formula_units_Z 64
_cell_length_a 20.804984
_cell_length_b 7.737018
_cell_length_c 19.528298
_cell_angle_alpha 90.000000
_cell_angle_beta 86.864893
_cell_angle_gamma 90.000000
_cell_volume 3138.736893
_symmetry_space_group_name_H-M "C 2/M"
_symmetry_group_IT_number 12
_symmetry_cell_setting 'monoclinic'
loop_
_space_group_symop_operation_xyz
x,y,z
-x,y,-z
-x,-y,-z
x,-y,z
1/2+x,1/2+y,z
1/2-x,1/2+y,-z
1/2-x,1/2-y,-z
1/2+x,1/2-y,z
loop_
_atom_site_type_symbol
_atom_site_label
_atom_site_fract_x
_atom_site_fract_y
_atom_site_fract_z
Si Si1 0.249839 0.798826 0.698183
Si Si2 0.131962 0.702177 0.792859
Si Si3 0.051552 0.205931 0.551315
Si Si4 0.986774 0.290671 0.292043
Si Si5 0.125840 0.287613 0.231518
Si Si6 0.304380 0.291570 0.441764
Si Si7 0.171229 0.205273 0.933687
Si Si8 0.181274 0.707672 0.084173
O O1 0.196751 0.788953 0.760873
O O2 0.316834 0.725928 0.722050
O O3 0.218821 0.723818 0.631013
O O4 0.262640 0.000000 0.682618
O O5 0.138536 0.500000 0.776939
O O6 0.128487 0.724338 0.874460
O O7 0.070558 0.769092 0.754644
O O8 0.124655 0.275095 0.542543
O O9 0.000000 0.277618 0.500000
O O10 0.027495 0.234337 0.629928
O O11 0.055494 0.000000 0.538758
O O12 0.987074 0.500000 0.290800
O O13 0.056203 0.231638 0.261385
O O14 0.126575 0.500000 0.231606
O O15 0.143390 0.232208 0.153360
O O16 0.310114 0.500000 0.436231
O O17 0.250000 0.250000 0.500000
O O18 0.244746 0.273540 0.920237
O O19 0.173007 0.000000 0.925938
O O20 0.151647 0.246571 0.012388
O O21 0.184596 0.500000 0.087598
#
# Coordination Sequence:
#
# PCOD9181837 Si02
#       8
#     8   8   8   8   8   8   8   8
#     4  10  19  36  59  80 105 144 186 228 276 322
#     4  11  21  34  54  83 111 141 183 228 272 322
#     4  10  22  40  58  79 112 150 183 220 274 335
#     4  10  22  38  58  82 109 144 185 228 269 323
#     4   9  18  35  57  81 108 139 183 229 274 322
#     4  10  22  37  57  83 113 145 182 227 274 324
#     4  10  19  32  54  81 110 146 183 223 274 326
#     4   9  17  32  54  80 109 141 179 229 275 319
#
# _framework density 20.390369
#
# number of rings (size 3 to 8) (size 9 to 14) (size 15 to 20)
#    0.000    2.125    2.500    0.750    1.750    2.250 
#    0.000    1.875    0.000    3.750    0.000    0.000 
#    0.000    0.000    0.000    0.000    0.000    0.000 
#
# Total GULP energy -178657.118398 kJ/mol
# GULP energy per Si atom -5583.034950 kJ/mol
# Density = 2.034396 g / cm^3
# Si number density = 20.390369 Si / 1000 Ang^3
#
#
#
# Elastic Constant Matrix: (Units=GPa)
#
#
# Indices 1 2 3 4 5 6 
#
# 1 139.3634 -6.3689 78.4943 0.0000 6.4576 0.0000
# 2 -6.3689 24.3706 -7.9154 0.0000 0.3945 0.0000
# 3 78.4943 -7.9154 149.3519 0.0000 22.7438 0.0000
# 4 0.0000 0.0000 0.0000 23.2509 0.0000 -7.8867
# 5 6.4576 0.3945 22.7438 0.0000 34.7419 0.0000
# 6 0.0000 0.0000 0.0000 -7.8867 0.0000 7.5059
#
#
#
# Elastic Compliance Matrix: (Units=1/GPa)
#
#
# Indices 1 2 3 4 5 6 
#
# 1 0.010311 0.000833 -0.005644 0.000000 0.001769 0.000000
# 2 0.000833 0.041962 0.002091 0.000000 -0.002000 0.000000
# 3 -0.005644 0.002091 0.010681 0.000000 -0.005967 0.000000
# 4 0.000000 0.000000 0.000000 0.066827 0.000000 0.070217
# 5 0.001769 -0.002000 -0.005967 0.000000 0.032384 0.000000
# 6 0.000000 0.000000 0.000000 0.070217 0.000000 0.207008
#
#
# Mechanical properties :
#
#
# Convention : Reuss Voigt Hill
#
# Bulk Modulus (GPa) = 17.38736 49.05624 33.22180
# Shear Modulus (GPa) = 12.69728 29.69148 21.19438
#
# Velocity S-wave (km/s) = 2.49812 3.82010 3.22752
# Velocity P-wave (km/s) = 4.10689 6.60063 5.49704
#
# Compressibility (1/GPa) = 0.05751303
#
# Stress axis : x y z
#
# Youngs Moduli (GPa) = 96.98810 23.83098 93.61987
#
# Poissons Ratio (x) = -0.01984 0.52840
# Poissons Ratio (y) = -0.08076 -0.19574
# Poissons Ratio (z) = 0.54741 -0.04983
#
# Static dielectric constant tensor:
#      x y z
#    x 1.713640 0.000000 0.025890 
#    y 0.000000 1.756440 0.000000 
#    z 0.025890 0.000000 1.714670 
# 
# From -- ./inp_files/281370.got.cif
#   From: 2010.05.17/outbox.cif.g08.bks.cpg/sg12_141_cif.got.tgz:281370.got - 2010.06.03 13:09:07.
