data_PCOD9181070
_publ_section_title
;
Structure prediction by ZEFSAII (Michael W. Deem and Ramdas Pophale) SiO2 
 PCOD9181070
Probable space group: C 2/M
;
_chemical_formula_sum "Si O2"
_cell_formula_units_Z 56
_cell_length_a 28.010272
_cell_length_b 14.729156
_cell_length_c 7.939767
_cell_angle_alpha 90.000000
_cell_angle_beta 132.308114
_cell_angle_gamma 90.000000
_cell_volume 2422.490796
_symmetry_space_group_name_H-M "C 2/M"
_symmetry_group_IT_number 12
_symmetry_cell_setting 'monoclinic'
loop_
_space_group_symop_operation_xyz
x,y,z
-x,y,-z
-x,-y,-z
x,-y,z
1/2+x,1/2+y,z
1/2-x,1/2+y,-z
1/2-x,1/2-y,-z
1/2+x,1/2-y,z
loop_
_atom_site_type_symbol
_atom_site_label
_atom_site_fract_x
_atom_site_fract_y
_atom_site_fract_z
Si Si1 0.670062 0.096612 0.560945
Si Si2 0.393427 0.899905 0.215379
Si Si3 0.352940 0.712182 0.653099
Si Si4 0.264479 0.154992 0.803751
Si Si5 0.801539 0.142324 0.016147
Si Si6 0.573906 0.702243 0.817527
Si Si7 0.461165 0.604249 0.728841
O O1 0.636738 0.106576 0.667139
O O2 0.651329 0.183680 0.411052
O O3 0.747444 0.095793 0.772399
O O4 0.649006 0.000000 0.439969
O O5 0.429939 0.805737 0.260626
O O6 0.424725 0.000000 0.273844
O O7 0.330458 0.898351 0.944299
O O8 0.281294 0.670464 0.463663
O O9 0.397899 0.660285 0.626620
O O10 0.385598 0.705382 0.910873
O O11 0.287139 0.251919 0.935525
O O12 0.220404 0.116599 0.849008
O O13 0.878223 0.137149 0.175788
O O14 0.505841 0.658173 0.703260
O O15 0.449709 0.500000 0.652820
O O16 0.500000 0.601749 0.000000
#
# Coordination Sequence:
#
# PCOD9181070 Si02
#       7
#     8   8   8   8   8   8   8
#     4   9  18  33  52  74 104 139 165 192 244 307
#     4   9  18  33  52  74 104 139 165 192 244 307
#     4  10  19  32  52  75  99 130 169 212 250 286
#     4   8  15  29  48  70  99 132 161 193 239 293
#     4   8  15  29  48  70  99 132 161 193 239 293
#     4  10  19  32  52  75  99 130 169 212 250 286
#     4   9  20  38  54  69  96 134 169 203 252 305
#
# _framework density 23.116703999999999
#
# number of rings (size 3 to 8) (size 9 to 14) (size 15 to 20)
#    0.000    3.000    0.000    2.571    0.000    6.857 
#    0.000    3.571    0.000   10.286    0.000    0.000 
#    0.000    0.000    0.000    0.000    0.000    0.000 
#
# Total GULP energy -156302.709023 kJ/mol
# GULP energy per Si atom -5582.239608 kJ/mol
# Density = 2.306409 g / cm^3
# Si number density = 23.116704 Si / 1000 Ang^3
#
#
#
# Elastic Constant Matrix: (Units=GPa)
#
#
# Indices 1 2 3 4 5 6 
#
# 1 124.2169 50.9574 13.9140 0.0000 7.4626 0.0000
# 2 50.9574 146.8056 6.4364 0.0000 6.3846 0.0000
# 3 13.9140 6.4364 71.2167 0.0000 7.4170 0.0000
# 4 0.0000 0.0000 0.0000 8.4473 0.0000 0.1371
# 5 7.4626 6.3846 7.4170 0.0000 29.0212 0.0000
# 6 0.0000 0.0000 0.0000 0.1371 0.0000 16.7912
#
#
#
# Elastic Compliance Matrix: (Units=1/GPa)
#
#
# Indices 1 2 3 4 5 6 
#
# 1 0.009614 -0.003213 -0.001442 0.000000 -0.001397 0.000000
# 2 -0.003213 0.007967 0.000004 0.000000 -0.000928 0.000000
# 3 -0.001442 0.000004 0.014675 0.000000 -0.003381 0.000000
# 4 0.000000 0.000000 0.000000 0.118397 0.000000 -0.000967
# 5 -0.001397 -0.000928 -0.003381 0.000000 0.035885 0.000000
# 6 0.000000 0.000000 0.000000 -0.000967 0.000000 0.059563
#
#
# Mechanical properties :
#
#
# Convention : Reuss Voigt Hill
#
# Bulk Modulus (GPa) = 43.56581 53.87276 48.71929
# Shear Modulus (GPa) = 19.00747 28.91405 23.96076
#
# Velocity S-wave (km/s) = 2.87058 3.54048 3.22298
# Velocity P-wave (km/s) = 5.46571 6.32998 5.91365
#
# Compressibility (1/GPa) = 0.02295378
#
# Stress axis : x y z
#
# Youngs Moduli (GPa) = 104.01460 125.51490 68.14236
#
# Poissons Ratio (x) = 0.40329 0.09830
# Poissons Ratio (y) = 0.33421 -0.00029
# Poissons Ratio (z) = 0.15004 -0.00054
#
# Static dielectric constant tensor:
#      x y z
#    x 1.921250 0.000000 -0.018650 
#    y 0.000000 1.870750 0.000000 
#    z -0.018650 0.000000 1.905750 
# 
# From -- ./inp_files/111717.got.cif
#   From: 2010.05.17/outbox.cif.g08.bks.cpg/sg12_56_cif.got.tgz:111717.got - 2010.06.03 13:09:07.
