data_PCOD9181040
_publ_section_title
;
Structure prediction by ZEFSAII (Michael W. Deem and Ramdas Pophale) SiO2 
 PCOD9181040
Probable space group: C 2/M
;
_chemical_formula_sum "Si O2"
_cell_formula_units_Z 64
_cell_length_a 31.998537
_cell_length_b 8.971558
_cell_length_c 14.781152
_cell_angle_alpha 90.000000
_cell_angle_beta 117.791380
_cell_angle_gamma 90.000000
_cell_volume 3753.862079
_symmetry_space_group_name_H-M "C 2/M"
_symmetry_group_IT_number 12
_symmetry_cell_setting 'monoclinic'
loop_
_space_group_symop_operation_xyz
x,y,z
-x,y,-z
-x,-y,-z
x,-y,z
1/2+x,1/2+y,z
1/2-x,1/2+y,-z
1/2-x,1/2-y,-z
1/2+x,1/2-y,z
loop_
_atom_site_type_symbol
_atom_site_label
_atom_site_fract_x
_atom_site_fract_y
_atom_site_fract_z
Si Si1 0.021748 0.831249 0.623032
Si Si2 0.610307 0.821721 0.065830
Si Si3 0.483452 0.668563 0.087586
Si Si4 0.306001 0.322699 0.956280
Si Si5 0.421739 0.177046 0.763786
Si Si6 0.389701 0.177304 0.362349
Si Si7 0.920657 0.821000 0.580800
Si Si8 0.803772 0.678014 0.147919
O O1 0.067710 0.730402 0.660319
O O2 0.000000 0.839128 0.500000
O O3 0.976449 0.777388 0.632892
O O4 0.034766 0.000000 0.663142
O O5 0.659155 0.760541 0.076544
O O6 0.602746 0.785776 0.164730
O O7 0.606943 0.000000 0.052941
O O8 0.567635 0.744565 0.967217
O O9 0.482159 0.500000 0.123676
O O10 0.524259 0.767578 0.172353
O O11 0.500000 0.657896 0.000000
O O12 0.313421 0.500000 0.958438
O O13 0.250658 0.290839 0.881973
O O14 0.315199 0.265057 0.067376
O O15 0.400871 0.257863 0.654640
O O16 0.420030 0.000000 0.750154
O O17 0.396796 0.256030 0.466391
O O18 0.340605 0.215077 0.263940
O O19 0.392687 0.000000 0.378047
O O20 0.918867 0.000000 0.576375
O O21 0.807491 0.500000 0.133759
#
# Coordination Sequence:
#
# PCOD9181040 Si02
#       8
#     8   8   8   8   8   8   8   8
#     4   8  16  30  45  65  95 128 162 200 240 282
#     4  10  20  34  52  75 104 135 169 211 255 300
#     4   9  17  30  48  70  97 130 168 206 243 288
#     4  10  20  35  56  78 100 129 165 206 255 310
#     4  10  20  33  50  73 103 139 174 209 251 296
#     4  10  19  32  52  75 100 131 167 207 251 301
#     4  10  20  33  49  71 103 139 173 210 247 290
#     4   9  20  37  54  76 104 130 160 205 260 311
#
# _framework density 17.049108
#
# number of rings (size 3 to 8) (size 9 to 14) (size 15 to 20)
#    0.000    2.500    0.000    3.000    0.000    8.250 
#    0.000    2.500    0.000    0.750    0.000    0.000 
#    0.000    0.000    0.000    0.000    0.000    0.000 
#
# Total GULP energy -178423.787396 kJ/mol
# GULP energy per Si atom -5575.743356 kJ/mol
# Density = 1.701030 g / cm^3
# Si number density = 17.049108 Si / 1000 Ang^3
#
#
#
# Elastic Constant Matrix: (Units=GPa)
#
#
# Indices 1 2 3 4 5 6 
#
# 1 98.4762 50.1843 55.3621 0.0000 -4.9657 0.0000
# 2 50.1843 64.5959 46.0198 0.0000 0.3641 0.0000
# 3 55.3621 46.0198 95.0916 0.0000 1.8459 0.0000
# 4 0.0000 0.0000 0.0000 20.4300 0.0000 0.7406
# 5 -4.9657 0.3641 1.8459 0.0000 19.4655 0.0000
# 6 0.0000 0.0000 0.0000 0.7406 0.0000 26.6245
#
#
#
# Elastic Compliance Matrix: (Units=1/GPa)
#
#
# Indices 1 2 3 4 5 6 
#
# 1 0.019374 -0.010636 -0.006244 0.000000 0.005733 0.000000
# 2 -0.010636 0.029474 -0.008023 0.000000 -0.002504 0.000000
# 3 -0.006244 -0.008023 0.018095 0.000000 -0.003159 0.000000
# 4 0.000000 0.000000 0.000000 0.048997 0.000000 -0.001363
# 5 0.005733 -0.002504 -0.003159 0.000000 0.053182 0.000000
# 6 0.000000 0.000000 0.000000 -0.001363 0.000000 0.037597
#
#
# Mechanical properties :
#
#
# Convention : Reuss Voigt Hill
#
# Bulk Modulus (GPa) = 58.34981 62.36623 60.35802
# Shear Modulus (GPa) = 19.06671 20.41050 19.73860
#
# Velocity S-wave (km/s) = 3.34779 3.46375 3.40626
# Velocity P-wave (km/s) = 7.01730 7.25648 7.13789
#
# Compressibility (1/GPa) = 0.01713802
#
# Stress axis : x y z
#
# Youngs Moduli (GPa) = 51.61559 33.92840 55.26292
#
# Poissons Ratio (x) = 0.36086 0.34504
# Poissons Ratio (y) = 0.54897 0.44338
# Poissons Ratio (z) = 0.32226 0.27221
#
# Static dielectric constant tensor:
#      x y z
#    x 1.574970 0.000000 -0.018150 
#    y 0.000000 1.574810 0.000000 
#    z -0.018150 0.000000 1.584190 
# 
# From -- ./inp_files/249168.got.cif
#   From: 2010.05.17/outbox.cif.g08.bks.cpg/sg12_125_cif.got.tgz:249168.got - 2010.06.03 13:09:07.
