data_PCOD9181567
_publ_section_title
;
Structure prediction by ZEFSAII (Michael W. Deem and Ramdas Pophale) SiO2 
 PCOD9181567
Probable space group: C 2/M
;
_chemical_formula_sum "Si O2"
_cell_formula_units_Z 48
_cell_length_a 15.342877
_cell_length_b 7.736561
_cell_length_c 29.460948
_cell_angle_alpha 90.000000
_cell_angle_beta 142.656100
_cell_angle_gamma 90.000000
_cell_volume 2121.300744
_symmetry_space_group_name_H-M "C 2/M"
_symmetry_group_IT_number 12
_symmetry_cell_setting 'monoclinic'
loop_
_space_group_symop_operation_xyz
x,y,z
-x,y,-z
-x,-y,-z
x,-y,z
1/2+x,1/2+y,z
1/2-x,1/2+y,-z
1/2-x,1/2-y,-z
1/2+x,1/2-y,z
loop_
_atom_site_type_symbol
_atom_site_label
_atom_site_fract_x
_atom_site_fract_y
_atom_site_fract_z
Si Si1 0.833703 0.704208 0.080199
Si Si2 0.907836 0.695139 0.675126
Si Si3 0.626325 0.698867 0.516309
Si Si4 0.834665 0.205488 0.796992
Si Si5 0.692868 0.787502 0.832732
Si Si6 0.452615 0.294579 0.358077
O O1 0.826850 0.500000 0.081412
O O2 0.765916 0.771016 0.099644
O O3 0.001060 0.751189 0.144705
O O4 0.750000 0.750000 0.000000
O O5 0.873402 0.500000 0.676786
O O6 0.761111 0.782685 0.597730
O O7 0.026223 0.771061 0.757684
O O8 0.998451 0.693762 0.666082
O O9 0.500000 0.690752 0.500000
O O10 0.671143 0.500000 0.523907
O O11 0.552454 0.769935 0.440499
O O12 0.784723 0.269823 0.826829
O O13 0.719532 0.272554 0.712039
O O14 0.821275 0.000000 0.791640
O O15 0.692898 0.000000 0.830930
O O16 0.478857 0.500000 0.363766
#
# Coordination Sequence:
#
# PCOD9181567 Si02
#       6
#     8   8   8   8   8   8
#     4  11  23  40  62  90 117 148 185 230 282 340
#     4   9  17  33  55  76 103 145 190 231 270 323
#     4   9  18  29  48  77 107 144 191 229 265 324
#     4  10  21  40  62  85 113 151 192 234 279 335
#     4   8  18  36  60  83 110 152 195 226 271 341
#     4  10  19  32  53  80 108 143 185 233 279 326
#
# _framework density 22.627627
#
# number of rings (size 3 to 8) (size 9 to 14) (size 15 to 20)
#    0.000    2.500    0.000    3.000    2.333    0.667 
#    0.000   12.500    0.000    2.500    0.000    0.000 
#    0.000    0.000    0.000    0.000    0.000    0.000 
#
# Total GULP energy -133792.085661 kJ/mol
# GULP energy per Si atom -5574.670236 kJ/mol
# Density = 2.257613 g / cm^3
# Si number density = 22.627627 Si / 1000 Ang^3
#
#
#
# Elastic Constant Matrix: (Units=GPa)
#
#
# Indices 1 2 3 4 5 6 
#
# 1 40.6965 -2.5130 11.8149 0.0000 -10.2865 0.0000
# 2 -2.5130 53.3808 -1.7254 0.0000 -5.5698 0.0001
# 3 11.8149 -1.7254 51.2317 0.0000 -18.5334 0.0000
# 4 0.0000 0.0000 0.0000 41.4505 0.0000 1.2062
# 5 -10.2865 -5.5698 -18.5334 0.0000 40.4199 0.0000
# 6 0.0000 0.0001 0.0000 1.2062 0.0000 15.1728
#
#
#
# Elastic Compliance Matrix: (Units=1/GPa)
#
#
# Indices 1 2 3 4 5 6 
#
# 1 0.027247 0.001681 -0.004358 0.000000 0.005168 0.000000
# 2 0.001681 0.019266 0.001650 0.000000 0.003839 0.000000
# 3 -0.004358 0.001650 0.024290 0.000000 0.010256 0.000000
# 4 0.000000 0.000000 0.000000 0.024181 0.000000 -0.001922
# 5 0.005168 0.003839 0.010256 0.000000 0.031287 0.000000
# 6 0.000000 0.000000 0.000000 -0.001922 0.000000 0.066060
#
#
# Mechanical properties :
#
#
# Convention : Reuss Voigt Hill
#
# Bulk Modulus (GPa) = 14.54535 17.82913 16.18724
# Shear Modulus (GPa) = 23.00951 28.59081 25.80016
#
# Velocity S-wave (km/s) = 3.19231 3.55848 3.38036
# Velocity P-wave (km/s) = 4.47548 4.97797 4.73340
#
# Compressibility (1/GPa) = 0.06875049
#
# Stress axis : x y z
#
# Youngs Moduli (GPa) = 36.70098 51.90380 41.16961
#
# Poissons Ratio (x) = -0.08725 0.17940
# Poissons Ratio (y) = -0.06170 -0.06793
# Poissons Ratio (z) = 0.15993 -0.08564
#
# Static dielectric constant tensor:
#      x y z
#    x 1.849830 0.000000 -0.008010 
#    y 0.000000 1.876310 0.000000 
#    z -0.008010 0.000000 1.918240 
# 
# From -- ./inp_files/378546.got.cif
#   From: 2010.05.17/outbox.cif.g08.bks.cpg/sg12_190_cif.got.tgz:378546.got - 2010.06.03 13:09:07.
