data_PCOD9181583
_publ_section_title
;
Structure prediction by ZEFSAII (Michael W. Deem and Ramdas Pophale) SiO2 
 PCOD9181583
Probable space group: C 2/M
;
_chemical_formula_sum "Si O2"
_cell_formula_units_Z 56
_cell_length_a 15.170542
_cell_length_b 15.691928
_cell_length_c 9.864058
_cell_angle_alpha 90.000000
_cell_angle_beta 74.869137
_cell_angle_gamma 90.000000
_cell_volume 2266.782230
_symmetry_space_group_name_H-M "C 2/M"
_symmetry_group_IT_number 12
_symmetry_cell_setting 'monoclinic'
loop_
_space_group_symop_operation_xyz
x,y,z
-x,y,-z
-x,-y,-z
x,-y,z
1/2+x,1/2+y,z
1/2-x,1/2+y,-z
1/2-x,1/2-y,-z
1/2+x,1/2-y,z
loop_
_atom_site_type_symbol
_atom_site_label
_atom_site_fract_x
_atom_site_fract_y
_atom_site_fract_z
Si Si1 0.932983 0.397809 0.282753
Si Si2 0.269427 0.104453 0.540546
Si Si3 0.073203 0.099006 0.648147
Si Si4 0.399971 0.652222 0.059258
Si Si5 0.126119 0.097265 0.228614
Si Si6 0.316039 0.830811 0.097479
Si Si7 0.860252 0.397092 0.784976
O O1 0.935702 0.500000 0.295524
O O2 0.852473 0.365859 0.413104
O O3 0.897882 0.373466 0.148928
O O4 0.034868 0.366134 0.271781
O O5 0.166653 0.134967 0.546768
O O6 0.299939 0.127492 0.680258
O O7 0.266114 0.000000 0.534676
O O8 0.095857 0.103852 0.800281
O O9 0.969663 0.133204 0.674003
O O10 0.065802 0.000000 0.613023
O O11 0.332329 0.730883 0.088415
O O12 0.500000 0.692630 0.000000
O O13 0.386410 0.596828 0.930375
O O14 0.220208 0.146882 0.206715
O O15 0.139018 0.000000 0.270007
O O16 0.322484 0.866996 0.943660
O O17 0.861726 0.500000 0.786145
#
# Coordination Sequence:
#
# PCOD9181583 Si02
#       7
#     8   8   8   8   8   8   8
#     4  10  20  34  52  78 114 152 187 227 279 337
#     4   9  18  34  56  79 104 142 195 243 275 314
#     4   9  18  35  58  81 106 143 194 241 273 314
#     4  10  20  34  54  81 114 149 186 232 283 330
#     4  10  20  34  54  81 112 148 190 232 273 324
#     4  12  22  34  53  84 120 148 176 223 288 346
#     4  10  19  32  53  80 111 150 193 232 272 328
#
# _framework density 24.704623000000002
#
# number of rings (size 3 to 8) (size 9 to 14) (size 15 to 20)
#    0.000    2.000    0.000    4.714    0.000    5.714 
#    0.000    1.429    0.000    3.429    0.000    0.000 
#    0.000    0.000    0.000    0.000    0.000    1.714 
#
# Total GULP energy -156636.084155 kJ/mol
# GULP energy per Si atom -5594.145863 kJ/mol
# Density = 2.464839 g / cm^3
# Si number density = 24.704623 Si / 1000 Ang^3
#
#
#
# Elastic Constant Matrix: (Units=GPa)
#
#
# Indices 1 2 3 4 5 6 
#
# 1 192.5362 33.7442 50.2558 0.0000 -48.7516 0.0000
# 2 33.7442 44.6792 18.6449 0.0000 -14.7321 0.0000
# 3 50.2558 18.6449 104.0365 0.0000 -24.4115 0.0000
# 4 0.0000 0.0000 0.0000 -17.1904 0.0000 -6.9922
# 5 -48.7516 -14.7321 -24.4115 0.0000 50.0966 0.0000
# 6 0.0000 0.0000 0.0000 -6.9922 0.0000 75.3249
#
#
#
# Elastic Compliance Matrix: (Units=1/GPa)
#
#
# Indices 1 2 3 4 5 6 
#
# 1 0.007645 -0.003164 -0.001805 0.000000 0.005630 0.000000
# 2 -0.003164 0.027004 -0.002450 0.000000 0.003668 0.000000
# 3 -0.001805 -0.002450 0.011677 0.000000 0.003213 0.000000
# 4 0.000000 0.000000 0.000000 -0.056056 0.000000 -0.005203
# 5 0.005630 0.003668 0.003213 0.000000 0.028084 0.000000
# 6 0.000000 0.000000 0.000000 -0.005203 0.000000 0.012793
#
#
# Mechanical properties :
#
#
# Convention : Reuss Voigt Hill
#
# Bulk Modulus (GPa) = 31.75989 60.72686 46.24337
# Shear Modulus (GPa) = 88.52428 37.55336 63.03882
#
# Velocity S-wave (km/s) = 5.99257 3.90307 5.05692
# Velocity P-wave (km/s) = 7.79519 6.70421 7.27019
#
# Compressibility (1/GPa) = 0.03148626
#
# Stress axis : x y z
#
# Youngs Moduli (GPa) = 130.80387 37.03212 85.63901
#
# Poissons Ratio (x) = 0.11719 0.15457
# Poissons Ratio (y) = 0.41392 0.20984
# Poissons Ratio (z) = 0.23609 0.09074
#
# Static dielectric constant tensor:
#      x y z
#    x 1.989460 0.000000 -0.011550 
#    y 0.000000 1.871430 0.000000 
#    z -0.011550 0.000000 1.980320 
# 
# From -- ./inp_files/145467.got.cif
#   From: 2010.05.17/outbox.cif.g08.bks.cpg/sg12_73_cif.got.tgz:145467.got - 2010.06.03 13:09:07.
