data_PCOD9181839
_publ_section_title
;
Structure prediction by ZEFSAII (Michael W. Deem and Ramdas Pophale) SiO2 
 PCOD9181839
Probable space group: C 2/M
;
_chemical_formula_sum "Si O2"
_cell_formula_units_Z 56
_cell_length_a 23.168684
_cell_length_b 14.078037
_cell_length_c 8.747545
_cell_angle_alpha 90.000000
_cell_angle_beta 113.683670
_cell_angle_gamma 90.000000
_cell_volume 2612.879857
_symmetry_space_group_name_H-M "C 2/M"
_symmetry_group_IT_number 12
_symmetry_cell_setting 'monoclinic'
loop_
_space_group_symop_operation_xyz
x,y,z
-x,y,-z
-x,-y,-z
x,-y,z
1/2+x,1/2+y,z
1/2-x,1/2+y,-z
1/2-x,1/2-y,-z
1/2+x,1/2-y,z
loop_
_atom_site_type_symbol
_atom_site_label
_atom_site_fract_x
_atom_site_fract_y
_atom_site_fract_z
Si Si1 0.346207 0.890401 0.862734
Si Si2 0.872997 0.110078 0.936467
Si Si3 0.640745 0.783093 0.656511
Si Si4 0.944931 0.726048 0.149755
Si Si5 0.743772 0.888794 0.957324
Si Si6 0.322251 0.724353 0.608259
Si Si7 0.956492 0.603635 0.606195
O O1 0.346434 0.817601 0.724333
O O2 0.349161 0.000000 0.822490
O O3 0.404374 0.859827 0.032751
O O4 0.283812 0.875579 0.901799
O O5 0.817450 0.126948 0.003679
O O6 0.839361 0.140059 0.742146
O O7 0.890496 0.000000 0.956557
O O8 0.930312 0.181528 0.033225
O O9 0.588712 0.753639 0.723999
O O10 0.703216 0.818876 0.807661
O O11 0.650277 0.708813 0.531176
O O12 0.611275 0.872651 0.534414
O O13 0.014184 0.685898 0.256011
O O14 0.731153 0.000000 0.905236
O O15 0.250000 0.750000 0.500000
O O16 0.959491 0.500000 0.683000
O O17 0.000000 0.600996 0.500000
#
# Coordination Sequence:
#
# PCOD9181839 Si02
#       7
#     8   8   8   8   8   8   8
#     4   9  19  32  49  74 106 141 178 215 263 323
#     4  10  21  37  54  74 104 143 187 224 263 313
#     4  10  19  32  54  81 112 139 172 217 277 327
#     4   9  19  34  58  77 105 141 184 225 261 312
#     4   9  17  31  52  77 103 140 181 216 258 317
#     4  11  22  33  50  77 114 146 171 216 274 332
#     4   9  17  32  56  86 113 137 171 220 273 323
#
# _framework density 21.432289999999998
#
# number of rings (size 3 to 8) (size 9 to 14) (size 15 to 20)
#    0.000    2.429    1.429    0.857    2.000    6.857 
#    0.000    3.571    0.000    9.857    0.000    0.000 
#    0.000    0.000    0.000    0.000    0.000    0.000 
#
# Total GULP energy -156278.360681 kJ/mol
# GULP energy per Si atom -5581.370024 kJ/mol
# Density = 2.138351 g / cm^3
# Si number density = 21.432290 Si / 1000 Ang^3
#
#
#
# Elastic Constant Matrix: (Units=GPa)
#
#
# Indices 1 2 3 4 5 6 
#
# 1 43.2197 9.7797 23.0291 0.0000 -7.2361 0.0000
# 2 9.7797 113.7942 28.0210 0.0000 16.6970 0.0000
# 3 23.0291 28.0210 75.6417 0.0000 -0.4461 0.0000
# 4 0.0000 0.0000 0.0000 20.8530 0.0000 4.9355
# 5 -7.2361 16.6970 -0.4461 0.0000 32.2247 0.0000
# 6 0.0000 0.0000 0.0000 4.9355 0.0000 13.9056
#
#
#
# Elastic Compliance Matrix: (Units=1/GPa)
#
#
# Indices 1 2 3 4 5 6 
#
# 1 0.029084 -0.001526 -0.008247 0.000000 0.007208 0.000000
# 2 -0.001526 0.010652 -0.003516 0.000000 -0.005911 0.000000
# 3 -0.008247 -0.003516 0.017035 0.000000 0.000206 0.000000
# 4 0.000000 0.000000 0.000000 0.052353 0.000000 -0.018582
# 5 0.007208 -0.005911 0.000206 0.000000 0.035716 0.000000
# 6 0.000000 0.000000 0.000000 -0.018582 0.000000 0.078509
#
#
# Mechanical properties :
#
#
# Convention : Reuss Voigt Hill
#
# Bulk Modulus (GPa) = 33.12111 39.36835 36.24473
# Shear Modulus (GPa) = 19.23149 24.85172 22.04160
#
# Velocity S-wave (km/s) = 2.99877 3.40890 3.21039
# Velocity P-wave (km/s) = 5.24190 5.82261 5.53987
#
# Compressibility (1/GPa) = 0.03019222
#
# Stress axis : x y z
#
# Youngs Moduli (GPa) = 34.38339 93.87839 58.70389
#
# Poissons Ratio (x) = 0.14330 0.48411
# Poissons Ratio (y) = 0.05248 0.20641
# Poissons Ratio (z) = 0.28355 0.33009
#
# Static dielectric constant tensor:
#      x y z
#    x 1.838090 0.000000 -0.026570 
#    y 0.000000 1.760370 0.000000 
#    z -0.026570 0.000000 1.793160 
# 
# From -- ./inp_files/86345.got.cif
#   From: 2010.05.17/outbox.cif.g08.bks.cpg/sg12_44_cif.got.tgz:86345.got - 2010.06.03 13:09:07.
