data_PCOD9181233
_publ_section_title
;
Structure prediction by ZEFSAII (Michael W. Deem and Ramdas Pophale) SiO2 
 PCOD9181233
Probable space group: C 2/M
;
_chemical_formula_sum "Si O2"
_cell_formula_units_Z 56
_cell_length_a 27.746492
_cell_length_b 10.530378
_cell_length_c 13.017572
_cell_angle_alpha 90.000000
_cell_angle_beta 53.119580
_cell_angle_gamma 90.000000
_cell_volume 3042.371116
_symmetry_space_group_name_H-M "C 2/M"
_symmetry_group_IT_number 12
_symmetry_cell_setting 'monoclinic'
loop_
_space_group_symop_operation_xyz
x,y,z
-x,y,-z
-x,-y,-z
x,-y,z
1/2+x,1/2+y,z
1/2-x,1/2+y,-z
1/2-x,1/2-y,-z
1/2+x,1/2-y,z
loop_
_atom_site_type_symbol
_atom_site_label
_atom_site_fract_x
_atom_site_fract_y
_atom_site_fract_z
Si Si1 0.026081 0.148708 0.225932
Si Si2 0.322471 0.236219 0.159704
Si Si3 0.804497 0.149719 0.740979
Si Si4 0.548234 0.860805 0.028945
Si Si5 0.895971 0.152617 0.457069
Si Si6 0.198637 0.148521 0.597779
Si Si7 0.161411 0.852587 0.087289
O O1 0.033404 0.243870 0.121849
O O2 0.089704 0.155093 0.203254
O O3 0.965808 0.188601 0.362612
O O4 0.019043 0.000000 0.203073
O O5 0.259226 0.163329 0.233766
O O6 0.316572 0.332092 0.262674
O O7 0.383423 0.156938 0.098073
O O8 0.329090 0.293196 0.036611
O O9 0.856385 0.205230 0.601505
O O10 0.805581 0.204043 0.855165
O O11 0.816432 0.000000 0.738540
O O12 0.544480 0.000000 0.085188
O O13 0.500000 0.858463 0.000000
O O14 0.859758 0.178337 0.397999
O O15 0.895659 0.000000 0.468162
O O16 0.250000 0.250000 0.500000
O O17 0.215384 0.000000 0.557599
O O18 0.178303 0.000000 0.054225
#
# Coordination Sequence:
#
# PCOD9181233 Si02
#       7
#     8   8   8   8   8   8   8
#     4   9  18  34  55  78 106 140 181 225 273 320
#     4  11  20  34  55  77 109 146 181 222 273 326
#     4  10  19  32  52  78 109 140 181 229 271 319
#     4  10  21  35  53  79 110 144 185 225 268 324
#     4   9  18  33  53  79 108 140 179 222 271 324
#     4  11  22  36  55  80 112 145 179 222 270 329
#     4   9  19  33  51  79 107 138 181 229 272 316
#
# _framework density 18.406696
#
# number of rings (size 3 to 8) (size 9 to 14) (size 15 to 20)
#    0.000    2.143    1.429    2.143    0.000    2.000 
#    0.000    3.571    0.000    0.857    0.000    4.000 
#    0.000    0.000    0.000    0.000    0.000    0.000 
#
# Total GULP energy -155907.659996 kJ/mol
# GULP energy per Si atom -5568.130714 kJ/mol
# Density = 1.836480 g / cm^3
# Si number density = 18.406696 Si / 1000 Ang^3
#
#
#
# Elastic Constant Matrix: (Units=GPa)
#
#
# Indices 1 2 3 4 5 6 
#
# 1 59.6074 19.2761 30.5881 0.0000 3.2183 0.0000
# 2 19.2761 57.6042 18.7798 0.0000 -2.0779 0.0000
# 3 30.5881 18.7798 96.4267 0.0000 -5.7214 0.0000
# 4 0.0000 0.0000 0.0000 19.0358 0.0000 -1.0435
# 5 3.2183 -2.0779 -5.7214 0.0000 33.6414 0.0000
# 6 0.0000 0.0000 0.0000 -1.0435 0.0000 22.2223
#
#
#
# Elastic Compliance Matrix: (Units=1/GPa)
#
#
# Indices 1 2 3 4 5 6 
#
# 1 0.021843 -0.005455 -0.006072 0.000000 -0.003459 0.000000
# 2 -0.005455 0.019908 -0.002064 0.000000 0.001400 0.000000
# 3 -0.006072 -0.002064 0.012855 0.000000 0.002640 0.000000
# 4 0.000000 0.000000 0.000000 0.052668 0.000000 0.002473
# 5 -0.003459 0.001400 0.002640 0.000000 0.030592 0.000000
# 6 0.000000 0.000000 0.000000 0.002473 0.000000 0.045116
#
#
# Mechanical properties :
#
#
# Convention : Reuss Voigt Hill
#
# Bulk Modulus (GPa) = 36.46182 38.99180 37.72681
# Shear Modulus (GPa) = 22.79927 24.64619 23.72273
#
# Velocity S-wave (km/s) = 3.52325 3.66318 3.59389
# Velocity P-wave (km/s) = 6.03349 6.25470 6.14509
#
# Compressibility (1/GPa) = 0.02742595
#
# Stress axis : x y z
#
# Youngs Moduli (GPa) = 45.78132 50.22984 77.78917
#
# Poissons Ratio (x) = 0.27398 0.47233
# Poissons Ratio (y) = 0.24972 0.16055
# Poissons Ratio (z) = 0.27798 0.10367
#
# Static dielectric constant tensor:
#      x y z
#    x 1.647700 0.000000 -0.007640 
#    y 0.000000 1.627320 0.000000 
#    z -0.007640 0.000000 1.677790 
# 
# From -- ./inp_files/182472.got.cif
#   From: 2010.05.17/outbox.cif.g08.bks.cpg/sg12_92_cif.got.tgz:182472.got - 2010.06.03 13:09:07.
