data_PCOD9181562
_publ_section_title
;
Structure prediction by ZEFSAII (Michael W. Deem and Ramdas Pophale) SiO2 
 PCOD9181562
Probable space group: C 2/M
;
_chemical_formula_sum "Si O2"
_cell_formula_units_Z 64
_cell_length_a 21.351406
_cell_length_b 21.999802
_cell_length_c 9.574023
_cell_angle_alpha 90.000000
_cell_angle_beta 137.145852
_cell_angle_gamma 90.000000
_cell_volume 3058.683016
_symmetry_space_group_name_H-M "C 2/M"
_symmetry_group_IT_number 12
_symmetry_cell_setting 'monoclinic'
loop_
_space_group_symop_operation_xyz
x,y,z
-x,y,-z
-x,-y,-z
x,-y,z
1/2+x,1/2+y,z
1/2-x,1/2+y,-z
1/2-x,1/2-y,-z
1/2+x,1/2-y,z
loop_
_atom_site_type_symbol
_atom_site_label
_atom_site_fract_x
_atom_site_fract_y
_atom_site_fract_z
Si Si1 0.836720 0.120147 0.477105
Si Si2 0.816556 0.737389 0.389054
Si Si3 0.510905 0.775085 0.856038
Si Si4 0.593361 0.189700 0.719477
Si Si5 0.223921 0.120337 0.328366
Si Si6 0.547494 0.366344 0.867264
Si Si7 0.148894 0.067793 0.800935
Si Si8 0.840310 0.567197 0.281767
O O1 0.812573 0.190747 0.404859
O O2 0.775920 0.103155 0.510409
O O3 0.831376 0.083423 0.326198
O O4 0.942455 0.112629 0.700802
O O5 0.826543 0.721701 0.240270
O O6 0.739892 0.693024 0.329493
O O7 0.910905 0.717384 0.621308
O O8 0.584743 0.805747 0.871768
O O9 0.538651 0.704437 0.889575
O O10 0.500000 0.792884 0.000000
O O11 0.500000 0.217585 0.500000
O O12 0.599124 0.119941 0.684045
O O13 0.304522 0.087521 0.375175
O O14 0.124815 0.105929 0.095928
O O15 0.585449 0.382497 0.774747
O O16 0.107990 0.000000 0.749280
O O17 0.246376 0.067598 0.038452
O O18 0.880107 0.500000 0.347149
#
# Coordination Sequence:
#
# PCOD9181562 Si02
#       8
#     8   8   8   8   8   8   8   8
#     4  11  20  32  53  78 103 131 168 213 255 294
#     4   9  19  34  50  76 108 136 163 200 250 308
#     4  10  19  32  53  80 108 130 160 206 253 300
#     4   9  18  33  54  78 103 134 167 200 248 306
#     4  10  20  34  53  75 103 134 170 208 250 300
#     4  10  20  35  52  73 102 138 169 203 250 302
#     4  10  22  37  52  72 100 135 175 215 253 294
#     4   9  20  38  54  71 100 136 173 211 248 295
#
# _framework density 20.924039
#
# number of rings (size 3 to 8) (size 9 to 14) (size 15 to 20)
#    0.000    2.250    0.000    3.375    0.000    5.750 
#    0.000    3.750    0.000    6.000    0.000    0.000 
#    0.000    0.000    0.000    0.000    0.000    0.000 
#
# Total GULP energy -178534.894980 kJ/mol
# GULP energy per Si atom -5579.215468 kJ/mol
# Density = 2.087642 g / cm^3
# Si number density = 20.924039 Si / 1000 Ang^3
#
#
#
# Elastic Constant Matrix: (Units=GPa)
#
#
# Indices 1 2 3 4 5 6 
#
# 1 115.6448 12.7160 41.9134 0.0000 -50.6485 0.0000
# 2 12.7160 19.7985 13.2022 0.0000 -16.0990 0.0000
# 3 41.9134 13.2022 52.4725 0.0000 -22.3274 0.0000
# 4 0.0000 0.0000 0.0000 8.3381 0.0000 6.6030
# 5 -50.6485 -16.0990 -22.3274 0.0000 44.4606 0.0000
# 6 0.0000 0.0000 0.0000 6.6030 0.0000 10.9989
#
#
#
# Elastic Compliance Matrix: (Units=1/GPa)
#
#
# Indices 1 2 3 4 5 6 
#
# 1 0.021296 0.012245 -0.010024 0.000000 0.023660 0.000000
# 2 0.012245 0.082035 -0.015066 0.000000 0.036088 0.000000
# 3 -0.010024 -0.015066 0.030109 0.000000 -0.001754 0.000000
# 4 0.000000 0.000000 0.000000 0.228623 0.000000 -0.137251
# 5 0.023660 0.036088 -0.001754 0.000000 0.061631 0.000000
# 6 0.000000 0.000000 0.000000 -0.137251 0.000000 0.173315
#
#
# Mechanical properties :
#
#
# Convention : Reuss Voigt Hill
#
# Bulk Modulus (GPa) = 9.28065 35.95322 22.61693
# Shear Modulus (GPa) = 7.59170 20.76512 14.17841
#
# Velocity S-wave (km/s) = 1.90685 3.15366 2.60592
# Velocity P-wave (km/s) = 3.04847 5.52094 4.45948
#
# Compressibility (1/GPa) = 0.10775109
#
# Stress axis : x y z
#
# Youngs Moduli (GPa) = 46.95714 12.18992 33.21311
#
# Poissons Ratio (x) = -0.14927 0.33293
# Poissons Ratio (y) = -0.57501 0.50037
# Poissons Ratio (z) = 0.47070 0.18365
#
# Static dielectric constant tensor:
#      x y z
#    x 1.803830 0.000000 0.003250 
#    y 0.000000 1.758110 0.000000 
#    z 0.003250 0.000000 1.780260 
# 
# From -- ./inp_files/90676.got.cif
#   From: 2010.05.17/outbox.cif.g08.bks.cpg/sg12_46_cif.got.tgz:90676.got - 2010.06.03 13:09:07.
