data_PCOD9181232
_publ_section_title
;
Structure prediction by ZEFSAII (Michael W. Deem and Ramdas Pophale) SiO2 
 PCOD9181232
Probable space group: C 2/M
;
_chemical_formula_sum "Si O2"
_cell_formula_units_Z 36
_cell_length_a 16.679145
_cell_length_b 15.178077
_cell_length_c 17.570775
_cell_angle_alpha 90.000000
_cell_angle_beta 155.166510
_cell_angle_gamma 90.000000
_cell_volume 1868.154405
_symmetry_space_group_name_H-M "C 2/M"
_symmetry_group_IT_number 12
_symmetry_cell_setting 'monoclinic'
loop_
_space_group_symop_operation_xyz
x,y,z
-x,y,-z
-x,-y,-z
x,-y,z
1/2+x,1/2+y,z
1/2-x,1/2+y,-z
1/2-x,1/2-y,-z
1/2+x,1/2-y,z
loop_
_atom_site_type_symbol
_atom_site_label
_atom_site_fract_x
_atom_site_fract_y
_atom_site_fract_z
Si Si1 0.683662 0.149441 0.450106
Si Si2 0.559008 0.404134 0.717692
Si Si3 0.003981 0.599391 0.871224
Si Si4 0.579939 0.781828 0.653066
Si Si5 0.500000 0.237338 0.000000
O O1 0.750000 0.250000 0.500000
O O2 0.885091 0.099549 0.627489
O O3 0.586043 0.118766 0.287873
O O4 0.532957 0.152123 0.388431
O O5 0.551694 0.500000 0.672128
O O6 0.542385 0.319582 0.648484
O O7 0.765912 0.396455 0.934430
O O8 0.951371 0.500000 0.850499
O O9 0.947780 0.672450 0.884770
O O10 0.500000 0.792190 0.500000
O O11 0.809040 0.791141 0.853819
#
# Coordination Sequence:
#
# PCOD9181232 Si02
#       5
#     8   8   8   8   4
#     4  10  20  33  51  74 104 140 173 205 248 301
#     4   9  19  34  54  78 101 131 170 211 256 305
#     4  10  20  34  54  79 105 134 168 208 256 307
#     4  10  21  33  49  77 106 136 171 206 252 303
#     4  10  19  32  52  78 109 134 162 206 257 310
#
# _framework density 19.270354999999999
#
# number of rings (size 3 to 8) (size 9 to 14) (size 15 to 20)
#    0.000    2.222    0.000    3.667    0.000   11.111 
#    0.000    0.000    0.000    2.667    0.000    6.222 
#    0.000    0.000    0.000    0.000    0.000    0.000 
#
# Total GULP energy -100346.762557 kJ/mol
# GULP energy per Si atom -5574.820142 kJ/mol
# Density = 1.922649 g / cm^3
# Si number density = 19.270355 Si / 1000 Ang^3
#
#
#
# Elastic Constant Matrix: (Units=GPa)
#
#
# Indices 1 2 3 4 5 6 
#
# 1 84.0431 -4.3207 26.9599 -0.0028 31.5536 -0.0039
# 2 -4.3207 12.0491 -9.0549 -0.0004 1.7734 -0.0120
# 3 26.9599 -9.0549 35.4300 -0.0065 11.4640 -0.0114
# 4 -0.0028 -0.0004 -0.0065 24.1211 0.0009 4.2107
# 5 31.5536 1.7734 11.4640 0.0009 25.1919 -0.0077
# 6 -0.0039 -0.0120 -0.0114 4.2107 -0.0077 -7.6144
#
#
#
# Elastic Compliance Matrix: (Units=1/GPa)
#
#
# Indices 1 2 3 4 5 6 
#
# 1 0.025915 0.007230 -0.008448 -0.000001 -0.029123 0.000017
# 2 0.007230 0.116891 0.035139 0.000046 -0.033276 -0.000183
# 3 -0.008448 0.035139 0.048091 0.000029 -0.013777 -0.000093
# 4 -0.000001 0.000046 0.000029 0.037808 -0.000010 0.020907
# 5 -0.029123 -0.033276 -0.013777 -0.000010 0.084785 -0.000003
# 6 0.000017 -0.000183 -0.000093 0.020907 -0.000003 -0.119768
#
#
# Mechanical properties :
#
#
# Convention : Reuss Voigt Hill
#
# Bulk Modulus (GPa) = 3.86489 17.63230 10.74860
# Shear Modulus (GPa) = 23.57097 16.20224 19.88661
#
# Velocity S-wave (km/s) = 3.50118 2.90278 3.21593
# Velocity P-wave (km/s) = 4.28420 4.51715 4.40221
#
# Compressibility (1/GPa) = 0.25873946
#
# Stress axis : x y z
#
# Youngs Moduli (GPa) = 38.58823 8.55501 20.79375
#
# Poissons Ratio (x) = -0.06186 0.17566
# Poissons Ratio (y) = -0.27901 -0.73067
# Poissons Ratio (z) = 0.32599 -0.30061
#
# Static dielectric constant tensor:
#      x y z
#    x 1.707690 0.000000 0.052630 
#    y 0.000000 1.697000 0.000000 
#    z 0.052630 0.000000 1.675180 
# 
# From -- ./inp_files/58453.got.cif
#   From: 2010.05.17/outbox.cif.g08.bks.cpg/sg12_30_cif.got.tgz:58453.got - 2010.06.03 13:09:07.
