data_PCOD9181055
_publ_section_title
;
Structure prediction by ZEFSAII (Michael W. Deem and Ramdas Pophale) SiO2 
 PCOD9181055
Probable space group: C 2/M
;
_chemical_formula_sum "Si O2"
_cell_formula_units_Z 64
_cell_length_a 26.732663
_cell_length_b 20.766563
_cell_length_c 12.119953
_cell_angle_alpha 90.000000
_cell_angle_beta 146.030690
_cell_angle_gamma 90.000000
_cell_volume 3759.450342
_symmetry_space_group_name_H-M "C 2/M"
_symmetry_group_IT_number 12
_symmetry_cell_setting 'monoclinic'
loop_
_space_group_symop_operation_xyz
x,y,z
-x,y,-z
-x,-y,-z
x,-y,z
1/2+x,1/2+y,z
1/2-x,1/2+y,-z
1/2-x,1/2-y,-z
1/2+x,1/2-y,z
loop_
_atom_site_type_symbol
_atom_site_label
_atom_site_fract_x
_atom_site_fract_y
_atom_site_fract_z
Si Si1 0.378531 0.427190 0.364046
Si Si2 0.498796 0.307897 0.652193
Si Si3 0.303650 0.334899 0.068577
Si Si4 0.769618 0.928099 0.392623
Si Si5 0.439185 0.302540 0.996184
Si Si6 0.224094 0.282850 0.335077
Si Si7 0.894599 0.068399 0.832668
Si Si8 0.323687 0.759353 0.300343
O O1 0.412180 0.500000 0.418224
O O2 0.454381 0.373782 0.526508
O O3 0.326884 0.405118 0.158785
O O4 0.313737 0.424043 0.352352
O O5 0.602589 0.306303 0.807145
O O6 0.430966 0.251237 0.490729
O O7 0.499916 0.308843 0.785893
O O8 0.284003 0.294918 0.144699
O O9 0.224281 0.322911 0.836206
O O10 0.720930 0.860525 0.328019
O O11 0.845615 0.927840 0.626176
O O12 0.725910 0.000000 0.320642
O O13 0.371812 0.243769 0.877176
O O14 0.380269 0.367694 0.876693
O O15 0.500000 0.296571 0.000000
O O16 0.250000 0.250000 0.500000
O O17 0.292856 0.258122 0.367016
O O18 0.870022 0.000000 0.841257
O O19 0.000000 0.067346 0.000000
#
# Coordination Sequence:
#
# PCOD9181055 Si02
#       8
#     8   8   8   8   8   8   8   8
#     4  10  19  32  52  75 109 148 179 212 257 324
#     4  11  20  33  51  78 110 143 178 221 268 317
#     4  10  20  34  52  75 109 141 178 219 267 319
#     4  10  19  33  50  74 104 140 181 222 267 322
#     4  11  21  32  50  79 111 138 185 228 268 324
#     4  12  20  34  55  79 105 141 182 230 270 316
#     4   9  17  29  45  68 105 146 171 199 253 322
#     4  10  20  35  51  74 107 140 176 223 270 317
#
# _framework density 17.023764
#
# number of rings (size 3 to 8) (size 9 to 14) (size 15 to 20)
#    0.000    1.625    5.000    3.750    0.000    2.500 
#    0.000    0.000    0.000    1.125    0.000    0.875 
#    0.000    9.500    0.000    0.000    0.000    0.000 
#
# Total GULP energy -178164.176186 kJ/mol
# GULP energy per Si atom -5567.630506 kJ/mol
# Density = 1.698502 g / cm^3
# Si number density = 17.023764 Si / 1000 Ang^3
#
#
#
# Elastic Constant Matrix: (Units=GPa)
#
#
# Indices 1 2 3 4 5 6 
#
# 1 63.8118 23.7077 23.4887 0.0000 -12.3300 0.0000
# 2 23.7077 117.5055 51.1414 0.0000 3.9759 0.0000
# 3 23.4887 51.1414 79.4842 0.0000 -9.3015 0.0000
# 4 0.0000 0.0000 0.0000 21.3915 0.0000 -3.3630
# 5 -12.3300 3.9759 -9.3015 0.0000 26.9552 0.0000
# 6 0.0000 0.0000 0.0000 -3.3630 0.0000 14.1728
#
#
#
# Elastic Compliance Matrix: (Units=1/GPa)
#
#
# Indices 1 2 3 4 5 6 
#
# 1 0.019435 -0.002956 -0.002866 0.000000 0.008337 0.000000
# 2 -0.002956 0.012831 -0.008089 0.000000 -0.006036 0.000000
# 3 -0.002866 -0.008089 0.019402 0.000000 0.006577 0.000000
# 4 0.000000 0.000000 0.000000 0.048559 0.000000 0.011522
# 5 0.008337 -0.006036 0.006577 0.000000 0.044072 0.000000
# 6 0.000000 0.000000 0.000000 0.011522 0.000000 0.073292
#
#
# Mechanical properties :
#
#
# Convention : Reuss Voigt Hill
#
# Bulk Modulus (GPa) = 41.93292 50.83078 46.38185
# Shear Modulus (GPa) = 19.73465 23.33482 21.53473
#
# Velocity S-wave (km/s) = 3.40846 3.70634 3.56052
# Velocity P-wave (km/s) = 6.33842 6.94547 6.64887
#
# Compressibility (1/GPa) = 0.02384761
#
# Stress axis : x y z
#
# Youngs Moduli (GPa) = 51.45312 77.93471 51.54107
#
# Poissons Ratio (x) = 0.23038 0.14770
# Poissons Ratio (y) = 0.15210 0.41690
# Poissons Ratio (z) = 0.14745 0.63038
#
# Static dielectric constant tensor:
#      x y z
#    x 1.622890 0.000000 -0.011650 
#    y 0.000000 1.657980 0.000000 
#    z -0.011650 0.000000 1.595350 
# 
# From -- ./inp_files/184990.got.cif
#   From: 2010.05.17/outbox.cif.g08.bks.cpg/sg12_93_cif.got.tgz:184990.got - 2010.06.03 13:09:07.
