data_PCOD9181762
_publ_section_title
;
Structure prediction by ZEFSAII (Michael W. Deem and Ramdas Pophale) SiO2 
 PCOD9181762
Probable space group: C 2/M
;
_chemical_formula_sum "Si O2"
_cell_formula_units_Z 64
_cell_length_a 19.167254
_cell_length_b 14.375678
_cell_length_c 13.511365
_cell_angle_alpha 90.000000
_cell_angle_beta 117.487761
_cell_angle_gamma 90.000000
_cell_volume 3302.666074
_symmetry_space_group_name_H-M "C 2/M"
_symmetry_group_IT_number 12
_symmetry_cell_setting 'monoclinic'
loop_
_space_group_symop_operation_xyz
x,y,z
-x,y,-z
-x,-y,-z
x,-y,z
1/2+x,1/2+y,z
1/2-x,1/2+y,-z
1/2-x,1/2-y,-z
1/2+x,1/2-y,z
loop_
_atom_site_type_symbol
_atom_site_label
_atom_site_fract_x
_atom_site_fract_y
_atom_site_fract_z
Si Si1 0.170251 0.783730 0.768958
Si Si2 0.202883 0.230122 0.311731
Si Si3 0.701594 0.605932 0.987942
Si Si4 0.587775 0.609841 0.552237
Si Si5 0.621364 0.101816 0.807381
Si Si6 0.906176 0.797674 0.924499
Si Si7 0.917885 0.401350 0.002301
Si Si8 0.263976 0.388105 0.480877
O O1 0.239565 0.746673 0.743718
O O2 0.194319 0.823278 0.891572
O O3 0.129318 0.865765 0.682074
O O4 0.111966 0.695667 0.741018
O O5 0.121987 0.197446 0.207572
O O6 0.203861 0.326720 0.374808
O O7 0.235823 0.152120 0.408080
O O8 0.687337 0.500000 0.945434
O O9 0.789004 0.608269 0.091797
O O10 0.640066 0.633176 0.033430
O O11 0.500000 0.650296 0.500000
O O12 0.580766 0.500000 0.534545
O O13 0.649913 0.638918 0.508180
O O14 0.569365 0.104724 0.872226
O O15 0.612074 0.000000 0.753545
O O16 0.880679 0.693726 0.942303
O O17 0.000000 0.806786 0.000000
O O18 0.874653 0.500000 0.955372
O O19 0.000000 0.405536 0.000000
O O20 0.253104 0.500000 0.467781
#
# Coordination Sequence:
#
# PCOD9181762 Si02
#       8
#     8   8   8   8   8   8   8   8
#     4  11  19  34  58  80 111 147 192 234 277 336
#     4  10  21  36  58  84 113 146 196 239 283 345
#     4  11  22  35  53  83 118 152 190 230 278 348
#     4   9  19  36  58  85 112 142 185 234 288 345
#     4  10  19  32  54  79 107 146 188 233 279 327
#     4  11  22  36  55  84 124 161 189 230 295 354
#     4   9  18  33  51  74 108 150 193 230 269 323
#     4   9  20  39  61  84 110 145 192 249 294 331
#
# _framework density 19.378284000000001
#
# number of rings (size 3 to 8) (size 9 to 14) (size 15 to 20)
#    0.000    2.000    2.500    1.500    0.000    3.250 
#    0.000    1.250    0.000    0.375    0.000    0.000 
#    0.000    0.000    0.000    0.000    0.000    0.000 
#
# Total GULP energy -178260.952332 kJ/mol
# GULP energy per Si atom -5570.654760 kJ/mol
# Density = 1.933418 g / cm^3
# Si number density = 19.378284 Si / 1000 Ang^3
#
#
#
# Elastic Constant Matrix: (Units=GPa)
#
#
# Indices 1 2 3 4 5 6 
#
# 1 77.6133 5.4106 28.1661 0.0000 0.7484 0.0000
# 2 5.4106 79.1224 9.2237 0.0000 -17.2192 0.0000
# 3 28.1661 9.2237 81.5565 0.0000 -4.4648 0.0000
# 4 0.0000 0.0000 0.0000 18.6606 0.0000 -1.6286
# 5 0.7484 -17.2192 -4.4648 0.0000 15.0969 0.0000
# 6 0.0000 0.0000 0.0000 -1.6286 0.0000 -49.7733
#
#
#
# Elastic Compliance Matrix: (Units=1/GPa)
#
#
# Indices 1 2 3 4 5 6 
#
# 1 0.014893 -0.001207 -0.005207 0.000000 -0.003655 0.000000
# 2 -0.001207 0.016970 -0.000447 0.000000 0.019283 0.000000
# 3 -0.005207 -0.000447 0.014329 0.000000 0.003986 0.000000
# 4 0.000000 0.000000 0.000000 0.053436 0.000000 -0.001748
# 5 -0.003655 0.019283 0.003986 0.000000 0.089593 0.000000
# 6 0.000000 0.000000 0.000000 -0.001748 0.000000 -0.020034
#
#
# Mechanical properties :
#
#
# Convention : Reuss Voigt Hill
#
# Bulk Modulus (GPa) = 30.79738 35.98809 33.39274
# Shear Modulus (GPa) = 25.80889 9.82963 17.81926
#
# Velocity S-wave (km/s) = 3.65341 2.25466 3.03569
# Velocity P-wave (km/s) = 5.80721 5.03882 5.43661
#
# Compressibility (1/GPa) = 0.03247030
#
# Stress axis : x y z
#
# Youngs Moduli (GPa) = 67.14365 58.92822 69.79093
#
# Poissons Ratio (x) = 0.07112 0.36341
# Poissons Ratio (y) = 0.08103 0.03118
# Poissons Ratio (z) = 0.34963 0.02633
#
# Static dielectric constant tensor:
#      x y z
#    x 1.705950 0.000000 0.008580 
#    y 0.000000 1.731820 0.000000 
#    z 0.008580 0.000000 1.677110 
# 
# From -- ./inp_files/167310.got.cif
#   From: 2010.05.17/outbox.cif.g08.bks.cpg/sg12_84_cif.got.tgz:167310.got - 2010.06.03 13:09:07.
