data_PCOD9181571
_publ_section_title
;
Structure prediction by ZEFSAII (Michael W. Deem and Ramdas Pophale) SiO2 
 PCOD9181571
Probable space group: C 2/M
;
_chemical_formula_sum "Si O2"
_cell_formula_units_Z 48
_cell_length_a 21.083397
_cell_length_b 7.714501
_cell_length_c 25.727908
_cell_angle_alpha 90.000000
_cell_angle_beta 34.232027
_cell_angle_gamma 90.000000
_cell_volume 2354.022661
_symmetry_space_group_name_H-M "C 2/M"
_symmetry_group_IT_number 12
_symmetry_cell_setting 'monoclinic'
loop_
_space_group_symop_operation_xyz
x,y,z
-x,y,-z
-x,-y,-z
x,-y,z
1/2+x,1/2+y,z
1/2-x,1/2+y,-z
1/2-x,1/2-y,-z
1/2+x,1/2-y,z
loop_
_atom_site_type_symbol
_atom_site_label
_atom_site_fract_x
_atom_site_fract_y
_atom_site_fract_z
Si Si1 0.714205 0.793728 0.106877
Si Si2 0.343008 0.293726 0.295594
Si Si3 0.395906 0.797219 0.714827
Si Si4 0.883623 0.713072 0.606003
Si Si5 0.129282 0.207289 0.606176
Si Si6 0.421070 0.206891 0.902463
O O1 0.675247 0.721575 0.188726
O O2 0.638620 0.723699 0.110120
O O3 0.693774 0.000000 0.122200
O O4 0.842997 0.765322 0.002930
O O5 0.329505 0.500000 0.310598
O O6 0.225898 0.227762 0.351637
O O7 0.371575 0.225586 0.333834
O O8 0.449550 0.261390 0.186479
O O9 0.378998 0.725065 0.668707
O O10 0.526375 0.783862 0.643189
O O11 0.365382 0.000000 0.731726
O O12 0.883524 0.500000 0.606380
O O13 0.000000 0.766141 0.500000
O O14 0.250000 0.250000 0.500000
O O15 0.114018 0.000000 0.616785
O O16 0.416369 0.000000 0.904259
#
# Coordination Sequence:
#
# PCOD9181571 Si02
#       6
#     8   8   8   8   8   8
#     4   9  18  32  52  79 108 139 175 218 268 321
#     4  10  20  35  55  80 107 141 181 220 265 320
#     4  10  19  35  57  80 107 138 178 225 269 313
#     4   9  18  34  56  79 106 142 181 219 264 318
#     4  11  22  34  53  79 108 139 177 224 269 316
#     4  10  19  32  53  80 109 140 174 221 271 317
#
# _framework density 20.390628
#
# number of rings (size 3 to 8) (size 9 to 14) (size 15 to 20)
#    0.000    2.167    1.667    2.000    0.000    4.667 
#    0.000    1.667    0.000    7.000    0.000    0.000 
#    0.000    0.000    0.000    0.000    0.000    0.000 
#
# Total GULP energy -134000.922580 kJ/mol
# GULP energy per Si atom -5583.371774 kJ/mol
# Density = 2.034422 g / cm^3
# Si number density = 20.390628 Si / 1000 Ang^3
#
#
#
# Elastic Constant Matrix: (Units=GPa)
#
#
# Indices 1 2 3 4 5 6 
#
# 1 36.4203 -2.4325 -2.6360 -0.0005 7.3407 0.0012
# 2 -2.4325 31.5808 -16.5952 -0.0003 7.7811 0.0009
# 3 -2.6360 -16.5952 98.5225 -0.0005 0.2878 0.0007
# 4 -0.0005 -0.0003 -0.0005 20.9849 0.0001 -4.5090
# 5 7.3407 7.7811 0.2878 0.0001 31.5385 -0.0004
# 6 0.0012 0.0009 0.0007 -4.5090 -0.0004 9.7213
#
#
#
# Elastic Compliance Matrix: (Units=1/GPa)
#
#
# Indices 1 2 3 4 5 6 
#
# 1 0.029573 0.005179 0.001688 0.000000 -0.008177 -0.000005
# 2 0.005179 0.038163 0.006598 0.000000 -0.010681 -0.000005
# 3 0.001688 0.006598 0.011313 0.000000 -0.002124 -0.000002
# 4 0.000000 0.000000 0.000000 0.052928 0.000000 0.024549
# 5 -0.008177 -0.010681 -0.002124 0.000000 0.036265 0.000004
# 6 -0.000005 -0.000005 -0.000002 0.024549 0.000004 0.114253
#
#
# Mechanical properties :
#
#
# Convention : Reuss Voigt Hill
#
# Bulk Modulus (GPa) = 9.43592 13.68845 11.56219
# Shear Modulus (GPa) = 17.18852 24.99475 21.09164
#
# Velocity S-wave (km/s) = 2.90653 3.50494 3.21967
# Velocity P-wave (km/s) = 3.98767 4.80699 4.41637
#
# Compressibility (1/GPa) = 0.10597797
#
# Stress axis : x y z
#
# Youngs Moduli (GPa) = 33.81427 26.20367 88.39647
#
# Poissons Ratio (x) = -0.13572 -0.14917
# Poissons Ratio (y) = -0.17513 -0.58323
# Poissons Ratio (z) = -0.05706 -0.17289
#
# Static dielectric constant tensor:
#      x y z
#    x 1.719930 0.000000 0.029160 
#    y 0.000000 1.754680 0.000000 
#    z 0.029160 0.000000 1.717450 
# 
# From -- ./inp_files/229296.got.cif
#   From: 2010.05.17/outbox.cif.g08.bks.cpg/sg12_115_cif.got.tgz:229296.got - 2010.06.03 13:09:07.
