data_PCOD9181022
_publ_section_title
;
Structure prediction by ZEFSAII (Michael W. Deem and Ramdas Pophale) SiO2 
 PCOD9181022
Probable space group: C 2/M
;
_chemical_formula_sum "Si O2"
_cell_formula_units_Z 64
_cell_length_a 19.499831
_cell_length_b 8.242753
_cell_length_c 22.370249
_cell_angle_alpha 90.000000
_cell_angle_beta 102.726024
_cell_angle_gamma 90.000000
_cell_volume 3507.293441
_symmetry_space_group_name_H-M "C 2/M"
_symmetry_group_IT_number 12
_symmetry_cell_setting 'monoclinic'
loop_
_space_group_symop_operation_xyz
x,y,z
-x,y,-z
-x,-y,-z
x,-y,z
1/2+x,1/2+y,z
1/2-x,1/2+y,-z
1/2-x,1/2-y,-z
1/2+x,1/2-y,z
loop_
_atom_site_type_symbol
_atom_site_label
_atom_site_fract_x
_atom_site_fract_y
_atom_site_fract_z
Si Si1 0.030866 0.301201 0.323618
Si Si2 0.647615 0.307719 0.811504
Si Si3 0.687312 0.307054 0.946151
Si Si4 0.347987 0.196088 0.563190
Si Si5 0.192053 0.193793 0.570840
Si Si6 0.529828 0.804127 0.942764
Si Si7 0.992825 0.309979 0.809164
Si Si8 0.129575 0.306885 0.683623
O O1 0.031442 0.500000 0.322702
O O2 0.089262 0.247809 0.381945
O O3 0.044305 0.244267 0.257787
O O4 0.952105 0.251370 0.327617
O O5 0.632109 0.500000 0.811892
O O6 0.696656 0.266234 0.877359
O O7 0.575418 0.209964 0.808905
O O8 0.669929 0.266824 0.748627
O O9 0.682778 0.500000 0.949549
O O10 0.611892 0.237188 0.951335
O O11 0.750000 0.250000 0.000000
O O12 0.272113 0.250719 0.573806
O O13 0.352285 0.253525 0.495709
O O14 0.348362 0.000000 0.563033
O O15 0.162128 0.260222 0.626753
O O16 0.192867 0.000000 0.574072
O O17 0.488902 0.741070 0.875589
O O18 0.523616 0.000000 0.941002
O O19 0.500000 0.743736 0.000000
O O20 0.974748 0.500000 0.809405
O O21 0.130041 0.500000 0.690126
#
# Coordination Sequence:
#
# PCOD9181022 Si02
#       8
#     8   8   8   8   8   8   8   8
#     4   8  15  29  50  72  89 116 160 200 233 275
#     4   9  17  30  48  71  97 125 159 198 241 286
#     4  10  20  33  51  73  99 132 168 207 249 294
#     4   9  18  34  52  67  90 126 164 197 233 283
#     4  10  20  33  49  70  97 127 158 194 238 285
#     4   9  17  30  49  73 101 132 166 204 246 295
#     4   8  14  27  47  69  94 125 159 194 238 290
#     4  10  19  32  52  74  96 123 156 195 237 285
#
# _framework density 18.247688
#
# number of rings (size 3 to 8) (size 9 to 14) (size 15 to 20)
#    0.000    2.875    0.000    2.250    0.000    2.750 
#    0.000    6.875    0.000    4.500    0.000    0.000 
#    0.000    0.000    0.000    0.000    0.000    0.000 
#
# Total GULP energy -178202.892030 kJ/mol
# GULP energy per Si atom -5568.840376 kJ/mol
# Density = 1.820616 g / cm^3
# Si number density = 18.247688 Si / 1000 Ang^3
#
#
#
# Elastic Constant Matrix: (Units=GPa)
#
#
# Indices 1 2 3 4 5 6 
#
# 1 44.4005 7.7382 70.8752 0.0000 -0.5244 0.0000
# 2 7.7382 17.5981 19.9288 0.0000 0.4813 0.0000
# 3 70.8752 19.9288 213.6103 0.0000 -4.5645 0.0000
# 4 0.0000 0.0000 0.0000 24.7224 0.0000 -0.7212
# 5 -0.5244 0.4813 -4.5645 0.0000 31.5530 0.0000
# 6 0.0000 0.0000 0.0000 -0.7212 0.0000 16.7097
#
#
#
# Elastic Compliance Matrix: (Units=1/GPa)
#
#
# Indices 1 2 3 4 5 6 
#
# 1 0.048131 -0.003361 -0.015686 0.000000 -0.001418 0.000000
# 2 -0.003361 0.063878 -0.004881 0.000000 -0.001736 0.000000
# 3 -0.015686 -0.004881 0.010370 0.000000 0.001314 0.000000
# 4 0.000000 0.000000 0.000000 0.040500 0.000000 0.001748
# 5 -0.001418 -0.001736 0.001314 0.000000 0.031886 0.000000
# 6 0.000000 0.000000 0.000000 0.001748 0.000000 0.059921
#
#
# Mechanical properties :
#
#
# Convention : Reuss Voigt Hill
#
# Bulk Modulus (GPa) = 13.41915 52.52145 32.97030
# Shear Modulus (GPa) = 15.27259 26.40146 20.83703
#
# Velocity S-wave (km/s) = 2.89617 3.80786 3.38287
# Velocity P-wave (km/s) = 4.30738 6.94104 5.77631
#
# Compressibility (1/GPa) = 0.07452037
#
# Stress axis : x y z
#
# Youngs Moduli (GPa) = 20.77653 15.65490 96.43556
#
# Poissons Ratio (x) = 0.05262 1.51273
# Poissons Ratio (y) = 0.06984 0.47073
# Poissons Ratio (z) = 0.32591 0.07642
#
# Static dielectric constant tensor:
#      x y z
#    x 1.621360 0.000000 0.008460 
#    y 0.000000 1.639730 0.000000 
#    z 0.008460 0.000000 1.678380 
# 
# From -- ./inp_files/319239.got.cif
#   From: 2010.05.17/outbox.cif.g08.bks.cpg/sg12_160_cif.got.tgz:319239.got - 2010.06.03 13:09:07.
