data_PCOD9181135
_publ_section_title
;
Structure prediction by ZEFSAII (Michael W. Deem and Ramdas Pophale) SiO2 
 PCOD9181135
Probable space group: C 2/M
;
_chemical_formula_sum "Si O2"
_cell_formula_units_Z 64
_cell_length_a 28.423485
_cell_length_b 7.779386
_cell_length_c 14.898968
_cell_angle_alpha 90.000000
_cell_angle_beta 75.655982
_cell_angle_gamma 90.000000
_cell_volume 3191.717748
_symmetry_space_group_name_H-M "C 2/M"
_symmetry_group_IT_number 12
_symmetry_cell_setting 'monoclinic'
loop_
_space_group_symop_operation_xyz
x,y,z
-x,y,-z
-x,-y,-z
x,-y,z
1/2+x,1/2+y,z
1/2-x,1/2+y,-z
1/2-x,1/2-y,-z
1/2+x,1/2-y,z
loop_
_atom_site_type_symbol
_atom_site_label
_atom_site_fract_x
_atom_site_fract_y
_atom_site_fract_z
Si Si1 0.386060 0.203004 0.595515
Si Si2 0.320182 0.698702 0.775068
Si Si3 0.412195 0.211605 0.386168
Si Si4 0.639938 0.289303 0.059071
Si Si5 0.984567 0.303028 0.612721
Si Si6 0.713310 0.698492 0.872254
Si Si7 0.129781 0.297130 0.780802
Si Si8 0.944592 0.791573 0.031060
O O1 0.336796 0.222807 0.673318
O O2 0.388870 0.267428 0.492073
O O3 0.430997 0.276956 0.633517
O O4 0.396415 0.000000 0.583386
O O5 0.332967 0.500000 0.761918
O O6 0.349806 0.773096 0.845779
O O7 0.263620 0.713412 0.824783
O O8 0.468505 0.271981 0.359743
O O9 0.383271 0.267093 0.312101
O O10 0.413214 0.000000 0.384174
O O11 0.641156 0.500000 0.058640
O O12 0.683684 0.232688 0.972344
O O13 0.589399 0.238037 0.036700
O O14 0.980269 0.500000 0.647354
O O15 0.000000 0.307563 0.500000
O O16 0.724807 0.500000 0.884639
O O17 0.675171 0.710783 0.808667
O O18 0.140314 0.500000 0.771356
O O19 0.083418 0.269486 0.867060
O O20 0.944593 0.000000 0.032658
O O21 0.000000 0.732159 0.000000
#
# Coordination Sequence:
#
# PCOD9181135 Si02
#       8
#     8   8   8   8   8   8   8   8
#     4   9  17  31  50  73 101 133 168 201 238 291
#     4  11  21  33  50  74 102 127 157 206 260 294
#     4   8  15  29  50  74 101 133 167 203 242 288
#     4   8  17  33  52  73  98 129 163 199 241 292
#     4   7  11  23  45  69  92 123 162 197 227 269
#     4  10  20  37  56  72  93 126 168 205 246 305
#     4  10  19  32  52  77 102 129 165 209 253 290
#     4   9  18  34  53  74 105 142 172 197 233 288
#
# _framework density 20.051898000000001
#
# number of rings (size 3 to 8) (size 9 to 14) (size 15 to 20)
#    0.000    3.000    0.000    3.750    0.000    1.250 
#    0.000    7.500    0.000    4.125    0.000    0.000 
#    0.000    0.000    0.000    0.000    0.000    0.000 
#
# Total GULP energy -178360.007346 kJ/mol
# GULP energy per Si atom -5573.750230 kJ/mol
# Density = 2.000626 g / cm^3
# Si number density = 20.051898 Si / 1000 Ang^3
#
#
#
# Elastic Constant Matrix: (Units=GPa)
#
#
# Indices 1 2 3 4 5 6 
#
# 1 66.4676 -4.2455 50.6470 0.0000 -5.9049 0.0000
# 2 -4.2455 27.6639 -0.8977 0.0000 -0.3642 0.0000
# 3 50.6470 -0.8977 85.7222 0.0000 12.6729 0.0000
# 4 0.0000 0.0000 0.0000 113.3355 0.0000 -139.8817
# 5 -5.9049 -0.3642 12.6729 0.0000 29.3014 0.0000
# 6 0.0000 0.0000 0.0000 -139.8817 0.0000 203.7721
#
#
#
# Elastic Compliance Matrix: (Units=1/GPa)
#
#
# Indices 1 2 3 4 5 6 
#
# 1 0.033927 0.004697 -0.022451 0.000000 0.016605 0.000000
# 2 0.004697 0.036813 -0.002774 0.000000 0.002604 0.000000
# 3 -0.022451 -0.002774 0.027322 0.000000 -0.016376 0.000000
# 4 0.000000 0.000000 0.000000 0.057763 0.000000 0.039652
# 5 0.016605 0.002604 -0.016376 0.000000 0.044589 0.000000
# 6 0.000000 0.000000 0.000000 0.039652 0.000000 0.032127
#
#
# Mechanical properties :
#
#
# Convention : Reuss Voigt Hill
#
# Bulk Modulus (GPa) = 17.54215 30.09568 23.81891
# Shear Modulus (GPa) = 17.08814 78.23846 47.66330
#
# Velocity S-wave (km/s) = 2.92241 6.25321 4.88073
# Velocity P-wave (km/s) = 4.48939 8.19624 6.60806
#
# Compressibility (1/GPa) = 0.05700556
#
# Stress axis : x y z
#
# Youngs Moduli (GPa) = 29.47489 27.16410 36.60053
#
# Poissons Ratio (x) = -0.12758 0.82171
# Poissons Ratio (y) = -0.13844 0.10154
# Poissons Ratio (z) = 0.66174 0.07536
#
# Static dielectric constant tensor:
#      x y z
#    x 1.718760 0.000000 0.006460 
#    y 0.000000 1.734030 0.000000 
#    z 0.006460 0.000000 1.700830 
# 
# From -- ./inp_files/243811.got.cif
#   From: 2010.05.17/outbox.cif.g08.bks.cpg/sg12_122_cif.got.tgz:243811.got - 2010.06.03 13:09:07.
