data_PCOD9181201
_publ_section_title
;
Structure prediction by ZEFSAII (Michael W. Deem and Ramdas Pophale) SiO2 
 PCOD9181201
Probable space group: C 2/M
;
_chemical_formula_sum "Si O2"
_cell_formula_units_Z 64
_cell_length_a 20.700279
_cell_length_b 11.008692
_cell_length_c 15.833981
_cell_angle_alpha 90.000000
_cell_angle_beta 114.101089
_cell_angle_gamma 90.000000
_cell_volume 3293.747017
_symmetry_space_group_name_H-M "C 2/M"
_symmetry_group_IT_number 12
_symmetry_cell_setting 'monoclinic'
loop_
_space_group_symop_operation_xyz
x,y,z
-x,y,-z
-x,-y,-z
x,-y,z
1/2+x,1/2+y,z
1/2-x,1/2+y,-z
1/2-x,1/2-y,-z
1/2+x,1/2-y,z
loop_
_atom_site_type_symbol
_atom_site_label
_atom_site_fract_x
_atom_site_fract_y
_atom_site_fract_z
Si Si1 0.258727 0.366456 0.248386
Si Si2 0.947641 0.641303 0.317225
Si Si3 0.829345 0.256300 0.137360
Si Si4 0.603115 0.135798 0.216455
Si Si5 0.605990 0.855864 0.411501
Si Si6 0.183358 0.132300 0.041665
Si Si7 0.441732 0.635051 0.895619
Si Si8 0.324191 0.857142 0.384246
O O1 0.278887 0.500000 0.294964
O O2 0.296300 0.350200 0.177928
O O3 0.173938 0.367253 0.198267
O O4 0.279447 0.246697 0.313068
O O5 0.955771 0.500000 0.297678
O O6 0.901663 0.703733 0.219611
O O7 0.899394 0.644679 0.375084
O O8 0.025761 0.693296 0.374321
O O9 0.765516 0.353655 0.109560
O O10 0.835794 0.225440 0.042538
O O11 0.627746 0.157360 0.326021
O O12 0.555288 0.248246 0.162653
O O13 0.570453 0.000000 0.195424
O O14 0.660232 0.814738 0.511906
O O15 0.600722 0.000000 0.426723
O O16 0.133239 0.140328 0.095686
O O17 0.170794 0.000000 0.997222
O O18 0.448450 0.500000 0.859546
O O19 0.500000 0.643596 0.000000
O O20 0.298926 0.000000 0.366566
#
# Coordination Sequence:
#
# PCOD9181201 Si02
#       8
#     8   8   8   8   8   8   8   8
#     4  10  20  35  53  77 109 140 170 214 263 309
#     4   9  17  30  52  80 106 132 173 220 261 306
#     4  10  19  32  52  78 101 141 171 218 259 316
#     4  10  21  37  56  78 106 140 177 216 262 309
#     4   9  18  33  53  78 107 136 172 219 262 307
#     4  10  20  34  52  75 104 137 178 221 258 308
#     4  10  22  39  57  77 107 143 177 216 263 310
#     4   9  18  33  56  81 104 137 174 212 261 313
#
# _framework density 19.430758000000001
#
# number of rings (size 3 to 8) (size 9 to 14) (size 15 to 20)
#    0.000    2.375    1.250    1.125    1.750    3.250 
#    0.000    1.250    0.000    6.750    0.000    0.000 
#    0.000    0.000    0.000    0.000    0.000    0.000 
#
# Total GULP energy -178195.360483 kJ/mol
# GULP energy per Si atom -5568.605015 kJ/mol
# Density = 1.938653 g / cm^3
# Si number density = 19.430758 Si / 1000 Ang^3
#
#
#
# Elastic Constant Matrix: (Units=GPa)
#
#
# Indices 1 2 3 4 5 6 
#
# 1 16.5904 8.0807 -17.0023 0.0000 0.8046 0.0000
# 2 8.0807 107.2124 37.1677 0.0000 -2.8530 0.0000
# 3 -17.0023 37.1677 63.2861 0.0000 0.2230 0.0000
# 4 0.0000 0.0000 0.0000 27.1320 0.0000 -3.2203
# 5 0.8046 -2.8530 0.2230 0.0000 9.2051 0.0000
# 6 0.0000 0.0000 0.0000 -3.2203 0.0000 30.6642
#
#
#
# Elastic Compliance Matrix: (Units=1/GPa)
#
#
# Indices 1 2 3 4 5 6 
#
# 1 0.125719 -0.027323 0.049895 0.000000 -0.020666 0.000000
# 2 -0.027323 0.017784 -0.017814 0.000000 0.008332 0.000000
# 3 0.049895 -0.017814 0.039706 0.000000 -0.010845 0.000000
# 4 0.000000 0.000000 0.000000 0.037322 0.000000 0.003920
# 5 -0.020666 0.008332 -0.010845 0.000000 0.113287 0.000000
# 6 0.000000 0.000000 0.000000 0.003920 0.000000 0.033023
#
#
# Mechanical properties :
#
#
# Convention : Reuss Voigt Hill
#
# Bulk Modulus (GPa) = 5.18874 27.06458 16.12666
# Shear Modulus (GPa) = 11.86049 23.98977 17.92513
#
# Velocity S-wave (km/s) = 2.47330 3.51754 3.04059
# Velocity P-wave (km/s) = 3.29127 5.51873 4.54362
#
# Compressibility (1/GPa) = 0.19272497
#
# Stress axis : x y z
#
# Youngs Moduli (GPa) = 7.95424 56.23009 25.18489
#
# Poissons Ratio (x) = 1.53635 -1.25659
# Poissons Ratio (y) = 0.21733 0.44865
# Poissons Ratio (z) = -0.39687 1.00170
#
# Static dielectric constant tensor:
#      x y z
#    x 1.692770 0.000000 -0.008600 
#    y 0.000000 1.721790 0.000000 
#    z -0.008600 0.000000 1.692710 
# 
# From -- ./inp_files/232531.got.cif
#   From: 2010.05.17/outbox.cif.g08.bks.cpg/sg12_117_cif.got.tgz:232531.got - 2010.06.03 13:09:07.
