data_PCOD9181416
_publ_section_title
;
Structure prediction by ZEFSAII (Michael W. Deem and Ramdas Pophale) SiO2 
 PCOD9181416
Probable space group: C 2/M
;
_chemical_formula_sum "Si O2"
_cell_formula_units_Z 56
_cell_length_a 19.265389
_cell_length_b 8.148667
_cell_length_c 25.865681
_cell_angle_alpha 90.000000
_cell_angle_beta 41.009769
_cell_angle_gamma 90.000000
_cell_volume 2664.503865
_symmetry_space_group_name_H-M "C 2/M"
_symmetry_group_IT_number 12
_symmetry_cell_setting 'monoclinic'
loop_
_space_group_symop_operation_xyz
x,y,z
-x,y,-z
-x,-y,-z
x,-y,z
1/2+x,1/2+y,z
1/2-x,1/2+y,-z
1/2-x,1/2-y,-z
1/2+x,1/2-y,z
loop_
_atom_site_type_symbol
_atom_site_label
_atom_site_fract_x
_atom_site_fract_y
_atom_site_fract_z
Si Si1 0.166321 0.191849 0.669873
Si Si2 0.695567 0.806655 0.258293
Si Si3 0.048992 0.193543 0.248369
Si Si4 0.290766 0.189607 0.921625
Si Si5 0.077175 0.697881 0.003343
Si Si6 0.614353 0.200424 0.417208
Si Si7 0.095396 0.309011 0.819267
O O1 0.285420 0.260480 0.605158
O O2 0.125801 0.207098 0.751801
O O3 0.070352 0.262046 0.689895
O O4 0.174917 0.000000 0.651693
O O5 0.619217 0.773195 0.253468
O O6 0.638320 0.757026 0.344181
O O7 0.807275 0.712755 0.195375
O O8 0.719079 0.000000 0.247675
O O9 0.110968 0.219358 0.159601
O O10 0.043575 0.000000 0.261684
O O11 0.318986 0.000000 0.909726
O O12 0.250000 0.250000 0.000000
O O13 0.189885 0.216355 0.940936
O O14 0.092844 0.500000 0.993140
O O15 0.012305 0.738460 0.091892
O O16 0.000000 0.743292 0.000000
O O17 0.500000 0.257897 0.500000
O O18 0.614738 0.000000 0.419569
O O19 0.088649 0.500000 0.808301
#
# Coordination Sequence:
#
# PCOD9181416 Si02
#       7
#     8   8   8   8   8   8   8
#     4   9  19  34  54  78 103 138 179 217 261 316
#     4  10  20  34  55  82 110 143 183 222 266 321
#     4  11  22  37  55  77 110 145 181 226 272 319
#     4  12  25  39  56  78 107 144 186 229 275 324
#     4  10  21  36  53  75 104 138 178 225 276 323
#     4   8  15  32  58  84 109 139 177 218 261 316
#     4  10  19  32  53  77 103 138 178 222 270 320
#
# _framework density 21.017045
#
# number of rings (size 3 to 8) (size 9 to 14) (size 15 to 20)
#    0.000    2.000    0.000    5.143    0.000    6.000 
#    0.000    0.714    0.000   10.714    0.000    0.000 
#    0.000    0.000    0.000    0.000    0.000    0.000 
#
# Total GULP energy -156409.061264 kJ/mol
# GULP energy per Si atom -5586.037902 kJ/mol
# Density = 2.096921 g / cm^3
# Si number density = 21.017045 Si / 1000 Ang^3
#
#
#
# Elastic Constant Matrix: (Units=GPa)
#
#
# Indices 1 2 3 4 5 6 
#
# 1 96.6253 -4.8328 20.4018 0.0000 -27.5400 0.0000
# 2 -4.8328 25.0017 2.3908 0.0001 -1.8628 -0.0001
# 3 20.4018 2.3908 90.2248 0.0000 -33.1128 -0.0001
# 4 0.0000 0.0001 0.0000 13.6595 0.0000 -0.0110
# 5 -27.5400 -1.8628 -33.1128 0.0000 34.8436 0.0000
# 6 0.0000 -0.0001 -0.0001 -0.0110 0.0000 23.3338
#
#
#
# Elastic Compliance Matrix: (Units=1/GPa)
#
#
# Indices 1 2 3 4 5 6 
#
# 1 0.013750 0.003449 0.001314 0.000000 0.012301 0.000000
# 2 0.003449 0.041033 -0.000095 0.000000 0.004830 0.000000
# 3 0.001314 -0.000095 0.017149 0.000000 0.017331 0.000000
# 4 0.000000 0.000000 0.000000 0.073209 0.000000 0.000035
# 5 0.012301 0.004830 0.017331 0.000000 0.055151 0.000000
# 6 0.000000 0.000000 0.000000 0.000035 0.000000 0.042856
#
#
# Mechanical properties :
#
#
# Convention : Reuss Voigt Hill
#
# Bulk Modulus (GPa) = 12.30485 27.53016 19.91750
# Shear Modulus (GPa) = 19.16428 27.29352 23.22890
#
# Velocity S-wave (km/s) = 3.02295 3.60757 3.32812
# Velocity P-wave (km/s) = 4.24873 5.52088 4.92605
#
# Compressibility (1/GPa) = 0.08126878
#
# Stress axis : x y z
#
# Youngs Moduli (GPa) = 72.72509 24.37076 58.31138
#
# Poissons Ratio (x) = -0.08405 -0.07662
# Poissons Ratio (y) = -0.25082 0.00552
# Poissons Ratio (z) = -0.09556 0.00231
#
# Static dielectric constant tensor:
#      x y z
#    x 1.815440 0.000000 -0.017070 
#    y 0.000000 1.726630 0.000000 
#    z -0.017070 0.000000 1.741930 
# 
# From -- ./inp_files/362926.got.cif
#   From: 2010.05.17/outbox.cif.g08.bks.cpg/sg12_182_cif.got.tgz:362926.got - 2010.06.03 13:09:07.
