data_PCOD9181439
_publ_section_title
;
Structure prediction by ZEFSAII (Michael W. Deem and Ramdas Pophale) SiO2 
 PCOD9181439
Probable space group: C 2/M
;
_chemical_formula_sum "Si O2"
_cell_formula_units_Z 64
_cell_length_a 17.564702
_cell_length_b 15.004811
_cell_length_c 16.161576
_cell_angle_alpha 90.000000
_cell_angle_beta 127.218428
_cell_angle_gamma 90.000000
_cell_volume 3391.962618
_symmetry_space_group_name_H-M "C 2/M"
_symmetry_group_IT_number 12
_symmetry_cell_setting 'monoclinic'
loop_
_space_group_symop_operation_xyz
x,y,z
-x,y,-z
-x,-y,-z
x,-y,z
1/2+x,1/2+y,z
1/2-x,1/2+y,-z
1/2-x,1/2-y,-z
1/2+x,1/2-y,z
loop_
_atom_site_type_symbol
_atom_site_label
_atom_site_fract_x
_atom_site_fract_y
_atom_site_fract_z
Si Si1 0.320252 0.758062 0.352865
Si Si2 0.488529 0.182768 0.840839
Si Si3 0.231961 0.895480 0.065935
Si Si4 0.423433 0.185216 0.268836
Si Si5 0.890663 0.602141 0.532458
Si Si6 0.144247 0.770480 0.131259
Si Si7 0.174216 0.603212 0.042543
Si Si8 0.293285 0.897138 0.642226
O O1 0.388019 0.748620 0.317172
O O2 0.367571 0.827837 0.446113
O O3 0.221412 0.798142 0.251247
O O4 0.288173 0.668917 0.378644
O O5 0.531140 0.224688 0.785052
O O6 0.453827 0.252976 0.886002
O O7 0.393519 0.128710 0.752673
O O8 0.569469 0.119928 0.933366
O O9 0.331461 0.870007 0.177171
O O10 0.153004 0.837127 0.060393
O O11 0.214200 0.000000 0.061900
O O12 0.250716 0.875131 0.981509
O O13 0.504692 0.122571 0.361432
O O14 0.885993 0.500000 0.500786
O O15 0.816714 0.614228 0.560202
O O16 0.179879 0.674819 0.118874
O O17 0.183892 0.500000 0.073167
O O18 0.271161 0.000000 0.643616
#
# Coordination Sequence:
#
# PCOD9181439 Si02
#       8
#     8   8   8   8   8   8   8   8
#     4  10  20  31  47  73 104 135 164 198 243 296
#     4   9  18  32  51  76 103 129 160 203 252 293
#     4   9  18  33  52  75 103 132 162 199 245 296
#     4   9  18  32  51  76 103 129 160 203 252 293
#     4  10  19  32  53  78 101 126 161 207 254 296
#     4  10  20  31  47  73 104 135 164 198 243 296
#     4  10  19  32  53  78 101 126 161 207 254 296
#     4   9  18  33  52  75 103 132 162 199 245 296
#
# _framework density 18.868131999999999
#
# number of rings (size 3 to 8) (size 9 to 14) (size 15 to 20)
#    0.000    2.500    0.000    2.250    0.000    9.000 
#    0.000    0.000    0.000    3.750    0.000    3.500 
#    0.000    0.000    0.000    0.000    0.000    0.000 
#
# Total GULP energy -178471.403874 kJ/mol
# GULP energy per Si atom -5577.231371 kJ/mol
# Density = 1.882519 g / cm^3
# Si number density = 18.868132 Si / 1000 Ang^3
#
#
#
# Elastic Constant Matrix: (Units=GPa)
#
#
# Indices 1 2 3 4 5 6 
#
# 1 116.7683 70.3065 18.5810 0.0000 -29.3469 0.0000
# 2 70.3065 53.4835 19.1092 0.0000 -12.4037 0.0000
# 3 18.5810 19.1092 63.6931 0.0000 -8.9533 0.0000
# 4 0.0000 0.0000 0.0000 14.6155 0.0000 -0.9488
# 5 -29.3469 -12.4037 -8.9533 0.0000 20.3558 0.0000
# 6 0.0000 0.0000 0.0000 -0.9488 0.0000 20.1615
#
#
#
# Elastic Compliance Matrix: (Units=1/GPa)
#
#
# Indices 1 2 3 4 5 6 
#
# 1 0.077809 -0.092936 0.013848 0.000000 0.061638 0.000000
# 2 -0.092936 0.134366 -0.021879 0.000000 -0.061734 0.000000
# 3 0.013848 -0.021879 0.020419 0.000000 0.015615 0.000000
# 4 0.000000 0.000000 0.000000 0.068630 0.000000 0.003230
# 5 0.061638 -0.061734 0.015615 0.000000 0.107240 0.000000
# 6 0.000000 0.000000 0.000000 0.003230 0.000000 0.049752
#
#
# Mechanical properties :
#
#
# Convention : Reuss Voigt Hill
#
# Bulk Modulus (GPa) = 32.61444 49.99316 41.30380
# Shear Modulus (GPa) = 7.45857 19.42309 13.44083
#
# Velocity S-wave (km/s) = 1.99037 3.21193 2.67190
# Velocity P-wave (km/s) = 4.75448 6.34893 5.60865
#
# Compressibility (1/GPa) = 0.03066127
#
# Stress axis : x y z
#
# Youngs Moduli (GPa) = 12.85203 7.44234 48.97313
#
# Poissons Ratio (x) = 0.69166 -0.67819
# Poissons Ratio (y) = 1.19442 1.07146
# Poissons Ratio (z) = -0.17798 0.16283
#
# Static dielectric constant tensor:
#      x y z
#    x 1.692610 0.000000 -0.024650 
#    y 0.000000 1.618070 0.000000 
#    z -0.024650 0.000000 1.680420 
# 
# From -- ./inp_files/225249.got.cif
#   From: 2010.05.17/outbox.cif.g08.bks.cpg/sg12_113_cif.got.tgz:225249.got - 2010.06.03 13:09:07.
