data_PCOD9181263
_publ_section_title
;
Structure prediction by ZEFSAII (Michael W. Deem and Ramdas Pophale) SiO2 
 PCOD9181263
Probable space group: C 2/M
;
_chemical_formula_sum "Si O2"
_cell_formula_units_Z 56
_cell_length_a 15.973123
_cell_length_b 7.918607
_cell_length_c 21.112839
_cell_angle_alpha 90.000000
_cell_angle_beta 53.245473
_cell_angle_gamma 90.000000
_cell_volume 2139.585987
_symmetry_space_group_name_H-M "C 2/M"
_symmetry_group_IT_number 12
_symmetry_cell_setting 'monoclinic'
loop_
_space_group_symop_operation_xyz
x,y,z
-x,y,-z
-x,-y,-z
x,-y,z
1/2+x,1/2+y,z
1/2-x,1/2+y,-z
1/2-x,1/2-y,-z
1/2+x,1/2-y,z
loop_
_atom_site_type_symbol
_atom_site_label
_atom_site_fract_x
_atom_site_fract_y
_atom_site_fract_z
Si Si1 0.640797 0.196666 0.834831
Si Si2 0.129791 0.704299 0.115066
Si Si3 0.620796 0.794974 0.257983
Si Si4 0.165628 0.811876 0.685481
Si Si5 0.873187 0.701427 0.019809
Si Si6 0.119443 0.193881 0.447078
Si Si7 0.588694 0.193197 0.590395
O O1 0.766833 0.212881 0.783867
O O2 0.620713 0.273744 0.775111
O O3 0.600675 0.266638 0.921307
O O4 0.611378 0.000000 0.844473
O O5 0.131924 0.500000 0.110999
O O6 0.081990 0.750083 0.204361
O O7 0.249065 0.767288 0.067743
O O8 0.085412 0.764067 0.067389
O O9 0.530818 0.744866 0.346995
O O10 0.632960 0.000000 0.254947
O O11 0.291885 0.794343 0.630246
O O12 0.132366 0.697278 0.641836
O O13 0.137573 0.000000 0.679174
O O14 0.890810 0.500000 0.014981
O O15 0.145431 0.202115 0.510585
O O16 0.000000 0.257816 0.500000
O O17 0.121426 0.000000 0.424960
O O18 0.589339 0.000000 0.568380
#
# Coordination Sequence:
#
# PCOD9181263 Si02
#       7
#     8   8   8   8   8   8   8
#     4  10  19  32  52  79 110 142 179 223 269 317
#     4   8  13  24  43  70 103 136 173 215 261 311
#     4   9  18  32  53  80 109 142 179 221 266 314
#     4  12  25  40  58  79 107 143 181 220 264 314
#     4   8  14  24  42  70 103 137 172 215 264 311
#     4  11  24  42  64  88 112 138 170 211 259 312
#     4  11  23  39  58  81 111 144 179 218 262 313
#
# _framework density 26.173286000000001
#
# number of rings (size 3 to 8) (size 9 to 14) (size 15 to 20)
#    0.000    2.143    0.000    3.857    0.000    5.143 
#    0.000    0.000    0.000    0.857    0.000    6.000 
#    0.000    0.000    0.000    0.000    0.000    0.000 
#
# Total GULP energy -156630.038016 kJ/mol
# GULP energy per Si atom -5593.929929 kJ/mol
# Density = 2.611371 g / cm^3
# Si number density = 26.173286 Si / 1000 Ang^3
#
#
#
# Elastic Constant Matrix: (Units=GPa)
#
#
# Indices 1 2 3 4 5 6 
#
# 1 107.0943 -0.5411 16.1532 0.0000 18.6212 0.0002
# 2 -0.5411 66.9472 16.5951 0.0001 3.1478 0.0005
# 3 16.1532 16.5951 187.0608 0.0000 9.8739 0.0000
# 4 0.0000 0.0001 0.0000 18.4737 0.0000 12.9865
# 5 18.6212 3.1478 9.8739 0.0000 50.5214 0.0001
# 6 0.0002 0.0005 0.0000 12.9865 0.0001 19.5728
#
#
#
# Elastic Compliance Matrix: (Units=1/GPa)
#
#
# Indices 1 2 3 4 5 6 
#
# 1 0.010074 0.000429 -0.000718 0.000000 -0.003599 0.000000
# 2 0.000429 0.015315 -0.001351 0.000000 -0.000848 -0.000001
# 3 -0.000718 -0.001351 0.005567 0.000000 -0.000739 0.000000
# 4 0.000000 0.000000 0.000000 0.101449 0.000000 -0.067311
# 5 -0.003599 -0.000848 -0.000739 0.000000 0.021318 0.000000
# 6 0.000000 -0.000001 0.000000 -0.067311 0.000000 0.095752
#
#
# Mechanical properties :
#
#
# Convention : Reuss Voigt Hill
#
# Bulk Modulus (GPa) = 36.13313 47.27967 41.70640
# Shear Modulus (GPa) = 19.08538 39.63990 29.36264
#
# Velocity S-wave (km/s) = 2.70329 3.89590 3.35304
# Velocity P-wave (km/s) = 4.85582 6.19199 5.56416
#
# Compressibility (1/GPa) = 0.02767543
#
# Stress axis : x y z
#
# Youngs Moduli (GPa) = 99.26668 65.29390 179.63906
#
# Poissons Ratio (x) = -0.02799 0.12897
# Poissons Ratio (y) = -0.04255 0.24268
# Poissons Ratio (z) = 0.07127 0.08821
#
# Static dielectric constant tensor:
#      x y z
#    x 2.182570 0.000000 0.022440 
#    y 0.000000 1.897970 0.000000 
#    z 0.022440 0.000000 2.052230 
# 
# From -- ./inp_files/313772.got.cif
#   From: 2010.05.17/outbox.cif.g08.bks.cpg/sg12_157_cif.got.tgz:313772.got - 2010.06.03 13:09:07.
