data_PCOD9181622
_publ_section_title
;
Structure prediction by ZEFSAII (Michael W. Deem and Ramdas Pophale) SiO2 
 PCOD9181622
Probable space group: C 2/M
;
_chemical_formula_sum "Si O2"
_cell_formula_units_Z 40
_cell_length_a 26.627522
_cell_length_b 7.981967
_cell_length_c 30.267838
_cell_angle_alpha 90.000000
_cell_angle_beta 18.319203
_cell_angle_gamma 90.000000
_cell_volume 2022.000082
_symmetry_space_group_name_H-M "C 2/M"
_symmetry_group_IT_number 12
_symmetry_cell_setting 'monoclinic'
loop_
_space_group_symop_operation_xyz
x,y,z
-x,y,-z
-x,-y,-z
x,-y,z
1/2+x,1/2+y,z
1/2-x,1/2+y,-z
1/2-x,1/2-y,-z
1/2+x,1/2-y,z
loop_
_atom_site_type_symbol
_atom_site_label
_atom_site_fract_x
_atom_site_fract_y
_atom_site_fract_z
Si Si1 0.213246 0.702940 0.467801
Si Si2 0.490098 0.000000 0.953576
Si Si3 0.155195 0.000000 0.340840
Si Si4 0.712223 0.317106 0.909874
Si Si5 0.485231 0.694627 0.738392
Si Si6 0.556844 0.186152 0.367629
O O1 0.205615 0.500000 0.481037
O O2 0.397517 0.754460 0.320226
O O3 0.105529 0.788037 0.595767
O O4 0.122504 0.734617 0.497745
O O5 0.669653 0.000000 0.785506
O O6 0.500000 0.000000 0.000000
O O7 0.399948 0.163776 0.010300
O O8 0.138387 0.830883 0.326834
O O9 0.000000 0.000000 0.500000
O O10 0.632484 0.500000 0.979223
O O11 0.822054 0.285484 0.861341
O O12 0.841204 0.325078 0.762468
O O13 0.447261 0.500000 0.776617
O O14 0.556165 0.000000 0.388546
#
# Coordination Sequence:
#
# PCOD9181622 Si02
#       6
#     8   4   4   8   8   8
#     4   8  15  24  40  70 108 146 172 202 264 324
#     4  12  22  38  58  78 104 148 182 224 280 314
#     4  12  26  40  56  80 106 142 190 230 270 319
#     4  10  19  32  53  81 112 140 177 220 269 324
#     4   9  14  23  41  71 113 144 165 208 262 319
#     4   9  18  34  53  77 111 143 177 223 269 318
#
# _framework density 19.782392999999999
#
# number of rings (size 3 to 8) (size 9 to 14) (size 15 to 20)
#    0.000    2.400    3.000    1.800    4.200    2.400 
#    0.000    0.000    0.000    0.000    0.000    1.400 
#    0.000    0.000    0.000    0.000    0.000    0.000 
#
# Total GULP energy -111349.939215 kJ/mol
# GULP energy per Si atom -5567.496961 kJ/mol
# Density = 1.973737 g / cm^3
# Si number density = 19.782393 Si / 1000 Ang^3
#
#
#
# Elastic Constant Matrix: (Units=GPa)
#
#
# Indices 1 2 3 4 5 6 
#
# 1 14.9909 32.5685 31.7610 0.0019 -32.5332 -0.0010
# 2 32.5685 119.1849 46.7512 -0.0596 -39.9265 -0.0883
# 3 31.7610 46.7512 85.7732 -0.0425 -38.4123 -0.0373
# 4 0.0019 -0.0596 -0.0425 14.3671 -0.0025 -19.9141
# 5 -32.5332 -39.9265 -38.4123 -0.0025 34.1844 0.0010
# 6 -0.0010 -0.0883 -0.0373 -19.9141 0.0010 -24.0377
#
#
#
# Elastic Compliance Matrix: (Units=1/GPa)
#
#
# Indices 1 2 3 4 5 6 
#
# 1 -0.059220 -0.004263 -0.006476 -0.000003 -0.068616 0.000028
# 2 -0.004263 0.013492 -0.001077 -0.000005 0.010491 -0.000043
# 3 -0.006476 -0.001077 0.022787 0.000012 0.018184 -0.000040
# 4 -0.000003 -0.000005 0.000012 0.032399 0.000008 -0.026841
# 5 -0.068616 0.010491 0.018184 0.000008 -0.003363 -0.000070
# 6 0.000028 -0.000043 -0.000040 -0.026841 -0.000070 -0.019364
#
#
# Mechanical properties :
#
#
# Convention : Reuss Voigt Hill
#
# Bulk Modulus (GPa) = -21.47094 49.12337 13.82622
# Shear Modulus (GPa) = -968.92110 12.16067 -478.38021
#
# Velocity S-wave (km/s) = -22.15520 2.48205 -15.56747
# Velocity P-wave (km/s) = 25.79433 5.75325 17.77987
#
# Compressibility (1/GPa) = -0.04657457
#
# Stress axis : x y z
#
# Youngs Moduli (GPa) = -16.88617 74.11712 43.88417
#
# Poissons Ratio (x) = 0.31598 0.28421
# Poissons Ratio (y) = -0.07199 0.04728
# Poissons Ratio (z) = -0.10936 0.07985
#
# Static dielectric constant tensor:
#      x y z
#    x 1.761490 0.000010 -0.024720 
#    y 0.000010 1.737590 0.000010 
#    z -0.024720 0.000010 1.718710 
# 
# From -- ./inp_files/381991.got.cif
#   From: 2010.05.17/outbox.cif.g08.bks.cpg/sg12_191_cif.got.tgz:381991.got - 2010.06.03 13:09:07.
