data_PCOD9181111
_publ_section_title
;
Structure prediction by ZEFSAII (Michael W. Deem and Ramdas Pophale) SiO2 
 PCOD9181111
Probable space group: C 2/M
;
_chemical_formula_sum "Si O2"
_cell_formula_units_Z 40
_cell_length_a 20.877873
_cell_length_b 8.896342
_cell_length_c 18.282062
_cell_angle_alpha 90.000000
_cell_angle_beta 43.591619
_cell_angle_gamma 90.000000
_cell_volume 2341.346768
_symmetry_space_group_name_H-M "C 2/M"
_symmetry_group_IT_number 12
_symmetry_cell_setting 'monoclinic'
loop_
_space_group_symop_operation_xyz
x,y,z
-x,y,-z
-x,-y,-z
x,-y,z
1/2+x,1/2+y,z
1/2-x,1/2+y,-z
1/2-x,1/2-y,-z
1/2+x,1/2-y,z
loop_
_atom_site_type_symbol
_atom_site_label
_atom_site_fract_x
_atom_site_fract_y
_atom_site_fract_z
Si Si1 0.396614 0.320083 0.060915
Si Si2 0.075258 0.827100 0.504048
Si Si3 0.851272 0.820475 0.929761
Si Si4 0.065482 0.678501 0.278310
Si Si5 0.712589 0.319564 0.270333
O O1 0.385140 0.500000 0.080725
O O2 0.316472 0.235531 0.171574
O O3 0.500000 0.278597 0.000000
O O4 0.381918 0.288212 0.987196
O O5 0.169315 0.778948 0.385339
O O6 0.000000 0.825744 0.500000
O O7 0.030838 0.726854 0.603851
O O8 0.083150 0.000000 0.522505
O O9 0.919687 0.750666 0.813140
O O10 0.846269 0.000000 0.924337
O O11 0.750000 0.750000 0.000000
O O12 0.074236 0.500000 0.267705
O O13 0.147563 0.744080 0.262218
O O14 0.704793 0.500000 0.269522
#
# Coordination Sequence:
#
# PCOD9181111 Si02
#       5
#     8   8   8   8   8
#     4  10  22  38  55  77 106 141 178 216 263 317
#     4   8  16  30  47  72 104 136 170 213 265 314
#     4  11  21  34  54  78 107 140 174 217 265 315
#     4  11  20  30  49  78 108 138 173 217 263 310
#     4  10  19  32  52  76 105 139 175 217 263 312
#
# _framework density 17.084184
#
# number of rings (size 3 to 8) (size 9 to 14) (size 15 to 20)
#    0.000    2.000    2.000    4.200    0.000    5.600 
#    0.000    0.000    0.000    1.200    0.000    0.000 
#    0.000    0.000    0.000    0.000    0.000    0.000 
#
# Total GULP energy -111595.520577 kJ/mol
# GULP energy per Si atom -5579.776029 kJ/mol
# Density = 1.704530 g / cm^3
# Si number density = 17.084184 Si / 1000 Ang^3
#
#
#
# Elastic Constant Matrix: (Units=GPa)
#
#
# Indices 1 2 3 4 5 6 
#
# 1 70.9358 43.1038 56.7987 0.0000 -7.0561 0.0000
# 2 43.1038 79.3080 75.6593 -0.0001 0.8365 0.0001
# 3 56.7987 75.6593 179.4246 0.0000 -2.9756 0.0000
# 4 0.0000 -0.0001 0.0000 33.8094 0.0000 -1.8632
# 5 -7.0561 0.8365 -2.9756 0.0000 16.8571 0.0000
# 6 0.0000 0.0001 0.0000 -1.8632 0.0000 15.1374
#
#
#
# Elastic Compliance Matrix: (Units=1/GPa)
#
#
# Indices 1 2 3 4 5 6 
#
# 1 0.023630 -0.009981 -0.003108 0.000000 0.009838 0.000000
# 2 -0.009981 0.025428 -0.007675 0.000000 -0.006795 0.000000
# 3 -0.003108 -0.007675 0.009807 0.000000 0.000811 0.000000
# 4 0.000000 0.000000 0.000000 0.029780 0.000000 0.003666
# 5 0.009838 -0.006795 0.000811 0.000000 0.063920 0.000000
# 6 0.000000 0.000000 0.000000 0.003666 0.000000 0.066513
#
#
# Mechanical properties :
#
#
# Convention : Reuss Voigt Hill
#
# Bulk Modulus (GPa) = 57.68638 75.64358 66.66498
# Shear Modulus (GPa) = 18.76983 23.43455 21.10219
#
# Velocity S-wave (km/s) = 3.31821 3.70768 3.51834
# Velocity P-wave (km/s) = 6.96563 7.91848 7.45729
#
# Compressibility (1/GPa) = 0.01733511
#
# Stress axis : x y z
#
# Youngs Moduli (GPa) = 42.31981 39.32716 101.96527
#
# Poissons Ratio (x) = 0.39253 0.31693
# Poissons Ratio (y) = 0.42240 0.78262
# Poissons Ratio (z) = 0.13154 0.30185
#
# Static dielectric constant tensor:
#      x y z
#    x 1.547880 0.000000 -0.002430 
#    y 0.000000 1.571250 0.000000 
#    z -0.002430 0.000000 1.609140 
# 
# From -- ./inp_files/220584.got.cif
#   From: 2010.05.17/outbox.cif.g08.bks.cpg/sg12_111_cif.got.tgz:220584.got - 2010.06.03 13:09:07.
