data_PCOD9181834
_publ_section_title
;
Structure prediction by ZEFSAII (Michael W. Deem and Ramdas Pophale) SiO2 
 PCOD9181834
Probable space group: C 2/M
;
_chemical_formula_sum "Si O2"
_cell_formula_units_Z 48
_cell_length_a 5.169407
_cell_length_b 14.343793
_cell_length_c 31.547009
_cell_angle_alpha 90.000000
_cell_angle_beta 94.910569
_cell_angle_gamma 90.000000
_cell_volume 2330.590248
_symmetry_space_group_name_H-M "C 2/M"
_symmetry_group_IT_number 12
_symmetry_cell_setting 'monoclinic'
loop_
_space_group_symop_operation_xyz
x,y,z
-x,y,-z
-x,-y,-z
x,-y,z
1/2+x,1/2+y,z
1/2-x,1/2+y,-z
1/2-x,1/2-y,-z
1/2+x,1/2-y,z
loop_
_atom_site_type_symbol
_atom_site_label
_atom_site_fract_x
_atom_site_fract_y
_atom_site_fract_z
Si Si1 0.825585 0.688600 0.772620
Si Si2 0.474533 0.888522 0.137150
Si Si3 0.095507 0.688546 0.316476
Si Si4 0.234373 0.500000 0.470176
Si Si5 0.213704 0.683276 0.411589
Si Si6 0.548959 0.610857 0.908277
Si Si7 0.000000 0.814068 0.000000
O O1 0.532926 0.726050 0.772662
O O2 0.910383 0.634668 0.815550
O O3 0.862257 0.637476 0.727763
O O4 0.185334 0.852403 0.124264
O O5 0.673044 0.853653 0.103815
O O6 0.458465 0.000000 0.133500
O O7 0.300122 0.775124 0.315418
O O8 0.172346 0.646348 0.362700
O O9 0.500000 0.500000 0.500000
O O10 0.220629 0.594326 0.442113
O O11 0.000000 0.500000 0.500000
O O12 0.474983 0.745720 0.417329
O O13 0.559574 0.500000 0.902597
O O14 0.489637 0.629077 0.956332
O O15 0.250000 0.750000 0.000000
#
# Coordination Sequence:
#
# PCOD9181834 Si02
#       7
#     8   8   8   4   8   8   4
#     4  10  19  32  54  81 110 142 178 223 274 324
#     4  10  21  36  54  79 107 140 177 214 258 323
#     4   8  16  32  54  79 108 146 188 225 274 342
#     4  12  26  40  60  94 124 154 212 258 300 373
#     4  10  21  40  63  85 121 164 201 251 309 360
#     4  10  22  40  57  72 105 145 174 208 265 328
#     4  12  25  38  57  84 104 124 174 230 265 310
#
# _framework density 20.59564
#
# number of rings (size 3 to 8) (size 9 to 14) (size 15 to 20)
#    0.000    2.000    0.000    3.250    0.000    6.000 
#    1.500    3.333    0.000    0.000    0.000    0.000 
#    0.000    0.000    0.000    0.000    0.000    0.000 
#
# Total GULP energy -133952.780646 kJ/mol
# GULP energy per Si atom -5581.365860 kJ/mol
# Density = 2.054876 g / cm^3
# Si number density = 20.595640 Si / 1000 Ang^3
#
#
#
# Elastic Constant Matrix: (Units=GPa)
#
#
# Indices 1 2 3 4 5 6 
#
# 1 116.2045 4.7718 9.8656 0.0000 2.2121 0.0000
# 2 4.7718 47.5325 7.8111 0.0000 -0.9608 0.0000
# 3 9.8656 7.8111 111.9664 0.0000 -0.3077 0.0000
# 4 0.0000 0.0000 0.0000 -36.3283 0.0000 -4.9765
# 5 2.2121 -0.9608 -0.3077 0.0000 34.7396 0.0000
# 6 0.0000 0.0000 0.0000 -4.9765 0.0000 10.7260
#
#
#
# Elastic Compliance Matrix: (Units=1/GPa)
#
#
# Indices 1 2 3 4 5 6 
#
# 1 0.008709 -0.000769 -0.000715 0.000000 -0.000582 0.000000
# 2 -0.000769 0.021362 -0.001421 0.000000 0.000627 0.000000
# 3 -0.000715 -0.001421 0.009094 0.000000 0.000087 0.000000
# 4 0.000000 0.000000 0.000000 -0.025882 0.000000 -0.012008
# 5 -0.000582 0.000627 0.000087 0.000000 0.028841 0.000000
# 6 0.000000 0.000000 0.000000 -0.012008 0.000000 0.087660
#
#
# Mechanical properties :
#
#
# Convention : Reuss Voigt Hill
#
# Bulk Modulus (GPa) = 29.98071 35.62225 32.80148
# Shear Modulus (GPa) = 34.08063 18.71111 26.39587
#
# Velocity S-wave (km/s) = 4.07227 3.01740 3.58386
# Velocity P-wave (km/s) = 6.05802 5.42892 5.75208
#
# Compressibility (1/GPa) = 0.03335478
#
# Stress axis : x y z
#
# Youngs Moduli (GPa) = 114.82514 46.81307 109.96702
#
# Poissons Ratio (x) = 0.03598 0.07866
# Poissons Ratio (y) = 0.08824 0.15624
# Poissons Ratio (z) = 0.08214 0.06651
#
# Static dielectric constant tensor:
#      x y z
#    x 1.731710 0.000000 -0.008790 
#    y 0.000000 1.699850 0.000000 
#    z -0.008790 0.000000 1.780030 
# 
# From -- ./inp_files/354824.got.cif
#   From: 2010.05.17/outbox.cif.g08.bks.cpg/sg12_178_cif.got.tgz:354824.got - 2010.06.03 13:09:07.
