data_PCOD9181745
_publ_section_title
;
Structure prediction by ZEFSAII (Michael W. Deem and Ramdas Pophale) SiO2 
 PCOD9181745
Probable space group: C 2/M
;
_chemical_formula_sum "Si O2"
_cell_formula_units_Z 60
_cell_length_a 18.291334
_cell_length_b 30.292064
_cell_length_c 6.240340
_cell_angle_alpha 90.000000
_cell_angle_beta 114.670104
_cell_angle_gamma 90.000000
_cell_volume 3142.067390
_symmetry_space_group_name_H-M "C 2/M"
_symmetry_group_IT_number 12
_symmetry_cell_setting 'monoclinic'
loop_
_space_group_symop_operation_xyz
x,y,z
-x,y,-z
-x,-y,-z
x,-y,z
1/2+x,1/2+y,z
1/2-x,1/2+y,-z
1/2-x,1/2-y,-z
1/2+x,1/2-y,z
loop_
_atom_site_type_symbol
_atom_site_label
_atom_site_fract_x
_atom_site_fract_y
_atom_site_fract_z
Si Si1 0.419822 0.275219 0.535680
Si Si2 0.414187 0.882727 0.281207
Si Si3 0.416014 0.359295 0.825158
Si Si4 0.000000 0.582159 0.000000
Si Si5 0.322289 0.807576 0.403718
Si Si6 0.806688 0.824994 0.065172
Si Si7 0.644326 0.050941 0.455789
Si Si8 0.259333 0.379649 0.389016
O O1 0.500000 0.264445 0.500000
O O2 0.436380 0.312748 0.732005
O O3 0.374489 0.231778 0.563951
O O4 0.356402 0.296643 0.293885
O O5 0.500000 0.885003 0.500000
O O6 0.377237 0.837170 0.315495
O O7 0.363841 0.922331 0.330161
O O8 0.437209 0.889029 0.062509
O O9 0.351455 0.382722 0.588845
O O10 0.500000 0.380888 0.000000
O O11 0.367270 0.349259 0.980233
O O12 0.057813 0.554836 0.228812
O O13 0.283577 0.839717 0.532675
O O14 0.249253 0.795346 0.156147
O O15 0.760710 0.862733 0.146459
O O16 0.709689 0.076987 0.391752
O O17 0.664136 0.000000 0.511664
#
# Coordination Sequence:
#
# PCOD9181745 Si02
#       8
#     8   8   8   4   8   8   8   8
#     4  11  21  33  51  75 104 136 179 221 257 299
#     4   9  19  34  50  73 108 145 179 212 252 301
#     4  10  20  37  56  77 102 135 179 221 261 317
#     4  10  19  32  54  78 106 146 184 210 250 310
#     4  10  20  34  50  73 107 141 175 215 257 305
#     4  10  20  35  53  73 100 135 176 215 265 308
#     4  10  20  35  54  80 109 138 174 218 262 313
#     4   9  21  36  55  77 104 139 175 214 264 317
#
# _framework density 19.095707000000001
#
# number of rings (size 3 to 8) (size 9 to 14) (size 15 to 20)
#    0.000    2.133    1.333    1.800    0.000    8.800 
#    0.000    1.333    1.467    0.400    0.000    0.933 
#    0.000    0.000    0.000    0.000    0.000    0.000 
#
# Total GULP energy -167291.204109 kJ/mol
# GULP energy per Si atom -5576.373470 kJ/mol
# Density = 1.905224 g / cm^3
# Si number density = 19.095707 Si / 1000 Ang^3
#
#
#
# Elastic Constant Matrix: (Units=GPa)
#
#
# Indices 1 2 3 4 5 6 
#
# 1 83.4088 6.6847 10.1003 0.0000 0.1300 0.0000
# 2 6.6847 30.3904 2.8914 0.0000 14.6562 0.0000
# 3 10.1003 2.8914 41.2655 0.0000 -4.5483 0.0000
# 4 0.0000 0.0000 0.0000 9.3049 0.0000 3.5129
# 5 0.1300 14.6562 -4.5483 0.0000 34.8135 0.0000
# 6 0.0000 0.0000 0.0000 3.5129 0.0000 12.5433
#
#
#
# Elastic Compliance Matrix: (Units=1/GPa)
#
#
# Indices 1 2 3 4 5 6 
#
# 1 0.012556 -0.002885 -0.002782 0.000000 0.000804 0.000000
# 2 -0.002885 0.042942 -0.004357 0.000000 -0.018637 0.000000
# 3 -0.002782 -0.004357 0.025794 0.000000 0.005215 0.000000
# 4 0.000000 0.000000 0.000000 0.120177 0.000000 -0.033657
# 5 0.000804 -0.018637 0.005215 0.000000 0.037249 0.000000
# 6 0.000000 0.000000 0.000000 -0.033657 0.000000 0.089150
#
#
# Mechanical properties :
#
#
# Convention : Reuss Voigt Hill
#
# Bulk Modulus (GPa) = 16.32816 21.60195 18.96505
# Shear Modulus (GPa) = 13.57474 20.35821 16.96648
#
# Velocity S-wave (km/s) = 2.66912 3.26868 2.98400
# Velocity P-wave (km/s) = 4.25067 5.05794 4.67178
#
# Compressibility (1/GPa) = 0.06124387
#
# Stress axis : x y z
#
# Youngs Moduli (GPa) = 79.64293 23.28722 38.76813
#
# Poissons Ratio (x) = 0.06718 0.10787
# Poissons Ratio (y) = 0.22976 0.16891
# Poissons Ratio (z) = 0.22161 0.10146
#
# Static dielectric constant tensor:
#      x y z
#    x 1.710110 0.000000 0.010800 
#    y 0.000000 1.648220 0.000000 
#    z 0.010800 0.000000 1.717750 
# 
# From -- ./inp_files/18337.got.cif
#   From: 2010.05.17/outbox.cif.g08.bks.cpg/sg12_10_cif.got.tgz:18337.got - 2010.06.03 13:09:07.
