data_PCOD9181806
_publ_section_title
;
Structure prediction by ZEFSAII (Michael W. Deem and Ramdas Pophale) SiO2 
 PCOD9181806
Probable space group: C 2/M
;
_chemical_formula_sum "Si O2"
_cell_formula_units_Z 44
_cell_length_a 27.031854
_cell_length_b 10.020516
_cell_length_c 11.506703
_cell_angle_alpha 90.000000
_cell_angle_beta 51.399934
_cell_angle_gamma 90.000000
_cell_volume 2435.885007
_symmetry_space_group_name_H-M "C 2/M"
_symmetry_group_IT_number 12
_symmetry_cell_setting 'monoclinic'
loop_
_space_group_symop_operation_xyz
x,y,z
-x,y,-z
-x,-y,-z
x,-y,z
1/2+x,1/2+y,z
1/2-x,1/2+y,-z
1/2-x,1/2-y,-z
1/2+x,1/2-y,z
loop_
_atom_site_type_symbol
_atom_site_label
_atom_site_fract_x
_atom_site_fract_y
_atom_site_fract_z
Si Si1 0.500000 0.748919 0.500000
Si Si2 0.801308 0.657581 0.733354
Si Si3 0.842424 0.838894 0.104570
Si Si4 0.064822 0.842950 0.832520
Si Si5 0.422350 0.849929 0.400076
Si Si6 0.874104 0.154369 0.800950
O O1 0.468458 0.833372 0.443084
O O2 0.442796 0.666581 0.641188
O O3 0.800190 0.500000 0.768222
O O4 0.731083 0.698283 0.797728
O O5 0.851968 0.670685 0.555213
O O6 0.827102 0.749163 0.799542
O O7 0.879690 0.791532 0.163198
O O8 0.845101 0.000000 0.107920
O O9 0.875565 0.803722 0.933833
O O10 0.062487 0.757991 0.719360
O O11 0.074571 0.000000 0.791003
O O12 0.000000 0.833147 0.000000
O O13 0.427449 0.000000 0.346286
O O14 0.852857 0.000000 0.826717
#
# Coordination Sequence:
#
# PCOD9181806 Si02
#       6
#     4   8   8   8   8   8
#     4  10  20  34  54  78 108 138 168 210 266 312
#     4   9  19  35  53  75 106 140 173 212 260 309
#     4   9  18  34  54  75 104 142 175 209 259 311
#     4  10  21  37  56  78 105 138 174 212 257 308
#     4  10  21  36  54  77 104 136 174 214 257 308
#     4  10  19  32  54  81 106 134 175 219 256 303
#
# _framework density 18.06325
#
# number of rings (size 3 to 8) (size 9 to 14) (size 15 to 20)
#    0.000    2.364    0.000    2.182    0.000    6.909 
#    0.000    1.818    0.000    0.000    0.000    0.000 
#    0.000    0.000    0.000    0.000    0.000    0.000 
#
# Total GULP energy -122712.910834 kJ/mol
# GULP energy per Si atom -5577.859583 kJ/mol
# Density = 1.802214 g / cm^3
# Si number density = 18.063250 Si / 1000 Ang^3
#
#
#
# Elastic Constant Matrix: (Units=GPa)
#
#
# Indices 1 2 3 4 5 6 
#
# 1 116.4330 36.7166 55.8135 0.0000 3.4368 0.0000
# 2 36.7166 72.5511 44.7576 0.0000 13.9184 0.0000
# 3 55.8135 44.7576 76.7385 0.0000 11.8206 0.0000
# 4 0.0000 0.0000 0.0000 4.1345 0.0000 4.7032
# 5 3.4368 13.9184 11.8206 0.0000 27.4643 0.0000
# 6 0.0000 0.0000 0.0000 4.7032 0.0000 14.9306
#
#
#
# Elastic Compliance Matrix: (Units=1/GPa)
#
#
# Indices 1 2 3 4 5 6 
#
# 1 0.013495 -0.001690 -0.009319 0.000000 0.003179 0.000000
# 2 -0.001690 0.022672 -0.010985 0.000000 -0.006550 0.000000
# 3 -0.009319 -0.010985 0.026967 0.000000 -0.004873 0.000000
# 4 0.000000 0.000000 0.000000 0.376947 0.000000 -0.118741
# 5 0.003179 -0.006550 -0.004873 0.000000 0.041430 0.000000
# 6 0.000000 0.000000 0.000000 -0.118741 0.000000 0.104381
#
#
# Mechanical properties :
#
#
# Convention : Reuss Voigt Hill
#
# Bulk Modulus (GPa) = 52.23219 60.03309 56.13264
# Shear Modulus (GPa) = 7.85839 17.86819 12.86329
#
# Velocity S-wave (km/s) = 2.08804 3.14857 2.67146
# Velocity P-wave (km/s) = 5.89850 6.82093 6.37642
#
# Compressibility (1/GPa) = 0.01914528
#
# Stress axis : x y z
#
# Youngs Moduli (GPa) = 74.10140 44.10656 37.08252
#
# Poissons Ratio (x) = 0.07456 0.34557
# Poissons Ratio (y) = 0.12526 0.40736
# Poissons Ratio (z) = 0.69055 0.48452
#
# Static dielectric constant tensor:
#      x y z
#    x 1.621780 0.000000 -0.017840 
#    y 0.000000 1.599820 0.000000 
#    z -0.017840 0.000000 1.610830 
# 
# From -- ./inp_files/162989.got.cif
#   From: 2010.05.17/outbox.cif.g08.bks.cpg/sg12_82_cif.got.tgz:162989.got - 2010.06.03 13:09:07.
