data_PCOD9181635
_publ_section_title
;
Structure prediction by ZEFSAII (Michael W. Deem and Ramdas Pophale) SiO2 
 PCOD9181635
Probable space group: C 2/M
;
_chemical_formula_sum "Si O2"
_cell_formula_units_Z 58
_cell_length_a 24.900742
_cell_length_b 7.674278
_cell_length_c 15.160957
_cell_angle_alpha 90.000000
_cell_angle_beta 99.368696
_cell_angle_gamma 90.000000
_cell_volume 2858.541512
_symmetry_space_group_name_H-M "C 2/M"
_symmetry_group_IT_number 12
_symmetry_cell_setting 'monoclinic'
loop_
_space_group_symop_operation_xyz
x,y,z
-x,y,-z
-x,-y,-z
x,-y,z
1/2+x,1/2+y,z
1/2-x,1/2+y,-z
1/2-x,1/2-y,-z
1/2+x,1/2-y,z
loop_
_atom_site_type_symbol
_atom_site_label
_atom_site_fract_x
_atom_site_fract_y
_atom_site_fract_z
Si Si1 0.000000 0.500000 0.000000
Si Si2 0.175292 0.205565 0.430941
Si Si3 0.646710 0.704316 0.124096
Si Si4 0.227359 0.213067 0.824084
Si Si5 0.367616 0.290791 0.074331
Si Si6 0.213041 0.201367 0.625374
Si Si7 0.581911 0.801470 0.278996
Si Si8 0.012025 0.801215 0.859578
O O1 0.992703 0.654562 0.922417
O O2 0.180967 0.275241 0.532348
O O3 0.223456 0.289630 0.385968
O O4 0.117917 0.229059 0.368398
O O5 0.188250 0.000000 0.436721
O O6 0.631903 0.500000 0.125967
O O7 0.711719 0.723136 0.142762
O O8 0.620428 0.790463 0.202420
O O9 0.627503 0.777491 0.024361
O O10 0.184827 0.272591 0.886864
O O11 0.208703 0.275534 0.722181
O O12 0.228952 0.000000 0.824245
O O13 0.360732 0.500000 0.064225
O O14 0.424301 0.260534 0.138870
O O15 0.196314 0.000000 0.628604
O O16 0.526614 0.707872 0.235603
O O17 0.569089 0.000000 0.295187
O O18 0.009338 0.000000 0.894048
#
# Coordination Sequence:
#
# PCOD9181635 Si02
#       8
#     2   8   8   8   8   8   8   8
#     4  12  22  40  60  90 112 154 198 248 292 336
#     4  10  19  32  53  81 114 146 181 234 298 350
#     4  11  21  34  52  82 113 151 190 233 287 339
#     4  10  19  36  56  81 113 152 194 233 280 344
#     4   9  21  38  57  77 113 158 195 236 281 333
#     4   9  18  32  53  82 113 146 184 231 288 351
#     4  12  23  37  56  84 113 151 194 243 296 347
#     4  11  23  41  60  85 118 155 200 246 294 344
#
# _framework density 20.290067000000001
#
# number of rings (size 3 to 8) (size 9 to 14) (size 15 to 20)
#    0.000    1.655    2.069    3.517    0.000    1.655 
#    2.483    0.000    0.000    0.828    0.000    5.793 
#    0.000    0.000    0.000    0.000    0.000    0.000 
#
# Total GULP energy -161688.919421 kJ/mol
# GULP energy per Si atom -5575.479980 kJ/mol
# Density = 2.024389 g / cm^3
# Si number density = 20.290067 Si / 1000 Ang^3
#
#
#
# Elastic Constant Matrix: (Units=GPa)
#
#
# Indices 1 2 3 4 5 6 
#
# 1 68.6783 -10.7756 11.2771 0.0000 17.5263 0.0000
# 2 -10.7756 71.9734 -10.1897 0.0000 -1.4345 0.0000
# 3 11.2771 -10.1897 54.4744 0.0000 17.9024 0.0000
# 4 0.0000 0.0000 0.0000 13.3992 0.0000 6.9140
# 5 17.5263 -1.4345 17.9024 0.0000 30.5764 0.0000
# 6 0.0000 0.0000 0.0000 6.9140 0.0000 16.1892
#
#
#
# Elastic Compliance Matrix: (Units=1/GPa)
#
#
# Indices 1 2 3 4 5 6 
#
# 1 0.017466 0.002433 0.000114 0.000000 -0.009964 0.000000
# 2 0.002433 0.014641 0.003056 0.000000 -0.002496 0.000000
# 3 0.000114 0.003056 0.023378 0.000000 -0.013610 0.000000
# 4 0.000000 0.000000 0.000000 0.095727 0.000000 -0.040882
# 5 -0.009964 -0.002496 -0.013610 0.000000 0.046268 0.000000
# 6 0.000000 0.000000 0.000000 -0.040882 0.000000 0.079229
#
#
# Mechanical properties :
#
#
# Convention : Reuss Voigt Hill
#
# Bulk Modulus (GPa) = 14.99495 19.52774 17.26135
# Shear Modulus (GPa) = 17.37708 25.68723 21.53216
#
# Velocity S-wave (km/s) = 2.92966 3.56195 3.26117
# Velocity P-wave (km/s) = 4.34169 5.15382 4.76508
#
# Compressibility (1/GPa) = 0.06668910
#
# Stress axis : x y z
#
# Youngs Moduli (GPa) = 57.25267 68.30116 42.77552
#
# Poissons Ratio (x) = -0.16614 -0.00487
# Poissons Ratio (y) = -0.13927 -0.13070
# Poissons Ratio (z) = -0.00652 -0.20870
#
# Static dielectric constant tensor:
#      x y z
#    x 1.713990 0.000000 0.026840 
#    y 0.000000 1.744310 0.000000 
#    z 0.026840 0.000000 1.743760 
# 
# From -- ./inp_files/243191.got.cif
#   From: 2010.05.17/outbox.cif.g08.bks.cpg/sg12_122_cif.got.tgz:243191.got - 2010.06.03 13:09:07.
