data_PCOD9181058
_publ_section_title
;
Structure prediction by ZEFSAII (Michael W. Deem and Ramdas Pophale) SiO2 
 PCOD9181058
Probable space group: C 2/M
;
_chemical_formula_sum "Si O2"
_cell_formula_units_Z 64
_cell_length_a 16.110935
_cell_length_b 7.562159
_cell_length_c 19.572756
_cell_angle_alpha 90.000000
_cell_angle_beta 95.849943
_cell_angle_gamma 90.000000
_cell_volume 2372.197928
_symmetry_space_group_name_H-M "C 2/M"
_symmetry_group_IT_number 12
_symmetry_cell_setting 'monoclinic'
loop_
_space_group_symop_operation_xyz
x,y,z
-x,y,-z
-x,-y,-z
x,-y,z
1/2+x,1/2+y,z
1/2-x,1/2+y,-z
1/2-x,1/2-y,-z
1/2+x,1/2-y,z
loop_
_atom_site_type_symbol
_atom_site_label
_atom_site_fract_x
_atom_site_fract_y
_atom_site_fract_z
Si Si1 0.447537 0.794574 0.078751
Si Si2 0.453977 0.218374 0.790749
Si Si3 0.204513 0.214596 0.834888
Si Si4 0.283167 0.787561 0.707048
Si Si5 0.957644 0.703154 0.330324
Si Si6 0.828292 0.288261 0.956717
Si Si7 0.820486 0.706729 0.422693
Si Si8 0.929007 0.794954 0.548042
O O1 0.522806 0.721205 0.131112
O O2 0.370840 0.788573 0.126718
O O3 0.466768 0.000000 0.067791
O O4 0.408640 0.718762 0.005404
O O5 0.368330 0.274396 0.748737
O O6 0.523715 0.280097 0.742132
O O7 0.453563 0.000000 0.792192
O O8 0.213192 0.268382 0.756873
O O9 0.290605 0.267754 0.881040
O O10 0.199397 0.000000 0.837731
O O11 0.262627 0.728046 0.628892
O O12 0.284417 0.000000 0.706055
O O13 0.933246 0.500000 0.318728
O O14 0.045475 0.702024 0.379799
O O15 0.889732 0.785764 0.375518
O O16 0.839433 0.500000 0.953174
O O17 0.750000 0.250000 0.000000
O O18 0.835464 0.500000 0.432731
O O19 0.842703 0.781378 0.498919
O O20 0.000000 0.730285 0.500000
O O21 0.943390 0.000000 0.562715
#
# Coordination Sequence:
#
# PCOD9181058 Si02
#       8
#     8   8   8   8   8   8   8   8
#     4   9  16  29  50  71  91 121 161 198 232 276
#     4   9  18  32  48  67  93 126 161 195 232 274
#     4   9  17  29  46  70  97 123 153 193 240 282
#     4  10  20  33  47  65  95 130 159 191 234 281
#     4   9  17  31  51  72  94 121 155 194 232 272
#     4   8  14  25  43  68  94 118 150 193 236 277
#     4  10  19  32  52  75  96 120 155 195 232 273
#     4   9  17  30  50  76 101 121 147 187 235 282
#
# _framework density 26.979199000000001
#
# number of rings (size 3 to 8) (size 9 to 14) (size 15 to 20)
#    0.000    2.875    0.000    1.500    0.000    3.500 
#    0.000    3.125    0.000    3.750    0.000    0.000 
#    0.000   11.000    0.000    0.000    0.000    0.000 
#
# Total GULP energy -178856.963267 kJ/mol
# GULP energy per Si atom -5589.280102 kJ/mol
# Density = 2.691779 g / cm^3
# Si number density = 26.979199 Si / 1000 Ang^3
#
#
#
# Elastic Constant Matrix: (Units=GPa)
#
#
# Indices 1 2 3 4 5 6 
#
# 1 93.9536 2.8793 39.7380 0.0000 16.9634 0.0000
# 2 2.8793 85.8235 10.5005 0.0000 0.4745 0.0000
# 3 39.7380 10.5005 232.6956 0.0000 13.5207 0.0000
# 4 0.0000 0.0000 0.0000 13.2221 0.0000 9.9129
# 5 16.9634 0.4745 13.5207 0.0000 61.7989 0.0000
# 6 0.0000 0.0000 0.0000 9.9129 0.0000 2.8323
#
#
#
# Elastic Compliance Matrix: (Units=1/GPa)
#
#
# Indices 1 2 3 4 5 6 
#
# 1 0.011957 -0.000157 -0.001868 0.000000 -0.002872 0.000000
# 2 -0.000157 0.011719 -0.000506 0.000000 0.000064 0.000000
# 3 -0.001868 -0.000506 0.004669 0.000000 -0.000505 0.000000
# 4 0.000000 0.000000 0.000000 -0.046572 0.000000 0.162999
# 5 -0.002872 0.000064 -0.000505 0.000000 0.017080 0.000000
# 6 0.000000 0.000000 0.000000 0.162999 0.000000 -0.217414
#
#
# Mechanical properties :
#
#
# Convention : Reuss Voigt Hill
#
# Bulk Modulus (GPa) = 42.94915 57.63426 50.29171
# Shear Modulus (GPa) = -24.30252 39.52766 7.61257
#
# Velocity S-wave (km/s) = -3.00457 3.83184 1.68160
# Velocity P-wave (km/s) = 1.97923 6.40204 4.73833
#
# Compressibility (1/GPa) = 0.02328335
#
# Stress axis : x y z
#
# Youngs Moduli (GPa) = 83.63301 85.33441 214.19647
#
# Poissons Ratio (x) = 0.01337 0.40011
# Poissons Ratio (y) = 0.01311 0.10833
# Poissons Ratio (z) = 0.15622 0.04316
#
# Static dielectric constant tensor:
#      x y z
#    x 2.298440 0.000000 0.107420 
#    y 0.000000 2.014160 0.000000 
#    z 0.107420 0.000000 2.161890 
# 
# From -- ./inp_files/345615.got.cif
#   From: 2010.05.17/outbox.cif.g08.bks.cpg/sg12_173_cif.got.tgz:345615.got - 2010.06.03 13:09:07.
