data_PCOD9181634
_publ_section_title
;
Structure prediction by ZEFSAII (Michael W. Deem and Ramdas Pophale) SiO2 
 PCOD9181634
Probable space group: C 2/M
;
_chemical_formula_sum "Si O2"
_cell_formula_units_Z 56
_cell_length_a 30.273761
_cell_length_b 8.695860
_cell_length_c 22.499495
_cell_angle_alpha 90.000000
_cell_angle_beta 149.622236
_cell_angle_gamma 90.000000
_cell_volume 2995.323788
_symmetry_space_group_name_H-M "C 2/M"
_symmetry_group_IT_number 12
_symmetry_cell_setting 'monoclinic'
loop_
_space_group_symop_operation_xyz
x,y,z
-x,y,-z
-x,-y,-z
x,-y,z
1/2+x,1/2+y,z
1/2-x,1/2+y,-z
1/2-x,1/2-y,-z
1/2+x,1/2-y,z
loop_
_atom_site_type_symbol
_atom_site_label
_atom_site_fract_x
_atom_site_fract_y
_atom_site_fract_z
Si Si1 0.011741 0.686023 0.290632
Si Si2 0.165482 0.317656 0.135051
Si Si3 0.536082 0.316013 0.891271
Si Si4 0.785845 0.314682 0.479794
Si Si5 0.373461 0.314647 0.786277
Si Si6 0.974742 0.686658 0.377200
Si Si7 0.141658 0.313747 0.647831
O O1 0.008513 0.500000 0.284119
O O2 0.971670 0.752309 0.184102
O O3 0.113987 0.731872 0.412745
O O4 0.967243 0.737462 0.300564
O O5 0.162244 0.500000 0.128612
O O6 0.117412 0.258636 0.138677
O O7 0.264849 0.259425 0.253769
O O8 0.118085 0.247103 0.022776
O O9 0.538929 0.500000 0.892889
O O10 0.449674 0.270655 0.828786
O O11 0.783533 0.500000 0.479688
O O12 0.750000 0.250000 0.500000
O O13 0.719283 0.268556 0.350419
O O14 0.375000 0.500000 0.794490
O O15 0.974368 0.500000 0.376757
O O16 0.068572 0.730007 0.514217
O O17 0.899965 0.732505 0.336877
O O18 0.150060 0.500000 0.655886
#
# Coordination Sequence:
#
# PCOD9181634 Si02
#       7
#     8   8   8   8   8   8   8
#     4  10  19  33  55  84 117 147 179 224 277 324
#     4  12  25  38  55  81 111 144 185 233 283 327
#     4  11  23  39  57  77 107 149 193 230 270 328
#     4  10  19  32  53  81 114 146 177 218 266 320
#     4  10  21  38  58  80 108 147 191 229 270 327
#     4   8  16  33  62  91 112 142 181 223 272 329
#     4   9  17  36  63  87 112 143 183 224 270 330
#
# _framework density 18.695809000000001
#
# number of rings (size 3 to 8) (size 9 to 14) (size 15 to 20)
#    0.000    2.000    1.429    3.857    0.000    5.714 
#    0.000    5.000    0.000    0.000    0.000    0.000 
#    0.000    0.000    0.000    0.000    0.000    0.000 
#
# Total GULP energy -156375.796779 kJ/mol
# GULP energy per Si atom -5584.849885 kJ/mol
# Density = 1.865326 g / cm^3
# Si number density = 18.695809 Si / 1000 Ang^3
#
#
#
# Elastic Constant Matrix: (Units=GPa)
#
#
# Indices 1 2 3 4 5 6 
#
# 1 121.1337 26.7564 42.7795 0.0000 -31.6824 0.0000
# 2 26.7564 20.1813 17.0595 0.0000 -7.5607 0.0000
# 3 42.7795 17.0595 69.8256 0.0000 -19.3265 0.0000
# 4 0.0000 0.0000 0.0000 16.1516 0.0000 -4.0302
# 5 -31.6824 -7.5607 -19.3265 0.0000 26.0609 0.0000
# 6 0.0000 0.0000 0.0000 -4.0302 0.0000 24.3486
#
#
#
# Elastic Compliance Matrix: (Units=1/GPa)
#
#
# Indices 1 2 3 4 5 6 
#
# 1 0.015600 -0.013564 -0.002622 0.000000 0.013085 0.000000
# 2 -0.013564 0.075796 -0.010929 0.000000 -0.002605 0.000000
# 3 -0.002622 -0.010929 0.021187 0.000000 0.009354 0.000000
# 4 0.000000 0.000000 0.000000 0.064581 0.000000 0.010690
# 5 0.013085 -0.002605 0.009354 0.000000 0.060461 0.000000
# 6 0.000000 0.000000 0.000000 0.010690 0.000000 0.042840
#
#
# Mechanical properties :
#
#
# Convention : Reuss Voigt Hill
#
# Bulk Modulus (GPa) = 17.13685 42.70346 29.92015
# Shear Modulus (GPa) = 14.11853 21.61522 17.86687
#
# Velocity S-wave (km/s) = 2.75102 3.40391 3.09473
# Velocity P-wave (km/s) = 4.39054 6.19190 5.36733
#
# Compressibility (1/GPa) = 0.05835379
#
# Stress axis : x y z
#
# Youngs Moduli (GPa) = 64.10396 13.19323 47.19920
#
# Poissons Ratio (x) = 0.17895 0.12374
# Poissons Ratio (y) = 0.86948 0.51585
# Poissons Ratio (z) = 0.16806 0.14419
#
# Static dielectric constant tensor:
#      x y z
#    x 1.646190 0.000000 -0.000380 
#    y 0.000000 1.632780 0.000000 
#    z -0.000380 0.000000 1.631850 
# 
# From -- ./inp_files/329494.got.cif
#   From: 2010.05.17/outbox.cif.g08.bks.cpg/sg12_165_cif.got.tgz:329494.got - 2010.06.03 13:09:07.
