data_PCOD9181042
_publ_section_title
;
Structure prediction by ZEFSAII (Michael W. Deem and Ramdas Pophale) SiO2 
 PCOD9181042
Probable space group: C 2/M
;
_chemical_formula_sum "Si O2"
_cell_formula_units_Z 64
_cell_length_a 29.518191
_cell_length_b 7.507155
_cell_length_c 12.872560
_cell_angle_alpha 90.000000
_cell_angle_beta 86.432994
_cell_angle_gamma 90.000000
_cell_volume 2847.002710
_symmetry_space_group_name_H-M "C 2/M"
_symmetry_group_IT_number 12
_symmetry_cell_setting 'monoclinic'
loop_
_space_group_symop_operation_xyz
x,y,z
-x,y,-z
-x,-y,-z
x,-y,z
1/2+x,1/2+y,z
1/2-x,1/2+y,-z
1/2-x,1/2-y,-z
1/2+x,1/2-y,z
loop_
_atom_site_type_symbol
_atom_site_label
_atom_site_fract_x
_atom_site_fract_y
_atom_site_fract_z
Si Si1 0.049488 0.294444 0.521813
Si Si2 0.908391 0.204068 0.275029
Si Si3 0.369990 0.208638 0.626390
Si Si4 0.923209 0.709630 0.835093
Si Si5 0.684878 0.289098 0.794996
Si Si6 0.983046 0.286340 0.117377
Si Si7 0.662191 0.215517 0.035936
Si Si8 0.714053 0.781254 0.238315
O O1 0.047582 0.500000 0.483824
O O2 0.060537 0.293869 0.642079
O O3 0.094773 0.214565 0.461967
O O4 0.000000 0.217400 0.500000
O O5 0.858864 0.284076 0.259724
O O6 0.936468 0.208244 0.164258
O O7 0.903409 0.000000 0.308923
O O8 0.397570 0.219813 0.730325
O O9 0.320634 0.280093 0.666670
O O10 0.362724 0.000000 0.600137
O O11 0.928975 0.500000 0.859688
O O12 0.888329 0.781012 0.926084
O O13 0.974090 0.778606 0.820815
O O14 0.685259 0.500000 0.774051
O O15 0.734401 0.219681 0.757779
O O16 0.677819 0.268828 0.919773
O O17 0.976865 0.500000 0.124411
O O18 0.000000 0.243093 0.000000
O O19 0.694700 0.270883 0.127105
O O20 0.661131 0.000000 0.037949
O O21 0.713146 0.000000 0.239057
#
# Coordination Sequence:
#
# PCOD9181042 Si02
#       8
#     8   8   8   8   8   8   8   8
#     4  10  20  36  60  83  99 121 161 216 267 306
#     4  11  24  37  49  71 106 143 172 201 246 308
#     4   8  14  27  50  76  96 118 157 207 253 297
#     4   8  14  26  46  74 101 121 151 202 258 300
#     4  10  20  33  47  67 102 143 173 200 241 294
#     4  10  19  32  52  75 100 132 170 211 249 288
#     4   9  16  28  51  79 102 128 166 210 250 291
#     4   8  15  29  50  75 101 131 168 207 248 294
#
# _framework density 22.479782
#
# number of rings (size 3 to 8) (size 9 to 14) (size 15 to 20)
#    0.000    2.750    0.000    3.750    0.000    4.500 
#    0.000    1.250    0.000    3.750    0.000    0.000 
#    0.000    0.000    0.000    0.000    0.000    0.000 
#
# Total GULP energy -178484.525549 kJ/mol
# GULP energy per Si atom -5577.641423 kJ/mol
# Density = 2.242862 g / cm^3
# Si number density = 22.479782 Si / 1000 Ang^3
#
#
#
# Elastic Constant Matrix: (Units=GPa)
#
#
# Indices 1 2 3 4 5 6 
#
# 1 170.5053 5.5405 56.9329 0.0000 -6.8471 0.0000
# 2 5.5405 55.4557 4.1348 0.0000 0.8681 0.0000
# 3 56.9329 4.1348 67.2932 0.0000 -17.8240 0.0000
# 4 0.0000 0.0000 0.0000 2.5727 0.0000 -4.0916
# 5 -6.8471 0.8681 -17.8240 0.0000 31.2698 0.0000
# 6 0.0000 0.0000 0.0000 -4.0916 0.0000 -2.0749
#
#
#
# Elastic Compliance Matrix: (Units=1/GPa)
#
#
# Indices 1 2 3 4 5 6 
#
# 1 0.008351 -0.000217 -0.007734 0.000000 -0.002574 0.000000
# 2 -0.000217 0.018169 -0.001270 0.000000 -0.001276 0.000000
# 3 -0.007734 -0.001270 0.024784 0.000000 0.012469 0.000000
# 4 0.000000 0.000000 0.000000 0.093974 0.000000 -0.185315
# 5 -0.002574 -0.001276 0.012469 0.000000 0.038559 0.000000
# 6 0.000000 0.000000 0.000000 -0.185315 0.000000 -0.116521
#
#
# Mechanical properties :
#
#
# Convention : Reuss Voigt Hill
#
# Bulk Modulus (GPa) = 30.43129 47.38564 38.90847
# Shear Modulus (GPa) = 51.69996 21.46325 36.58161
#
# Velocity S-wave (km/s) = 4.80087 3.09330 4.03837
# Velocity P-wave (km/s) = 6.65565 5.82091 6.25223
#
# Compressibility (1/GPa) = 0.03286091
#
# Stress axis : x y z
#
# Youngs Moduli (GPa) = 119.74730 55.03932 40.34864
#
# Poissons Ratio (x) = 0.01197 0.31204
# Poissons Ratio (y) = 0.02604 0.05126
# Poissons Ratio (z) = 0.92607 0.06992
#
# Static dielectric constant tensor:
#      x y z
#    x 1.876590 0.000000 -0.010570 
#    y 0.000000 1.926810 0.000000 
#    z -0.010570 0.000000 1.824220 
# 
# From -- ./inp_files/187570.got.cif
#   From: 2010.05.17/outbox.cif.g08.bks.cpg/sg12_94_cif.got.tgz:187570.got - 2010.06.03 13:09:07.
