data_PCOD9181159
_publ_section_title
;
Structure prediction by ZEFSAII (Michael W. Deem and Ramdas Pophale) SiO2 
 PCOD9181159
Probable space group: C 2/M
;
_chemical_formula_sum "Si O2"
_cell_formula_units_Z 56
_cell_length_a 19.463179
_cell_length_b 8.893132
_cell_length_c 28.353542
_cell_angle_alpha 90.000000
_cell_angle_beta 40.659772
_cell_angle_gamma 90.000000
_cell_volume 3197.674214
_symmetry_space_group_name_H-M "C 2/M"
_symmetry_group_IT_number 12
_symmetry_cell_setting 'monoclinic'
loop_
_space_group_symop_operation_xyz
x,y,z
-x,y,-z
-x,-y,-z
x,-y,z
1/2+x,1/2+y,z
1/2-x,1/2+y,-z
1/2-x,1/2-y,-z
1/2+x,1/2-y,z
loop_
_atom_site_type_symbol
_atom_site_label
_atom_site_fract_x
_atom_site_fract_y
_atom_site_fract_z
Si Si1 0.432632 0.682759 0.640991
Si Si2 0.899890 0.177530 0.942398
Si Si3 0.934140 0.676995 0.082373
Si Si4 0.127749 0.824879 0.428427
Si Si5 0.189377 0.179906 0.200465
Si Si6 0.814716 0.321404 0.895089
Si Si7 0.334377 0.819368 0.493242
O O1 0.446123 0.500000 0.631592
O O2 0.362589 0.724615 0.631257
O O3 0.373641 0.722900 0.719895
O O4 0.547847 0.758288 0.579839
O O5 0.884380 0.262697 0.901696
O O6 0.008728 0.222397 0.909012
O O7 0.889629 0.000000 0.940348
O O8 0.804458 0.225410 0.027336
O O9 0.940027 0.500000 0.092094
O O10 0.812701 0.719148 0.140274
O O11 0.000000 0.695785 0.000000
O O12 0.179537 0.734259 0.444687
O O13 0.000000 0.818025 0.500000
O O14 0.158901 0.000000 0.416791
O O15 0.151175 0.253059 0.172102
O O16 0.182511 0.000000 0.199576
O O17 0.816746 0.500000 0.891292
O O18 0.250000 0.750000 0.500000
O O19 0.330469 0.000000 0.492795
#
# Coordination Sequence:
#
# PCOD9181159 Si02
#       7
#     8   8   8   8   8   8   8
#     4   9  19  36  56  79 109 143 176 213 264 321
#     4  10  20  33  51  73  99 133 177 226 273 319
#     4  10  19  32  52  77 104 135 175 221 268 319
#     4   8  15  31  54  78 106 139 174 211 254 308
#     4  10  20  35  55  78 107 142 176 216 269 323
#     4  10  20  33  51  74 101 135 176 222 271 322
#     4  11  21  34  56  84 111 141 179 219 260 307
#
# _framework density 17.512729
#
# number of rings (size 3 to 8) (size 9 to 14) (size 15 to 20)
#    0.000    2.286    1.429    3.000    0.000    5.143 
#    0.000    1.429    0.000    5.143    0.000    0.000 
#    0.000    0.000    0.000    0.000    0.000    0.000 
#
# Total GULP energy -156091.656736 kJ/mol
# GULP energy per Si atom -5574.702026 kJ/mol
# Density = 1.747287 g / cm^3
# Si number density = 17.512729 Si / 1000 Ang^3
#
#
#
# Elastic Constant Matrix: (Units=GPa)
#
#
# Indices 1 2 3 4 5 6 
#
# 1 102.8953 50.4607 45.6522 0.0001 27.6115 0.0005
# 2 50.4607 38.3977 36.7067 0.0002 11.9860 0.0008
# 3 45.6522 36.7067 94.3104 0.0000 31.0037 0.0000
# 4 0.0001 0.0002 0.0000 19.6289 0.0000 4.6095
# 5 27.6115 11.9860 31.0037 0.0000 30.2583 0.0001
# 6 0.0005 0.0008 0.0000 4.6095 0.0001 33.1061
#
#
#
# Elastic Compliance Matrix: (Units=1/GPa)
#
#
# Indices 1 2 3 4 5 6 
#
# 1 0.035194 -0.047795 0.008897 0.000000 -0.022299 0.000001
# 2 -0.047795 0.106382 -0.028280 0.000000 0.030450 -0.000002
# 3 0.008897 -0.028280 0.024564 0.000000 -0.022085 0.000001
# 4 0.000000 0.000000 0.000000 0.052667 0.000000 -0.007333
# 5 -0.022299 0.030450 -0.022085 0.000000 0.063964 -0.000001
# 6 0.000001 -0.000002 0.000001 -0.007333 -0.000001 0.031227
#
#
# Mechanical properties :
#
#
# Convention : Reuss Voigt Hill
#
# Bulk Modulus (GPa) = 31.46183 55.69362 43.57772
# Shear Modulus (GPa) = 10.89444 23.45092 17.17268
#
# Velocity S-wave (km/s) = 2.49687 3.66331 3.13482
# Velocity P-wave (km/s) = 5.12997 7.05436 6.16768
#
# Compressibility (1/GPa) = 0.03178455
#
# Stress axis : x y z
#
# Youngs Moduli (GPa) = 28.41377 9.40005 40.71030
#
# Poissons Ratio (x) = 0.44927 -0.36219
# Poissons Ratio (y) = 1.35803 1.15127
# Poissons Ratio (z) = -0.25279 0.26583
#
# Static dielectric constant tensor:
#      x y z
#    x 1.596200 0.000000 0.011570 
#    y 0.000000 1.589470 0.000000 
#    z 0.011570 0.000000 1.613850 
# 
# From -- ./inp_files/313300.got.cif
#   From: 2010.05.17/outbox.cif.g08.bks.cpg/sg12_157_cif.got.tgz:313300.got - 2010.06.03 13:09:07.
