data_PCOD9181357
_publ_section_title
;
Structure prediction by ZEFSAII (Michael W. Deem and Ramdas Pophale) SiO2 
 PCOD9181357
Probable space group: C 2/M
;
_chemical_formula_sum "Si O2"
_cell_formula_units_Z 40
_cell_length_a 9.558646
_cell_length_b 21.087076
_cell_length_c 14.227221
_cell_angle_alpha 90.000000
_cell_angle_beta 133.091986
_cell_angle_gamma 90.000000
_cell_volume 2094.156079
_symmetry_space_group_name_H-M "C 2/M"
_symmetry_group_IT_number 12
_symmetry_cell_setting 'monoclinic'
loop_
_space_group_symop_operation_xyz
x,y,z
-x,y,-z
-x,-y,-z
x,-y,z
1/2+x,1/2+y,z
1/2-x,1/2+y,-z
1/2-x,1/2-y,-z
1/2+x,1/2-y,z
loop_
_atom_site_type_symbol
_atom_site_label
_atom_site_fract_x
_atom_site_fract_y
_atom_site_fract_z
Si Si1 0.717093 0.100413 0.129839
Si Si2 0.651217 0.243932 0.147925
Si Si3 0.528500 0.827653 0.763728
Si Si4 0.185363 0.070828 0.020296
Si Si5 0.278707 0.571556 0.374517
O O1 0.723144 0.176610 0.139732
O O2 0.758952 0.074802 0.252200
O O3 0.500000 0.082449 0.000000
O O4 0.852807 0.077726 0.108223
O O5 0.551571 0.224258 0.199404
O O6 0.827311 0.291821 0.239366
O O7 0.500000 0.268339 0.000000
O O8 0.660582 0.876331 0.882960
O O9 0.357105 0.872320 0.648884
O O10 0.263017 0.000000 0.072794
O O11 0.000000 0.078141 0.000000
O O12 0.500000 0.583056 0.500000
O O13 0.227552 0.500000 0.382439
#
# Coordination Sequence:
#
# PCOD9181357 Si02
#       5
#     8   8   8   8   8
#     4  10  19  36  58  85 113 146 190 229 278 334
#     4  10  19  32  52  83 114 149 180 228 280 327
#     4  11  21  34  54  82 114 147 188 228 279 336
#     4  11  22  33  52  85 119 147 182 236 286 326
#     4  10  21  38  61  85 111 147 190 234 280 333
#
# _framework density 19.100773
#
# number of rings (size 3 to 8) (size 9 to 14) (size 15 to 20)
#    0.000    1.600    6.000    2.400    2.800    0.800 
#    0.000    4.000    0.000    1.200    0.000    5.600 
#    0.000    0.000    0.000    0.000    0.000    0.000 
#
# Total GULP energy -111598.450443 kJ/mol
# GULP energy per Si atom -5579.922522 kJ/mol
# Density = 1.905730 g / cm^3
# Si number density = 19.100773 Si / 1000 Ang^3
#
#
#
# Elastic Constant Matrix: (Units=GPa)
#
#
# Indices 1 2 3 4 5 6 
#
# 1 95.5533 33.6944 14.3886 -0.0001 9.1553 -0.0002
# 2 33.6944 87.7697 22.8394 0.0000 19.2892 -0.0001
# 3 14.3886 22.8394 75.6180 -0.0002 18.7576 -0.0007
# 4 -0.0001 0.0000 -0.0002 4.9258 -0.0001 -33.8032
# 5 9.1553 19.2892 18.7576 -0.0001 19.8608 -0.0003
# 6 -0.0002 -0.0001 -0.0007 -33.8032 -0.0003 -121.2832
#
#
#
# Elastic Compliance Matrix: (Units=1/GPa)
#
#
# Indices 1 2 3 4 5 6 
#
# 1 0.012175 -0.004317 -0.000863 0.000000 -0.000605 0.000000
# 2 -0.004317 0.016093 -0.000857 0.000000 -0.012831 0.000000
# 3 -0.000863 -0.000857 0.017424 0.000000 -0.015227 0.000000
# 4 0.000000 0.000000 0.000000 0.069700 0.000000 -0.019426
# 5 -0.000605 -0.012831 -0.015227 0.000000 0.077473 0.000000
# 6 0.000000 0.000000 0.000000 -0.019426 0.000000 -0.002831
#
#
# Mechanical properties :
#
#
# Convention : Reuss Voigt Hill
#
# Bulk Modulus (GPa) = 29.74293 44.53175 37.13734
# Shear Modulus (GPa) = 23.43966 -6.76472 8.33747
#
# Velocity S-wave (km/s) = 3.50688 -1.88395 2.09152
# Velocity P-wave (km/s) = 5.65712 4.31652 5.03167
#
# Compressibility (1/GPa) = 0.03362144
#
# Stress axis : x y z
#
# Youngs Moduli (GPa) = 82.13285 62.13728 57.39084
#
# Poissons Ratio (x) = 0.26822 0.04952
# Poissons Ratio (y) = 0.35453 0.04916
# Poissons Ratio (z) = 0.07087 0.05322
#
# Static dielectric constant tensor:
#      x y z
#    x 1.694920 0.000000 0.018320 
#    y 0.000000 1.708570 0.000000 
#    z 0.018320 0.000000 1.642780 
# 
# From -- ./inp_files/121295.got.cif
#   From: 2010.05.17/outbox.cif.g08.bks.cpg/sg12_61_cif.got.tgz:121295.got - 2010.06.03 13:09:07.
