data_PCOD9181851
_publ_section_title
;
Structure prediction by ZEFSAII (Michael W. Deem and Ramdas Pophale) SiO2 
 PCOD9181851
Probable space group: C 2/M
;
_chemical_formula_sum "Si O2"
_cell_formula_units_Z 56
_cell_length_a 19.468606
_cell_length_b 9.051248
_cell_length_c 28.647262
_cell_angle_alpha 90.000000
_cell_angle_beta 140.315737
_cell_angle_gamma 90.000000
_cell_volume 3223.485708
_symmetry_space_group_name_H-M "C 2/M"
_symmetry_group_IT_number 12
_symmetry_cell_setting 'monoclinic'
loop_
_space_group_symop_operation_xyz
x,y,z
-x,y,-z
-x,-y,-z
x,-y,z
1/2+x,1/2+y,z
1/2-x,1/2+y,-z
1/2-x,1/2-y,-z
1/2+x,1/2-y,z
loop_
_atom_site_type_symbol
_atom_site_label
_atom_site_fract_x
_atom_site_fract_y
_atom_site_fract_z
Si Si1 0.129566 0.175414 0.703697
Si Si2 0.908745 0.177899 0.056331
Si Si3 0.853626 0.825242 0.811559
Si Si4 0.186839 0.322707 0.900667
Si Si5 0.167243 0.825947 0.310847
Si Si6 0.525977 0.176756 0.735265
Si Si7 0.891008 0.176707 0.416333
O O1 0.250276 0.236447 0.774541
O O2 0.049970 0.254308 0.697729
O O3 0.100912 0.207878 0.634758
O O4 0.126778 0.000000 0.708916
O O5 0.872062 0.247255 0.086305
O O6 0.030411 0.222784 0.108186
O O7 0.911070 0.000000 0.062850
O O8 0.813237 0.215625 0.970395
O O9 0.859315 0.806487 0.758216
O O10 0.837289 0.000000 0.812478
O O11 0.178148 0.500000 0.901645
O O12 0.125829 0.282405 0.821545
O O13 0.286369 0.761380 0.380016
O O14 0.080185 0.741006 0.296091
O O15 0.163580 0.000000 0.318889
O O16 0.519790 0.000000 0.729334
O O17 0.000000 0.217085 0.500000
O O18 0.874235 0.000000 0.412748
#
# Coordination Sequence:
#
# PCOD9181851 Si02
#       7
#     8   8   8   8   8   8   8
#     4  10  21  35  54  77 103 135 170 210 257 309
#     4   9  16  29  48  72 100 132 173 219 262 301
#     4   9  17  31  51  74 101 134 172 215 259 305
#     4   9  18  29  46  72 101 135 174 216 259 301
#     4  10  19  32  54  82 107 135 173 212 252 303
#     4  11  21  34  51  75 108 142 176 213 256 305
#     4   9  19  38  61  83 106 132 165 208 257 308
#
# _framework density 17.372498
#
# number of rings (size 3 to 8) (size 9 to 14) (size 15 to 20)
#    0.000    2.429    1.429    1.286    0.000    2.571 
#    0.000    1.429    0.000    4.286    0.000    0.000 
#    0.000    0.000    0.000    0.000    0.000    0.000 
#
# Total GULP energy -156171.730210 kJ/mol
# GULP energy per Si atom -5577.561793 kJ/mol
# Density = 1.733296 g / cm^3
# Si number density = 17.372498 Si / 1000 Ang^3
#
#
#
# Elastic Constant Matrix: (Units=GPa)
#
#
# Indices 1 2 3 4 5 6 
#
# 1 88.3241 52.0874 38.9180 0.0000 10.2931 0.0000
# 2 52.0874 48.2003 41.7414 0.0000 6.6297 0.0000
# 3 38.9180 41.7414 109.7827 0.0000 18.6887 0.0000
# 4 0.0000 0.0000 0.0000 20.5929 0.0000 6.5579
# 5 10.2931 6.6297 18.6887 0.0000 15.0620 0.0000
# 6 0.0000 0.0000 0.0000 6.5579 0.0000 31.9532
#
#
#
# Elastic Compliance Matrix: (Units=1/GPa)
#
#
# Indices 1 2 3 4 5 6 
#
# 1 0.033313 -0.038599 0.004881 0.000000 -0.011832 0.000000
# 2 -0.038599 0.075673 -0.017634 0.000000 0.014949 0.000000
# 3 0.004881 -0.017634 0.016899 0.000000 -0.016542 0.000000
# 4 0.000000 0.000000 0.000000 0.051956 0.000000 -0.010663
# 5 -0.011832 0.014949 -0.016542 0.000000 0.088423 0.000000
# 6 0.000000 0.000000 0.000000 -0.010663 0.000000 0.033484
#
#
# Mechanical properties :
#
#
# Convention : Reuss Voigt Hill
#
# Bulk Modulus (GPa) = 43.13784 56.86677 50.00230
# Shear Modulus (GPa) = 12.18975 21.09233 16.64104
#
# Velocity S-wave (km/s) = 2.65178 3.48820 3.09835
# Velocity P-wave (km/s) = 5.85328 7.00202 6.45326
#
# Compressibility (1/GPa) = 0.02318151
#
# Stress axis : x y z
#
# Youngs Moduli (GPa) = 30.01811 13.21472 59.17348
#
# Poissons Ratio (x) = 0.51007 -0.28880
# Poissons Ratio (y) = 1.15867 1.04346
# Poissons Ratio (z) = -0.14651 0.23303
#
# Static dielectric constant tensor:
#      x y z
#    x 1.559990 0.000000 0.002680 
#    y 0.000000 1.576480 0.000000 
#    z 0.002680 0.000000 1.602010 
# 
# From -- ./inp_files/313773.got.cif
#   From: 2010.05.17/outbox.cif.g08.bks.cpg/sg12_157_cif.got.tgz:313773.got - 2010.06.03 13:09:07.
