data_PCOD9181002
_publ_section_title
;
Structure prediction by ZEFSAII (Michael W. Deem and Ramdas Pophale) SiO2 
 PCOD9181002
Probable space group: C 2/M
;
_chemical_formula_sum "Si O2"
_cell_formula_units_Z 64
_cell_length_a 30.567471
_cell_length_b 9.675619
_cell_length_c 12.769483
_cell_angle_alpha 90.000000
_cell_angle_beta 106.168709
_cell_angle_gamma 90.000000
_cell_volume 3627.308490
_symmetry_space_group_name_H-M "C 2/M"
_symmetry_group_IT_number 12
_symmetry_cell_setting 'monoclinic'
loop_
_space_group_symop_operation_xyz
x,y,z
-x,y,-z
-x,-y,-z
x,-y,z
1/2+x,1/2+y,z
1/2-x,1/2+y,-z
1/2-x,1/2-y,-z
1/2+x,1/2-y,z
loop_
_atom_site_type_symbol
_atom_site_label
_atom_site_fract_x
_atom_site_fract_y
_atom_site_fract_z
Si Si1 0.901317 0.841614 0.295572
Si Si2 0.004292 0.839601 0.377792
Si Si3 0.850029 0.842616 0.743549
Si Si4 0.724395 0.336432 0.135900
Si Si5 0.919486 0.342965 0.682614
Si Si6 0.859002 0.654996 0.434135
Si Si7 0.791505 0.156054 0.492300
Si Si8 0.807178 0.839923 0.122700
O O1 0.953536 0.831165 0.295783
O O2 0.893406 0.726299 0.377557
O O3 0.860084 0.820067 0.187058
O O4 0.896287 0.000000 0.334218
O O5 0.000000 0.807132 0.500000
O O6 0.038407 0.741550 0.338012
O O7 0.020046 0.000000 0.382730
O O8 0.811993 0.791878 0.800613
O O9 0.892992 0.742992 0.754360
O O10 0.824675 0.852489 0.614748
O O11 0.863500 0.000000 0.782327
O O12 0.732667 0.500000 0.157570
O O13 0.772080 0.255984 0.162450
O O14 0.701847 0.316753 0.006368
O O15 0.931319 0.500000 0.721493
O O16 0.883953 0.353505 0.562333
O O17 0.845143 0.500000 0.394149
O O18 0.817770 0.761697 0.419726
O O19 0.750000 0.250000 0.500000
O O20 0.778437 0.000000 0.453986
O O21 0.795994 0.000000 0.137826
#
# Coordination Sequence:
#
# PCOD9181002 Si02
#       8
#     8   8   8   8   8   8   8   8
#     4  10  20  33  50  75 102 134 169 207 252 298
#     4  10  19  32  52  73 101 139 173 204 247 302
#     4   9  19  34  52  71  96 132 170 205 247 302
#     4   9  18  35  56  77 101 132 168 208 255 304
#     4  10  20  33  50  74 102 130 169 212 248 293
#     4  10  20  32  46  67  98 134 168 205 246 293
#     4  10  20  32  45  66  97 132 167 204 244 295
#     4   9  19  34  53  78 105 130 165 212 255 298
#
# _framework density 17.643936
#
# number of rings (size 3 to 8) (size 9 to 14) (size 15 to 20)
#    0.000    2.375    1.250    1.125    1.750    3.250 
#    0.000    0.000    0.000    0.750    0.000    5.250 
#    0.000    0.000    0.000    0.000    0.000    0.000 
#
# Total GULP energy -178352.732958 kJ/mol
# GULP energy per Si atom -5573.522905 kJ/mol
# Density = 1.760378 g / cm^3
# Si number density = 17.643936 Si / 1000 Ang^3
#
#
#
# Elastic Constant Matrix: (Units=GPa)
#
#
# Indices 1 2 3 4 5 6 
#
# 1 107.5273 71.8614 22.5519 0.0000 -3.1633 0.0000
# 2 71.8614 118.9132 18.6871 0.0000 -8.0622 0.0000
# 3 22.5519 18.6871 37.3672 0.0000 0.0694 0.0000
# 4 0.0000 0.0000 0.0000 13.7367 0.0000 -0.6563
# 5 -3.1633 -8.0622 0.0694 0.0000 24.0920 0.0000
# 6 0.0000 0.0000 0.0000 -0.6563 0.0000 29.2499
#
#
#
# Elastic Compliance Matrix: (Units=1/GPa)
#
#
# Indices 1 2 3 4 5 6 
#
# 1 0.016570 -0.009228 -0.005384 0.000000 -0.000897 0.000000
# 2 -0.009228 0.014499 -0.001688 0.000000 0.003645 0.000000
# 3 -0.005384 -0.001688 0.030857 0.000000 -0.001361 0.000000
# 4 0.000000 0.000000 0.000000 0.072876 0.000000 0.001635
# 5 -0.000897 0.003645 -0.001361 0.000000 0.042614 0.000000
# 6 0.000000 0.000000 0.000000 0.001635 0.000000 0.034225
#
#
# Mechanical properties :
#
#
# Convention : Reuss Voigt Hill
#
# Bulk Modulus (GPa) = 34.09942 54.44541 44.27241
# Shear Modulus (GPa) = 19.68382 23.46287 21.57334
#
# Velocity S-wave (km/s) = 3.34370 3.65060 3.50051
# Velocity P-wave (km/s) = 5.85453 6.97811 6.44087
#
# Compressibility (1/GPa) = 0.02932601
#
# Stress axis : x y z
#
# Youngs Moduli (GPa) = 60.34953 68.97121 32.40728
#
# Poissons Ratio (x) = 0.63650 0.17447
# Poissons Ratio (y) = 0.55693 0.05470
# Poissons Ratio (z) = 0.32490 0.11642
#
# Static dielectric constant tensor:
#      x y z
#    x 1.614330 0.000000 0.008710 
#    y 0.000000 1.628220 0.000000 
#    z 0.008710 0.000000 1.610350 
# 
# From -- ./inp_files/244107.got.cif
#   From: 2010.05.17/outbox.cif.g08.bks.cpg/sg12_123_cif.got.tgz:244107.got - 2010.06.03 13:09:07.
