data_PCOD9181417
_publ_section_title
;
Structure prediction by ZEFSAII (Michael W. Deem and Ramdas Pophale) SiO2 
 PCOD9181417
Probable space group: C 2/M
;
_chemical_formula_sum "Si O2"
_cell_formula_units_Z 44
_cell_length_a 19.960988
_cell_length_b 8.199217
_cell_length_c 35.570279
_cell_angle_alpha 90.000000
_cell_angle_beta 160.736562
_cell_angle_gamma 90.000000
_cell_volume 1920.613060
_symmetry_space_group_name_H-M "C 2/M"
_symmetry_group_IT_number 12
_symmetry_cell_setting 'monoclinic'
loop_
_space_group_symop_operation_xyz
x,y,z
-x,y,-z
-x,-y,-z
x,-y,z
1/2+x,1/2+y,z
1/2-x,1/2+y,-z
1/2-x,1/2-y,-z
1/2+x,1/2-y,z
loop_
_atom_site_type_symbol
_atom_site_label
_atom_site_fract_x
_atom_site_fract_y
_atom_site_fract_z
Si Si1 0.974063 0.500000 0.313887
Si Si2 0.000000 0.745325 0.000000
Si Si3 0.017697 0.177478 0.554275
Si Si4 0.010652 0.688446 0.201614
Si Si5 0.481698 0.500000 0.053338
Si Si6 0.990914 0.000000 0.145273
Si Si7 0.989488 0.500000 0.408208
Si Si8 0.542682 0.318093 0.742981
O O1 0.727752 0.500000 0.184128
O O2 0.048403 0.500000 0.395903
O O3 0.020038 0.669198 0.317047
O O4 0.072867 0.848193 0.002188
O O5 0.789548 0.669462 0.874892
O O6 0.257788 0.172296 0.689713
O O7 0.938833 0.336280 0.533250
O O8 0.000000 0.194764 0.500000
O O9 0.930453 0.000000 0.518605
O O10 0.932633 0.500000 0.160918
O O11 0.916914 0.833809 0.126613
O O12 0.020599 0.761044 0.248855
O O13 0.428633 0.500000 0.068867
O O14 0.239490 0.000000 0.278512
O O15 0.468993 0.500000 0.695023
#
# Coordination Sequence:
#
# PCOD9181417 Si02
#       8
#     4   4   8   8   4   4   4   8
#     4   9  19  33  51  77 101 133 172 210 250 296
#     4   9  19  34  54  73  99 134 175 211 250 297
#     4   9  18  32  53  83 105 133 166 207 254 300
#     4  10  19  32  53  77 104 133 165 209 252 302
#     4   8  16  33  55  72  99 134 165 214 255 300
#     4   9  17  33  51  76 104 129 166 206 262 298
#     4   9  17  31  53  77 106 132 166 209 250 305
#     4  11  20  34  54  75  98 135 175 211 250 301
#
# _framework density 22.909351999999998
#
# number of rings (size 3 to 8) (size 9 to 14) (size 15 to 20)
#    0.000    2.545    1.818    1.091    0.000    0.727 
#    0.000   10.909    0.000    1.091    0.000    0.000 
#    0.000    0.000    0.000    0.000    0.000    0.000 
#
# Total GULP energy -122794.223843 kJ/mol
# GULP energy per Si atom -5581.555629 kJ/mol
# Density = 2.285721 g / cm^3
# Si number density = 22.909352 Si / 1000 Ang^3
#
#
#
# Elastic Constant Matrix: (Units=GPa)
#
#
# Indices 1 2 3 4 5 6 
#
# 1 111.3928 116.0159 10.2461 0.0028 -37.1013 0.0103
# 2 116.0159 287.9309 61.7095 0.0009 -44.0123 0.0175
# 3 10.2461 61.7095 51.9081 -0.0086 -0.9204 0.0315
# 4 0.0028 0.0009 -0.0086 23.9394 -0.0054 12.4324
# 5 -37.1013 -44.0123 -0.9204 -0.0054 51.5017 -0.0135
# 6 0.0103 0.0175 0.0315 12.4324 -0.0135 -26.0807
#
#
#
# Elastic Compliance Matrix: (Units=1/GPa)
#
#
# Indices 1 2 3 4 5 6 
#
# 1 0.018853 -0.007704 0.005563 -0.000001 0.007097 0.000005
# 2 -0.007704 0.008741 -0.008840 0.000002 0.001762 -0.000008
# 3 0.005563 -0.008840 0.028622 -0.000006 -0.003035 0.000030
# 4 -0.000001 0.000002 -0.000006 0.033483 0.000009 0.015961
# 5 0.007097 0.001762 -0.003035 0.000009 0.025981 -0.000009
# 6 0.000005 -0.000008 0.000030 0.015961 -0.000009 -0.030734
#
#
# Mechanical properties :
#
#
# Convention : Reuss Voigt Hill
#
# Bulk Modulus (GPa) = 29.19313 91.90832 60.55073
# Shear Modulus (GPa) = 42.25636 27.42276 34.83956
#
# Velocity S-wave (km/s) = 4.29943 3.46354 3.90392
# Velocity P-wave (km/s) = 6.11697 7.49668 6.84169
#
# Compressibility (1/GPa) = 0.03425463
#
# Stress axis : x y z
#
# Youngs Moduli (GPa) = 53.04200 114.40318 34.93861
#
# Poissons Ratio (x) = 0.88134 -0.19436
# Poissons Ratio (y) = 0.40862 0.30884
# Poissons Ratio (z) = -0.29507 1.01128
#
# Static dielectric constant tensor:
#      x y z
#    x 1.827300 0.000000 0.092730 
#    y 0.000000 1.863560 0.000000 
#    z 0.092730 0.000000 1.904800 
# 
# From -- ./inp_files/377863.got.cif
#   From: 2010.05.17/outbox.cif.g08.bks.cpg/sg12_189_cif.got.tgz:377863.got - 2010.06.03 13:09:07.
