data_PCOD9181921
_publ_section_title
;
Structure prediction by ZEFSAII (Michael W. Deem and Ramdas Pophale) SiO2 
 PCOD9181921
Probable space group: C 2/M
;
_chemical_formula_sum "Si O2"
_cell_formula_units_Z 56
_cell_length_a 18.127790
_cell_length_b 14.787557
_cell_length_c 16.438575
_cell_angle_alpha 90.000000
_cell_angle_beta 41.204404
_cell_angle_gamma 90.000000
_cell_volume 2902.848052
_symmetry_space_group_name_H-M "C 2/M"
_symmetry_group_IT_number 12
_symmetry_cell_setting 'monoclinic'
loop_
_space_group_symop_operation_xyz
x,y,z
-x,y,-z
-x,-y,-z
x,-y,z
1/2+x,1/2+y,z
1/2-x,1/2+y,-z
1/2-x,1/2-y,-z
1/2+x,1/2-y,z
loop_
_atom_site_type_symbol
_atom_site_label
_atom_site_fract_x
_atom_site_fract_y
_atom_site_fract_z
Si Si1 0.566817 0.395743 0.869473
Si Si2 0.658276 0.275414 0.507656
Si Si3 0.586648 0.294579 0.250542
Si Si4 0.634668 0.394515 0.374746
Si Si5 0.861674 0.401410 0.764107
Si Si6 0.687336 0.895430 0.382560
Si Si7 0.652302 0.400998 0.049560
O O1 0.593596 0.500000 0.872853
O O2 0.684693 0.362041 0.738810
O O3 0.474306 0.398297 0.876833
O O4 0.500000 0.351354 0.000000
O O5 0.750000 0.250000 0.500000
O O6 0.545296 0.319434 0.638979
O O7 0.688897 0.343907 0.407813
O O8 0.631855 0.179728 0.484816
O O9 0.643492 0.333962 0.285544
O O10 0.582350 0.187029 0.248851
O O11 0.658217 0.329724 0.115825
O O12 0.500000 0.395554 0.500000
O O13 0.669844 0.500000 0.336602
O O14 0.904617 0.500000 0.753898
O O15 0.864380 0.397409 0.664524
O O16 0.734777 0.393374 0.904321
O O17 0.686555 0.000000 0.413781
O O18 0.674385 0.500000 0.067445
#
# Coordination Sequence:
#
# PCOD9181921 Si02
#       7
#     8   8   8   8   8   8   8
#     4   9  15  27  49  77 108 137 167 215 276 324
#     4  11  23  37  54  79 111 146 188 230 274 330
#     4  11  21  36  55  79 110 147 186 225 274 333
#     4   9  19  36  56  76 103 141 183 229 273 319
#     4  10  20  34  54  79 109 141 178 222 270 328
#     4  10  19  33  53  79 110 142 176 218 269 329
#     4  10  19  32  54  84 109 137 179 228 279 325
#
# _framework density 19.291398999999998
#
# number of rings (size 3 to 8) (size 9 to 14) (size 15 to 20)
#    0.000    2.000    2.857    1.714    0.000    1.714 
#    0.000    1.429    0.000    0.000    0.000    0.000 
#    0.000    6.857    0.000    0.000    0.000    0.000 
#
# Total GULP energy -155929.230633 kJ/mol
# GULP energy per Si atom -5568.901094 kJ/mol
# Density = 1.924749 g / cm^3
# Si number density = 19.291399 Si / 1000 Ang^3
#
#
#
# Elastic Constant Matrix: (Units=GPa)
#
#
# Indices 1 2 3 4 5 6 
#
# 1 53.3555 12.5938 9.2942 0.0000 16.5566 0.0000
# 2 12.5938 98.0518 25.5259 0.0000 21.7333 0.0000
# 3 9.2942 25.5259 60.9107 0.0000 11.5940 0.0000
# 4 0.0000 0.0000 0.0000 26.9584 0.0000 2.6403
# 5 16.5566 21.7333 11.5940 0.0000 26.8361 0.0000
# 6 0.0000 0.0000 0.0000 2.6403 0.0000 20.4842
#
#
#
# Elastic Compliance Matrix: (Units=1/GPa)
#
#
# Indices 1 2 3 4 5 6 
#
# 1 0.023239 0.000439 -0.001017 0.000000 -0.014254 0.000000
# 2 0.000439 0.013202 -0.003828 0.000000 -0.009309 0.000000
# 3 -0.001017 -0.003828 0.019032 0.000000 -0.004495 0.000000
# 4 0.000000 0.000000 0.000000 0.037569 0.000000 -0.004842
# 5 -0.014254 -0.009309 -0.004495 0.000000 0.055538 0.000000
# 6 0.000000 0.000000 0.000000 -0.004842 0.000000 0.049442
#
#
# Mechanical properties :
#
#
# Convention : Reuss Voigt Hill
#
# Bulk Modulus (GPa) = 21.43056 34.12730 27.77893
# Shear Modulus (GPa) = 22.48336 25.84935 24.16635
#
# Velocity S-wave (km/s) = 3.41759 3.66449 3.54319
# Velocity P-wave (km/s) = 5.16780 5.96938 5.58300
#
# Compressibility (1/GPa) = 0.04666235
#
# Stress axis : x y z
#
# Youngs Moduli (GPa) = 43.03180 75.74547 52.54201
#
# Poissons Ratio (x) = -0.03327 0.05343
# Poissons Ratio (y) = -0.01890 0.20112
# Poissons Ratio (z) = 0.04376 0.28993
#
# Static dielectric constant tensor:
#      x y z
#    x 1.682260 0.000000 -0.013620 
#    y 0.000000 1.703640 0.000000 
#    z -0.013620 0.000000 1.724280 
# 
# From -- ./inp_files/155984.got.cif
#   From: 2010.05.17/outbox.cif.g08.bks.cpg/sg12_78_cif.got.tgz:155984.got - 2010.06.03 13:09:07.
