data_PCOD9181939
_publ_section_title
;
Structure prediction by ZEFSAII (Michael W. Deem and Ramdas Pophale) SiO2 
 PCOD9181939
Probable space group: C 2/M
;
_chemical_formula_sum "Si O2"
_cell_formula_units_Z 52
_cell_length_a 12.703432
_cell_length_b 27.274791
_cell_length_c 16.630774
_cell_angle_alpha 90.000000
_cell_angle_beta 23.203984
_cell_angle_gamma 90.000000
_cell_volume 2270.375006
_symmetry_space_group_name_H-M "C 2/M"
_symmetry_group_IT_number 12
_symmetry_cell_setting 'monoclinic'
loop_
_space_group_symop_operation_xyz
x,y,z
-x,y,-z
-x,-y,-z
x,-y,z
1/2+x,1/2+y,z
1/2-x,1/2+y,-z
1/2-x,1/2-y,-z
1/2+x,1/2-y,z
loop_
_atom_site_type_symbol
_atom_site_label
_atom_site_fract_x
_atom_site_fract_y
_atom_site_fract_z
Si Si1 0.049588 0.658626 0.659264
Si Si2 0.748261 0.054500 0.886702
Si Si3 0.000000 0.107968 0.500000
Si Si4 0.254457 0.697750 0.269365
Si Si5 0.677820 0.054128 0.606537
Si Si6 0.367745 0.189962 0.212760
Si Si7 0.081425 0.843740 0.178078
O O1 0.011454 0.599677 0.689844
O O2 0.094912 0.680056 0.716801
O O3 0.327469 0.664108 0.414069
O O4 0.815838 0.682947 0.771701
O O5 0.806067 0.100708 0.902911
O O6 0.030053 0.052897 0.640750
O O7 0.711843 0.000000 0.948510
O O8 0.500000 0.062254 0.000000
O O9 0.770433 0.072503 0.628810
O O10 0.835445 0.146699 0.670631
O O11 0.265515 0.756167 0.268491
O O12 0.496874 0.674285 0.148983
O O13 0.000000 0.680020 0.500000
O O14 0.561779 0.000000 0.683477
O O15 0.663597 0.186039 0.969919
#
# Coordination Sequence:
#
# PCOD9181939 Si02
#       7
#     8   8   4   8   8   8   8
#     4   9  22  40  58  82 119 153 184 245 287 327
#     4   9  17  32  52  80 116 147 183 239 292 335
#     4  10  19  32  54  84 122 148 183 244 288 332
#     4  10  21  40  58  81 118 151 195 238 282 337
#     4   9  17  32  55  83 112 150 190 228 287 346
#     4  11  21  39  57  83 118 152 193 236 285 343
#     4  10  21  37  58  84 112 151 201 230 279 357
#
# _framework density 22.903706
#
# number of rings (size 3 to 8) (size 9 to 14) (size 15 to 20)
#    0.000    2.308    0.769    1.615    0.000    3.077 
#    5.538    6.923    0.000    4.615    0.000    5.385 
#    0.000    0.000    0.000    0.000    0.000    0.000 
#
# Total GULP energy -145214.821234 kJ/mol
# GULP energy per Si atom -5585.185432 kJ/mol
# Density = 2.285158 g / cm^3
# Si number density = 22.903706 Si / 1000 Ang^3
#
#
#
# Elastic Constant Matrix: (Units=GPa)
#
#
# Indices 1 2 3 4 5 6 
#
# 1 69.6755 44.8527 11.0278 -0.0180 1.0379 -0.0523
# 2 44.8527 150.7894 13.0184 -0.0211 -12.2364 -0.1346
# 3 11.0278 13.0184 77.1762 0.1070 -2.7104 -0.2564
# 4 -0.0180 -0.0211 0.1070 4.5486 -0.0235 8.6167
# 5 1.0379 -12.2364 -2.7104 -0.0235 33.5844 0.0806
# 6 -0.0523 -0.1346 -0.2564 8.6167 0.0806 -3.3091
#
#
#
# Elastic Compliance Matrix: (Units=1/GPa)
#
#
# Indices 1 2 3 4 5 6 
#
# 1 0.018201 -0.005480 -0.001771 0.000010 -0.002702 0.000034
# 2 -0.005480 0.008573 -0.000549 0.000053 0.003249 -0.000003
# 3 -0.001771 -0.000549 0.013334 0.000253 0.000932 -0.000302
# 4 0.000010 0.000053 0.000253 0.037063 -0.000166 0.096485
# 5 -0.002702 0.003249 0.000932 -0.000166 0.031118 0.000163
# 6 0.000034 -0.000003 -0.000302 0.096485 0.000163 -0.050928
#
#
# Mechanical properties :
#
#
# Convention : Reuss Voigt Hill
#
# Bulk Modulus (GPa) = 40.80410 48.38209 44.59309
# Shear Modulus (GPa) = 61.62889 22.21425 41.92157
#
# Velocity S-wave (km/s) = 5.19290 3.11770 4.28289
# Velocity P-wave (km/s) = 7.33547 5.84209 6.63096
#
# Compressibility (1/GPa) = 0.02450734
#
# Stress axis : x y z
#
# Youngs Moduli (GPa) = 54.94311 116.64687 74.99392
#
# Poissons Ratio (x) = 0.63924 0.13282
# Poissons Ratio (y) = 0.30110 0.04117
# Poissons Ratio (z) = 0.09731 0.06404
#
# Static dielectric constant tensor:
#      x y z
#    x 1.921090 0.000040 0.087900 
#    y 0.000040 1.830200 0.000160 
#    z 0.087900 0.000160 1.936110 
# 
# From -- ./inp_files/312649.got.cif
#   From: 2010.05.17/outbox.cif.g08.bks.cpg/sg12_157_cif.got.tgz:312649.got - 2010.06.03 13:09:07.
