data_PCOD9181815
_publ_section_title
;
Structure prediction by ZEFSAII (Michael W. Deem and Ramdas Pophale) SiO2 
 PCOD9181815
Probable space group: C 2/M
;
_chemical_formula_sum "Si O2"
_cell_formula_units_Z 64
_cell_length_a 14.526302
_cell_length_b 8.434388
_cell_length_c 28.261752
_cell_angle_alpha 90.000000
_cell_angle_beta 72.780245
_cell_angle_gamma 90.000000
_cell_volume 3307.434754
_symmetry_space_group_name_H-M "C 2/M"
_symmetry_group_IT_number 12
_symmetry_cell_setting 'monoclinic'
loop_
_space_group_symop_operation_xyz
x,y,z
-x,y,-z
-x,-y,-z
x,-y,z
1/2+x,1/2+y,z
1/2-x,1/2+y,-z
1/2-x,1/2-y,-z
1/2+x,1/2-y,z
loop_
_atom_site_type_symbol
_atom_site_label
_atom_site_fract_x
_atom_site_fract_y
_atom_site_fract_z
Si Si1 0.696416 0.184028 0.902068
Si Si2 0.520291 0.191811 0.443523
Si Si3 0.390487 0.191344 0.714952
Si Si4 0.108012 0.182426 0.006308
Si Si5 0.785084 0.306877 0.638721
Si Si6 0.921290 0.190253 0.366964
Si Si7 0.999983 0.188977 0.111733
Si Si8 0.882207 0.312910 0.823756
O O1 0.675322 0.222956 0.960335
O O2 0.597530 0.225702 0.889493
O O3 0.781972 0.282577 0.865806
O O4 0.720360 0.000000 0.893797
O O5 0.500000 0.244341 0.500000
O O6 0.625896 0.240549 0.408453
O O7 0.444779 0.255159 0.416596
O O8 0.516811 0.000000 0.442966
O O9 0.312297 0.245039 0.687800
O O10 0.493441 0.243921 0.678944
O O11 0.375214 0.245960 0.770846
O O12 0.387518 0.000000 0.715748
O O13 0.140568 0.000000 0.002417
O O14 0.085986 0.239819 0.062595
O O15 0.000000 0.184502 0.000000
O O16 0.783311 0.500000 0.639025
O O17 0.682314 0.252380 0.635529
O O18 0.923395 0.000000 0.364877
O O19 0.034707 0.227652 0.158815
O O20 0.987102 0.000000 0.107043
O O21 0.902735 0.500000 0.820138
#
# Coordination Sequence:
#
# PCOD9181815 Si02
#       8
#     8   8   8   8   8   8   8   8
#     4  11  22  36  56  82 111 142 177 220 271 331
#     4   9  18  34  54  76 109 151 186 217 258 312
#     4   9  20  39  57  74 102 139 178 220 265 319
#     4   8  16  33  55  77 104 140 179 218 265 323
#     4   8  16  33  54  76 104 139 177 214 262 316
#     4  10  19  32  54  81 107 138 177 223 270 315
#     4  10  21  38  58  80 109 143 179 223 273 327
#     4  11  23  38  57  81 108 141 182 228 278 329
#
# _framework density 19.350344
#
# number of rings (size 3 to 8) (size 9 to 14) (size 15 to 20)
#    0.000    2.500    0.000    3.750    0.000    6.000 
#    0.000    6.250    0.000    0.000    0.000    0.000 
#    0.000    0.000    0.000    0.000    0.000    0.000 
#
# Total GULP energy -178610.100203 kJ/mol
# GULP energy per Si atom -5581.565631 kJ/mol
# Density = 1.930630 g / cm^3
# Si number density = 19.350344 Si / 1000 Ang^3
#
#
#
# Elastic Constant Matrix: (Units=GPa)
#
#
# Indices 1 2 3 4 5 6 
#
# 1 101.4338 -3.8478 35.9421 0.0000 19.4070 0.0000
# 2 -3.8478 11.1632 5.1091 0.0000 5.2333 0.0000
# 3 35.9421 5.1091 114.6705 0.0000 27.2264 0.0000
# 4 0.0000 0.0000 0.0000 23.8894 0.0000 2.3428
# 5 19.4070 5.2333 27.2264 0.0000 16.6276 0.0000
# 6 0.0000 0.0000 0.0000 2.3428 0.0000 25.5682
#
#
#
# Elastic Compliance Matrix: (Units=1/GPa)
#
#
# Indices 1 2 3 4 5 6 
#
# 1 0.014628 0.015262 -0.000116 0.000000 -0.021687 0.000000
# 2 0.015262 0.122929 0.005162 0.000000 -0.064956 0.000000
# 3 -0.000116 0.005162 0.014529 0.000000 -0.025280 0.000000
# 4 0.000000 0.000000 0.000000 0.042239 0.000000 -0.003870
# 5 -0.021687 -0.064956 -0.025280 0.000000 0.147291 0.000000
# 6 0.000000 0.000000 0.000000 -0.003870 0.000000 0.039466
#
#
# Mechanical properties :
#
#
# Convention : Reuss Voigt Hill
#
# Bulk Modulus (GPa) = 5.18936 33.51937 19.35436
# Shear Modulus (GPa) = 12.35482 25.88798 19.12140
#
# Velocity S-wave (km/s) = 2.52956 3.66164 3.14693
# Velocity P-wave (km/s) = 3.34950 5.93606 4.81954
#
# Compressibility (1/GPa) = 0.19270206
#
# Stress axis : x y z
#
# Youngs Moduli (GPa) = 68.36254 8.13478 68.82679
#
# Poissons Ratio (x) = -0.12415 0.00797
# Poissons Ratio (y) = -1.04334 -0.35528
# Poissons Ratio (z) = 0.00791 -0.04199
#
# Static dielectric constant tensor:
#      x y z
#    x 1.678950 0.000000 0.020470 
#    y 0.000000 1.656570 0.000000 
#    z 0.020470 0.000000 1.676590 
# 
# From -- ./inp_files/359755.got.cif
#   From: 2010.05.17/outbox.cif.g08.bks.cpg/sg12_180_cif.got.tgz:359755.got - 2010.06.03 13:09:07.
