data_PCOD9181969
_publ_section_title
;
Structure prediction by ZEFSAII (Michael W. Deem and Ramdas Pophale) SiO2 
 PCOD9181969
Probable space group: C 2/M
;
_chemical_formula_sum "Si O2"
_cell_formula_units_Z 58
_cell_length_a 34.835781
_cell_length_b 22.880479
_cell_length_c 5.090915
_cell_angle_alpha 90.000000
_cell_angle_beta 115.369799
_cell_angle_gamma 90.000000
_cell_volume 3666.436038
_symmetry_space_group_name_H-M "C 2/M"
_symmetry_group_IT_number 12
_symmetry_cell_setting 'monoclinic'
loop_
_space_group_symop_operation_xyz
x,y,z
-x,y,-z
-x,-y,-z
x,-y,z
1/2+x,1/2+y,z
1/2-x,1/2+y,-z
1/2-x,1/2-y,-z
1/2+x,1/2-y,z
loop_
_atom_site_type_symbol
_atom_site_label
_atom_site_fract_x
_atom_site_fract_y
_atom_site_fract_z
Si Si1 0.048045 0.728103 0.239102
Si Si2 0.306831 0.746752 0.946577
Si Si3 0.538419 0.894072 0.441115
Si Si4 0.101406 0.742442 0.897674
Si Si5 0.721545 0.818155 0.642374
Si Si6 0.172595 0.432093 0.618688
Si Si7 0.000000 0.500000 0.000000
Si Si8 0.878782 0.395616 0.025689
O O1 0.052707 0.657579 0.287256
O O2 0.065407 0.750458 0.570089
O O3 0.080084 0.751906 0.114700
O O4 0.000000 0.739447 0.000000
O O5 0.292210 0.793496 0.681354
O O6 0.270928 0.696768 0.831311
O O7 0.354418 0.725320 0.030527
O O8 0.303821 0.779463 0.216771
O O9 0.500000 0.867222 0.500000
O O10 0.574973 0.915249 0.744979
O O11 0.522042 0.949134 0.241879
O O12 0.116687 0.674443 0.945041
O O13 0.708564 0.885023 0.648158
O O14 0.184672 0.500000 0.637056
O O15 0.154624 0.417657 0.854582
O O16 0.135414 0.418586 0.298047
#
# Coordination Sequence:
#
# PCOD9181969 Si02
#       8
#     8   8   8   8   8   8   2   8
#     4  11  21  34  49  64  87 115 144 184 235 282
#     4  10  19  32  55  71  92 114 147 199 229 279
#     4  11  25  37  45  58  79 112 155 203 246 281
#     4  11  19  33  53  67  87 112 152 188 236 273
#     4  10  19  35  49  73  93 116 149 184 245 271
#     4  12  23  35  49  69  93 121 148 183 234 291
#     4  12  26  36  48  54  80 108 170 204 254 280
#     4  11  23  35  50  64  86 113 152 197 238 280
#
# _framework density 15.819177
#
# number of rings (size 3 to 8) (size 9 to 14) (size 15 to 20)
#    0.000    1.103    3.448    5.172    3.862    0.000 
#    0.000    0.000    0.000    0.000    0.000    0.000 
#    0.000    0.000    0.000    0.000    0.000    4.138 
#
# Total GULP energy -161715.386165 kJ/mol
# GULP energy per Si atom -5576.392626 kJ/mol
# Density = 1.578317 g / cm^3
# Si number density = 15.819177 Si / 1000 Ang^3
#
#
#
# Elastic Constant Matrix: (Units=GPa)
#
#
# Indices 1 2 3 4 5 6 
#
# 1 56.8376 9.5631 -2.8262 0.0000 4.0259 0.0000
# 2 9.5631 32.3218 0.9857 0.0000 9.5023 0.0000
# 3 -2.8262 0.9857 38.0029 0.0000 -2.6925 0.0000
# 4 0.0000 0.0000 0.0000 8.3617 0.0000 13.6314
# 5 4.0259 9.5023 -2.6925 0.0000 29.9474 0.0000
# 6 0.0000 0.0000 0.0000 13.6314 0.0000 -87.5655
#
#
#
# Elastic Compliance Matrix: (Units=1/GPa)
#
#
# Indices 1 2 3 4 5 6 
#
# 1 0.018616 -0.005356 0.001476 0.000000 -0.000671 0.000000
# 2 -0.005356 0.035767 -0.002092 0.000000 -0.010817 0.000000
# 3 0.001476 -0.002092 0.026681 0.000000 0.002864 0.000000
# 4 0.000000 0.000000 0.000000 0.095386 0.000000 0.014849
# 5 -0.000671 -0.010817 0.002864 0.000000 0.037172 0.000000
# 6 0.000000 0.000000 0.000000 0.014849 0.000000 -0.009108
#
#
# Mechanical properties :
#
#
# Convention : Reuss Voigt Hill
#
# Bulk Modulus (GPa) = 14.46773 15.84529 15.15651
# Shear Modulus (GPa) = 20.87698 -1.88863 9.49417
#
# Velocity S-wave (km/s) = 3.63674 -1.09384 2.45249
# Velocity P-wave (km/s) = 5.17688 2.90567 4.19780
#
# Compressibility (1/GPa) = 0.06911937
#
# Stress axis : x y z
#
# Youngs Moduli (GPa) = 53.71720 27.95839 37.48021
#
# Poissons Ratio (x) = 0.14974 -0.05531
# Poissons Ratio (y) = 0.28770 0.07842
# Poissons Ratio (z) = -0.07928 0.05850
#
# Static dielectric constant tensor:
#      x y z
#    x 1.606940 0.000000 -0.001200 
#    y 0.000000 1.491920 0.000000 
#    z -0.001200 0.000000 1.574150 
# 
# From -- ./inp_files/32565.got.cif
#   From: 2010.05.17/outbox.cif.g08.bks.cpg/sg12_17_cif.got.tgz:32565.got - 2010.06.03 13:09:07.
