data_PCOD9181480
_publ_section_title
;
Structure prediction by ZEFSAII (Michael W. Deem and Ramdas Pophale) SiO2 
 PCOD9181480
Probable space group: C 2/M
;
_chemical_formula_sum "Si O2"
_cell_formula_units_Z 64
_cell_length_a 32.849918
_cell_length_b 9.209360
_cell_length_c 12.838062
_cell_angle_alpha 90.000000
_cell_angle_beta 75.209603
_cell_angle_gamma 90.000000
_cell_volume 3755.169821
_symmetry_space_group_name_H-M "C 2/M"
_symmetry_group_IT_number 12
_symmetry_cell_setting 'monoclinic'
loop_
_space_group_symop_operation_xyz
x,y,z
-x,y,-z
-x,-y,-z
x,-y,z
1/2+x,1/2+y,z
1/2-x,1/2+y,-z
1/2-x,1/2-y,-z
1/2+x,1/2-y,z
loop_
_atom_site_type_symbol
_atom_site_label
_atom_site_fract_x
_atom_site_fract_y
_atom_site_fract_z
Si Si1 0.591389 0.173443 0.352865
Si Si2 0.743959 0.671311 0.189875
Si Si3 0.333815 0.826385 0.851209
Si Si4 0.138023 0.169438 0.729137
Si Si5 0.842501 0.329181 0.077111
Si Si6 0.762791 0.830190 0.386674
Si Si7 0.492886 0.666216 0.629670
Si Si8 0.078295 0.673804 0.603747
O O1 0.633835 0.207885 0.262769
O O2 0.551976 0.256677 0.328221
O O3 0.592951 0.208429 0.475219
O O4 0.584182 0.000000 0.349627
O O5 0.736552 0.500000 0.206698
O O6 0.709407 0.741623 0.138011
O O7 0.791855 0.690627 0.119498
O O8 0.741494 0.752483 0.302142
O O9 0.325513 0.000000 0.855942
O O10 0.353497 0.791739 0.951144
O O11 0.136295 0.235789 0.846235
O O12 0.186924 0.181124 0.662712
O O13 0.109637 0.257408 0.666846
O O14 0.126467 0.000000 0.736303
O O15 0.851093 0.500000 0.089798
O O16 0.750000 0.750000 0.500000
O O17 0.751368 0.000000 0.397432
O O18 0.500000 0.663630 0.500000
O O19 0.493064 0.500000 0.666784
O O20 0.531963 0.757587 0.647818
O O21 0.076797 0.500000 0.614369
#
# Coordination Sequence:
#
# PCOD9181480 Si02
#       8
#     8   8   8   8   8   8   8   8
#     4   9  19  33  50  77 107 135 166 203 254 309
#     4  10  20  33  50  74 100 135 178 217 257 304
#     4  10  20  34  53  77 104 136 173 217 260 303
#     4  10  21  35  52  75 101 132 173 216 256 302
#     4   9  19  36  54  72 100 137 178 217 258 305
#     4  10  21  35  50  70 101 138 171 212 260 307
#     4   9  17  31  51  75 104 136 166 203 250 300
#     4  10  19  32  53  78 105 137 170 204 247 308
#
# _framework density 17.04317
#
# number of rings (size 3 to 8) (size 9 to 14) (size 15 to 20)
#    0.000    2.375    0.000    2.250    1.750    5.000 
#    0.000    0.000    0.000    0.750    0.000    5.250 
#    0.000    0.000    0.000    0.000    0.000    0.000 
#
# Total GULP energy -178528.496860 kJ/mol
# GULP energy per Si atom -5579.015527 kJ/mol
# Density = 1.700438 g / cm^3
# Si number density = 17.043170 Si / 1000 Ang^3
#
#
#
# Elastic Constant Matrix: (Units=GPa)
#
#
# Indices 1 2 3 4 5 6 
#
# 1 53.5140 50.9211 35.6726 0.0000 17.3449 0.0000
# 2 50.9211 84.6295 47.3221 0.0000 18.6212 0.0000
# 3 35.6726 47.3221 76.3642 0.0000 23.9866 0.0000
# 4 0.0000 0.0000 0.0000 22.9424 0.0000 7.4954
# 5 17.3449 18.6212 23.9866 0.0000 18.3471 0.0000
# 6 0.0000 0.0000 0.0000 7.4954 0.0000 31.8861
#
#
#
# Elastic Compliance Matrix: (Units=1/GPa)
#
#
# Indices 1 2 3 4 5 6 
#
# 1 0.049555 -0.024486 -0.001809 0.000000 -0.019631 0.000000
# 2 -0.024486 0.030618 -0.008561 0.000000 0.003266 0.000000
# 3 -0.001809 -0.008561 0.027113 0.000000 -0.025048 0.000000
# 4 0.000000 0.000000 0.000000 0.047213 0.000000 -0.011098
# 5 -0.019631 0.003266 -0.025048 0.000000 0.102496 0.000000
# 6 0.000000 0.000000 0.000000 -0.011098 0.000000 0.033971
#
#
# Mechanical properties :
#
#
# Convention : Reuss Voigt Hill
#
# Bulk Modulus (GPa) = 26.61413 53.59327 40.10370
# Shear Modulus (GPa) = 13.39757 20.00791 16.70274
#
# Velocity S-wave (km/s) = 2.80678 3.43002 3.13393
# Velocity P-wave (km/s) = 5.11406 6.87027 6.05616
#
# Compressibility (1/GPa) = 0.03757403
#
# Stress axis : x y z
#
# Youngs Moduli (GPa) = 20.17961 32.66090 36.88258
#
# Poissons Ratio (x) = 0.79973 0.06672
# Poissons Ratio (y) = 0.49412 0.31575
# Poissons Ratio (z) = 0.03651 0.27961
#
# Static dielectric constant tensor:
#      x y z
#    x 1.556670 0.000000 -0.005140 
#    y 0.000000 1.568730 0.000000 
#    z -0.005140 0.000000 1.567730 
# 
# From -- ./inp_files/187508.got.cif
#   From: 2010.05.17/outbox.cif.g08.bks.cpg/sg12_94_cif.got.tgz:187508.got - 2010.06.03 13:09:07.
