data_PCOD9181981
_publ_section_title
;
Structure prediction by ZEFSAII (Michael W. Deem and Ramdas Pophale) SiO2 
 PCOD9181981
Probable space group: C 2/M
;
_chemical_formula_sum "Si O2"
_cell_formula_units_Z 36
_cell_length_a 8.884596
_cell_length_b 19.506157
_cell_length_c 20.330908
_cell_angle_alpha 90.000000
_cell_angle_beta 149.486675
_cell_angle_gamma 90.000000
_cell_volume 1788.984059
_symmetry_space_group_name_H-M "C 2/M"
_symmetry_group_IT_number 12
_symmetry_cell_setting 'monoclinic'
loop_
_space_group_symop_operation_xyz
x,y,z
-x,y,-z
-x,-y,-z
x,-y,z
1/2+x,1/2+y,z
1/2-x,1/2+y,-z
1/2-x,1/2-y,-z
1/2+x,1/2-y,z
loop_
_atom_site_type_symbol
_atom_site_label
_atom_site_fract_x
_atom_site_fract_y
_atom_site_fract_z
Si Si1 0.453075 0.672976 0.876856
Si Si2 0.500000 0.743193 0.500000
Si Si3 0.501796 0.844936 0.611947
Si Si4 0.971116 0.323188 0.157551
Si Si5 0.036344 0.077056 0.594354
O O1 0.247803 0.682312 0.863113
O O2 0.465244 0.747205 0.846045
O O3 0.266149 0.627435 0.755990
O O4 0.770012 0.646922 0.021912
O O5 0.618153 0.793428 0.600682
O O6 0.231380 0.700237 0.431141
O O7 0.290865 0.903327 0.504142
O O8 0.243414 0.367961 0.288313
O O9 0.000000 0.079153 0.500000
O O10 0.129928 0.000000 0.645760
#
# Coordination Sequence:
#
# PCOD9181981 Si02
#       5
#     8   4   8   8   8
#     4  10  19  32  55  80 111 131 169 222 277 313
#     4  10  20  28  58  84 112 132 172 228 284 300
#     4  11  18  34  52  84 105 140 175 222 268 324
#     4  10  20  35  52  83 108 137 170 219 272 325
#     4  11  22  36  53  74 108 150 184 215 256 317
#
# _framework density 20.123154
#
# number of rings (size 3 to 8) (size 9 to 14) (size 15 to 20)
#    0.000    1.556    3.333    4.000    0.000    0.000 
#    0.000    3.889    0.000    0.000    0.000   20.222 
#    0.000    0.000    0.000    0.000    0.000    0.000 
#
# Total GULP energy -100230.907515 kJ/mol
# GULP energy per Si atom -5568.383751 kJ/mol
# Density = 2.007735 g / cm^3
# Si number density = 20.123154 Si / 1000 Ang^3
#
#
#
# Elastic Constant Matrix: (Units=GPa)
#
#
# Indices 1 2 3 4 5 6 
#
# 1 20.4569 2.4753 1.1745 0.0010 -12.5848 0.0007
# 2 2.4753 54.9413 26.3508 0.0015 -8.2625 0.0002
# 3 1.1745 26.3508 184.5879 0.0005 -25.5452 -0.0020
# 4 0.0010 0.0015 0.0005 18.5609 -0.0012 -6.9123
# 5 -12.5848 -8.2625 -25.5452 -0.0012 22.5004 -0.0008
# 6 0.0007 0.0002 -0.0020 -6.9123 -0.0008 7.0621
#
#
#
# Elastic Compliance Matrix: (Units=1/GPa)
#
#
# Indices 1 2 3 4 5 6 
#
# 1 0.081283 0.001162 0.006724 -0.000001 0.053524 -0.000001
# 2 0.001162 0.019994 -0.002083 -0.000002 0.005627 -0.000003
# 3 0.006724 -0.002083 0.007221 0.000002 0.011194 0.000005
# 4 -0.000001 -0.000002 0.000002 0.084780 0.000009 0.082981
# 5 0.053524 0.005627 0.011194 0.000009 0.089156 0.000017
# 6 -0.000001 -0.000003 0.000005 0.082981 0.000017 0.222821
#
#
# Mechanical properties :
#
#
# Convention : Reuss Voigt Hill
#
# Bulk Modulus (GPa) = 8.32600 35.55414 21.94007
# Shear Modulus (GPa) = 9.36884 24.95704 17.16294
#
# Velocity S-wave (km/s) = 2.16006 3.52549 2.92361
# Velocity P-wave (km/s) = 3.21988 5.85480 4.72474
#
# Compressibility (1/GPa) = 0.12010567
#
# Stress axis : x y z
#
# Youngs Moduli (GPa) = 12.30264 50.01461 138.48046
#
# Poissons Ratio (x) = -0.05813 -0.93115
# Poissons Ratio (y) = -0.01430 0.28844
# Poissons Ratio (z) = -0.08272 0.10417
#
# Static dielectric constant tensor:
#      x y z
#    x 1.740370 0.000000 -0.023370 
#    y 0.000000 1.735020 0.000000 
#    z -0.023370 0.000000 1.857400 
# 
# From -- ./inp_files/302221.got.cif
#   From: 2010.05.17/outbox.cif.g08.bks.cpg/sg12_152_cif.got.tgz:302221.got - 2010.06.03 13:09:07.
