data_PCOD9181194
_publ_section_title
;
Structure prediction by ZEFSAII (Michael W. Deem and Ramdas Pophale) SiO2 
 PCOD9181194
Probable space group: C 2/M
;
_chemical_formula_sum "Si O2"
_cell_formula_units_Z 64
_cell_length_a 27.559417
_cell_length_b 13.491748
_cell_length_c 9.367940
_cell_angle_alpha 90.000000
_cell_angle_beta 100.021234
_cell_angle_gamma 90.000000
_cell_volume 3430.089055
_symmetry_space_group_name_H-M "C 2/M"
_symmetry_group_IT_number 12
_symmetry_cell_setting 'monoclinic'
loop_
_space_group_symop_operation_xyz
x,y,z
-x,y,-z
-x,-y,-z
x,-y,z
1/2+x,1/2+y,z
1/2-x,1/2+y,-z
1/2-x,1/2-y,-z
1/2+x,1/2-y,z
loop_
_atom_site_type_symbol
_atom_site_label
_atom_site_fract_x
_atom_site_fract_y
_atom_site_fract_z
Si Si1 0.346567 0.793782 0.775327
Si Si2 0.001178 0.886180 0.337805
Si Si3 0.048279 0.242551 0.110209
Si Si4 0.226730 0.115843 0.214316
Si Si5 0.903242 0.888822 0.110107
Si Si6 0.772708 0.384467 0.939975
Si Si7 0.822013 0.116705 0.291187
Si Si8 0.200135 0.703388 0.534918
O O1 0.405239 0.805234 0.813130
O O2 0.320111 0.683560 0.762692
O O3 0.322591 0.839579 0.905009
O O4 0.328548 0.839180 0.615409
O O5 0.029714 0.820553 0.236597
O O6 0.000000 0.849853 0.500000
O O7 0.945452 0.889645 0.252040
O O8 0.020302 0.000000 0.347633
O O9 0.075601 0.174097 0.007355
O O10 0.000000 0.283107 0.000000
O O11 0.275655 0.129958 0.337312
O O12 0.212949 0.000000 0.203493
O O13 0.245920 0.152205 0.069415
O O14 0.854260 0.859188 0.167860
O O15 0.895557 0.000000 0.052676
O O16 0.781037 0.500000 0.973251
O O17 0.734257 0.376529 0.789279
O O18 0.829258 0.204063 0.409088
O O19 0.831916 0.000000 0.336405
O O20 0.250000 0.750000 0.500000
#
# Coordination Sequence:
#
# PCOD9181194 Si02
#       8
#     8   8   8   8   8   8   8   8
#     4  11  22  36  54  80 110 145 184 221 271 321
#     4   9  18  32  47  68 102 139 176 220 267 319
#     4  10  21  35  53  75 102 137 182 234 270 313
#     4  10  21  35  54  83 115 145 178 214 261 323
#     4   9  18  31  49  72  98 138 180 218 266 314
#     4  10  20  35  56  79 107 144 180 220 264 317
#     4  10  19  32  52  77 108 144 184 218 260 316
#     4  10  21  34  48  76 111 149 179 219 264 313
#
# _framework density 18.658405999999999
#
# number of rings (size 3 to 8) (size 9 to 14) (size 15 to 20)
#    0.000    2.125    2.500    1.500    3.500    6.000 
#    0.000    0.000    0.000    0.375    0.000    0.000 
#    0.000    2.500    0.000    0.000    0.000    0.000 
#
# Total GULP energy -178170.586433 kJ/mol
# GULP energy per Si atom -5567.830826 kJ/mol
# Density = 1.861594 g / cm^3
# Si number density = 18.658406 Si / 1000 Ang^3
#
#
#
# Elastic Constant Matrix: (Units=GPa)
#
#
# Indices 1 2 3 4 5 6 
#
# 1 94.0307 1.4518 10.9642 0.0000 8.2055 0.0000
# 2 1.4518 18.2452 -3.6890 0.0000 -1.7259 0.0000
# 3 10.9642 -3.6890 72.6937 0.0000 10.8602 0.0000
# 4 0.0000 0.0000 0.0000 10.7548 0.0000 -1.5640
# 5 8.2055 -1.7259 10.8602 0.0000 17.5108 0.0000
# 6 0.0000 0.0000 0.0000 -1.5640 0.0000 18.2992
#
#
#
# Elastic Compliance Matrix: (Units=1/GPa)
#
#
# Indices 1 2 3 4 5 6 
#
# 1 0.011196 -0.001554 -0.001059 0.000000 -0.004743 0.000000
# 2 -0.001554 0.055861 0.002356 0.000000 0.004772 0.000000
# 3 -0.001059 0.002356 0.015349 0.000000 -0.008791 0.000000
# 4 0.000000 0.000000 0.000000 0.094152 0.000000 0.008047
# 5 -0.004743 0.004772 -0.008791 0.000000 0.065253 0.000000
# 6 0.000000 0.000000 0.000000 0.008047 0.000000 0.055335
#
#
# Mechanical properties :
#
#
# Convention : Reuss Voigt Hill
#
# Bulk Modulus (GPa) = 12.21112 22.49151 17.35131
# Shear Modulus (GPa) = 15.38670 21.06246 18.22458
#
# Velocity S-wave (km/s) = 2.87479 3.36347 3.12869
# Velocity P-wave (km/s) = 4.19261 5.21196 4.72982
#
# Compressibility (1/GPa) = 0.08189259
#
# Stress axis : x y z
#
# Youngs Moduli (GPa) = 89.31622 17.90172 65.15088
#
# Poissons Ratio (x) = 0.02781 0.06899
# Poissons Ratio (y) = 0.13877 -0.15350
# Poissons Ratio (z) = 0.09458 -0.04218
#
# Static dielectric constant tensor:
#      x y z
#    x 1.652230 0.000000 0.033180 
#    y 0.000000 1.691590 0.000000 
#    z 0.033180 0.000000 1.726900 
# 
# From -- ./inp_files/104602.got.cif
#   From: 2010.05.17/outbox.cif.g08.bks.cpg/sg12_53_cif.got.tgz:104602.got - 2010.06.03 13:09:07.
