data_PCOD9181718
_publ_section_title
;
Structure prediction by ZEFSAII (Michael W. Deem and Ramdas Pophale) SiO2 
 PCOD9181718
Probable space group: C 2/M
;
_chemical_formula_sum "Si O2"
_cell_formula_units_Z 48
_cell_length_a 14.207247
_cell_length_b 27.998031
_cell_length_c 5.365386
_cell_angle_alpha 90.000000
_cell_angle_beta 98.605457
_cell_angle_gamma 90.000000
_cell_volume 2110.189387
_symmetry_space_group_name_H-M "C 2/M"
_symmetry_group_IT_number 12
_symmetry_cell_setting 'monoclinic'
loop_
_space_group_symop_operation_xyz
x,y,z
-x,y,-z
-x,-y,-z
x,-y,z
1/2+x,1/2+y,z
1/2-x,1/2+y,-z
1/2-x,1/2-y,-z
1/2+x,1/2-y,z
loop_
_atom_site_type_symbol
_atom_site_label
_atom_site_fract_x
_atom_site_fract_y
_atom_site_fract_z
Si Si1 0.896628 0.647174 0.387235
Si Si2 0.139712 0.265564 0.939791
Si Si3 0.697839 0.556240 0.933481
Si Si4 0.642869 0.274678 0.439139
Si Si5 0.590620 0.950578 0.862675
Si Si6 0.695216 0.381859 0.448631
O O1 0.863682 0.679700 0.143352
O O2 0.916300 0.594259 0.309909
O O3 0.804193 0.638990 0.523670
O O4 0.000000 0.666915 0.500000
O O5 0.100406 0.235799 0.691738
O O6 0.250000 0.250000 0.000000
O O7 0.097978 0.253363 0.190077
O O8 0.664205 0.500000 0.929729
O O9 0.665044 0.587488 0.680643
O O10 0.811970 0.553139 0.945839
O O11 0.686243 0.584995 0.194162
O O12 0.750000 0.250000 0.500000
O O13 0.642379 0.331227 0.392181
O O14 0.597336 0.000000 0.717181
O O15 0.500000 0.951185 0.000000
#
# Coordination Sequence:
#
# PCOD9181718 Si02
#       6
#     8   8   8   8   8   8
#     4  11  22  32  50  76 100 133 182 226 262 299
#     4  10  20  35  52  71 100 126 166 222 262 314
#     4  10  21  33  48  70  98 131 168 213 260 300
#     4  10  19  32  54  72  90 128 169 215 253 311
#     4   9  19  33  47  66  99 138 178 220 262 297
#     4  11  20  33  53  70  98 128 178 215 252 300
#
# _framework density 22.746773000000001
#
# number of rings (size 3 to 8) (size 9 to 14) (size 15 to 20)
#    0.000    1.833    3.333    2.500    7.000    2.333 
#    0.000    0.000    0.000    0.000    0.000    0.000 
#    0.000    0.000    0.000    0.000    0.000   69.167 
#
# Total GULP energy -133785.466307 kJ/mol
# GULP energy per Si atom -5574.394429 kJ/mol
# Density = 2.269500 g / cm^3
# Si number density = 22.746773 Si / 1000 Ang^3
#
#
#
# Elastic Constant Matrix: (Units=GPa)
#
#
# Indices 1 2 3 4 5 6 
#
# 1 19.5390 7.3812 7.8883 0.0000 -8.3718 0.0000
# 2 7.3812 183.1986 50.8062 0.0000 -1.9011 0.0000
# 3 7.8883 50.8062 136.5733 0.0000 -14.7459 0.0000
# 4 0.0000 0.0000 0.0000 -48.6103 0.0000 -302.8370
# 5 -8.3718 -1.9011 -14.7459 0.0000 21.0787 0.0000
# 6 0.0000 0.0000 0.0000 -302.8370 0.0000-1205.7938
#
#
#
# Elastic Compliance Matrix: (Units=1/GPa)
#
#
# Indices 1 2 3 4 5 6 
#
# 1 0.062604 -0.002230 -0.000133 0.000000 0.024570 0.000000
# 2 -0.002230 0.006190 -0.002390 0.000000 -0.001999 0.000000
# 3 -0.000133 -0.002390 0.008859 0.000000 0.005929 0.000000
# 4 0.000000 0.000000 0.000000 0.036433 0.000000 -0.009150
# 5 0.024570 -0.001999 0.005929 0.000000 0.061167 0.000000
# 6 0.000000 0.000000 0.000000 -0.009150 0.000000 0.001469
#
#
# Mechanical properties :
#
#
# Convention : Reuss Voigt Hill
#
# Bulk Modulus (GPa) = 14.67446 52.38469 33.52958
# Shear Modulus (GPa) = 23.92980 -228.44940 -102.25980
#
# Velocity S-wave (km/s) = 3.24699 -10.03243 -6.71218
# Velocity P-wave (km/s) = 4.53017 10.54135 6.73043
#
# Compressibility (1/GPa) = 0.06814559
#
# Stress axis : x y z
#
# Youngs Moduli (GPa) = 15.97355 161.53852 112.87953
#
# Poissons Ratio (x) = 0.36029 0.01505
# Poissons Ratio (y) = 0.03563 0.26978
# Poissons Ratio (z) = 0.00213 0.38607
#
# Static dielectric constant tensor:
#      x y z
#    x 1.930100 0.000000 0.069050 
#    y 0.000000 1.865050 0.000000 
#    z 0.069050 0.000000 1.916010 
# 
# From -- ./inp_files/16937.got.cif
#   From: 2010.05.17/outbox.cif.g08.bks.cpg/sg12_9_cif.got.tgz:16937.got - 2010.06.03 13:09:07.
