data_PCOD9181515
_publ_section_title
;
Structure prediction by ZEFSAII (Michael W. Deem and Ramdas Pophale) SiO2 
 PCOD9181515
Probable space group: C 2/M
;
_chemical_formula_sum "Si O2"
_cell_formula_units_Z 52
_cell_length_a 31.375831
_cell_length_b 13.424982
_cell_length_c 21.677153
_cell_angle_alpha 90.000000
_cell_angle_beta 18.910158
_cell_angle_gamma 90.000000
_cell_volume 2959.172736
_symmetry_space_group_name_H-M "C 2/M"
_symmetry_group_IT_number 12
_symmetry_cell_setting 'monoclinic'
loop_
_space_group_symop_operation_xyz
x,y,z
-x,y,-z
-x,-y,-z
x,-y,z
1/2+x,1/2+y,z
1/2-x,1/2+y,-z
1/2-x,1/2-y,-z
1/2+x,1/2-y,z
loop_
_atom_site_type_symbol
_atom_site_label
_atom_site_fract_x
_atom_site_fract_y
_atom_site_fract_z
Si Si1 0.000000 0.726644 0.000000
Si Si2 0.730280 0.764556 0.764037
Si Si3 0.896491 0.880560 0.433655
Si Si4 0.335439 0.881338 0.330376
Si Si5 0.326621 0.275147 0.957627
Si Si6 0.343887 0.115623 0.705032
Si Si7 0.928810 0.380594 0.912797
O O1 0.889456 0.781903 0.111970
O O2 0.920773 0.658592 0.156372
O O3 0.822983 0.826066 0.590944
O O4 0.804852 0.679206 0.698685
O O5 0.663343 0.839159 0.905482
O O6 0.813679 0.854446 0.484353
O O7 0.044944 0.842844 0.228340
O O8 0.890840 0.000000 0.449066
O O9 0.420594 0.852264 0.273893
O O10 0.339199 0.000000 0.325341
O O11 0.379883 0.176000 0.919091
O O12 0.250000 0.250000 0.000000
O O13 0.230107 0.332685 0.136537
O O14 0.500000 0.120450 0.500000
O O15 0.304751 0.000000 0.753550
O O16 0.918933 0.500000 0.921461
#
# Coordination Sequence:
#
# PCOD9181515 Si02
#       7
#     4   8   8   8   8   8   8
#     4   8  13  24  47  76 106 130 152 196 244 290
#     4   9  17  32  54  80 103 128 165 203 246 298
#     4  10  19  32  53  79 106 131 160 206 256 298
#     4   8  14  26  47  75 102 130 162 195 243 301
#     4  11  23  36  51  74 102 133 172 212 253 302
#     4  10  21  38  56  70  93 133 175 211 247 294
#     4   9  18  33  53  76 103 134 167 204 245 295
#
# _framework density 17.572479000000001
#
# number of rings (size 3 to 8) (size 9 to 14) (size 15 to 20)
#    0.000    2.615    0.000    2.077    0.000    5.538 
#    0.000    1.154    0.000    5.077    0.000    0.000 
#    0.000    0.000    0.000    0.000    0.000    0.000 
#
# Total GULP energy -144793.623793 kJ/mol
# GULP energy per Si atom -5568.985531 kJ/mol
# Density = 1.753248 g / cm^3
# Si number density = 17.572479 Si / 1000 Ang^3
#
#
#
# Elastic Constant Matrix: (Units=GPa)
#
#
# Indices 1 2 3 4 5 6 
#
# 1 142.6905 70.7520 54.7847 0.0000 -28.6616 0.0000
# 2 70.7520 115.6787 39.2689 0.0000 -16.5089 0.0000
# 3 54.7847 39.2689 114.0126 0.0000 1.4085 0.0000
# 4 0.0000 0.0000 0.0000 17.5958 0.0000 -3.7805
# 5 -28.6616 -16.5089 1.4085 0.0000 46.6075 0.0000
# 6 0.0000 0.0000 0.0000 -3.7805 0.0000 39.9960
#
#
#
# Elastic Compliance Matrix: (Units=1/GPa)
#
#
# Indices 1 2 3 4 5 6 
#
# 1 0.012466 -0.005350 -0.004220 0.000000 0.005899 0.000000
# 2 -0.005350 0.012718 -0.001825 0.000000 0.001270 0.000000
# 3 -0.004220 -0.001825 0.011472 0.000000 -0.003588 0.000000
# 4 0.000000 0.000000 0.000000 0.058010 0.000000 0.005483
# 5 0.005899 0.001270 -0.003588 0.000000 0.025641 0.000000
# 6 0.000000 0.000000 0.000000 0.005483 0.000000 0.025521
#
#
# Mechanical properties :
#
#
# Convention : Reuss Voigt Hill
#
# Bulk Modulus (GPa) = 72.12691 77.99924 75.06307
# Shear Modulus (GPa) = 28.86161 34.67827 31.76994
#
# Velocity S-wave (km/s) = 4.05709 4.44716 4.25660
# Velocity P-wave (km/s) = 7.94236 8.41743 8.18335
#
# Compressibility (1/GPa) = 0.01386445
#
# Stress axis : x y z
#
# Youngs Moduli (GPa) = 80.21681 78.63031 87.16985
#
# Poissons Ratio (x) = 0.42069 0.36788
# Poissons Ratio (y) = 0.42917 0.15910
# Poissons Ratio (z) = 0.33854 0.14351
#
# Static dielectric constant tensor:
#      x y z
#    x 1.627490 0.000000 -0.018890 
#    y 0.000000 1.562570 0.000000 
#    z -0.018890 0.000000 1.607680 
# 
# From -- ./inp_files/330199.got.cif
#   From: 2010.05.17/outbox.cif.g08.bks.cpg/sg12_166_cif.got.tgz:330199.got - 2010.06.03 13:09:07.
