data_PCOD9181300
_publ_section_title
;
Structure prediction by ZEFSAII (Michael W. Deem and Ramdas Pophale) SiO2 
 PCOD9181300
Probable space group: C 2/M
;
_chemical_formula_sum "Si O2"
_cell_formula_units_Z 64
_cell_length_a 27.013496
_cell_length_b 14.556006
_cell_length_c 10.300953
_cell_angle_alpha 90.000000
_cell_angle_beta 70.325368
_cell_angle_gamma 90.000000
_cell_volume 3813.958488
_symmetry_space_group_name_H-M "C 2/M"
_symmetry_group_IT_number 12
_symmetry_cell_setting 'monoclinic'
loop_
_space_group_symop_operation_xyz
x,y,z
-x,y,-z
-x,-y,-z
x,-y,z
1/2+x,1/2+y,z
1/2-x,1/2+y,-z
1/2-x,1/2-y,-z
1/2+x,1/2-y,z
loop_
_atom_site_type_symbol
_atom_site_label
_atom_site_fract_x
_atom_site_fract_y
_atom_site_fract_z
Si Si1 0.454603 0.607156 0.431989
Si Si2 0.024775 0.107033 0.119706
Si Si3 0.771728 0.891687 0.089253
Si Si4 0.357303 0.276805 0.614288
Si Si5 0.127655 0.222552 0.089505
Si Si6 0.318399 0.107816 0.047045
Si Si7 0.295189 0.891427 0.595984
Si Si8 0.252582 0.391000 0.644355
O O1 0.500000 0.619746 0.500000
O O2 0.437426 0.500000 0.454833
O O3 0.481330 0.622892 0.269182
O O4 0.406315 0.673815 0.503271
O O5 0.074242 0.172298 0.098209
O O6 0.041686 0.000000 0.118069
O O7 0.000000 0.119138 0.000000
O O8 0.746106 0.871720 0.251587
O O9 0.784795 0.000000 0.072317
O O10 0.822758 0.833067 0.012246
O O11 0.726833 0.874537 0.021069
O O12 0.366949 0.276507 0.759826
O O13 0.344615 0.174324 0.576511
O O14 0.304600 0.334365 0.630268
O O15 0.134100 0.325042 0.028484
O O16 0.291878 0.128527 0.208903
O O17 0.331761 0.000000 0.029794
O O18 0.268981 0.872052 0.480271
O O19 0.307944 0.000000 0.591281
O O20 0.264441 0.500000 0.643239
#
# Coordination Sequence:
#
# PCOD9181300 Si02
#       8
#     8   8   8   8   8   8   8   8
#     4  10  21  37  57  81 107 135 175 226 273 317
#     4  10  23  41  58  81 111 137 170 225 282 321
#     4  10  19  32  52  80 112 142 177 216 260 317
#     4  12  21  33  58  82 104 144 188 218 259 319
#     4  12  21  33  58  82 105 142 186 221 260 318
#     4  10  20  34  53  80 112 144 178 217 260 314
#     4  10  22  37  51  77 117 148 173 217 267 312
#     4  10  21  35  52  80 115 144 176 219 265 315
#
# _framework density 16.780465
#
# number of rings (size 3 to 8) (size 9 to 14) (size 15 to 20)
#    0.000    1.500    3.750    2.250    0.000    3.000 
#    0.000    3.750    0.000    1.500    0.000    0.000 
#    0.000    0.000    0.000    0.000    0.000    0.000 
#
# Total GULP energy -178761.224855 kJ/mol
# GULP energy per Si atom -5586.288277 kJ/mol
# Density = 1.674227 g / cm^3
# Si number density = 16.780465 Si / 1000 Ang^3
#
#
#
# Elastic Constant Matrix: (Units=GPa)
#
#
# Indices 1 2 3 4 5 6 
#
# 1 79.3556 69.6806 51.0257 0.0000 -7.3200 0.0000
# 2 69.6806 98.9678 55.9630 0.0000 -14.2111 0.0000
# 3 51.0257 55.9630 136.6059 0.0000 8.2970 0.0000
# 4 0.0000 0.0000 0.0000 23.0317 0.0000 -7.2149
# 5 -7.3200 -14.2111 8.2970 0.0000 24.5746 0.0000
# 6 0.0000 0.0000 0.0000 -7.2149 0.0000 31.4448
#
#
#
# Elastic Compliance Matrix: (Units=1/GPa)
#
#
# Indices 1 2 3 4 5 6 
#
# 1 0.034519 -0.022493 -0.003587 0.000000 -0.001514 0.000000
# 2 -0.022493 0.030490 -0.004853 0.000000 0.012570 0.000000
# 3 -0.003587 -0.004853 0.011111 0.000000 -0.007626 0.000000
# 4 0.000000 0.000000 0.000000 0.046781 0.000000 0.010734
# 5 -0.001514 0.012570 -0.007626 0.000000 0.050085 0.000000
# 6 0.000000 0.000000 0.000000 0.010734 0.000000 0.034265
#
#
# Mechanical properties :
#
#
# Convention : Reuss Voigt Hill
#
# Bulk Modulus (GPa) = 70.15052 74.25197 72.20125
# Shear Modulus (GPa) = 18.25698 25.02756 21.64227
#
# Velocity S-wave (km/s) = 3.30205 3.86615 3.59518
# Velocity P-wave (km/s) = 7.51223 8.01714 7.76879
#
# Compressibility (1/GPa) = 0.01425506
#
# Stress axis : x y z
#
# Youngs Moduli (GPa) = 28.96959 32.79766 89.99836
#
# Poissons Ratio (x) = 0.73772 0.32283
# Poissons Ratio (y) = 0.65161 0.43672
# Poissons Ratio (z) = 0.10392 0.15915
#
# Static dielectric constant tensor:
#      x y z
#    x 1.520040 0.000000 0.010280 
#    y 0.000000 1.594760 0.000000 
#    z 0.010280 0.000000 1.563010 
# 
# From -- ./inp_files/104491.got.cif
#   From: 2010.05.17/outbox.cif.g08.bks.cpg/sg12_53_cif.got.tgz:104491.got - 2010.06.03 13:09:07.
