data_PCOD9181154
_publ_section_title
;
Structure prediction by ZEFSAII (Michael W. Deem and Ramdas Pophale) SiO2 
 PCOD9181154
Probable space group: C 2/M
;
_chemical_formula_sum "Si O2"
_cell_formula_units_Z 64
_cell_length_a 21.252600
_cell_length_b 7.840913
_cell_length_c 22.708872
_cell_angle_alpha 90.000000
_cell_angle_beta 117.852910
_cell_angle_gamma 90.000000
_cell_volume 3345.801517
_symmetry_space_group_name_H-M "C 2/M"
_symmetry_group_IT_number 12
_symmetry_cell_setting 'monoclinic'
loop_
_space_group_symop_operation_xyz
x,y,z
-x,y,-z
-x,-y,-z
x,-y,z
1/2+x,1/2+y,z
1/2-x,1/2+y,-z
1/2-x,1/2-y,-z
1/2+x,1/2-y,z
loop_
_atom_site_type_symbol
_atom_site_label
_atom_site_fract_x
_atom_site_fract_y
_atom_site_fract_z
Si Si1 0.832791 0.705556 0.040524
Si Si2 0.081828 0.795216 0.676977
Si Si3 0.703855 0.705459 0.536535
Si Si4 0.580393 0.203985 0.033918
Si Si5 0.300961 0.702483 0.825801
Si Si6 0.726912 0.294356 0.677080
Si Si7 0.458572 0.291646 0.541337
Si Si8 0.656235 0.794946 0.824706
O O1 0.838670 0.500000 0.042436
O O2 0.857969 0.767570 0.115662
O O3 0.750000 0.750000 0.000000
O O4 0.875877 0.772652 0.003237
O O5 0.150416 0.733590 0.669372
O O6 0.097250 0.749630 0.750872
O O7 0.008170 0.733949 0.616909
O O8 0.082060 0.000000 0.672007
O O9 0.700924 0.500000 0.538576
O O10 0.750000 0.750000 0.500000
O O11 0.734433 0.765598 0.613108
O O12 0.622566 0.768068 0.494230
O O13 0.626984 0.234652 0.112635
O O14 0.575674 0.000000 0.024674
O O15 0.500000 0.271652 0.000000
O O16 0.300514 0.500000 0.831413
O O17 0.285679 0.744680 0.751016
O O18 0.232237 0.770684 0.832560
O O19 0.724784 0.500000 0.675483
O O20 0.500000 0.243368 0.500000
O O21 0.456236 0.500000 0.540959
O O22 0.661575 0.000000 0.829309
#
# Coordination Sequence:
#
# PCOD9181154 Si02
#       8
#     8   8   8   8   8   8   8   8
#     4  10  19  33  53  75 101 132 168 210 254 302
#     4   9  16  28  51  78  98 124 170 217 255 297
#     4  10  20  34  53  77 107 140 173 214 260 309
#     4  10  21  36  54  77 105 139 177 212 252 308
#     4  10  19  32  52  77 104 134 169 214 263 307
#     4   9  17  31  52  76 100 132 174 214 255 308
#     4   9  15  29  53  77  99 128 171 218 256 294
#     4   9  18  31  47  73 106 133 161 205 264 308
#
# _framework density 19.128451999999999
#
# number of rings (size 3 to 8) (size 9 to 14) (size 15 to 20)
#    0.000    2.500    2.500    0.375    0.000    1.750 
#    0.000    1.875    0.000    5.250    0.000    0.000 
#    0.000    0.000    0.000    0.000    0.000    0.000 
#
# Total GULP energy -178460.063831 kJ/mol
# GULP energy per Si atom -5576.876995 kJ/mol
# Density = 1.908491 g / cm^3
# Si number density = 19.128452 Si / 1000 Ang^3
#
#
#
# Elastic Constant Matrix: (Units=GPa)
#
#
# Indices 1 2 3 4 5 6 
#
# 1 123.8246 7.0308 96.0814 0.0000 2.5461 0.0000
# 2 7.0308 19.2254 3.6439 0.0000 -0.6088 0.0000
# 3 96.0814 3.6439 199.3921 0.0000 1.7179 0.0000
# 4 0.0000 0.0000 0.0000 19.5498 0.0000 -4.7950
# 5 2.5461 -0.6088 1.7179 0.0000 29.4723 0.0000
# 6 0.0000 0.0000 0.0000 -4.7950 0.0000 10.8198
#
#
#
# Elastic Compliance Matrix: (Units=1/GPa)
#
#
# Indices 1 2 3 4 5 6 
#
# 1 0.013166 -0.003653 -0.006270 0.000000 -0.000847 0.000000
# 2 -0.003653 0.053247 0.000776 0.000000 0.001370 0.000000
# 3 -0.006270 0.000776 0.008022 0.000000 0.000090 0.000000
# 4 0.000000 0.000000 0.000000 0.057389 0.000000 0.025433
# 5 -0.000847 0.001370 0.000090 0.000000 0.034026 0.000000
# 6 0.000000 0.000000 0.000000 0.025433 0.000000 0.103695
#
#
# Mechanical properties :
#
#
# Convention : Reuss Voigt Hill
#
# Bulk Modulus (GPa) = 17.81299 61.77268 39.79284
# Shear Modulus (GPa) = 16.31029 27.68079 21.99554
#
# Velocity S-wave (km/s) = 2.92322 3.80820 3.39468
# Velocity P-wave (km/s) = 4.55260 7.19029 6.01774
#
# Compressibility (1/GPa) = 0.05613881
#
# Stress axis : x y z
#
# Youngs Moduli (GPa) = 75.95151 18.78038 124.65996
#
# Poissons Ratio (x) = 0.06861 0.78167
# Poissons Ratio (y) = 0.27747 -0.09668
# Poissons Ratio (z) = 0.47625 -0.01456
#
# Static dielectric constant tensor:
#      x y z
#    x 1.648450 0.000000 -0.006390 
#    y 0.000000 1.699860 0.000000 
#    z -0.006390 0.000000 1.685180 
# 
# From -- ./inp_files/319996.got.cif
#   From: 2010.05.17/outbox.cif.g08.bks.cpg/sg12_160_cif.got.tgz:319996.got - 2010.06.03 13:09:07.
