data_PCOD9181222
_publ_section_title
;
Structure prediction by ZEFSAII (Michael W. Deem and Ramdas Pophale) SiO2 
 PCOD9181222
Probable space group: C 2/M
;
_chemical_formula_sum "Si O2"
_cell_formula_units_Z 58
_cell_length_a 23.847027
_cell_length_b 7.700461
_cell_length_c 17.126808
_cell_angle_alpha 90.000000
_cell_angle_beta 102.495634
_cell_angle_gamma 90.000000
_cell_volume 3070.550516
_symmetry_space_group_name_H-M "C 2/M"
_symmetry_group_IT_number 12
_symmetry_cell_setting 'monoclinic'
loop_
_space_group_symop_operation_xyz
x,y,z
-x,y,-z
-x,-y,-z
x,-y,z
1/2+x,1/2+y,z
1/2-x,1/2+y,-z
1/2-x,1/2-y,-z
1/2+x,1/2-y,z
loop_
_atom_site_type_symbol
_atom_site_label
_atom_site_fract_x
_atom_site_fract_y
_atom_site_fract_z
Si Si1 0.434467 0.795738 0.083193
Si Si2 0.561940 0.294248 0.737249
Si Si3 0.026509 0.289914 0.425883
Si Si4 0.808614 0.703646 0.244957
Si Si5 0.845411 0.299066 0.551225
Si Si6 0.695936 0.207618 0.930473
Si Si7 0.263971 0.701689 0.394024
Si Si8 0.000000 0.000000 0.000000
O O1 0.448190 0.786061 0.180195
O O2 0.366822 0.741595 0.056638
O O3 0.471312 0.655359 0.047328
O O4 0.440708 0.000000 0.060906
O O5 0.566888 0.500000 0.749215
O O6 0.513360 0.255333 0.659259
O O7 0.623067 0.226217 0.724229
O O8 0.029106 0.500000 0.432029
O O9 0.091243 0.221805 0.433185
O O10 0.000000 0.227188 0.500000
O O11 0.794904 0.500000 0.242349
O O12 0.795809 0.776739 0.154981
O O13 0.774728 0.785991 0.305973
O O14 0.852951 0.500000 0.576533
O O15 0.797136 0.225013 0.595196
O O16 0.815147 0.290621 0.457539
O O17 0.692185 0.000000 0.921911
O O18 0.750000 0.250000 0.000000
O O19 0.265859 0.500000 0.418456
#
# Coordination Sequence:
#
# PCOD9181222 Si02
#       8
#     8   8   8   8   8   8   8   2
#     4  10  22  41  63  94 126 161 205 253 307 368
#     4  11  21  36  58  86 116 151 195 246 300 347
#     4  10  20  34  54  79 111 155 199 241 292 347
#     4  10  20  35  55  81 109 146 187 233 290 347
#     4   9  19  34  51  74 109 150 187 228 287 342
#     4   9  20  36  60  87 118 154 190 247 306 358
#     4  10  19  32  52  78 106 142 187 234 281 339
#     4  12  22  40  68  94 118 164 210 250 296 382
#
# _framework density 18.889119999999998
#
# number of rings (size 3 to 8) (size 9 to 14) (size 15 to 20)
#    0.000    2.069    0.690    3.931    0.966    3.586 
#    0.000    1.379    0.000    3.310    0.000    0.000 
#    0.000    0.000    0.000    0.000    0.000    0.000 
#
# Total GULP energy -161502.813457 kJ/mol
# GULP energy per Si atom -5569.062533 kJ/mol
# Density = 1.884613 g / cm^3
# Si number density = 18.889120 Si / 1000 Ang^3
#
#
#
# Elastic Constant Matrix: (Units=GPa)
#
#
# Indices 1 2 3 4 5 6 
#
# 1 111.2601 11.3245 91.5404 0.0000 0.5160 0.0000
# 2 11.3245 67.5566 14.9095 0.0000 -14.6919 0.0000
# 3 91.5404 14.9095 102.3706 0.0000 -5.0943 0.0000
# 4 0.0000 0.0000 0.0000 21.6095 0.0000 10.5606
# 5 0.5160 -14.6919 -5.0943 0.0000 34.5256 0.0000
# 6 0.0000 0.0000 0.0000 10.5606 0.0000 -2.1240
#
#
#
# Elastic Compliance Matrix: (Units=1/GPa)
#
#
# Indices 1 2 3 4 5 6 
#
# 1 0.034900 -0.000033 -0.031460 0.000000 -0.005178 0.000000
# 2 -0.000033 0.016748 -0.002070 0.000000 0.006822 0.000000
# 3 -0.031460 -0.002070 0.038464 0.000000 0.005265 0.000000
# 4 0.000000 0.000000 0.000000 0.013492 0.000000 0.067084
# 5 -0.005178 0.006822 0.005265 0.000000 0.032721 0.000000
# 6 0.000000 0.000000 0.000000 0.067084 0.000000 -0.137270
#
#
# Mechanical properties :
#
#
# Convention : Reuss Voigt Hill
#
# Bulk Modulus (GPa) = 43.50692 57.41512 50.46102
# Shear Modulus (GPa) = 67.71022 21.69642 44.70332
#
# Velocity S-wave (km/s) = 5.99366 3.39281 4.87007
# Velocity P-wave (km/s) = 8.42505 6.76831 7.64171
#
# Compressibility (1/GPa) = 0.02298485
#
# Stress axis : x y z
#
# Youngs Moduli (GPa) = 28.65366 59.70687 25.99842
#
# Poissons Ratio (x) = 0.00197 0.81792
# Poissons Ratio (y) = 0.00095 0.05382
# Poissons Ratio (z) = 0.90145 0.12361
#
# Static dielectric constant tensor:
#      x y z
#    x 1.667840 0.000000 -0.005860 
#    y 0.000000 1.702910 0.000000 
#    z -0.005860 0.000000 1.646400 
# 
# From -- ./inp_files/237769.got.cif
#   From: 2010.05.17/outbox.cif.g08.bks.cpg/sg12_119_cif.got.tgz:237769.got - 2010.06.03 13:09:07.
