data_PCOD9181735
_publ_section_title
;
Structure prediction by ZEFSAII (Michael W. Deem and Ramdas Pophale) SiO2 
 PCOD9181735
Probable space group: C 2/M
;
_chemical_formula_sum "Si O2"
_cell_formula_units_Z 64
_cell_length_a 20.841780
_cell_length_b 7.677690
_cell_length_c 19.621193
_cell_angle_alpha 90.000000
_cell_angle_beta 88.638815
_cell_angle_gamma 90.000000
_cell_volume 3138.833071
_symmetry_space_group_name_H-M "C 2/M"
_symmetry_group_IT_number 12
_symmetry_cell_setting 'monoclinic'
loop_
_space_group_symop_operation_xyz
x,y,z
-x,y,-z
-x,-y,-z
x,-y,z
1/2+x,1/2+y,z
1/2-x,1/2+y,-z
1/2-x,1/2-y,-z
1/2+x,1/2-y,z
loop_
_atom_site_type_symbol
_atom_site_label
_atom_site_fract_x
_atom_site_fract_y
_atom_site_fract_z
Si Si1 0.801545 0.792472 0.941198
Si Si2 0.612534 0.713777 0.577662
Si Si3 0.856555 0.211570 0.577380
Si Si4 0.730687 0.295918 0.661908
Si Si5 0.483219 0.290965 0.651784
Si Si6 0.552345 0.792788 0.201125
Si Si7 0.802924 0.294461 0.789372
Si Si8 0.053292 0.795780 0.049594
O O1 0.780511 0.726010 0.867436
O O2 0.873764 0.723005 0.954867
O O3 0.806597 0.000000 0.935236
O O4 0.750000 0.750000 0.000000
O O5 0.612562 0.500000 0.577354
O O6 0.629216 0.765704 0.500335
O O7 0.667279 0.776822 0.628165
O O8 0.542981 0.771158 0.605471
O O9 0.789726 0.279733 0.608032
O O10 0.915403 0.272072 0.623513
O O11 0.853937 0.000000 0.579465
O O12 0.716727 0.500000 0.673971
O O13 0.756626 0.219831 0.732537
O O14 0.482179 0.500000 0.646295
O O15 0.488908 0.246198 0.731162
O O16 0.624449 0.722070 0.214322
O O17 0.531449 0.719571 0.128758
O O18 0.556312 0.000000 0.192400
O O19 0.808844 0.500000 0.774328
O O20 0.059323 0.000000 0.032016
O O21 0.000000 0.719799 0.000000
#
# Coordination Sequence:
#
# PCOD9181735 Si02
#       8
#     8   8   8   8   8   8   8   8
#     4  10  20  35  57  82 108 137 171 212 256 304
#     4   9  19  34  51  75 104 137 175 217 264 310
#     4  10  19  32  54  78 101 133 176 221 262 310
#     4  10  19  34  54  75 103 137 175 216 261 312
#     4  10  19  33  53  75 103 138 177 217 258 309
#     4  10  19  33  54  79 107 137 173 215 258 307
#     4   9  18  33  53  75 102 138 176 212 251 304
#     4   9  19  37  59  82 106 136 176 214 250 303
#
# _framework density 20.389742999999999
#
# number of rings (size 3 to 8) (size 9 to 14) (size 15 to 20)
#    0.000    2.375    1.250    1.500    0.000    3.250 
#    2.250    1.250    0.000    1.500    0.000    0.000 
#    0.000    0.000    0.000    0.000    0.000    0.000 
#
# Total GULP energy -178589.420294 kJ/mol
# GULP energy per Si atom -5580.919384 kJ/mol
# Density = 2.034333 g / cm^3
# Si number density = 20.389743 Si / 1000 Ang^3
#
#
#
# Elastic Constant Matrix: (Units=GPa)
#
#
# Indices 1 2 3 4 5 6 
#
# 1 34.2043 -3.0484 3.0982 0.0000 8.3500 0.0000
# 2 -3.0484 32.9495 -13.2820 0.0000 8.9636 0.0000
# 3 3.0982 -13.2820 95.0515 0.0000 8.9583 0.0000
# 4 0.0000 0.0000 0.0000 17.8065 0.0000 -8.0003
# 5 8.3500 8.9636 8.9583 0.0000 33.0712 0.0000
# 6 0.0000 0.0000 0.0000 -8.0003 0.0000 12.3937
#
#
#
# Elastic Compliance Matrix: (Units=1/GPa)
#
#
# Indices 1 2 3 4 5 6 
#
# 1 0.032124 0.005962 0.000721 0.000000 -0.009922 0.000000
# 2 0.005962 0.037006 0.006223 0.000000 -0.013221 0.000000
# 3 0.000721 0.006223 0.011845 0.000000 -0.005077 0.000000
# 4 0.000000 0.000000 0.000000 0.079100 0.000000 0.051060
# 5 -0.009922 -0.013221 -0.005077 0.000000 0.037702 0.000000
# 6 0.000000 0.000000 0.000000 0.051060 0.000000 0.113646
#
#
# Mechanical properties :
#
#
# Convention : Reuss Voigt Hill
#
# Bulk Modulus (GPa) = 9.36438 15.08231 12.22335
# Shear Modulus (GPa) = 15.56627 24.35012 19.95819
#
# Velocity S-wave (km/s) = 2.76603 3.45952 3.13203
# Velocity P-wave (km/s) = 3.84758 4.83433 4.36891
#
# Compressibility (1/GPa) = 0.10678760
#
# Stress axis : x y z
#
# Youngs Moduli (GPa) = 31.12906 27.02248 84.42259
#
# Poissons Ratio (x) = -0.16111 -0.06088
# Poissons Ratio (y) = -0.18559 -0.52534
# Poissons Ratio (z) = -0.02245 -0.16815
#
# Static dielectric constant tensor:
#      x y z
#    x 1.723150 0.000000 0.021710 
#    y 0.000000 1.765450 0.000000 
#    z 0.021710 0.000000 1.718380 
# 
# From -- ./inp_files/281320.got.cif
#   From: 2010.05.17/outbox.cif.g08.bks.cpg/sg12_141_cif.got.tgz:281320.got - 2010.06.03 13:09:07.
