data_PCOD9181067
_publ_section_title
;
Structure prediction by ZEFSAII (Michael W. Deem and Ramdas Pophale) SiO2 
 PCOD9181067
Probable space group: C 2/M
;
_chemical_formula_sum "Si O2"
_cell_formula_units_Z 64
_cell_length_a 25.631316
_cell_length_b 9.224638
_cell_length_c 17.815402
_cell_angle_alpha 90.000000
_cell_angle_beta 77.896998
_cell_angle_gamma 90.000000
_cell_volume 4118.637527
_symmetry_space_group_name_H-M "C 2/M"
_symmetry_group_IT_number 12
_symmetry_cell_setting 'monoclinic'
loop_
_space_group_symop_operation_xyz
x,y,z
-x,y,-z
-x,-y,-z
x,-y,z
1/2+x,1/2+y,z
1/2-x,1/2+y,-z
1/2-x,1/2-y,-z
1/2+x,1/2-y,z
loop_
_atom_site_type_symbol
_atom_site_label
_atom_site_fract_x
_atom_site_fract_y
_atom_site_fract_z
Si Si1 0.469064 0.672247 0.339807
Si Si2 0.759774 0.673286 0.076352
Si Si3 0.931084 0.672326 0.905235
Si Si4 0.041085 0.173876 0.831035
Si Si5 0.090490 0.827569 0.352645
Si Si6 0.937644 0.667329 0.493430
Si Si7 0.878747 0.327827 0.084704
Si Si8 0.351101 0.673807 0.813793
O O1 0.462322 0.500000 0.352328
O O2 0.455028 0.709144 0.258680
O O3 0.531971 0.703714 0.334661
O O4 0.436188 0.754797 0.413599
O O5 0.761508 0.500000 0.063066
O O6 0.816991 0.714771 0.092921
O O7 0.709723 0.704244 0.145282
O O8 0.750000 0.750000 0.000000
O O9 0.936693 0.500000 0.890681
O O10 0.889856 0.741475 0.858586
O O11 0.987547 0.751148 0.878410
O O12 0.907747 0.693187 0.995722
O O13 0.090504 0.236335 0.862454
O O14 0.036908 0.000000 0.839508
O O15 0.094047 0.745470 0.430270
O O16 0.133293 0.788710 0.276137
O O17 0.092740 0.000000 0.365590
O O18 0.922741 0.500000 0.491892
O O19 0.000000 0.675373 0.500000
O O20 0.881467 0.500000 0.101439
O O21 0.360605 0.500000 0.819646
#
# Coordination Sequence:
#
# PCOD9181067 Si02
#       8
#     8   8   8   8   8   8   8   8
#     4   9  17  30  46  66  95 128 160 195 239 288
#     4  10  20  35  54  73  98 129 168 211 251 294
#     4  11  21  33  50  71 101 134 164 205 254 297
#     4  11  22  35  51  73  98 131 173 208 241 294
#     4   9  16  29  46  67  97 128 159 197 240 286
#     4   9  17  27  42  68  97 126 159 190 232 293
#     4  10  22  37  49  70 100 133 168 207 255 296
#     4  10  19  32  52  75  98 131 171 206 242 292
#
# _framework density 15.53912
#
# number of rings (size 3 to 8) (size 9 to 14) (size 15 to 20)
#    0.000    2.125    2.500    1.500    0.000    6.000 
#    0.000    0.000    0.000    0.000    0.000    0.875 
#    0.000    0.000    0.000    0.000    0.000    0.000 
#
# Total GULP energy -178506.233037 kJ/mol
# GULP energy per Si atom -5578.319782 kJ/mol
# Density = 1.550375 g / cm^3
# Si number density = 15.539120 Si / 1000 Ang^3
#
#
#
# Elastic Constant Matrix: (Units=GPa)
#
#
# Indices 1 2 3 4 5 6 
#
# 1 107.0301 49.9989 68.5476 0.0000 -1.1474 0.0000
# 2 49.9989 53.7556 67.0042 0.0000 -4.2435 0.0000
# 3 68.5476 67.0042 130.1103 0.0000 -18.3482 0.0000
# 4 0.0000 0.0000 0.0000 21.9250 0.0000 4.3275
# 5 -1.1474 -4.2435 -18.3482 0.0000 12.5790 0.0000
# 6 0.0000 0.0000 0.0000 4.3275 0.0000 20.6166
#
#
#
# Elastic Compliance Matrix: (Units=1/GPa)
#
#
# Indices 1 2 3 4 5 6 
#
# 1 0.017456 -0.010829 -0.004923 0.000000 -0.009242 0.000000
# 2 -0.010829 0.067186 -0.032528 0.000000 -0.025769 0.000000
# 3 -0.004923 -0.032528 0.032003 0.000000 0.035258 0.000000
# 4 0.000000 0.000000 0.000000 0.047581 0.000000 -0.009987
# 5 -0.009242 -0.025769 0.035258 0.000000 0.121390 0.000000
# 6 0.000000 0.000000 0.000000 -0.009987 0.000000 0.050601
#
#
# Mechanical properties :
#
#
# Convention : Reuss Voigt Hill
#
# Bulk Modulus (GPa) = 49.79079 73.55527 61.67303
# Shear Modulus (GPa) = 11.37728 18.04714 14.71221
#
# Velocity S-wave (km/s) = 2.70880 3.41163 3.08033
# Velocity P-wave (km/s) = 6.47265 7.93456 7.24060
#
# Compressibility (1/GPa) = 0.02008404
#
# Stress axis : x y z
#
# Youngs Moduli (GPa) = 57.28734 14.88405 31.24726
#
# Poissons Ratio (x) = 0.16118 0.15383
# Poissons Ratio (y) = 0.62039 1.01641
# Poissons Ratio (z) = 0.28202 0.48415
#
# Static dielectric constant tensor:
#      x y z
#    x 1.496710 0.000000 -0.011180 
#    y 0.000000 1.519490 0.000000 
#    z -0.011180 0.000000 1.508380 
# 
# From -- ./inp_files/287544.got.cif
#   From: 2010.05.17/outbox.cif.g08.bks.cpg/sg12_144_cif.got.tgz:287544.got - 2010.06.03 13:09:07.
