data_PCOD9181100
_publ_section_title
;
Structure prediction by ZEFSAII (Michael W. Deem and Ramdas Pophale) SiO2 
 PCOD9181100
Probable space group: C 2/M
;
_chemical_formula_sum "Si O2"
_cell_formula_units_Z 48
_cell_length_a 28.344711
_cell_length_b 8.860085
_cell_length_c 11.607497
_cell_angle_alpha 90.000000
_cell_angle_beta 78.023157
_cell_angle_gamma 90.000000
_cell_volume 2851.610257
_symmetry_space_group_name_H-M "C 2/M"
_symmetry_group_IT_number 12
_symmetry_cell_setting 'monoclinic'
loop_
_space_group_symop_operation_xyz
x,y,z
-x,y,-z
-x,-y,-z
x,-y,z
1/2+x,1/2+y,z
1/2-x,1/2+y,-z
1/2-x,1/2-y,-z
1/2+x,1/2-y,z
loop_
_atom_site_type_symbol
_atom_site_label
_atom_site_fract_x
_atom_site_fract_y
_atom_site_fract_z
Si Si1 0.610639 0.679218 0.525303
Si Si2 0.222203 0.319423 0.849513
Si Si3 0.205166 0.681155 0.591748
Si Si4 0.513882 0.173207 0.628880
Si Si5 0.674926 0.679730 0.092869
Si Si6 0.408139 0.818654 0.716753
O O1 0.615808 0.500000 0.517158
O O2 0.656086 0.752784 0.565024
O O3 0.561038 0.725282 0.614611
O O4 0.606580 0.744866 0.397760
O O5 0.216343 0.500000 0.867834
O O6 0.210793 0.280927 0.723888
O O7 0.277771 0.283762 0.853510
O O8 0.188824 0.234859 0.958381
O O9 0.205530 0.500000 0.580550
O O10 0.250000 0.750000 0.500000
O O11 0.500000 0.172418 0.500000
O O12 0.464062 0.222266 0.713708
O O13 0.525414 0.000000 0.654991
O O14 0.667884 0.500000 0.099115
O O15 0.628860 0.762357 0.168856
O O16 0.406610 0.000000 0.705210
#
# Coordination Sequence:
#
# PCOD9181100 Si02
#       6
#     8   8   8   8   8   8
#     4  11  21  32  49  75 106 136 168 208 255 301
#     4   9  20  36  51  71 100 135 170 202 244 298
#     4  11  22  36  54  75 103 137 172 207 245 297
#     4   8  16  31  49  71  99 132 168 205 250 301
#     4  10  19  32  53  78 102 128 164 210 253 296
#     4  10  19  32  52  76 103 134 169 208 251 301
#
# _framework density 16.832597
#
# number of rings (size 3 to 8) (size 9 to 14) (size 15 to 20)
#    0.000    2.167    0.000    5.000    0.000    7.000 
#    0.000    0.000    0.000    1.000    0.000    7.000 
#    0.000    0.000    0.000    0.000    0.000    0.000 
#
# Total GULP energy -133931.704983 kJ/mol
# GULP energy per Si atom -5580.487708 kJ/mol
# Density = 1.679428 g / cm^3
# Si number density = 16.832597 Si / 1000 Ang^3
#
#
#
# Elastic Constant Matrix: (Units=GPa)
#
#
# Indices 1 2 3 4 5 6 
#
# 1 131.0184 63.6480 73.9161 0.0000 -19.6596 0.0000
# 2 63.6480 79.0368 54.7530 0.0000 -7.4416 0.0000
# 3 73.9161 54.7530 90.4850 0.0000 -14.5814 0.0000
# 4 0.0000 0.0000 0.0000 27.4570 0.0000 -6.4744
# 5 -19.6596 -7.4416 -14.5814 0.0000 31.1842 0.0000
# 6 0.0000 0.0000 0.0000 -6.4744 0.0000 28.3177
#
#
#
# Elastic Compliance Matrix: (Units=1/GPa)
#
#
# Indices 1 2 3 4 5 6 
#
# 1 0.016547 -0.006964 -0.008532 0.000000 0.004780 0.000000
# 2 -0.006964 0.024746 -0.009778 0.000000 -0.003057 0.000000
# 3 -0.008532 -0.009778 0.024545 0.000000 0.003764 0.000000
# 4 0.000000 0.000000 0.000000 0.038496 0.000000 0.008802
# 5 0.004780 -0.003057 0.003764 0.000000 0.036112 0.000000
# 6 0.000000 0.000000 0.000000 0.008802 0.000000 0.037326
#
#
# Mechanical properties :
#
#
# Convention : Reuss Voigt Hill
#
# Bulk Modulus (GPa) = 65.40655 76.13051 70.76853
# Shear Modulus (GPa) = 21.42095 24.60666 23.01381
#
# Velocity S-wave (km/s) = 3.57120 3.82756 3.70160
# Velocity P-wave (km/s) = 7.47971 8.05356 7.77193
#
# Compressibility (1/GPa) = 0.01528899
#
# Stress axis : x y z
#
# Youngs Moduli (GPa) = 60.43570 40.41024 40.74153
#
# Poissons Ratio (x) = 0.28141 0.34763
# Poissons Ratio (y) = 0.42087 0.39837
# Poissons Ratio (z) = 0.51567 0.39513
#
# Static dielectric constant tensor:
#      x y z
#    x 1.566470 0.000000 -0.016230 
#    y 0.000000 1.559680 0.000000 
#    z -0.016230 0.000000 1.549680 
# 
# From -- ./inp_files/172176.got.cif
#   From: 2010.05.17/outbox.cif.g08.bks.cpg/sg12_87_cif.got.tgz:172176.got - 2010.06.03 13:09:07.
