data_PCOD9181797
_publ_section_title
;
Structure prediction by ZEFSAII (Michael W. Deem and Ramdas Pophale) SiO2 
 PCOD9181797
Probable space group: C 2/M
;
_chemical_formula_sum "Si O2"
_cell_formula_units_Z 56
_cell_length_a 20.684077
_cell_length_b 7.420082
_cell_length_c 18.025419
_cell_angle_alpha 90.000000
_cell_angle_beta 65.520070
_cell_angle_gamma 90.000000
_cell_volume 2517.806929
_symmetry_space_group_name_H-M "C 2/M"
_symmetry_group_IT_number 12
_symmetry_cell_setting 'monoclinic'
loop_
_space_group_symop_operation_xyz
x,y,z
-x,y,-z
-x,-y,-z
x,-y,z
1/2+x,1/2+y,z
1/2-x,1/2+y,-z
1/2-x,1/2-y,-z
1/2+x,1/2-y,z
loop_
_atom_site_type_symbol
_atom_site_label
_atom_site_fract_x
_atom_site_fract_y
_atom_site_fract_z
Si Si1 0.666775 0.711725 0.760119
Si Si2 0.082526 0.719761 0.216124
Si Si3 0.423710 0.219774 0.503472
Si Si4 0.425517 0.217426 0.333470
Si Si5 0.573229 0.293201 0.934772
Si Si6 0.826537 0.279560 0.683833
Si Si7 0.166289 0.285568 0.030080
O O1 0.672660 0.500000 0.776067
O O2 0.636828 0.728485 0.691947
O O3 0.609702 0.790213 0.844997
O O4 0.746018 0.785030 0.729416
O O5 0.082540 0.500000 0.214977
O O6 0.126493 0.774496 0.267981
O O7 0.001234 0.778695 0.264265
O O8 0.121970 0.779542 0.122718
O O9 0.500000 0.273573 0.500000
O O10 0.416124 0.280143 0.422396
O O11 0.363428 0.277562 0.589760
O O12 0.423281 0.000000 0.502677
O O13 0.427811 0.000000 0.334324
O O14 0.554792 0.500000 0.923630
O O15 0.631696 0.291711 0.972029
O O16 0.500000 0.210542 0.000000
O O17 0.826282 0.500000 0.683310
O O18 0.157185 0.500000 0.029642
O O19 0.250000 0.250000 0.000000
#
# Coordination Sequence:
#
# PCOD9181797 Si02
#       7
#     8   8   8   8   8   8   8
#     4  10  21  35  51  74 106 142 171 204 261 321
#     4   9  17  31  52  77 101 130 171 218 259 300
#     4   9  15  27  50  80 104 126 167 216 255 293
#     4  10  19  32  54  81 104 128 169 219 256 297
#     4  10  21  38  57  76 104 144 186 224 266 319
#     4   9  16  29  50  74 103 136 170 208 252 304
#     4  11  22  35  54  80 109 140 178 223 271 319
#
# _framework density 22.241576999999999
#
# number of rings (size 3 to 8) (size 9 to 14) (size 15 to 20)
#    0.000    2.286    1.429    2.143    0.000    3.714 
#    0.000    0.714    0.000    1.286    0.000    0.000 
#    0.000    0.000    0.000    0.000    0.000    0.000 
#
# Total GULP energy -156510.795535 kJ/mol
# GULP energy per Si atom -5589.671269 kJ/mol
# Density = 2.219095 g / cm^3
# Si number density = 22.241577 Si / 1000 Ang^3
#
#
#
# Elastic Constant Matrix: (Units=GPa)
#
#
# Indices 1 2 3 4 5 6 
#
# 1 72.6023 -11.3222 -11.8356 0.0006 0.1695 0.0010
# 2 -11.3222 74.3536 2.5338 0.0001 -9.9803 0.0006
# 3 -11.8356 2.5338 92.6837 0.0004 7.5532 0.0005
# 4 0.0006 0.0001 0.0004 -11.7861 -0.0002 9.2847
# 5 0.1695 -9.9803 7.5532 -0.0002 32.6656 0.0001
# 6 0.0010 0.0006 0.0005 9.2847 0.0001 12.1484
#
#
#
# Elastic Compliance Matrix: (Units=1/GPa)
#
#
# Indices 1 2 3 4 5 6 
#
# 1 0.014397 0.002156 0.001765 0.000000 0.000176 -0.000001
# 2 0.002156 0.014398 -0.000485 0.000000 0.004500 -0.000001
# 3 0.001765 -0.000485 0.011253 0.000000 -0.002759 -0.000001
# 4 0.000000 0.000000 0.000000 -0.052960 -0.000001 0.040476
# 5 0.000176 0.004500 -0.002759 -0.000001 0.032625 0.000000
# 6 -0.000001 -0.000001 -0.000001 0.040476 0.000000 0.051381
#
#
# Mechanical properties :
#
#
# Convention : Reuss Voigt Hill
#
# Bulk Modulus (GPa) = 21.31279 22.04350 21.67815
# Shear Modulus (GPa) = 62.60802 23.95650 43.28226
#
# Velocity S-wave (km/s) = 5.31133 3.28549 4.41614
# Velocity P-wave (km/s) = 6.87145 4.93204 5.98088
#
# Compressibility (1/GPa) = 0.04692019
#
# Stress axis : x y z
#
# Youngs Moduli (GPa) = 69.45783 69.45379 88.86571
#
# Poissons Ratio (x) = -0.14973 -0.15687
# Poissons Ratio (y) = -0.14974 0.04310
# Poissons Ratio (z) = -0.12261 0.03369
#
# Static dielectric constant tensor:
#      x y z
#    x 1.751420 0.000000 -0.019200 
#    y 0.000000 1.855860 0.000000 
#    z -0.019200 0.000000 1.803480 
# 
# From -- ./inp_files/275580.got.cif
#   From: 2010.05.17/outbox.cif.g08.bks.cpg/sg12_138_cif.got.tgz:275580.got - 2010.06.03 13:09:07.
