data_PCOD9181870
_publ_section_title
;
Structure prediction by ZEFSAII (Michael W. Deem and Ramdas Pophale) SiO2 
 PCOD9181870
Probable space group: C 2/M
;
_chemical_formula_sum "Si O2"
_cell_formula_units_Z 64
_cell_length_a 15.316812
_cell_length_b 7.487116
_cell_length_c 27.961428
_cell_angle_alpha 90.000000
_cell_angle_beta 56.990807
_cell_angle_gamma 90.000000
_cell_volume 2688.985333
_symmetry_space_group_name_H-M "C 2/M"
_symmetry_group_IT_number 12
_symmetry_cell_setting 'monoclinic'
loop_
_space_group_symop_operation_xyz
x,y,z
-x,y,-z
-x,-y,-z
x,-y,z
1/2+x,1/2+y,z
1/2-x,1/2+y,-z
1/2-x,1/2-y,-z
1/2+x,1/2-y,z
loop_
_atom_site_type_symbol
_atom_site_label
_atom_site_fract_x
_atom_site_fract_y
_atom_site_fract_z
Si Si1 0.265489 0.203377 0.852352
Si Si2 0.310089 0.797484 0.297624
Si Si3 0.470075 0.214616 0.743142
Si Si4 0.161755 0.212368 0.065459
Si Si5 0.089160 0.216021 0.541124
Si Si6 0.408524 0.285880 0.657177
Si Si7 0.465241 0.718695 0.063803
Si Si8 0.743400 0.707929 0.580439
O O1 0.360517 0.287673 0.794883
O O2 0.305212 0.200420 0.895002
O O3 0.149954 0.282808 0.888169
O O4 0.253378 0.000000 0.838168
O O5 0.425337 0.715576 0.262663
O O6 0.208542 0.712144 0.303864
O O7 0.277058 0.802437 0.363478
O O8 0.320156 0.000000 0.276075
O O9 0.472298 0.249482 0.686134
O O10 0.470287 0.000000 0.750116
O O11 0.052405 0.272610 0.075829
O O12 0.156305 0.000000 0.075093
O O13 0.250000 0.250000 0.000000
O O14 0.141506 0.274593 0.476275
O O15 0.167255 0.273402 0.560751
O O16 0.975821 0.278429 0.591970
O O17 0.088355 0.000000 0.540313
O O18 0.399031 0.500000 0.655111
O O19 0.462839 0.500000 0.063273
O O20 0.500000 0.774480 0.000000
O O21 0.720292 0.500000 0.595564
#
# Coordination Sequence:
#
# PCOD9181870 Si02
#       8
#     8   8   8   8   8   8   8   8
#     4  10  21  39  59  82 114 150 187 228 276 329
#     4  10  21  37  57  81 111 148 184 226 285 337
#     4  10  22  39  59  82 111 146 186 234 280 321
#     4  11  21  35  58  87 115 148 186 224 271 326
#     4   9  18  33  53  78 107 143 182 225 280 335
#     4  10  21  38  59  80 108 148 188 226 275 339
#     4   9  17  33  57  81 111 152 183 214 268 331
#     4  10  19  32  54  82 109 142 184 230 277 331
#
# _framework density 23.800799000000001
#
# number of rings (size 3 to 8) (size 9 to 14) (size 15 to 20)
#    0.000    2.125    2.500    0.750    0.000    3.500 
#    0.000    4.375    0.000    0.000    0.000    0.000 
#    0.000    0.000    0.000    0.000    0.000    0.000 
#
# Total GULP energy -178814.448119 kJ/mol
# GULP energy per Si atom -5587.951504 kJ/mol
# Density = 2.374663 g / cm^3
# Si number density = 23.800799 Si / 1000 Ang^3
#
#
#
# Elastic Constant Matrix: (Units=GPa)
#
#
# Indices 1 2 3 4 5 6 
#
# 1 119.4182 -2.4405 21.3992 0.0000 -44.7538 -0.0001
# 2 -2.4405 76.9219 -9.0275 -0.0001 -8.2239 -0.0003
# 3 21.3992 -9.0275 100.8456 0.0000 -41.9879 0.0000
# 4 0.0000 -0.0001 0.0000 2.4392 0.0000 7.1465
# 5 -44.7538 -8.2239 -41.9879 0.0000 50.8992 -0.0001
# 6 -0.0001 -0.0003 0.0000 7.1465 -0.0001 8.8086
#
#
#
# Elastic Compliance Matrix: (Units=1/GPa)
#
#
# Indices 1 2 3 4 5 6 
#
# 1 0.013525 0.002519 0.003772 0.000000 0.015410 0.000000
# 2 0.002519 0.014394 0.004028 0.000001 0.007863 0.000000
# 3 0.003772 0.004028 0.016950 0.000000 0.017950 0.000000
# 4 0.000000 0.000001 0.000000 -0.297726 0.000001 0.241548
# 5 0.015410 0.007863 0.017950 0.000001 0.049274 0.000000
# 6 0.000000 0.000000 0.000000 0.241548 0.000000 -0.082445
#
#
# Mechanical properties :
#
#
# Convention : Reuss Voigt Hill
#
# Bulk Modulus (GPa) = 15.26568 35.22756 25.24662
# Shear Modulus (GPa) = -17.55428 31.57970 7.01271
#
# Velocity S-wave (km/s) = -2.71873 3.64652 1.71838
# Velocity P-wave (km/s) = 1.85135 5.70637 3.81675
#
# Compressibility (1/GPa) = 0.06550641
#
# Stress axis : x y z
#
# Youngs Moduli (GPa) = 73.93811 69.47552 58.99782
#
# Poissons Ratio (x) = -0.17503 -0.22253
# Poissons Ratio (y) = -0.18627 -0.23764
# Poissons Ratio (z) = -0.27888 -0.27984
#
# Static dielectric constant tensor:
#      x y z
#    x 1.920180 0.000000 -0.045140 
#    y 0.000000 1.868190 0.000000 
#    z -0.045140 0.000000 1.897680 
# 
# From -- ./inp_files/375507.got.cif
#   From: 2010.05.17/outbox.cif.g08.bks.cpg/sg12_188_cif.got.tgz:375507.got - 2010.06.03 13:09:07.
