data_PCOD9181544
_publ_section_title
;
Structure prediction by ZEFSAII (Michael W. Deem and Ramdas Pophale) SiO2 
 PCOD9181544
Probable space group: C 2/M
;
_chemical_formula_sum "Si O2"
_cell_formula_units_Z 56
_cell_length_a 10.525915
_cell_length_b 13.626614
_cell_length_c 17.707850
_cell_angle_alpha 90.000000
_cell_angle_beta 114.685446
_cell_angle_gamma 90.000000
_cell_volume 2307.773654
_symmetry_space_group_name_H-M "C 2/M"
_symmetry_group_IT_number 12
_symmetry_cell_setting 'monoclinic'
loop_
_space_group_symop_operation_xyz
x,y,z
-x,y,-z
-x,-y,-z
x,-y,z
1/2+x,1/2+y,z
1/2-x,1/2+y,-z
1/2-x,1/2-y,-z
1/2+x,1/2-y,z
loop_
_atom_site_type_symbol
_atom_site_label
_atom_site_fract_x
_atom_site_fract_y
_atom_site_fract_z
Si Si1 0.793432 0.137716 0.295936
Si Si2 0.160031 0.392050 0.413869
Si Si3 0.609939 0.894284 0.812966
Si Si4 0.356051 0.385556 0.996785
Si Si5 0.711158 0.637351 0.280461
Si Si6 0.603653 0.663046 0.416062
Si Si7 0.593267 0.331099 0.831035
O O1 0.684725 0.098730 0.330267
O O2 0.753171 0.250351 0.286096
O O3 0.814128 0.119323 0.211958
O O4 0.948349 0.123271 0.367773
O O5 0.105181 0.500000 0.426269
O O6 0.310407 0.373599 0.491075
O O7 0.091707 0.283833 0.412638
O O8 0.670083 0.905562 0.743384
O O9 0.552769 0.782883 0.803043
O O10 0.541685 0.000000 0.816936
O O11 0.738728 0.884243 0.904025
O O12 0.381243 0.500000 0.021571
O O13 0.328413 0.336098 0.070248
O O14 0.500000 0.342495 0.000000
O O15 0.690534 0.623700 0.364730
O O16 0.559006 0.618092 0.206157
#
# Coordination Sequence:
#
# PCOD9181544 Si02
#       7
#     8   8   8   8   8   8   8
#     4   9  19  34  52  76 104 137 174 210 257 310
#     4  10  20  35  56  80 105 137 175 214 259 308
#     4  10  20  34  54  80 106 136 177 217 258 311
#     4  10  19  32  53  80 104 133 176 220 259 306
#     4   9  18  34  52  74 104 140 174 211 257 305
#     4   9  19  35  54  76 108 138 171 216 259 308
#     4  10  19  34  55  77 105 141 172 214 266 307
#
# _framework density 24.265809999999998
#
# number of rings (size 3 to 8) (size 9 to 14) (size 15 to 20)
#    0.000    2.429    1.429    0.857    0.000    2.286 
#    0.000   14.286    0.000   12.429    0.000    0.000 
#    0.000    0.000    0.000    0.000    0.000    0.000 
#
# Total GULP energy -156025.900047 kJ/mol
# GULP energy per Si atom -5572.353573 kJ/mol
# Density = 2.421058 g / cm^3
# Si number density = 24.265810 Si / 1000 Ang^3
#
#
#
# Elastic Constant Matrix: (Units=GPa)
#
#
# Indices 1 2 3 4 5 6 
#
# 1 29.0121 -5.0240 11.4896 0.0000 -7.0938 0.0000
# 2 -5.0240 145.9619 6.4950 0.0000 -2.0438 0.0000
# 3 11.4896 6.4950 116.5000 0.0000 -6.4597 0.0000
# 4 0.0000 0.0000 0.0000 92.5102 0.0000 22.7707
# 5 -7.0938 -2.0438 -6.4597 0.0000 35.9697 0.0000
# 6 0.0000 0.0000 0.0000 22.7707 0.0000 5.5306
#
#
#
# Elastic Compliance Matrix: (Units=1/GPa)
#
#
# Indices 1 2 3 4 5 6 
#
# 1 0.037788 0.001550 -0.003429 0.000000 0.006925 0.000000
# 2 0.001550 0.006935 -0.000506 0.000000 0.000609 0.000000
# 3 -0.003429 -0.000506 0.009001 0.000000 0.000911 0.000000
# 4 0.000000 0.000000 0.000000 -0.805352 0.000000 3.315815
# 5 0.006925 0.000609 0.000911 0.000000 0.029365 0.000000
# 6 0.000000 0.000000 0.000000 3.315815 0.000000-13.471148
#
#
# Mechanical properties :
#
#
# Convention : Reuss Voigt Hill
#
# Bulk Modulus (GPa) = 20.42708 35.26612 27.84660
# Shear Modulus (GPa) = -0.35280 45.36967 22.50843
#
# Velocity S-wave (km/s) = -0.38171 4.32869 3.04892
# Velocity P-wave (km/s) = 2.87090 6.28874 4.88826
#
# Compressibility (1/GPa) = 0.04895461
#
# Stress axis : x y z
#
# Youngs Moduli (GPa) = 26.46335 144.18577 111.10335
#
# Poissons Ratio (x) = -0.22352 0.38100
# Poissons Ratio (y) = -0.04102 0.05619
# Poissons Ratio (z) = 0.09075 0.07293
#
# Static dielectric constant tensor:
#      x y z
#    x 1.961790 0.000000 -0.015760 
#    y 0.000000 2.058940 0.000000 
#    z -0.015760 0.000000 1.934630 
# 
# From -- ./inp_files/262818.got.cif
#   From: 2010.05.17/outbox.cif.g08.bks.cpg/sg12_132_cif.got.tgz:262818.got - 2010.06.03 13:09:07.
