data_PCOD9181189
_publ_section_title
;
Structure prediction by ZEFSAII (Michael W. Deem and Ramdas Pophale) SiO2 
 PCOD9181189
Probable space group: C 2/M
;
_chemical_formula_sum "Si O2"
_cell_formula_units_Z 40
_cell_length_a 13.360508
_cell_length_b 11.627034
_cell_length_c 13.482658
_cell_angle_alpha 90.000000
_cell_angle_beta 110.807099
_cell_angle_gamma 90.000000
_cell_volume 1957.841909
_symmetry_space_group_name_H-M "C 2/M"
_symmetry_group_IT_number 12
_symmetry_cell_setting 'monoclinic'
loop_
_space_group_symop_operation_xyz
x,y,z
-x,y,-z
-x,-y,-z
x,-y,z
1/2+x,1/2+y,z
1/2-x,1/2+y,-z
1/2-x,1/2-y,-z
1/2+x,1/2-y,z
loop_
_atom_site_type_symbol
_atom_site_label
_atom_site_fract_x
_atom_site_fract_y
_atom_site_fract_z
Si Si1 0.280226 0.272471 0.358900
Si Si2 0.092483 0.866976 0.189901
Si Si3 0.114282 0.626394 0.436322
Si Si4 0.577784 0.777983 0.760204
Si Si5 0.235857 0.870395 0.054181
O O1 0.190533 0.180348 0.291694
O O2 0.210782 0.367432 0.390319
O O3 0.356685 0.216299 0.468084
O O4 0.349115 0.301115 0.286111
O O5 0.134456 0.857429 0.092067
O O6 0.989025 0.793539 0.182733
O O7 0.073027 0.000000 0.204523
O O8 0.107663 0.500000 0.477411
O O9 0.007811 0.659507 0.339978
O O10 0.658123 0.866524 0.839821
O O11 0.229447 0.000000 0.005385
O O12 0.250000 0.750000 0.000000
#
# Coordination Sequence:
#
# PCOD9181189 Si02
#       5
#     8   8   8   8   8
#     4   9  19  33  50  78 112 142 178 220 263 316
#     4   9  19  36  57  81 111 145 180 220 271 332
#     4  10  19  32  52  77 107 144 181 217 262 319
#     4  10  20  35  55  81 108 139 181 227 271 319
#     4  10  22  41  61  82 110 144 183 230 283 335
#
# _framework density 20.430658999999999
#
# number of rings (size 3 to 8) (size 9 to 14) (size 15 to 20)
#    0.000    2.400    0.000    1.800    0.000    5.600 
#    0.000   12.000    0.000    7.200    0.000    0.000 
#    0.000    0.000    0.000    0.000    0.000    0.000 
#
# Total GULP energy -111517.383420 kJ/mol
# GULP energy per Si atom -5575.869171 kJ/mol
# Density = 2.038416 g / cm^3
# Si number density = 20.430659 Si / 1000 Ang^3
#
#
#
# Elastic Constant Matrix: (Units=GPa)
#
#
# Indices 1 2 3 4 5 6 
#
# 1 126.8498 38.3335 16.8473 0.0000 -8.7457 0.0000
# 2 38.3335 90.9629 19.6827 0.0000 -14.2858 0.0000
# 3 16.8473 19.6827 42.4239 0.0000 -1.0514 0.0000
# 4 0.0000 0.0000 0.0000 14.3151 0.0000 -7.5776
# 5 -8.7457 -14.2858 -1.0514 0.0000 23.8419 0.0000
# 6 0.0000 0.0000 0.0000 -7.5776 0.0000 6.1201
#
#
#
# Elastic Compliance Matrix: (Units=1/GPa)
#
#
# Indices 1 2 3 4 5 6 
#
# 1 0.009233 -0.003213 -0.002142 0.000000 0.001367 0.000000
# 2 -0.003213 0.014661 -0.005344 0.000000 0.007371 0.000000
# 3 -0.002142 -0.005344 0.026832 0.000000 -0.002804 0.000000
# 4 0.000000 0.000000 0.000000 0.202726 0.000000 0.251007
# 5 0.001367 0.007371 -0.002804 0.000000 0.046737 0.000000
# 6 0.000000 0.000000 0.000000 0.251007 0.000000 0.474184
#
#
# Mechanical properties :
#
#
# Convention : Reuss Voigt Hill
#
# Bulk Modulus (GPa) = 34.09566 45.55152 39.82359
# Shear Modulus (GPa) = 6.20696 21.21360 13.71028
#
# Velocity S-wave (km/s) = 1.74489 3.22580 2.59330
# Velocity P-wave (km/s) = 4.55897 6.01817 5.33866
#
# Compressibility (1/GPa) = 0.02932925
#
# Stress axis : x y z
#
# Youngs Moduli (GPa) = 108.30738 68.20714 37.26895
#
# Poissons Ratio (x) = 0.21913 0.07984
# Poissons Ratio (y) = 0.34796 0.19915
# Poissons Ratio (z) = 0.23201 0.36447
#
# Static dielectric constant tensor:
#      x y z
#    x 1.751080 0.000000 -0.014270 
#    y 0.000000 1.699480 0.000000 
#    z -0.014270 0.000000 1.753600 
# 
# From -- ./inp_files/141111.got.cif
#   From: 2010.05.17/outbox.cif.g08.bks.cpg/sg12_71_cif.got.tgz:141111.got - 2010.06.03 13:09:07.
