data_PCOD9181867
_publ_section_title
;
Structure prediction by ZEFSAII (Michael W. Deem and Ramdas Pophale) SiO2 
 PCOD9181867
Probable space group: C 2/M
;
_chemical_formula_sum "Si O2"
_cell_formula_units_Z 48
_cell_length_a 29.349497
_cell_length_b 7.865916
_cell_length_c 18.005465
_cell_angle_alpha 90.000000
_cell_angle_beta 35.405353
_cell_angle_gamma 90.000000
_cell_volume 2408.245797
_symmetry_space_group_name_H-M "C 2/M"
_symmetry_group_IT_number 12
_symmetry_cell_setting 'monoclinic'
loop_
_space_group_symop_operation_xyz
x,y,z
-x,y,-z
-x,-y,-z
x,-y,z
1/2+x,1/2+y,z
1/2-x,1/2+y,-z
1/2-x,1/2-y,-z
1/2+x,1/2-y,z
loop_
_atom_site_type_symbol
_atom_site_label
_atom_site_fract_x
_atom_site_fract_y
_atom_site_fract_z
Si Si1 0.408895 0.707625 0.624868
Si Si2 0.365376 0.295466 0.521552
Si Si3 0.459999 0.208417 0.130195
Si Si4 0.840999 0.202656 0.870970
Si Si5 0.986124 0.298169 0.779206
Si Si6 0.219701 0.704617 0.621371
O O1 0.500000 0.753568 0.500000
O O2 0.404609 0.500000 0.631462
O O3 0.372015 0.767855 0.596816
O O4 0.371397 0.770140 0.751028
O O5 0.360008 0.500000 0.532120
O O6 0.443000 0.260103 0.369206
O O7 0.286293 0.229181 0.588476
O O8 0.499924 0.265820 0.154836
O O9 0.369199 0.265014 0.250467
O O10 0.461615 0.000000 0.128617
O O11 0.500000 0.262555 0.000000
O O12 0.901957 0.257219 0.854190
O O13 0.846063 0.000000 0.862013
O O14 0.750000 0.250000 0.000000
O O15 0.992542 0.500000 0.774410
O O16 0.217251 0.500000 0.631574
O O17 0.250000 0.750000 0.500000
#
# Coordination Sequence:
#
# PCOD9181867 Si02
#       6
#     8   8   8   8   8   8
#     4   9  17  33  57  83 108 144 191 231 269 328
#     4  10  19  33  57  84 110 148 194 237 281 333
#     4   9  19  35  55  81 113 149 192 236 276 333
#     4  11  23  40  61  85 117 150 189 233 281 341
#     4  11  21  35  58  85 113 148 188 236 294 339
#     4  10  19  32  54  82 109 141 183 232 279 325
#
# _framework density 19.931521
#
# number of rings (size 3 to 8) (size 9 to 14) (size 15 to 20)
#    0.000    2.000    3.333    1.000    0.000    1.333 
#    0.000    7.500    0.000    6.500    0.000    0.000 
#    0.000    0.000    0.000    0.000    0.000    0.000 
#
# Total GULP energy -133943.367703 kJ/mol
# GULP energy per Si atom -5580.973654 kJ/mol
# Density = 1.988616 g / cm^3
# Si number density = 19.931521 Si / 1000 Ang^3
#
#
#
# Elastic Constant Matrix: (Units=GPa)
#
#
# Indices 1 2 3 4 5 6 
#
# 1 229.7444 5.2363 105.2645 -0.0027 -5.1709 0.0045
# 2 5.2363 22.3552 -3.3296 -0.0146 1.4605 0.0086
# 3 105.2645 -3.3296 170.9102 -0.0066 -0.9499 0.0141
# 4 -0.0027 -0.0146 -0.0066 7.9744 0.0093 17.9667
# 5 -5.1709 1.4605 -0.9499 0.0093 33.3385 -0.0073
# 6 0.0045 0.0086 0.0141 17.9667 -0.0073 -1.4603
#
#
#
# Elastic Compliance Matrix: (Units=1/GPa)
#
#
# Indices 1 2 3 4 5 6 
#
# 1 0.006182 -0.002082 -0.003843 0.000003 0.000941 -0.000004
# 2 -0.002082 0.045689 0.002160 -0.000020 -0.002263 0.000048
# 3 -0.003843 0.002160 0.008257 -0.000006 -0.000455 0.000007
# 4 0.000003 -0.000020 -0.000006 0.004366 0.000012 0.053721
# 5 0.000941 -0.002263 -0.000455 0.000012 0.030227 -0.000023
# 6 -0.000004 0.000048 0.000007 0.053721 -0.000023 -0.023843
#
#
# Mechanical properties :
#
#
# Convention : Reuss Voigt Hill
#
# Bulk Modulus (GPa) = 19.01180 70.81692 44.91436
# Shear Modulus (GPa) = 52.11486 29.02643 40.57064
#
# Velocity S-wave (km/s) = 5.11896 3.82030 4.51655
# Velocity P-wave (km/s) = 6.67065 7.42070 7.05565
#
# Compressibility (1/GPa) = 0.05259891
#
# Stress axis : x y z
#
# Youngs Moduli (GPa) = 161.75976 21.88691 121.10334
#
# Poissons Ratio (x) = 0.04556 0.46538
# Poissons Ratio (y) = 0.33675 -0.26155
# Poissons Ratio (z) = 0.62162 -0.04727
#
# Static dielectric constant tensor:
#      x y z
#    x 1.819050 -0.000010 -0.035000 
#    y -0.000010 1.786480 -0.000010 
#    z -0.035000 -0.000010 1.668250 
# 
# From -- ./inp_files/274580.got.cif
#   From: 2010.05.17/outbox.cif.g08.bks.cpg/sg12_138_cif.got.tgz:274580.got - 2010.06.03 13:09:07.
