data_PCOD9181994
_publ_section_title
;
Structure prediction by ZEFSAII (Michael W. Deem and Ramdas Pophale) SiO2 
 PCOD9181994
Probable space group: C 2/M
;
_chemical_formula_sum "Si O2"
_cell_formula_units_Z 48
_cell_length_a 19.825910
_cell_length_b 7.441842
_cell_length_c 25.821003
_cell_angle_alpha 90.000000
_cell_angle_beta 30.909149
_cell_angle_gamma 90.000000
_cell_volume 1956.941624
_symmetry_space_group_name_H-M "C 2/M"
_symmetry_group_IT_number 12
_symmetry_cell_setting 'monoclinic'
loop_
_space_group_symop_operation_xyz
x,y,z
-x,y,-z
-x,-y,-z
x,-y,z
1/2+x,1/2+y,z
1/2-x,1/2+y,-z
1/2-x,1/2-y,-z
1/2+x,1/2-y,z
loop_
_atom_site_type_symbol
_atom_site_label
_atom_site_fract_x
_atom_site_fract_y
_atom_site_fract_z
Si Si1 0.055379 0.783647 0.079034
Si Si2 0.698498 0.779926 0.142775
Si Si3 0.693142 0.280148 0.817846
Si Si4 0.436627 0.210473 0.268793
Si Si5 0.066959 0.706086 0.404935
Si Si6 0.683794 0.713039 0.488102
O O1 0.993346 0.726963 0.174061
O O2 0.952645 0.727293 0.102339
O O3 0.058626 0.000000 0.077459
O O4 0.201144 0.721801 0.968504
O O5 0.758535 0.723569 0.157749
O O6 0.551329 0.714728 0.229922
O O7 0.695176 0.000000 0.144336
O O8 0.695717 0.500000 0.816447
O O9 0.798617 0.215960 0.705829
O O10 0.291769 0.282421 0.375379
O O11 0.424946 0.000000 0.288883
O O12 0.098286 0.500000 0.397991
O O13 0.957685 0.706092 0.431575
O O14 0.000000 0.789231 0.500000
O O15 0.664224 0.500000 0.496123
O O16 0.750000 0.750000 0.500000
#
# Coordination Sequence:
#
# PCOD9181994 Si02
#       6
#     8   8   8   8   8   8
#     4  10  19  32  55  82 103 131 175 220 256 304
#     4   9  17  31  52  77 104 136 175 214 256 309
#     4   9  17  31  52  78 107 137 172 217 264 306
#     4  10  21  36  53  75 107 142 169 207 267 321
#     4  10  20  35  56  81 111 146 182 222 268 318
#     4  11  23  38  57  80 108 143 182 224 270 321
#
# _framework density 24.528068999999999
#
# number of rings (size 3 to 8) (size 9 to 14) (size 15 to 20)
#    0.000    2.167    0.000    3.500    0.000    7.667 
#    0.000    0.833    0.000    4.000    0.000    0.000 
#    0.000    0.000    0.000    0.000    0.000    0.000 
#
# Total GULP energy -134228.794181 kJ/mol
# GULP energy per Si atom -5592.866424 kJ/mol
# Density = 2.447224 g / cm^3
# Si number density = 24.528069 Si / 1000 Ang^3
#
#
#
# Elastic Constant Matrix: (Units=GPa)
#
#
# Indices 1 2 3 4 5 6 
#
# 1 59.2693 -8.0294 -26.1820 0.0000 -3.5319 0.0001
# 2 -8.0294 82.0682 4.1348 0.0009 -4.8141 -0.0023
# 3 -26.1820 4.1348 80.3581 -0.0002 -6.7559 0.0006
# 4 0.0000 0.0009 -0.0002 7.3224 -0.0001 4.8630
# 5 -3.5319 -4.8141 -6.7559 -0.0001 45.1700 0.0004
# 6 0.0001 -0.0023 0.0006 4.8630 0.0004 14.2822
#
#
#
# Elastic Compliance Matrix: (Units=1/GPa)
#
#
# Indices 1 2 3 4 5 6 
#
# 1 0.020261 0.001806 0.006743 0.000000 0.002785 0.000000
# 2 0.001806 0.012445 0.000072 -0.000004 0.001478 0.000003
# 3 0.006743 0.000072 0.014869 0.000001 0.002759 -0.000001
# 4 0.000000 -0.000004 0.000001 0.176473 0.000001 -0.060088
# 5 0.002785 0.001478 0.002759 0.000001 0.022927 -0.000001
# 6 0.000000 0.000003 -0.000001 -0.060088 -0.000001 0.090477
#
#
# Mechanical properties :
#
#
# Convention : Reuss Voigt Hill
#
# Bulk Modulus (GPa) = 15.42789 17.94916 16.68852
# Shear Modulus (GPa) = 14.62776 30.13974 22.38375
#
# Velocity S-wave (km/s) = 2.44471 3.50921 3.02417
# Velocity P-wave (km/s) = 3.77788 4.87371 4.36036
#
# Compressibility (1/GPa) = 0.06481769
#
# Stress axis : x y z
#
# Youngs Moduli (GPa) = 49.35505 80.35516 67.25217
#
# Poissons Ratio (x) = -0.14512 -0.45346
# Poissons Ratio (y) = -0.08914 -0.00487
# Poissons Ratio (z) = -0.33279 -0.00582
#
# Static dielectric constant tensor:
#      x y z
#    x 1.928870 0.000000 0.014950 
#    y 0.000000 1.982120 0.000000 
#    z 0.014950 0.000000 1.949120 
# 
# From -- ./inp_files/221685.got.cif
#   From: 2010.05.17/outbox.cif.g08.bks.cpg/sg12_111_cif.got.tgz:221685.got - 2010.06.03 13:09:07.
