data_PCOD9181545
_publ_section_title
;
Structure prediction by ZEFSAII (Michael W. Deem and Ramdas Pophale) SiO2 
 PCOD9181545
Probable space group: C 2/M
;
_chemical_formula_sum "Si O2"
_cell_formula_units_Z 56
_cell_length_a 21.702662
_cell_length_b 7.546071
_cell_length_c 14.774811
_cell_angle_alpha 90.000000
_cell_angle_beta 85.544022
_cell_angle_gamma 90.000000
_cell_volume 2412.354383
_symmetry_space_group_name_H-M "C 2/M"
_symmetry_group_IT_number 12
_symmetry_cell_setting 'monoclinic'
loop_
_space_group_symop_operation_xyz
x,y,z
-x,y,-z
-x,-y,-z
x,-y,z
1/2+x,1/2+y,z
1/2-x,1/2+y,-z
1/2-x,1/2-y,-z
1/2+x,1/2-y,z
loop_
_atom_site_type_symbol
_atom_site_label
_atom_site_fract_x
_atom_site_fract_y
_atom_site_fract_z
Si Si1 0.910879 0.788390 0.364721
Si Si2 0.359501 0.205370 0.187224
Si Si3 0.884627 0.713244 0.811366
Si Si4 0.048275 0.290200 0.371919
Si Si5 0.763949 0.789830 0.709073
Si Si6 0.833226 0.798048 0.530060
Si Si7 0.928373 0.717530 0.001794
O O1 0.907482 0.713435 0.264425
O O2 0.854164 0.716208 0.432346
O O3 0.977160 0.745717 0.399933
O O4 0.905073 0.000000 0.361335
O O5 0.297252 0.286195 0.237266
O O6 0.389133 0.279906 0.092802
O O7 0.345089 0.000000 0.168579
O O8 0.883747 0.500000 0.815191
O O9 0.937581 0.763728 0.733410
O O10 0.820575 0.769476 0.772610
O O11 0.898727 0.776644 0.910438
O O12 0.059410 0.500000 0.380321
O O13 0.100972 0.198093 0.424729
O O14 0.786332 0.716294 0.608687
O O15 0.754791 0.000000 0.696073
O O16 0.813324 0.000000 0.515711
O O17 0.928287 0.500000 0.003169
O O18 0.000000 0.771040 0.000000
#
# Coordination Sequence:
#
# PCOD9181545 Si02
#       7
#     8   8   8   8   8   8   8
#     4  11  22  34  50  73 103 139 172 208 259 307
#     4  10  21  36  54  75 100 134 175 214 250 296
#     4   9  18  33  55  79 103 135 170 205 250 304
#     4  10  19  32  53  80 105 131 169 213 252 298
#     4   9  19  36  54  74 102 134 170 212 255 298
#     4   9  19  35  52  72 103 139 169 204 257 311
#     4   9  17  32  54  78 104 133 165 204 253 305
#
# _framework density 23.213837999999999
#
# number of rings (size 3 to 8) (size 9 to 14) (size 15 to 20)
#    0.000    2.429    0.000    2.143    0.000    7.429 
#    0.000    0.714    0.000    1.714    0.000    0.000 
#    0.000    0.000    0.000    0.000    0.000    0.000 
#
# Total GULP energy -156418.819523 kJ/mol
# GULP energy per Si atom -5586.386412 kJ/mol
# Density = 2.316100 g / cm^3
# Si number density = 23.213838 Si / 1000 Ang^3
#
#
#
# Elastic Constant Matrix: (Units=GPa)
#
#
# Indices 1 2 3 4 5 6 
#
# 1 115.9920 1.9522 26.8867 0.0000 -21.1858 0.0000
# 2 1.9522 67.7255 12.8707 0.0000 -5.3376 0.0000
# 3 26.8867 12.8707 134.7773 0.0000 -24.0392 0.0000
# 4 0.0000 0.0000 0.0000 14.9695 0.0000 11.4077
# 5 -21.1858 -5.3376 -24.0392 0.0000 37.2269 0.0000
# 6 0.0000 0.0000 0.0000 11.4077 0.0000 14.1392
#
#
#
# Elastic Compliance Matrix: (Units=1/GPa)
#
#
# Indices 1 2 3 4 5 6 
#
# 1 0.009765 0.000314 -0.001106 0.000000 0.004888 0.000000
# 2 0.000314 0.015112 -0.001229 0.000000 0.001552 0.000000
# 3 -0.001106 -0.001229 0.008605 0.000000 0.004751 0.000000
# 4 0.000000 0.000000 0.000000 0.173443 0.000000 -0.139937
# 5 0.004888 0.001552 0.004751 0.000000 0.032935 0.000000
# 6 0.000000 0.000000 0.000000 -0.139937 0.000000 0.183628
#
#
# Mechanical properties :
#
#
# Convention : Reuss Voigt Hill
#
# Bulk Modulus (GPa) = 33.96720 44.65710 39.31215
# Shear Modulus (GPa) = 11.43262 31.71948 21.57605
#
# Velocity S-wave (km/s) = 2.22162 3.70050 3.05199
# Velocity P-wave (km/s) = 4.60922 6.12677 5.42136
#
# Compressibility (1/GPa) = 0.02944017
#
# Stress axis : x y z
#
# Youngs Moduli (GPa) = 102.40434 66.17122 116.21041
#
# Poissons Ratio (x) = -0.02078 0.12855
# Poissons Ratio (y) = -0.03215 0.14282
# Poissons Ratio (z) = 0.11328 0.08132
#
# Static dielectric constant tensor:
#      x y z
#    x 1.863160 0.000000 -0.025600 
#    y 0.000000 1.873840 0.000000 
#    z -0.025600 0.000000 1.881150 
# 
# From -- ./inp_files/230881.got.cif
#   From: 2010.05.17/outbox.cif.g08.bks.cpg/sg12_116_cif.got.tgz:230881.got - 2010.06.03 13:09:07.
