data_PCOD9181492
_publ_section_title
;
Structure prediction by ZEFSAII (Michael W. Deem and Ramdas Pophale) SiO2 
 PCOD9181492
Probable space group: C 2/M
;
_chemical_formula_sum "Si O2"
_cell_formula_units_Z 64
_cell_length_a 28.592693
_cell_length_b 9.003336
_cell_length_c 14.579545
_cell_angle_alpha 90.000000
_cell_angle_beta 87.535758
_cell_angle_gamma 90.000000
_cell_volume 3749.735982
_symmetry_space_group_name_H-M "C 2/M"
_symmetry_group_IT_number 12
_symmetry_cell_setting 'monoclinic'
loop_
_space_group_symop_operation_xyz
x,y,z
-x,y,-z
-x,-y,-z
x,-y,z
1/2+x,1/2+y,z
1/2-x,1/2+y,-z
1/2-x,1/2-y,-z
1/2+x,1/2-y,z
loop_
_atom_site_type_symbol
_atom_site_label
_atom_site_fract_x
_atom_site_fract_y
_atom_site_fract_z
Si Si1 0.488144 0.676979 0.394581
Si Si2 0.160520 0.323546 0.451400
Si Si3 0.852116 0.175137 0.831312
Si Si4 0.610944 0.178028 0.643680
Si Si5 0.699957 0.321176 0.982714
Si Si6 0.321864 0.322283 0.224470
Si Si7 0.769933 0.825841 0.687335
Si Si8 0.420864 0.175722 0.691304
O O1 0.500000 0.709393 0.500000
O O2 0.483597 0.500000 0.384652
O O3 0.439973 0.755937 0.371996
O O4 0.531477 0.738117 0.332272
O O5 0.170429 0.500000 0.446785
O O6 0.144866 0.283031 0.554901
O O7 0.203789 0.235031 0.404802
O O8 0.115650 0.295620 0.389233
O O9 0.807379 0.191742 0.767274
O O10 0.894018 0.267512 0.783578
O O11 0.864114 0.000000 0.830578
O O12 0.835989 0.221770 0.933788
O O13 0.633763 0.246625 0.732091
O O14 0.608547 0.000000 0.648597
O O15 0.704821 0.500000 0.986568
O O16 0.683756 0.281182 0.881988
O O17 0.750000 0.250000 0.000000
O O18 0.324847 0.500000 0.231074
O O19 0.275978 0.263993 0.281406
O O20 0.758835 0.000000 0.678463
O O21 0.429370 0.000000 0.694042
#
# Coordination Sequence:
#
# PCOD9181492 Si02
#       8
#     8   8   8   8   8   8   8   8
#     4  11  22  36  58  85 112 143 181 225 273 324
#     4   9  19  34  52  76 108 145 184 224 267 319
#     4   9  18  33  53  81 112 141 179 226 274 324
#     4  11  23  39  57  78 109 148 187 228 272 322
#     4  10  20  35  57  82 110 144 183 228 275 324
#     4  11  23  37  54  79 112 148 185 227 276 328
#     4  10  19  32  53  78 108 146 185 225 268 321
#     4  10  19  33  55  83 112 142 179 224 272 322
#
# _framework density 17.067869999999999
#
# number of rings (size 3 to 8) (size 9 to 14) (size 15 to 20)
#    0.000    1.875    2.500    1.875    0.000    4.000 
#    0.000    0.000    0.000    0.750    0.000    5.250 
#    0.000    0.000    0.000    0.000    0.000    0.000 
#
# Total GULP energy -178722.120126 kJ/mol
# GULP energy per Si atom -5585.066254 kJ/mol
# Density = 1.702902 g / cm^3
# Si number density = 17.067870 Si / 1000 Ang^3
#
#
#
# Elastic Constant Matrix: (Units=GPa)
#
#
# Indices 1 2 3 4 5 6 
#
# 1 84.1664 51.4807 66.6759 0.0000 -3.4751 0.0000
# 2 51.4807 55.8181 51.9761 0.0000 4.0589 0.0000
# 3 66.6759 51.9761 120.5331 0.0000 -2.0301 0.0000
# 4 0.0000 0.0000 0.0000 21.7410 0.0000 -2.1684
# 5 -3.4751 4.0589 -2.0301 0.0000 23.0501 0.0000
# 6 0.0000 0.0000 0.0000 -2.1684 0.0000 33.1214
#
#
#
# Elastic Compliance Matrix: (Units=1/GPa)
#
#
# Indices 1 2 3 4 5 6 
#
# 1 0.032943 -0.023661 -0.007878 0.000000 0.008439 0.000000
# 2 -0.023661 0.047909 -0.007784 0.000000 -0.012689 0.000000
# 3 -0.007878 -0.007784 0.016038 0.000000 0.001596 0.000000
# 4 0.000000 0.000000 0.000000 0.046298 0.000000 0.003031
# 5 0.008439 -0.012689 0.001596 0.000000 0.047031 0.000000
# 6 0.000000 0.000000 0.000000 0.003031 0.000000 0.030390
#
#
# Mechanical properties :
#
#
# Convention : Reuss Voigt Hill
#
# Bulk Modulus (GPa) = 54.81461 66.75366 60.78413
# Shear Modulus (GPa) = 16.37532 21.60814 18.99173
#
# Velocity S-wave (km/s) = 3.10082 3.56197 3.33936
# Velocity P-wave (km/s) = 6.70861 7.49082 7.11048
#
# Compressibility (1/GPa) = 0.01824331
#
# Stress axis : x y z
#
# Youngs Moduli (GPa) = 30.35556 20.87292 62.35199
#
# Poissons Ratio (x) = 0.49387 0.49121
# Poissons Ratio (y) = 0.71824 0.48537
# Poissons Ratio (z) = 0.23914 0.16248
#
# Static dielectric constant tensor:
#      x y z
#    x 1.551070 0.000000 0.004530 
#    y 0.000000 1.561390 0.000000 
#    z 0.004530 0.000000 1.580990 
# 
# From -- ./inp_files/238803.got.cif
#   From: 2010.05.17/outbox.cif.g08.bks.cpg/sg12_120_cif.got.tgz:238803.got - 2010.06.03 13:09:07.
