data_PCOD9181295
_publ_section_title
;
Structure prediction by ZEFSAII (Michael W. Deem and Ramdas Pophale) SiO2 
 PCOD9181295
Probable space group: C 2/M
;
_chemical_formula_sum "Si O2"
_cell_formula_units_Z 56
_cell_length_a 27.704701
_cell_length_b 8.769074
_cell_length_c 14.588455
_cell_angle_alpha 90.000000
_cell_angle_beta 121.848624
_cell_angle_gamma 90.000000
_cell_volume 3010.591716
_symmetry_space_group_name_H-M "C 2/M"
_symmetry_group_IT_number 12
_symmetry_cell_setting 'monoclinic'
loop_
_space_group_symop_operation_xyz
x,y,z
-x,y,-z
-x,-y,-z
x,-y,z
1/2+x,1/2+y,z
1/2-x,1/2+y,-z
1/2-x,1/2-y,-z
1/2+x,1/2-y,z
loop_
_atom_site_type_symbol
_atom_site_label
_atom_site_fract_x
_atom_site_fract_y
_atom_site_fract_z
Si Si1 0.499722 0.815928 0.393673
Si Si2 0.386018 0.817334 0.171564
Si Si3 0.845531 0.182757 0.952046
Si Si4 0.722021 0.679305 0.833835
Si Si5 0.892602 0.184596 0.604099
Si Si6 0.156700 0.816849 0.258718
Si Si7 0.779035 0.179298 0.384838
O O1 0.500000 0.765122 0.500000
O O2 0.441582 0.770835 0.284503
O O3 0.553472 0.751989 0.393076
O O4 0.502564 0.000000 0.396142
O O5 0.330195 0.748964 0.163560
O O6 0.382277 0.000000 0.167598
O O7 0.386304 0.755795 0.068268
O O8 0.781335 0.235630 0.911110
O O9 0.856345 0.235024 0.858021
O O10 0.848856 0.000000 0.959479
O O11 0.728501 0.500000 0.861594
O O12 0.710451 0.695192 0.713470
O O13 0.885656 0.232215 0.703240
O O14 0.834351 0.232303 0.494831
O O15 0.895511 0.000000 0.602824
O O16 0.220490 0.764548 0.347174
O O17 0.156557 0.000000 0.256849
O O18 0.770693 0.000000 0.396207
#
# Coordination Sequence:
#
# PCOD9181295 Si02
#       7
#     8   8   8   8   8   8   8
#     4  10  23  41  58  78 104 135 173 215 260 312
#     4  11  22  36  54  76 103 136 176 219 261 308
#     4  10  20  35  54  77 107 141 175 212 258 308
#     4  10  19  32  52  80 111 140 172 211 260 313
#     4  10  20  35  55  80 108 138 176 217 258 306
#     4   9  19  34  53  79 109 140 174 213 256 307
#     4   9  18  31  51  81 112 140 171 211 258 310
#
# _framework density 18.600994
#
# number of rings (size 3 to 8) (size 9 to 14) (size 15 to 20)
#    0.000    2.143    0.000    3.000    0.000    3.714 
#    0.000    0.714    0.000    4.286    0.000    0.000 
#    0.000    0.000    0.000    0.000    0.000    0.000 
#
# Total GULP energy -156358.711386 kJ/mol
# GULP energy per Si atom -5584.239692 kJ/mol
# Density = 1.855866 g / cm^3
# Si number density = 18.600994 Si / 1000 Ang^3
#
#
#
# Elastic Constant Matrix: (Units=GPa)
#
#
# Indices 1 2 3 4 5 6 
#
# 1 128.0844 22.5236 72.6150 0.0000 -23.5497 0.0000
# 2 22.5236 23.3505 30.0184 0.0000 -6.6573 0.0000
# 3 72.6150 30.0184 140.7886 0.0000 -5.2016 0.0000
# 4 0.0000 0.0000 0.0000 25.5104 0.0000 3.4423
# 5 -23.5497 -6.6573 -5.2016 0.0000 11.1861 0.0000
# 6 0.0000 0.0000 0.0000 3.4423 0.0000 25.5577
#
#
#
# Elastic Compliance Matrix: (Units=1/GPa)
#
#
# Indices 1 2 3 4 5 6 
#
# 1 0.019934 0.004916 -0.009840 0.000000 0.040317 0.000000
# 2 0.004916 0.071883 -0.016177 0.000000 0.045607 0.000000
# 3 -0.009840 -0.016177 0.014760 0.000000 -0.023480 0.000000
# 4 0.000000 0.000000 0.000000 0.039925 0.000000 -0.005377
# 5 0.040317 0.045607 -0.023480 0.000000 0.190497 0.000000
# 6 0.000000 0.000000 0.000000 -0.005377 0.000000 0.039851
#
#
# Mechanical properties :
#
#
# Convention : Reuss Voigt Hill
#
# Bulk Modulus (GPa) = 15.53409 60.28196 37.90803
# Shear Modulus (GPa) = 11.35044 23.58861 17.46953
#
# Velocity S-wave (km/s) = 2.47292 3.56495 3.06792
# Velocity P-wave (km/s) = 4.06486 7.03018 5.74224
#
# Compressibility (1/GPa) = 0.06437454
#
# Stress axis : x y z
#
# Youngs Moduli (GPa) = 50.16516 13.91151 67.75128
#
# Poissons Ratio (x) = -0.06839 0.66668
# Poissons Ratio (y) = -0.24662 1.09603
# Poissons Ratio (z) = 0.49363 0.22505
#
# Static dielectric constant tensor:
#      x y z
#    x 1.612020 0.000000 -0.033000 
#    y 0.000000 1.628100 0.000000 
#    z -0.033000 0.000000 1.664110 
# 
# From -- ./inp_files/238924.got.cif
#   From: 2010.05.17/outbox.cif.g08.bks.cpg/sg12_120_cif.got.tgz:238924.got - 2010.06.03 13:09:07.
