data_PCOD9181716
_publ_section_title
;
Structure prediction by ZEFSAII (Michael W. Deem and Ramdas Pophale) SiO2 
 PCOD9181716
Probable space group: C 2/M
;
_chemical_formula_sum "Si O2"
_cell_formula_units_Z 40
_cell_length_a 14.463729
_cell_length_b 22.392572
_cell_length_c 11.360207
_cell_angle_alpha 90.000000
_cell_angle_beta 150.757806
_cell_angle_gamma 90.000000
_cell_volume 1797.368695
_symmetry_space_group_name_H-M "C 2/M"
_symmetry_group_IT_number 12
_symmetry_cell_setting 'monoclinic'
loop_
_space_group_symop_operation_xyz
x,y,z
-x,y,-z
-x,-y,-z
x,-y,z
1/2+x,1/2+y,z
1/2-x,1/2+y,-z
1/2-x,1/2-y,-z
1/2+x,1/2-y,z
loop_
_atom_site_type_symbol
_atom_site_label
_atom_site_fract_x
_atom_site_fract_y
_atom_site_fract_z
Si Si1 0.840621 0.068167 0.158675
Si Si2 0.587436 0.204601 0.278522
Si Si3 0.283798 0.682020 0.256147
Si Si4 0.067198 0.932489 0.195661
Si Si5 0.979341 0.600852 0.616039
O O1 0.803853 0.116809 0.218101
O O2 0.000967 0.092339 0.246930
O O3 0.878754 0.000000 0.240698
O O4 0.657410 0.069044 0.871620
O O5 0.750000 0.250000 0.500000
O O6 0.688867 0.174626 0.278244
O O7 0.547388 0.162724 0.344999
O O8 0.374594 0.220103 0.993462
O O9 0.500000 0.706593 0.500000
O O10 0.289733 0.934368 0.433748
O O11 0.986824 0.000000 0.105735
O O12 0.000000 0.901384 0.000000
O O13 0.000000 0.607675 0.500000
#
# Coordination Sequence:
#
# PCOD9181716 Si02
#       5
#     8   8   8   8   8
#     4  10  21  37  62  95 133 176 213 254 311 376
#     4  10  24  45  64  92 123 162 216 276 336 385
#     4  10  22  44  68  93 129 165 214 270 320 391
#     4  10  19  32  53  87 129 168 204 247 302 366
#     4  11  21  37  61  92 128 168 215 267 317 377
#
# _framework density 22.254754999999999
#
# number of rings (size 3 to 8) (size 9 to 14) (size 15 to 20)
#    0.000    1.800    2.000    1.800    0.000    2.800 
#    3.600    9.000    0.000    0.000    0.000    0.000 
#    0.000    0.000    0.000    0.000    0.000    0.800 
#
# Total GULP energy -111555.687705 kJ/mol
# GULP energy per Si atom -5577.784385 kJ/mol
# Density = 2.220410 g / cm^3
# Si number density = 22.254755 Si / 1000 Ang^3
#
#
#
# Elastic Constant Matrix: (Units=GPa)
#
#
# Indices 1 2 3 4 5 6 
#
# 1 163.9055 37.1542 49.8528 0.0000 5.7135 0.0000
# 2 37.1542 50.0309 40.3393 0.0000 -8.0361 0.0000
# 3 49.8528 40.3393 170.8387 0.0000 19.8832 0.0000
# 4 0.0000 0.0000 0.0000 25.7507 0.0000 10.6767
# 5 5.7135 -8.0361 19.8832 0.0000 42.5590 0.0000
# 6 0.0000 0.0000 0.0000 10.6767 0.0000 18.6734
#
#
#
# Elastic Compliance Matrix: (Units=1/GPa)
#
#
# Indices 1 2 3 4 5 6 
#
# 1 0.007591 -0.005276 -0.000777 0.000000 -0.001652 0.000000
# 2 -0.005276 0.031081 -0.006942 0.000000 0.009820 0.000000
# 3 -0.000777 -0.006942 0.008312 0.000000 -0.005090 0.000000
# 4 0.000000 0.000000 0.000000 0.050901 0.000000 -0.029103
# 5 -0.001652 0.009820 -0.005090 0.000000 0.027951 0.000000
# 6 0.000000 0.000000 0.000000 -0.029103 0.000000 0.070192
#
#
# Mechanical properties :
#
#
# Convention : Reuss Voigt Hill
#
# Bulk Modulus (GPa) = 47.63566 71.05198 59.34382
# Shear Modulus (GPa) = 21.83262 34.55854 28.19558
#
# Velocity S-wave (km/s) = 3.13554 3.94491 3.56328
# Velocity P-wave (km/s) = 5.87878 7.26262 6.60703
#
# Compressibility (1/GPa) = 0.02099267
#
# Stress axis : x y z
#
# Youngs Moduli (GPa) = 131.73466 32.17432 120.31059
#
# Poissons Ratio (x) = 0.16976 0.09348
# Poissons Ratio (y) = 0.69506 0.83522
# Poissons Ratio (z) = 0.10236 0.22336
#
# Static dielectric constant tensor:
#      x y z
#    x 1.812510 0.000000 -0.028280 
#    y 0.000000 1.866100 0.000000 
#    z -0.028280 0.000000 1.950230 
# 
# From -- ./inp_files/148992.got.cif
#   From: 2010.05.17/outbox.cif.g08.bks.cpg/sg12_75_cif.got.tgz:148992.got - 2010.06.03 13:09:07.
