data_PCOD9181047
_publ_section_title
;
Structure prediction by ZEFSAII (Michael W. Deem and Ramdas Pophale) SiO2 
 PCOD9181047
Probable space group: C 2/M
;
_chemical_formula_sum "Si O2"
_cell_formula_units_Z 40
_cell_length_a 25.343287
_cell_length_b 8.774894
_cell_length_c 7.986917
_cell_angle_alpha 90.000000
_cell_angle_beta 67.756373
_cell_angle_gamma 90.000000
_cell_volume 1643.990036
_symmetry_space_group_name_H-M "C 2/M"
_symmetry_group_IT_number 12
_symmetry_cell_setting 'monoclinic'
loop_
_space_group_symop_operation_xyz
x,y,z
-x,y,-z
-x,-y,-z
x,-y,z
1/2+x,1/2+y,z
1/2-x,1/2+y,-z
1/2-x,1/2-y,-z
1/2+x,1/2-y,z
loop_
_atom_site_type_symbol
_atom_site_label
_atom_site_fract_x
_atom_site_fract_y
_atom_site_fract_z
Si Si1 0.836840 0.327189 0.829860
Si Si2 0.242134 0.323711 0.738823
Si Si3 0.463181 0.321072 0.393210
Si Si4 0.134961 0.679239 0.679840
Si Si5 0.074182 0.174983 0.060350
O O1 0.857351 0.500000 0.780354
O O2 0.796754 0.273766 0.725875
O O3 0.887706 0.214798 0.821876
O O4 0.795890 0.328287 0.044081
O O5 0.197548 0.258915 0.655178
O O6 0.242581 0.000000 0.316534
O O7 0.500000 0.252661 0.500000
O O8 0.453561 0.500000 0.438281
O O9 0.403652 0.246302 0.420064
O O10 0.508157 0.310934 0.186285
O O11 0.141551 0.500000 0.651562
O O12 0.096629 0.714475 0.890186
O O13 0.085464 0.000000 0.996097
#
# Coordination Sequence:
#
# PCOD9181047 Si02
#       5
#     8   8   8   8   8
#     4   9  16  26  44  72 102 129 160 201 245 289
#     4   8  15  27  43  68 101 131 158 193 243 296
#     4  10  22  38  53  71  98 133 171 208 249 298
#     4  10  20  33  52  78 104 130 164 207 249 292
#     4  10  19  32  52  75 101 134 167 203 248 295
#
# _framework density 24.331047999999999
#
# number of rings (size 3 to 8) (size 9 to 14) (size 15 to 20)
#    0.000    2.600    0.000    3.600    0.000   10.000 
#    0.000    0.000    0.000    1.200    0.000    0.000 
#    0.000    0.000    0.000    0.000    0.000    0.000 
#
# Total GULP energy -111889.738202 kJ/mol
# GULP energy per Si atom -5594.486910 kJ/mol
# Density = 2.427567 g / cm^3
# Si number density = 24.331048 Si / 1000 Ang^3
#
#
#
# Elastic Constant Matrix: (Units=GPa)
#
#
# Indices 1 2 3 4 5 6 
#
# 1 179.3384 47.9710 33.9731 0.0000 30.7750 0.0000
# 2 47.9710 49.7765 -5.2958 0.0000 0.9768 0.0000
# 3 33.9731 -5.2958 79.0680 0.0000 24.7504 0.0000
# 4 0.0000 0.0000 0.0000 21.8568 0.0000 15.1607
# 5 30.7750 0.9768 24.7504 0.0000 54.8288 0.0000
# 6 0.0000 0.0000 0.0000 15.1607 0.0000 31.1208
#
#
#
# Elastic Compliance Matrix: (Units=1/GPa)
#
#
# Indices 1 2 3 4 5 6 
#
# 1 0.009332 -0.009302 -0.003546 0.000000 -0.003471 0.000000
# 2 -0.009302 0.029568 0.005250 0.000000 0.002325 0.000000
# 3 -0.003546 0.005250 0.016221 0.000000 -0.005425 0.000000
# 4 0.000000 0.000000 0.000000 0.069103 0.000000 -0.033664
# 5 -0.003471 0.002325 -0.005425 0.000000 0.022595 0.000000
# 6 0.000000 0.000000 0.000000 -0.033664 0.000000 0.048532
#
#
# Mechanical properties :
#
#
# Convention : Reuss Voigt Hill
#
# Bulk Modulus (GPa) = 25.04841 51.27550 38.16196
# Shear Modulus (GPa) = 22.33584 36.99693 29.66639
#
# Velocity S-wave (km/s) = 3.03313 3.90367 3.49561
# Velocity P-wave (km/s) = 4.75223 6.43724 5.65782
#
# Compressibility (1/GPa) = 0.03992270
#
# Stress axis : x y z
#
# Youngs Moduli (GPa) = 107.16058 33.82072 61.64897
#
# Poissons Ratio (x) = 0.31461 0.21861
# Poissons Ratio (y) = 0.99685 -0.32363
# Poissons Ratio (z) = 0.37999 -0.17755
#
# Static dielectric constant tensor:
#      x y z
#    x 1.914300 0.000000 0.006850 
#    y 0.000000 1.814700 0.000000 
#    z 0.006850 0.000000 2.096750 
# 
# From -- ./inp_files/101104.got.cif
#   From: 2010.05.17/outbox.cif.g08.bks.cpg/sg12_51_cif.got.tgz:101104.got - 2010.06.03 13:09:07.
