data_PCOD9181997
_publ_section_title
;
Structure prediction by ZEFSAII (Michael W. Deem and Ramdas Pophale) SiO2 
 PCOD9181997
Probable space group: C 2/M
;
_chemical_formula_sum "Si O2"
_cell_formula_units_Z 56
_cell_length_a 22.591888
_cell_length_b 8.846736
_cell_length_c 18.283475
_cell_angle_alpha 90.000000
_cell_angle_beta 121.167186
_cell_angle_gamma 90.000000
_cell_volume 3126.770260
_symmetry_space_group_name_H-M "C 2/M"
_symmetry_group_IT_number 12
_symmetry_cell_setting 'monoclinic'
loop_
_space_group_symop_operation_xyz
x,y,z
-x,y,-z
-x,-y,-z
x,-y,z
1/2+x,1/2+y,z
1/2-x,1/2+y,-z
1/2-x,1/2-y,-z
1/2+x,1/2-y,z
loop_
_atom_site_type_symbol
_atom_site_label
_atom_site_fract_x
_atom_site_fract_y
_atom_site_fract_z
Si Si1 0.452386 0.174593 0.033821
Si Si2 0.582500 0.679111 0.758642
Si Si3 0.334667 0.677501 0.630802
Si Si4 0.327623 0.178467 0.472130
Si Si5 0.961701 0.671192 0.762422
Si Si6 0.327285 0.183007 0.053978
Si Si7 0.574599 0.318373 0.583167
O O1 0.501841 0.173038 0.135991
O O2 0.379108 0.233520 0.020218
O O3 0.438050 0.000000 0.002100
O O4 0.500000 0.245205 0.000000
O O5 0.594950 0.500000 0.772350
O O6 0.506546 0.719994 0.739942
O O7 0.635627 0.763742 0.847001
O O8 0.583174 0.722644 0.673843
O O9 0.347159 0.500000 0.646794
O O10 0.351069 0.730873 0.558887
O O11 0.253830 0.707963 0.590636
O O12 0.383846 0.771500 0.714948
O O13 0.369262 0.233872 0.429314
O O14 0.336618 0.000000 0.490930
O O15 0.965085 0.500000 0.736088
O O16 0.325302 0.000000 0.051404
O O17 0.250000 0.250000 0.000000
O O18 0.500000 0.282240 0.500000
O O19 0.583326 0.500000 0.583106
#
# Coordination Sequence:
#
# PCOD9181997 Si02
#       7
#     8   8   8   8   8   8   8
#     4   8  16  33  55  80 108 137 177 226 271 325
#     4  10  20  35  56  81 111 146 185 225 271 329
#     4  10  20  35  53  74 105 141 176 218 268 322
#     4  10  21  35  53  76 104 139 179 223 267 315
#     4  10  19  32  55  82 105 137 179 221 267 319
#     4  10  20  36  59  83 112 148 189 235 286 342
#     4  10  21  36  54  78 108 143 181 223 272 324
#
# _framework density 17.909853999999999
#
# number of rings (size 3 to 8) (size 9 to 14) (size 15 to 20)
#    0.000    2.286    0.000    3.857    0.000    4.286 
#    2.571    0.000    0.000   14.571    0.000    0.000 
#    0.000    0.000    0.000    0.000    0.000    0.000 
#
# Total GULP energy -156092.215046 kJ/mol
# GULP energy per Si atom -5574.721966 kJ/mol
# Density = 1.786909 g / cm^3
# Si number density = 17.909854 Si / 1000 Ang^3
#
#
#
# Elastic Constant Matrix: (Units=GPa)
#
#
# Indices 1 2 3 4 5 6 
#
# 1 105.3483 31.7727 49.8782 0.0000 -9.0832 0.0000
# 2 31.7727 27.5339 25.7047 0.0000 4.7691 0.0000
# 3 49.8782 25.7047 56.6973 0.0000 9.9854 0.0000
# 4 0.0000 0.0000 0.0000 24.5901 0.0000 2.2668
# 5 -9.0832 4.7691 9.9854 0.0000 25.8596 0.0000
# 6 0.0000 0.0000 0.0000 2.2668 0.0000 27.2863
#
#
#
# Elastic Compliance Matrix: (Units=1/GPa)
#
#
# Indices 1 2 3 4 5 6 
#
# 1 0.023403 -0.013765 -0.017428 0.000000 0.017488 0.000000
# 2 -0.013765 0.071077 -0.018191 0.000000 -0.010919 0.000000
# 3 -0.017428 -0.018191 0.044747 0.000000 -0.020045 0.000000
# 4 0.000000 0.000000 0.000000 0.040981 0.000000 -0.003405
# 5 0.017488 -0.010919 -0.020045 0.000000 0.054567 0.000000
# 6 0.000000 0.000000 0.000000 -0.003405 0.000000 0.036931
#
#
# Mechanical properties :
#
#
# Convention : Reuss Voigt Hill
#
# Bulk Modulus (GPa) = 24.71663 44.92117 34.81890
# Shear Modulus (GPa) = 13.02216 21.02877 17.02547
#
# Velocity S-wave (km/s) = 2.69940 3.43030 3.08656
# Velocity P-wave (km/s) = 4.85244 6.38949 5.67326
#
# Compressibility (1/GPa) = 0.04045859
#
# Stress axis : x y z
#
# Youngs Moduli (GPa) = 42.72960 14.06917 22.34804
#
# Poissons Ratio (x) = 0.19367 0.38947
# Poissons Ratio (y) = 0.58818 0.40654
# Poissons Ratio (z) = 0.74467 0.25594
#
# Static dielectric constant tensor:
#      x y z
#    x 1.626470 0.000000 -0.002860 
#    y 0.000000 1.608170 0.000000 
#    z -0.002860 0.000000 1.602950 
# 
# From -- ./inp_files/281612.got.cif
#   From: 2010.05.17/outbox.cif.g08.bks.cpg/sg12_141_cif.got.tgz:281612.got - 2010.06.03 13:09:07.
