data_PCOD9181535
_publ_section_title
;
Structure prediction by ZEFSAII (Michael W. Deem and Ramdas Pophale) SiO2 
 PCOD9181535
Probable space group: C 2/M
;
_chemical_formula_sum "Si O2"
_cell_formula_units_Z 60
_cell_length_a 19.271744
_cell_length_b 8.131222
_cell_length_c 21.209516
_cell_angle_alpha 90.000000
_cell_angle_beta 131.392193
_cell_angle_gamma 90.000000
_cell_volume 2493.361978
_symmetry_space_group_name_H-M "C 2/M"
_symmetry_group_IT_number 12
_symmetry_cell_setting 'monoclinic'
loop_
_space_group_symop_operation_xyz
x,y,z
-x,y,-z
-x,-y,-z
x,-y,z
1/2+x,1/2+y,z
1/2-x,1/2+y,-z
1/2-x,1/2-y,-z
1/2+x,1/2-y,z
loop_
_atom_site_type_symbol
_atom_site_label
_atom_site_fract_x
_atom_site_fract_y
_atom_site_fract_z
Si Si1 0.680073 0.307358 0.129654
Si Si2 0.393130 0.804936 0.266944
Si Si3 0.682461 0.500000 0.433083
Si Si4 0.159414 0.312615 0.982879
Si Si5 0.482770 0.315936 0.197284
Si Si6 0.622531 0.304555 0.605447
Si Si7 0.158013 0.311996 0.248798
Si Si8 0.868603 0.679756 0.523722
O O1 0.678862 0.500000 0.145626
O O2 0.787078 0.249783 0.190448
O O3 0.634395 0.213907 0.160719
O O4 0.640710 0.283296 0.036347
O O5 0.456281 0.726527 0.251962
O O6 0.417656 0.757365 0.352675
O O7 0.392781 0.000000 0.258922
O O8 0.758226 0.640023 0.452624
O O9 0.624345 0.349405 0.433227
O O10 0.175994 0.500000 0.010891
O O11 0.073780 0.298877 0.883943
O O12 0.250000 0.250000 0.000000
O O13 0.452037 0.500000 0.164208
O O14 0.591359 0.299895 0.250173
O O15 0.607797 0.500000 0.590077
O O16 0.733650 0.276966 0.679544
O O17 0.596106 0.213145 0.525754
O O18 0.142143 0.500000 0.258363
O O19 0.904314 0.500000 0.570787
#
# Coordination Sequence:
#
# PCOD9181535 Si02
#       8
#     8   8   4   8   8   8   8   8
#     4  10  20  36  56  78 102 127 168 212 266 321
#     4  10  20  34  53  75 102 136 171 217 265 314
#     4   8  16  26  44  76 112 144 176 216 260 302
#     4  12  23  36  56  78  98 128 167 214 268 328
#     4  12  24  38  55  74 102 133 175 221 266 314
#     4  10  19  32  53  79 110 143 179 213 261 315
#     4  10  22  38  54  75 106 140 171 218 263 315
#     4   9  15  27  46  73 112 147 175 216 262 306
#
# _framework density 24.063894000000001
#
# number of rings (size 3 to 8) (size 9 to 14) (size 15 to 20)
#    0.400    1.333    2.000    4.000    0.000    3.200 
#    0.000    2.667    0.000    0.000    0.000    0.000 
#    0.000    6.400    0.000    0.000    0.000    0.000 
#
# Total GULP energy -167339.901074 kJ/mol
# GULP energy per Si atom -5577.996702 kJ/mol
# Density = 2.400912 g / cm^3
# Si number density = 24.063894 Si / 1000 Ang^3
#
#
#
# Elastic Constant Matrix: (Units=GPa)
#
#
# Indices 1 2 3 4 5 6 
#
# 1 100.7844 8.9916 14.8216 0.0000 -16.4208 0.0000
# 2 8.9916 94.0198 -4.9043 0.0000 -6.8642 0.0000
# 3 14.8216 -4.9043 77.1731 0.0000 2.2776 0.0000
# 4 0.0000 0.0000 0.0000 8.3971 0.0000 -11.1986
# 5 -16.4208 -6.8642 2.2776 0.0000 28.0051 0.0000
# 6 0.0000 0.0000 0.0000 -11.1986 0.0000 55.5179
#
#
#
# Elastic Compliance Matrix: (Units=1/GPa)
#
#
# Indices 1 2 3 4 5 6 
#
# 1 0.011443 -0.000730 -0.002443 0.000000 0.006729 0.000000
# 2 -0.000730 0.010905 0.000769 0.000000 0.002182 0.000000
# 3 -0.002443 0.000769 0.013545 0.000000 -0.002345 0.000000
# 4 0.000000 0.000000 0.000000 0.162913 0.000000 0.032861
# 5 0.006729 0.002182 -0.002345 0.000000 0.040379 0.000000
# 6 0.000000 0.000000 0.000000 0.032861 0.000000 0.024641
#
#
# Mechanical properties :
#
#
# Convention : Reuss Voigt Hill
#
# Bulk Modulus (GPa) = 32.17002 34.42169 33.29585
# Shear Modulus (GPa) = 17.92137 35.25527 26.58832
#
# Velocity S-wave (km/s) = 2.73196 3.83177 3.32762
# Velocity P-wave (km/s) = 4.83209 5.82340 5.35075
#
# Compressibility (1/GPa) = 0.03108484
#
# Stress axis : x y z
#
# Youngs Moduli (GPa) = 87.38995 91.69824 73.82742
#
# Poissons Ratio (x) = 0.06698 0.18034
# Poissons Ratio (y) = 0.06384 -0.05677
# Poissons Ratio (z) = 0.21347 -0.07051
#
# Static dielectric constant tensor:
#      x y z
#    x 1.924470 0.000000 0.042960 
#    y 0.000000 1.838950 0.000000 
#    z 0.042960 0.000000 1.953480 
# 
# From -- ./inp_files/342466.got.cif
#   From: 2010.05.17/outbox.cif.g08.bks.cpg/sg12_172_cif.got.tgz:342466.got - 2010.06.03 13:09:07.
