data_PCOD9181926
_publ_section_title
;
Structure prediction by ZEFSAII (Michael W. Deem and Ramdas Pophale) SiO2 
 PCOD9181926
Probable space group: C 2/M
;
_chemical_formula_sum "Si O2"
_cell_formula_units_Z 56
_cell_length_a 12.256764
_cell_length_b 16.153746
_cell_length_c 17.107829
_cell_angle_alpha 90.000000
_cell_angle_beta 62.128719
_cell_angle_gamma 90.000000
_cell_volume 2994.306625
_symmetry_space_group_name_H-M "C 2/M"
_symmetry_group_IT_number 12
_symmetry_cell_setting 'monoclinic'
loop_
_space_group_symop_operation_xyz
x,y,z
-x,y,-z
-x,-y,-z
x,-y,z
1/2+x,1/2+y,z
1/2-x,1/2+y,-z
1/2-x,1/2-y,-z
1/2+x,1/2-y,z
loop_
_atom_site_type_symbol
_atom_site_label
_atom_site_fract_x
_atom_site_fract_y
_atom_site_fract_z
Si Si1 0.996625 0.098998 0.709388
Si Si2 0.773493 0.660137 0.619896
Si Si3 0.152478 0.403266 0.571299
Si Si4 0.305681 0.601186 0.095620
Si Si5 0.595419 0.096419 0.274743
Si Si6 0.376661 0.340534 0.592753
Si Si7 0.442712 0.399670 0.899489
O O1 0.915318 0.119730 0.661584
O O2 0.934302 0.124846 0.812242
O O3 0.128641 0.143726 0.659218
O O4 0.019747 0.000000 0.704080
O O5 0.835477 0.640682 0.515871
O O6 0.825925 0.603601 0.671908
O O7 0.810778 0.752971 0.628467
O O8 0.128725 0.500000 0.563663
O O9 0.278977 0.393650 0.576109
O O10 0.038396 0.367547 0.659727
O O11 0.301145 0.500000 0.097701
O O12 0.179914 0.632265 0.177263
O O13 0.423027 0.623728 0.110614
O O14 0.340010 0.628181 0.996385
O O15 0.575279 0.000000 0.262253
O O16 0.500000 0.329679 0.500000
O O17 0.439419 0.500000 0.902188
#
# Coordination Sequence:
#
# PCOD9181926 Si02
#       7
#     8   8   8   8   8   8   8
#     4  11  22  38  62  87 113 149 193 236 278 333
#     4  12  23  36  57  82 113 148 188 234 286 334
#     4  11  23  38  57  80 112 151 192 235 280 336
#     4   8  13  25  49  84 115 137 175 239 289 321
#     4  10  19  32  54  84 114 143 183 235 289 334
#     4  12  26  39  56  78 117 155 194 228 283 341
#     4   8  14  27  51  84 113 137 180 237 284 321
#
# _framework density 18.702159999999999
#
# number of rings (size 3 to 8) (size 9 to 14) (size 15 to 20)
#    0.000    1.714    2.857    4.286    2.000    1.714 
#    0.000    0.000    0.000    1.714    3.714    5.000 
#    0.000    0.000    0.000    0.000    0.000    0.000 
#
# Total GULP energy -156255.758156 kJ/mol
# GULP energy per Si atom -5580.562791 kJ/mol
# Density = 1.865959 g / cm^3
# Si number density = 18.702160 Si / 1000 Ang^3
#
#
#
# Elastic Constant Matrix: (Units=GPa)
#
#
# Indices 1 2 3 4 5 6 
#
# 1 57.9855 -0.5507 43.3449 0.0000 -8.3243 0.0000
# 2 -0.5507 21.6901 16.6377 0.0000 -2.1602 0.0000
# 3 43.3449 16.6377 162.8129 0.0000 -8.7115 0.0000
# 4 0.0000 0.0000 0.0000 -8.9262 0.0000 -8.0447
# 5 -8.3243 -2.1602 -8.7115 0.0000 28.3050 0.0000
# 6 0.0000 0.0000 0.0000 -8.0447 0.0000 18.4751
#
#
#
# Elastic Compliance Matrix: (Units=1/GPa)
#
#
# Indices 1 2 3 4 5 6 
#
# 1 0.022849 0.006023 -0.006420 0.000000 0.005203 0.000000
# 2 0.006023 0.051758 -0.006697 0.000000 0.003660 0.000000
# 3 -0.006420 -0.006697 0.008548 0.000000 0.000232 0.000000
# 4 0.000000 0.000000 0.000000 -0.080456 0.000000 -0.035033
# 5 0.005203 0.003660 0.000232 0.000000 0.037210 0.000000
# 6 0.000000 0.000000 0.000000 -0.035033 0.000000 0.038872
#
#
# Mechanical properties :
#
#
# Convention : Reuss Voigt Hill
#
# Bulk Modulus (GPa) = 14.49960 40.15027 27.32493
# Shear Modulus (GPa) = 43.11879 19.77455 31.44667
#
# Velocity S-wave (km/s) = 4.80682 3.25520 4.10499
# Velocity P-wave (km/s) = 6.21105 5.97020 6.09182
#
# Compressibility (1/GPa) = 0.06896743
#
# Stress axis : x y z
#
# Youngs Moduli (GPa) = 43.76566 19.32061 116.98737
#
# Poissons Ratio (x) = -0.11637 0.75106
# Poissons Ratio (y) = -0.26360 0.78344
# Poissons Ratio (z) = 0.28098 0.12939
#
# Static dielectric constant tensor:
#      x y z
#    x 1.625320 0.000000 -0.022650 
#    y 0.000000 1.663490 0.000000 
#    z -0.022650 0.000000 1.680240 
# 
# From -- ./inp_files/263209.got.cif
#   From: 2010.05.17/outbox.cif.g08.bks.cpg/sg12_132_cif.got.tgz:263209.got - 2010.06.03 13:09:07.
