data_PCOD9181050
_publ_section_title
;
Structure prediction by ZEFSAII (Michael W. Deem and Ramdas Pophale) SiO2 
 PCOD9181050
Probable space group: C 2/M
;
_chemical_formula_sum "Si O2"
_cell_formula_units_Z 56
_cell_length_a 26.294855
_cell_length_b 14.955408
_cell_length_c 8.465131
_cell_angle_alpha 90.000000
_cell_angle_beta 109.214008
_cell_angle_gamma 90.000000
_cell_volume 3143.481082
_symmetry_space_group_name_H-M "C 2/M"
_symmetry_group_IT_number 12
_symmetry_cell_setting 'monoclinic'
loop_
_space_group_symop_operation_xyz
x,y,z
-x,y,-z
-x,-y,-z
x,-y,z
1/2+x,1/2+y,z
1/2-x,1/2+y,-z
1/2-x,1/2-y,-z
1/2+x,1/2-y,z
loop_
_atom_site_type_symbol
_atom_site_label
_atom_site_fract_x
_atom_site_fract_y
_atom_site_fract_z
Si Si1 0.437111 0.105655 0.459516
Si Si2 0.344016 0.276958 0.865576
Si Si3 0.941572 0.897767 0.373633
Si Si4 0.142804 0.398364 0.336776
Si Si5 0.140086 0.748793 0.748248
Si Si6 0.766574 0.683532 0.377264
Si Si7 0.442479 0.602889 0.993366
O O1 0.500000 0.129776 0.500000
O O2 0.409622 0.119171 0.604897
O O3 0.400007 0.164577 0.307733
O O4 0.432311 0.000000 0.421452
O O5 0.349354 0.181376 0.781656
O O6 0.290312 0.331812 0.764889
O O7 0.395398 0.336965 0.877576
O O8 0.345709 0.264152 0.055487
O O9 0.893581 0.830273 0.363554
O O10 0.000000 0.870176 0.500000
O O11 0.932068 0.000000 0.416950
O O12 0.942413 0.897012 0.183738
O O13 0.138961 0.500000 0.270098
O O14 0.195501 0.391361 0.504841
O O15 0.193767 0.731358 0.705165
O O16 0.750000 0.750000 0.500000
O O17 0.437311 0.500000 0.934740
O O18 0.500000 0.638365 0.000000
#
# Coordination Sequence:
#
# PCOD9181050 Si02
#       7
#     8   8   8   8   8   8   8
#     4   9  18  33  52  73  99 134 172 207 249 304
#     4  10  20  33  53  77 103 133 168 212 259 304
#     4   9  18  32  50  74 103 133 166 203 245 297
#     4   9  19  35  53  74 102 134 171 213 253 302
#     4  10  19  32  52  75 103 134 167 210 257 300
#     4   9  19  35  52  72  99 133 171 208 249 303
#     4   9  19  34  51  75 105 134 165 202 248 301
#
# _framework density 17.814644000000001
#
# number of rings (size 3 to 8) (size 9 to 14) (size 15 to 20)
#    0.000    2.714    0.000    0.857    0.000    6.857 
#    0.000    2.857    0.000    8.143    0.000    0.000 
#    0.000    0.000    0.000    0.000    0.000    0.000 
#
# Total GULP energy -155923.147010 kJ/mol
# GULP energy per Si atom -5568.683822 kJ/mol
# Density = 1.777410 g / cm^3
# Si number density = 17.814644 Si / 1000 Ang^3
#
#
#
# Elastic Constant Matrix: (Units=GPa)
#
#
# Indices 1 2 3 4 5 6 
#
# 1 135.4846 41.8993 31.9761 0.0000 25.2664 0.0000
# 2 41.8993 60.5323 27.1654 0.0000 14.5147 0.0000
# 3 31.9761 27.1654 62.2323 0.0000 22.0397 0.0000
# 4 0.0000 0.0000 0.0000 18.3139 0.0000 0.4804
# 5 25.2664 14.5147 22.0397 0.0000 24.9497 0.0000
# 6 0.0000 0.0000 0.0000 0.4804 0.0000 12.1797
#
#
#
# Elastic Compliance Matrix: (Units=1/GPa)
#
#
# Indices 1 2 3 4 5 6 
#
# 1 0.010463 -0.005303 -0.000584 0.000000 -0.006995 0.000000
# 2 -0.005303 0.023840 -0.006799 0.000000 -0.002493 0.000000
# 3 -0.000584 -0.006799 0.025797 0.000000 -0.018242 0.000000
# 4 0.000000 0.000000 0.000000 0.054660 0.000000 -0.002156
# 5 -0.006995 -0.002493 -0.018242 0.000000 0.064729 0.000000
# 6 0.000000 0.000000 0.000000 -0.002156 0.000000 0.082189
#
#
# Mechanical properties :
#
#
# Convention : Reuss Voigt Hill
#
# Bulk Modulus (GPa) = 28.79513 51.14789 39.97151
# Shear Modulus (GPa) = 16.74341 21.56921 19.15631
#
# Velocity S-wave (km/s) = 3.06905 3.48337 3.28275
# Velocity P-wave (km/s) = 5.36261 6.70462 6.07081
#
# Compressibility (1/GPa) = 0.03472810
#
# Stress axis : x y z
#
# Youngs Moduli (GPa) = 95.57248 41.94701 38.76423
#
# Poissons Ratio (x) = 0.22245 0.02264
# Poissons Ratio (y) = 0.50683 0.26355
# Poissons Ratio (z) = 0.05582 0.28519
#
# Static dielectric constant tensor:
#      x y z
#    x 1.612030 0.000000 0.006290 
#    y 0.000000 1.613180 0.000000 
#    z 0.006290 0.000000 1.617530 
# 
# From -- ./inp_files/96498.got.cif
#   From: 2010.05.17/outbox.cif.g08.bks.cpg/sg12_49_cif.got.tgz:96498.got - 2010.06.03 13:09:07.
