data_PCOD9181368
_publ_section_title
;
Structure prediction by ZEFSAII (Michael W. Deem and Ramdas Pophale) SiO2 
 PCOD9181368
Probable space group: C 2/M
;
_chemical_formula_sum "Si O2"
_cell_formula_units_Z 64
_cell_length_a 15.579109
_cell_length_b 25.696473
_cell_length_c 17.584160
_cell_angle_alpha 90.000000
_cell_angle_beta 150.847933
_cell_angle_gamma 90.000000
_cell_volume 3429.114086
_symmetry_space_group_name_H-M "C 2/M"
_symmetry_group_IT_number 12
_symmetry_cell_setting 'monoclinic'
loop_
_space_group_symop_operation_xyz
x,y,z
-x,y,-z
-x,-y,-z
x,-y,z
1/2+x,1/2+y,z
1/2-x,1/2+y,-z
1/2-x,1/2-y,-z
1/2+x,1/2-y,z
loop_
_atom_site_type_symbol
_atom_site_label
_atom_site_fract_x
_atom_site_fract_y
_atom_site_fract_z
Si Si1 0.595776 0.758956 0.319979
Si Si2 0.688030 0.664676 0.186511
Si Si3 0.796408 0.223846 0.318605
Si Si4 0.371382 0.140520 0.185869
Si Si5 0.626843 0.059879 0.302461
Si Si6 0.504706 0.559053 0.319948
Si Si7 0.996908 0.147348 0.187915
Si Si8 0.815644 0.891591 0.309528
O O1 0.750000 0.750000 0.500000
O O2 0.682289 0.776990 0.307425
O O3 0.468683 0.804424 0.249630
O O4 0.504765 0.703434 0.234871
O O5 0.740220 0.725414 0.229017
O O6 0.826737 0.634885 0.240812
O O7 0.653917 0.647149 0.246631
O O8 0.500000 0.660095 0.000000
O O9 0.774006 0.168611 0.260139
O O10 0.000000 0.229780 0.500000
O O11 0.490409 0.095611 0.242053
O O12 0.187388 0.142449 0.998521
O O13 0.810648 0.060710 0.491412
O O14 0.672649 0.083524 0.255173
O O15 0.569468 0.000000 0.251554
O O16 0.475670 0.500000 0.271096
O O17 0.513663 0.600920 0.260255
O O18 0.355447 0.576057 0.264877
O O19 0.000000 0.890902 0.500000
#
# Coordination Sequence:
#
# PCOD9181368 Si02
#       8
#     8   8   8   8   8   8   8   8
#     4  11  21  34  57  85 114 147 186 230 279 332
#     4   9  21  39  55  76 112 149 185 227 279 335
#     4  10  19  32  52  85 114 146 183 222 273 334
#     4  11  21  38  58  82 113 147 187 234 280 335
#     4  10  20  37  60  85 112 147 191 234 275 330
#     4  10  21  38  60  84 112 149 190 234 280 328
#     4  10  23  38  57  82 111 149 189 231 284 333
#     4   9  18  33  55  83 114 147 187 225 274 330
#
# _framework density 18.663712
#
# number of rings (size 3 to 8) (size 9 to 14) (size 15 to 20)
#    0.000    2.000    1.250    2.250    5.250    3.000 
#    0.000    1.250    0.000    5.250    0.000    0.000 
#    0.000    0.000    0.000    0.000    0.000    0.000 
#
# Total GULP energy -178671.484356 kJ/mol
# GULP energy per Si atom -5583.483886 kJ/mol
# Density = 1.862123 g / cm^3
# Si number density = 18.663712 Si / 1000 Ang^3
#
#
#
# Elastic Constant Matrix: (Units=GPa)
#
#
# Indices 1 2 3 4 5 6 
#
# 1 128.2621 82.7862 19.5517 0.0012 21.5887 -0.0002
# 2 82.7862 136.2742 18.1871 0.0001 13.6994 0.0000
# 3 19.5517 18.1871 16.3854 0.0025 7.5332 -0.0003
# 4 0.0012 0.0001 0.0025 -104.7504 0.0020 15.6704
# 5 21.5887 13.6994 7.5332 0.0020 22.2309 -0.0002
# 6 -0.0002 0.0000 -0.0003 15.6704 -0.0002 27.9090
#
#
#
# Elastic Compliance Matrix: (Units=1/GPa)
#
#
# Indices 1 2 3 4 5 6 
#
# 1 0.014790 -0.007423 -0.005814 0.000000 -0.007818 0.000000
# 2 -0.007423 0.012454 -0.005629 0.000000 0.001441 0.000000
# 3 -0.005814 -0.005629 0.082947 0.000002 -0.018993 0.000000
# 4 0.000000 0.000000 0.000002 -0.008807 0.000001 0.004945
# 5 -0.007818 0.001441 -0.018993 0.000001 0.058122 0.000000
# 6 0.000000 0.000000 0.000000 0.004945 0.000000 0.033054
#
#
# Mechanical properties :
#
#
# Convention : Reuss Voigt Hill
#
# Bulk Modulus (GPa) = 13.80089 57.99685 35.89887
# Shear Modulus (GPa) = 19.65062 -0.22896 9.71083
#
# Velocity S-wave (km/s) = 3.24833 -0.35063 2.28349
# Velocity P-wave (km/s) = 4.63459 5.56581 5.12141
#
# Compressibility (1/GPa) = 0.07245907
#
# Stress axis : x y z
#
# Youngs Moduli (GPa) = 67.61416 80.29678 12.05589
#
# Poissons Ratio (x) = 0.59603 0.07010
# Poissons Ratio (y) = 0.50189 0.06786
# Poissons Ratio (z) = 0.39313 0.45196
#
# Static dielectric constant tensor:
#      x y z
#    x 1.662860 0.000000 0.004550 
#    y 0.000000 1.617570 0.000000 
#    z 0.004550 0.000000 1.635320 
# 
# From -- ./inp_files/272868.got.cif
#   From: 2010.05.17/outbox.cif.g08.bks.cpg/sg12_137_cif.got.tgz:272868.got - 2010.06.03 13:09:07.
