data_PCOD9181107
_publ_section_title
;
Structure prediction by ZEFSAII (Michael W. Deem and Ramdas Pophale) SiO2 
 PCOD9181107
Probable space group: C 2/M
;
_chemical_formula_sum "Si O2"
_cell_formula_units_Z 48
_cell_length_a 13.474499
_cell_length_b 12.108693
_cell_length_c 12.085463
_cell_angle_alpha 90.000000
_cell_angle_beta 97.520602
_cell_angle_gamma 90.000000
_cell_volume 1954.884786
_symmetry_space_group_name_H-M "C 2/M"
_symmetry_group_IT_number 12
_symmetry_cell_setting 'monoclinic'
loop_
_space_group_symop_operation_xyz
x,y,z
-x,y,-z
-x,-y,-z
x,-y,z
1/2+x,1/2+y,z
1/2-x,1/2+y,-z
1/2-x,1/2-y,-z
1/2+x,1/2-y,z
loop_
_atom_site_type_symbol
_atom_site_label
_atom_site_fract_x
_atom_site_fract_y
_atom_site_fract_z
Si Si1 0.647670 0.373396 0.590268
Si Si2 0.181286 0.202413 0.354379
Si Si3 0.743462 0.381007 0.952998
Si Si4 0.990214 0.689178 0.372689
Si Si5 0.918948 0.878693 0.871833
Si Si6 0.603008 0.211093 0.860516
O O1 0.659800 0.500000 0.630104
O O2 0.715521 0.266429 0.628383
O O3 0.665271 0.371220 0.460721
O O4 0.543917 0.318722 0.617017
O O5 0.153086 0.134928 0.242976
O O6 0.103285 0.304086 0.349116
O O7 0.749102 0.500000 0.902351
O O8 0.657133 0.377080 0.035569
O O9 0.848743 0.357211 0.030325
O O10 0.697145 0.295559 0.859648
O O11 0.926235 0.647969 0.257318
O O12 0.000000 0.642828 0.500000
O O13 0.004153 0.784015 0.876503
O O14 0.968162 0.000000 0.875893
#
# Coordination Sequence:
#
# PCOD9181107 Si02
#       6
#     8   8   8   8   8   8
#     4  10  19  32  52  76 104 140 179 218 264 317
#     4   9  19  33  50  76 108 137 175 223 266 311
#     4  10  21  36  56  81 108 141 179 220 268 318
#     4   9  19  34  54  78 107 139 175 218 264 312
#     4  10  19  34  56  78 102 137 179 219 262 314
#     4  10  20  35  57  81 109 139 178 225 266 313
#
# _framework density 24.553875999999999
#
# number of rings (size 3 to 8) (size 9 to 14) (size 15 to 20)
#    0.000    2.333    0.000    2.500    0.000    7.667 
#    0.000    3.333    0.000   23.000    0.000    0.000 
#    0.000    0.000    0.000    0.000    0.000    0.000 
#
# Total GULP energy -133644.839728 kJ/mol
# GULP energy per Si atom -5568.534989 kJ/mol
# Density = 2.449799 g / cm^3
# Si number density = 24.553876 Si / 1000 Ang^3
#
#
#
# Elastic Constant Matrix: (Units=GPa)
#
#
# Indices 1 2 3 4 5 6 
#
# 1 62.1770 10.1448 3.9011 0.0000 8.0134 0.0000
# 2 10.1448 64.0629 -3.3738 0.0000 9.9418 0.0000
# 3 3.9011 -3.3738 152.1713 0.0000 14.4062 0.0000
# 4 0.0000 0.0000 0.0000 3.5476 0.0000 -1.6560
# 5 8.0134 9.9418 14.4062 0.0000 33.2645 0.0000
# 6 0.0000 0.0000 0.0000 -1.6560 0.0000 13.4537
#
#
#
# Elastic Compliance Matrix: (Units=1/GPa)
#
#
# Indices 1 2 3 4 5 6 
#
# 1 0.016878 -0.002162 -0.000164 0.000000 -0.003349 0.000000
# 2 -0.002162 0.016755 0.000888 0.000000 -0.004871 0.000000
# 3 -0.000164 0.000888 0.006900 0.000000 -0.003214 0.000000
# 4 0.000000 0.000000 0.000000 0.299064 0.000000 0.036810
# 5 -0.003349 -0.004871 -0.003214 0.000000 0.033717 0.000000
# 6 0.000000 0.000000 0.000000 0.036810 0.000000 0.078860
#
#
# Mechanical properties :
#
#
# Convention : Reuss Voigt Hill
#
# Bulk Modulus (GPa) = 26.55483 33.30615 29.93049
# Shear Modulus (GPa) = 10.69291 27.90244 19.29767
#
# Velocity S-wave (km/s) = 2.08910 3.37468 2.80649
# Velocity P-wave (km/s) = 4.08136 5.36456 4.76634
#
# Compressibility (1/GPa) = 0.03765793
#
# Stress axis : x y z
#
# Youngs Moduli (GPa) = 59.24986 59.68465 144.93365
#
# Poissons Ratio (x) = 0.12901 0.02370
# Poissons Ratio (y) = 0.12807 -0.12871
# Poissons Ratio (z) = 0.00969 -0.05300
#
# Static dielectric constant tensor:
#      x y z
#    x 1.940170 0.000000 0.027930 
#    y 0.000000 1.941270 0.000000 
#    z 0.027930 0.000000 2.066830 
# 
# From -- ./inp_files/212899.got.cif
#   From: 2010.05.17/outbox.cif.g08.bks.cpg/sg12_107_cif.got.tgz:212899.got - 2010.06.03 13:09:07.
