data_PCOD9181443
_publ_section_title
;
Structure prediction by ZEFSAII (Michael W. Deem and Ramdas Pophale) SiO2 
 PCOD9181443
Probable space group: C 2/M
;
_chemical_formula_sum "Si O2"
_cell_formula_units_Z 48
_cell_length_a 32.768801
_cell_length_b 8.994487
_cell_length_c 18.990245
_cell_angle_alpha 90.000000
_cell_angle_beta 150.537492
_cell_angle_gamma 90.000000
_cell_volume 2752.983844
_symmetry_space_group_name_H-M "C 2/M"
_symmetry_group_IT_number 12
_symmetry_cell_setting 'monoclinic'
loop_
_space_group_symop_operation_xyz
x,y,z
-x,y,-z
-x,-y,-z
x,-y,z
1/2+x,1/2+y,z
1/2-x,1/2+y,-z
1/2-x,1/2-y,-z
1/2+x,1/2-y,z
loop_
_atom_site_type_symbol
_atom_site_label
_atom_site_fract_x
_atom_site_fract_y
_atom_site_fract_z
Si Si1 0.677009 0.823031 0.845017
Si Si2 0.325503 0.321270 0.312408
Si Si3 0.677658 0.321075 0.345802
Si Si4 0.005765 0.828723 0.923081
Si Si5 0.007401 0.171242 0.596589
Si Si6 0.327756 0.176415 0.815629
O O1 0.683891 0.763269 0.775361
O O2 0.586057 0.769831 0.734714
O O3 0.682769 0.000000 0.855733
O O4 0.750000 0.750000 0.000000
O O5 0.328455 0.500000 0.302912
O O6 0.415005 0.282656 0.481089
O O7 0.248584 0.290727 0.247540
O O8 0.681964 0.500000 0.351745
O O9 0.750000 0.250000 0.500000
O O10 0.586038 0.280488 0.237885
O O11 0.683583 0.260445 0.275285
O O12 0.020112 0.000000 0.923772
O O13 0.084172 0.729976 0.020758
O O14 0.000000 0.826243 0.000000
O O15 0.000000 0.174614 0.500000
O O16 0.022958 0.000000 0.640601
O O17 0.330290 0.000000 0.806684
#
# Coordination Sequence:
#
# PCOD9181443 Si02
#       6
#     8   8   8   8   8   8
#     4  11  21  33  52  76 101 130 167 207 246 291
#     4   9  19  35  53  75 103 132 163 201 247 297
#     4  10  20  34  52  74 101 132 168 207 248 295
#     4   8  16  31  49  70  98 132 166 201 243 294
#     4   8  15  31  52  71  97 132 164 197 242 295
#     4  10  19  32  53  78 102 130 165 204 245 293
#
# _framework density 17.435628000000001
#
# number of rings (size 3 to 8) (size 9 to 14) (size 15 to 20)
#    0.000    2.667    0.000    4.500    0.000    8.000 
#    0.000    1.667    0.000    2.000    0.000    0.000 
#    0.000    0.000    0.000    0.000    0.000    0.000 
#
# Total GULP energy -133765.308395 kJ/mol
# GULP energy per Si atom -5573.554516 kJ/mol
# Density = 1.739594 g / cm^3
# Si number density = 17.435628 Si / 1000 Ang^3
#
#
#
# Elastic Constant Matrix: (Units=GPa)
#
#
# Indices 1 2 3 4 5 6 
#
# 1 68.5784 50.2421 59.4683 0.0000 33.4503 0.0000
# 2 50.2421 91.2027 79.9343 0.0000 19.6599 0.0000
# 3 59.4683 79.9343 170.7457 0.0000 33.1008 0.0000
# 4 0.0000 0.0000 0.0000 34.0443 0.0000 3.7443
# 5 33.4503 19.6599 33.1008 0.0000 30.3651 0.0000
# 6 0.0000 0.0000 0.0000 3.7443 0.0000 21.6014
#
#
#
# Elastic Compliance Matrix: (Units=1/GPa)
#
#
# Indices 1 2 3 4 5 6 
#
# 1 0.046980 -0.016461 -0.000874 0.000000 -0.040143 0.000000
# 2 -0.016461 0.024615 -0.007882 0.000000 0.010788 0.000000
# 3 -0.000874 -0.007882 0.010999 0.000000 -0.005924 0.000000
# 4 0.000000 0.000000 0.000000 0.029944 0.000000 -0.005190
# 5 -0.040143 0.010788 -0.005924 0.000000 0.076627 0.000000
# 6 0.000000 0.000000 0.000000 -0.005190 0.000000 0.047193
#
#
# Mechanical properties :
#
#
# Convention : Reuss Voigt Hill
#
# Bulk Modulus (GPa) = 31.09409 78.86847 54.98128
# Shear Modulus (GPa) = 16.80598 26.59429 21.70013
#
# Velocity S-wave (km/s) = 3.10802 3.90973 3.53170
# Velocity P-wave (km/s) = 5.54546 8.10639 6.94499
#
# Compressibility (1/GPa) = 0.03216045
#
# Stress axis : x y z
#
# Youngs Moduli (GPa) = 21.28573 40.62544 90.91327
#
# Poissons Ratio (x) = 0.66874 0.07947
# Poissons Ratio (y) = 0.35038 0.71656
# Poissons Ratio (z) = 0.01861 0.32020
#
# Static dielectric constant tensor:
#      x y z
#    x 1.586100 0.000000 0.027360 
#    y 0.000000 1.584260 0.000000 
#    z 0.027360 0.000000 1.617200 
# 
# From -- ./inp_files/295891.got.cif
#   From: 2010.05.17/outbox.cif.g08.bks.cpg/sg12_148_cif.got.tgz:295891.got - 2010.06.03 13:09:07.
