data_PCOD9181620
_publ_section_title
;
Structure prediction by ZEFSAII (Michael W. Deem and Ramdas Pophale) SiO2 
 PCOD9181620
Probable space group: C 2/M
;
_chemical_formula_sum "Si O2"
_cell_formula_units_Z 56
_cell_length_a 24.727748
_cell_length_b 7.832436
_cell_length_c 31.136201
_cell_angle_alpha 90.000000
_cell_angle_beta 154.429855
_cell_angle_gamma 90.000000
_cell_volume 2602.821297
_symmetry_space_group_name_H-M "C 2/M"
_symmetry_group_IT_number 12
_symmetry_cell_setting 'monoclinic'
loop_
_space_group_symop_operation_xyz
x,y,z
-x,y,-z
-x,-y,-z
x,-y,z
1/2+x,1/2+y,z
1/2-x,1/2+y,-z
1/2-x,1/2-y,-z
1/2+x,1/2-y,z
loop_
_atom_site_type_symbol
_atom_site_label
_atom_site_fract_x
_atom_site_fract_y
_atom_site_fract_z
Si Si1 0.456838 0.199871 0.351642
Si Si2 0.953209 0.790981 0.013368
Si Si3 0.014029 0.202838 0.231794
Si Si4 0.267428 0.700586 0.462804
Si Si5 0.377646 0.790740 0.386368
Si Si6 0.599342 0.708841 0.202617
Si Si7 0.169050 0.294724 0.824989
O O1 0.606075 0.213236 0.463454
O O2 0.390411 0.270254 0.346372
O O3 0.412519 0.271381 0.274028
O O4 0.423791 0.000000 0.326995
O O5 0.811311 0.735286 0.921392
O O6 0.954071 0.000000 0.013445
O O7 0.000000 0.735397 0.000000
O O8 0.041606 0.736467 0.115919
O O9 0.142394 0.254137 0.347606
O O10 0.021811 0.268633 0.188570
O O11 0.898284 0.254229 0.178621
O O12 0.012418 0.000000 0.228255
O O13 0.250000 0.750000 0.500000
O O14 0.212248 0.000000 0.525233
O O15 0.500000 0.734514 0.500000
O O16 0.244473 0.738716 0.310272
O O17 0.379581 0.000000 0.387681
O O18 0.597511 0.500000 0.201079
O O19 0.171030 0.500000 0.824147
#
# Coordination Sequence:
#
# PCOD9181620 Si02
#       7
#     8   8   8   8   8   8   8
#     4  10  19  32  53  81 111 144 183 230 281 332
#     4   9  17  32  55  83 113 144 185 240 290 329
#     4  11  22  36  55  80 113 152 190 231 278 334
#     4  12  23  36  55  80 112 149 186 228 276 333
#     4   9  16  28  49  77 107 140 183 233 277 322
#     4   9  18  32  52  80 113 149 191 237 282 327
#     4  10  20  33  53  81 111 143 184 235 283 333
#
# _framework density 21.515115999999999
#
# number of rings (size 3 to 8) (size 9 to 14) (size 15 to 20)
#    0.000    2.000    1.429    3.429    0.000    6.286 
#    0.000    0.000    0.000    6.000    0.000    0.000 
#    0.000    0.000    0.000    0.000    0.000    0.000 
#
# Total GULP energy -156424.541845 kJ/mol
# GULP energy per Si atom -5586.590780 kJ/mol
# Density = 2.146615 g / cm^3
# Si number density = 21.515116 Si / 1000 Ang^3
#
#
#
# Elastic Constant Matrix: (Units=GPa)
#
#
# Indices 1 2 3 4 5 6 
#
# 1 202.8050 7.1729 84.7634 0.0000 4.4254 0.0001
# 2 7.1729 27.7711 3.3400 -0.0005 -4.0477 0.0032
# 3 84.7634 3.3400 130.5009 0.0009 9.7717 -0.0001
# 4 0.0000 -0.0005 0.0009 6.2166 0.0000 1.8275
# 5 4.4254 -4.0477 9.7717 0.0000 45.3379 -0.0003
# 6 0.0001 0.0032 -0.0001 1.8275 -0.0003 15.4221
#
#
#
# Elastic Compliance Matrix: (Units=1/GPa)
#
#
# Indices 1 2 3 4 5 6 
#
# 1 0.006811 -0.001203 -0.004407 0.000001 0.000177 0.000000
# 2 -0.001203 0.036881 -0.000424 0.000005 0.003502 -0.000008
# 3 -0.004407 -0.000424 0.010679 -0.000002 -0.001909 0.000000
# 4 0.000001 0.000005 -0.000002 0.166665 0.000000 -0.019750
# 5 0.000177 0.003502 -0.001909 0.000000 0.022763 0.000000
# 6 0.000000 -0.000008 0.000000 -0.019750 0.000000 0.067182
#
#
# Mechanical properties :
#
#
# Convention : Reuss Voigt Hill
#
# Bulk Modulus (GPa) = 23.63951 61.29216 42.46583
# Shear Modulus (GPa) = 14.83014 31.11538 22.97276
#
# Velocity S-wave (km/s) = 2.62828 3.80703 3.27119
# Velocity P-wave (km/s) = 4.49686 6.91914 5.83507
#
# Compressibility (1/GPa) = 0.04230206
#
# Stress axis : x y z
#
# Youngs Moduli (GPa) = 146.81505 27.11431 93.64350
#
# Poissons Ratio (x) = 0.03263 0.41265
# Poissons Ratio (y) = 0.17668 0.03975
# Poissons Ratio (z) = 0.64695 0.01151
#
# Static dielectric constant tensor:
#      x y z
#    x 1.771710 0.000000 -0.028050 
#    y 0.000000 1.803400 0.000000 
#    z -0.028050 0.000000 1.739710 
# 
# From -- ./inp_files/174007.got.cif
#   From: 2010.05.17/outbox.cif.g08.bks.cpg/sg12_88_cif.got.tgz:174007.got - 2010.06.03 13:09:07.
