data_PCOD9181371
_publ_section_title
;
Structure prediction by ZEFSAII (Michael W. Deem and Ramdas Pophale) SiO2 
 PCOD9181371
Probable space group: C 2/M
;
_chemical_formula_sum "Si O2"
_cell_formula_units_Z 56
_cell_length_a 24.954707
_cell_length_b 8.816039
_cell_length_c 15.387742
_cell_angle_alpha 90.000000
_cell_angle_beta 47.985919
_cell_angle_gamma 90.000000
_cell_volume 2515.232906
_symmetry_space_group_name_H-M "C 2/M"
_symmetry_group_IT_number 12
_symmetry_cell_setting 'monoclinic'
loop_
_space_group_symop_operation_xyz
x,y,z
-x,y,-z
-x,-y,-z
x,-y,z
1/2+x,1/2+y,z
1/2-x,1/2+y,-z
1/2-x,1/2-y,-z
1/2+x,1/2-y,z
loop_
_atom_site_type_symbol
_atom_site_label
_atom_site_fract_x
_atom_site_fract_y
_atom_site_fract_z
Si Si1 0.781665 0.675054 0.278484
Si Si2 0.354807 0.823837 0.024632
Si Si3 0.993202 0.165024 0.904653
Si Si4 0.611105 0.183857 0.194821
Si Si5 0.125806 0.826231 0.362091
Si Si6 0.145580 0.173277 0.643467
Si Si7 0.053377 0.319504 0.597264
O O1 0.806134 0.500000 0.263597
O O2 0.699610 0.675301 0.336725
O O3 0.796031 0.757317 0.354127
O O4 0.823096 0.743104 0.148531
O O5 0.440839 0.802251 0.938463
O O6 0.343693 0.762968 0.938811
O O7 0.332553 0.000000 0.049276
O O8 0.072370 0.174877 0.780070
O O9 0.961791 0.000000 0.911014
O O10 0.000000 0.163911 0.000000
O O11 0.638761 0.246089 0.256150
O O12 0.526157 0.231769 0.284423
O O13 0.612517 0.000000 0.193088
O O14 0.068275 0.742946 0.485173
O O15 0.104466 0.000000 0.370083
O O16 0.117598 0.262157 0.589794
O O17 0.164218 0.000000 0.599910
O O18 0.053601 0.500000 0.596027
#
# Coordination Sequence:
#
# PCOD9181371 Si02
#       7
#     8   8   8   8   8   8   8
#     4  10  23  41  60  86 123 163 201 238 287 356
#     4  10  20  36  60  88 119 156 196 238 290 353
#     4  10  19  32  52  86 125 154 187 238 297 351
#     4  10  22  40  63  91 118 150 197 249 300 353
#     4  11  25  43  61  85 118 159 204 249 295 346
#     4  11  22  36  60  92 124 156 194 242 298 354
#     4  11  23  41  65  91 118 153 198 248 300 353
#
# _framework density 22.264340000000001
#
# number of rings (size 3 to 8) (size 9 to 14) (size 15 to 20)
#    0.000    1.571    2.857    1.714    0.000    6.571 
#    0.000    0.000    0.000    0.000    0.000    0.000 
#    0.000    0.000    0.000    0.000    0.000    0.000 
#
# Total GULP energy -156330.685563 kJ/mol
# GULP energy per Si atom -5583.238770 kJ/mol
# Density = 2.221367 g / cm^3
# Si number density = 22.264340 Si / 1000 Ang^3
#
#
#
# Elastic Constant Matrix: (Units=GPa)
#
#
# Indices 1 2 3 4 5 6 
#
# 1 74.9205 14.6945 5.0084 -0.0002 20.2435 0.0000
# 2 14.6945 37.1930 7.7814 -0.0004 9.0299 0.0002
# 3 5.0084 7.7814 53.8605 0.0000 23.4182 -0.0001
# 4 -0.0002 -0.0004 0.0000 19.3027 -0.0001 5.8767
# 5 20.2435 9.0299 23.4182 -0.0001 35.0991 0.0000
# 6 0.0000 0.0002 -0.0001 5.8767 0.0000 29.2872
#
#
#
# Elastic Compliance Matrix: (Units=1/GPa)
#
#
# Indices 1 2 3 4 5 6 
#
# 1 0.017079 -0.004849 0.004019 0.000000 -0.011284 0.000000
# 2 -0.004849 0.030121 -0.002462 0.000001 -0.003310 0.000000
# 3 0.004019 -0.002462 0.027160 0.000000 -0.019805 0.000000
# 4 0.000000 0.000001 0.000000 0.055177 0.000000 -0.011072
# 5 -0.011284 -0.003310 -0.019805 0.000000 0.049065 0.000000
# 6 0.000000 0.000000 0.000000 -0.011072 0.000000 0.036366
#
#
# Mechanical properties :
#
#
# Convention : Reuss Voigt Hill
#
# Bulk Modulus (GPa) = 14.75441 24.54917 19.65179
# Shear Modulus (GPa) = 20.47981 25.97046 23.22513
#
# Velocity S-wave (km/s) = 3.03619 3.41905 3.23329
# Velocity P-wave (km/s) = 4.35116 5.16108 4.77333
#
# Compressibility (1/GPa) = 0.06777633
#
# Stress axis : x y z
#
# Youngs Moduli (GPa) = 58.55205 33.19922 36.81926
#
# Poissons Ratio (x) = 0.16098 -0.14796
# Poissons Ratio (y) = 0.28391 0.09063
# Poissons Ratio (z) = -0.23530 0.08172
#
# Static dielectric constant tensor:
#      x y z
#    x 1.825430 0.000000 0.000880 
#    y 0.000000 1.817320 0.000000 
#    z 0.000880 0.000000 1.860840 
# 
# From -- ./inp_files/238370.got.cif
#   From: 2010.05.17/outbox.cif.g08.bks.cpg/sg12_120_cif.got.tgz:238370.got - 2010.06.03 13:09:07.
