data_PCOD9181213
_publ_section_title
;
Structure prediction by ZEFSAII (Michael W. Deem and Ramdas Pophale) SiO2 
 PCOD9181213
Probable space group: C 2/M
;
_chemical_formula_sum "Si O2"
_cell_formula_units_Z 48
_cell_length_a 13.812758
_cell_length_b 7.750815
_cell_length_c 22.307200
_cell_angle_alpha 90.000000
_cell_angle_beta 55.597172
_cell_angle_gamma 90.000000
_cell_volume 1970.479173
_symmetry_space_group_name_H-M "C 2/M"
_symmetry_group_IT_number 12
_symmetry_cell_setting 'monoclinic'
loop_
_space_group_symop_operation_xyz
x,y,z
-x,y,-z
-x,-y,-z
x,-y,z
1/2+x,1/2+y,z
1/2-x,1/2+y,-z
1/2-x,1/2-y,-z
1/2+x,1/2-y,z
loop_
_atom_site_type_symbol
_atom_site_label
_atom_site_fract_x
_atom_site_fract_y
_atom_site_fract_z
Si Si1 0.962877 0.788189 0.078625
Si Si2 0.844183 0.702515 0.325538
Si Si3 0.717751 0.199360 0.212827
Si Si4 0.845017 0.294921 0.518607
Si Si5 0.039967 0.800807 0.175821
Si Si6 0.467561 0.209978 0.634492
O O1 0.834722 0.724289 0.143525
O O2 0.045354 0.739720 0.105578
O O3 0.960602 0.000000 0.077958
O O4 0.000000 0.729344 0.000000
O O5 0.850027 0.500000 0.313480
O O6 0.716857 0.744663 0.397495
O O7 0.934762 0.745894 0.348162
O O8 0.905345 0.789234 0.247001
O O9 0.621318 0.201690 0.193589
O O10 0.652424 0.278509 0.293789
O O11 0.742010 0.000000 0.218662
O O12 0.857338 0.500000 0.516964
O O13 0.750000 0.250000 0.500000
O O14 0.968433 0.227456 0.448424
O O15 0.075135 0.000000 0.166327
O O16 0.456458 0.000000 0.634143
#
# Coordination Sequence:
#
# PCOD9181213 Si02
#       6
#     8   8   8   8   8   8
#     4   9  19  35  55  79 106 136 170 210 261 321
#     4   9  16  27  43  66  97 134 174 212 257 310
#     4   9  17  33  55  76 103 140 175 208 256 314
#     4   9  14  21  36  63  98 132 171 217 259 299
#     4  10  19  32  52  78 105 134 173 218 261 308
#     4   7  12  22  39  64  92 125 166 207 244 288
#
# _framework density 24.359556999999999
#
# number of rings (size 3 to 8) (size 9 to 14) (size 15 to 20)
#    0.000    3.167    0.000    3.500    0.000    0.667 
#    0.000    2.500    0.000    4.500    0.000    7.000 
#    0.000    0.000    0.000    0.000    0.000    0.000 
#
# Total GULP energy -133985.703117 kJ/mol
# GULP energy per Si atom -5582.737630 kJ/mol
# Density = 2.430411 g / cm^3
# Si number density = 24.359557 Si / 1000 Ang^3
#
#
#
# Elastic Constant Matrix: (Units=GPa)
#
#
# Indices 1 2 3 4 5 6 
#
# 1 69.2751 -0.3485 48.1096 0.0000 0.7318 0.0001
# 2 -0.3485 41.2180 9.6185 0.0001 5.1971 0.0001
# 3 48.1096 9.6185 195.4130 0.0000 25.2193 0.0000
# 4 0.0000 0.0001 0.0000 16.3841 0.0000 3.2057
# 5 0.7318 5.1971 25.2193 0.0000 43.6696 0.0000
# 6 0.0001 0.0001 0.0000 3.2057 0.0000 7.5954
#
#
#
# Elastic Compliance Matrix: (Units=1/GPa)
#
#
# Indices 1 2 3 4 5 6 
#
# 1 0.017677 0.000955 -0.004696 0.000000 0.002302 0.000000
# 2 0.000955 0.024830 -0.001160 0.000000 -0.002301 0.000000
# 3 -0.004696 -0.001160 0.006810 0.000000 -0.003716 0.000000
# 4 0.000000 0.000000 0.000000 0.066529 0.000000 -0.028079
# 5 0.002302 -0.002301 -0.003716 0.000000 0.025281 0.000000
# 6 0.000000 0.000000 0.000000 -0.028079 0.000000 0.143509
#
#
# Mechanical properties :
#
#
# Convention : Reuss Voigt Hill
#
# Bulk Modulus (GPa) = 25.30709 46.74060 36.02384
# Shear Modulus (GPa) = 16.25436 30.09827 23.17632
#
# Velocity S-wave (km/s) = 2.58596 3.51890 3.08787
# Velocity P-wave (km/s) = 4.39633 5.97827 5.24726
#
# Compressibility (1/GPa) = 0.03951462
#
# Stress axis : x y z
#
# Youngs Moduli (GPa) = 56.57079 40.27349 146.83812
#
# Poissons Ratio (x) = -0.03846 0.68956
# Poissons Ratio (y) = -0.05403 0.17039
# Poissons Ratio (z) = 0.26566 0.04673
#
# Static dielectric constant tensor:
#      x y z
#    x 2.025930 0.000000 -0.006180 
#    y 0.000000 1.854530 0.000000 
#    z -0.006180 0.000000 1.960670 
# 
# From -- ./inp_files/313588.got.cif
#   From: 2010.05.17/outbox.cif.g08.bks.cpg/sg12_157_cif.got.tgz:313588.got - 2010.06.03 13:09:07.
