data_PCOD9181185
_publ_section_title
;
Structure prediction by ZEFSAII (Michael W. Deem and Ramdas Pophale) SiO2 
 PCOD9181185
Probable space group: C 2/M
;
_chemical_formula_sum "Si O2"
_cell_formula_units_Z 56
_cell_length_a 18.406381
_cell_length_b 8.986638
_cell_length_c 23.178198
_cell_angle_alpha 90.000000
_cell_angle_beta 126.583108
_cell_angle_gamma 90.000000
_cell_volume 3078.627908
_symmetry_space_group_name_H-M "C 2/M"
_symmetry_group_IT_number 12
_symmetry_cell_setting 'monoclinic'
loop_
_space_group_symop_operation_xyz
x,y,z
-x,y,-z
-x,-y,-z
x,-y,z
1/2+x,1/2+y,z
1/2-x,1/2+y,-z
1/2-x,1/2-y,-z
1/2+x,1/2-y,z
loop_
_atom_site_type_symbol
_atom_site_label
_atom_site_fract_x
_atom_site_fract_y
_atom_site_fract_z
Si Si1 0.472452 0.178053 0.852416
Si Si2 0.588489 0.671489 0.000139
Si Si3 0.595600 0.180991 0.571243
Si Si4 0.237112 0.178917 0.431205
Si Si5 0.699444 0.177527 0.148571
Si Si6 0.442876 0.178787 0.705362
Si Si7 0.878894 0.320916 0.284473
O O1 0.554506 0.255707 0.924886
O O2 0.379402 0.215306 0.842160
O O3 0.463461 0.219121 0.781381
O O4 0.484389 0.000000 0.862160
O O5 0.613694 0.500000 0.004141
O O6 0.500000 0.677385 0.000000
O O7 0.665546 0.758257 0.071447
O O8 0.500000 0.232633 0.500000
O O9 0.678760 0.223278 0.569745
O O10 0.611027 0.228959 0.644370
O O11 0.592535 0.000000 0.570729
O O12 0.250000 0.250000 0.500000
O O13 0.144925 0.237915 0.359518
O O14 0.235980 0.000000 0.435041
O O15 0.792828 0.247148 0.213770
O O16 0.705815 0.000000 0.148498
O O17 0.529444 0.212367 0.706772
O O18 0.427168 0.000000 0.695590
O O19 0.866829 0.500000 0.278273
#
# Coordination Sequence:
#
# PCOD9181185 Si02
#       7
#     8   8   8   8   8   8   8
#     4   9  18  33  53  78 107 138 172 214 268 319
#     4   9  17  30  51  78 105 135 176 221 261 309
#     4   9  18  34  56  80 105 136 174 213 255 305
#     4  11  22  36  57  82 108 139 175 216 260 308
#     4  10  19  32  52  77 107 139 172 216 267 316
#     4  10  21  37  56  78 107 141 175 215 262 312
#     4  10  20  35  55  77 104 139 178 217 257 308
#
# _framework density 18.189920000000001
#
# number of rings (size 3 to 8) (size 9 to 14) (size 15 to 20)
#    0.000    2.286    0.000    3.000    0.000    5.714 
#    0.000    1.429    0.000    3.000    0.000    0.000 
#    0.000    0.000    0.000    0.000    0.000    0.000 
#
# Total GULP energy -156317.763627 kJ/mol
# GULP energy per Si atom -5582.777272 kJ/mol
# Density = 1.814852 g / cm^3
# Si number density = 18.189920 Si / 1000 Ang^3
#
#
#
# Elastic Constant Matrix: (Units=GPa)
#
#
# Indices 1 2 3 4 5 6 
#
# 1 124.2242 56.6046 108.6276 0.0000 -1.1869 0.0000
# 2 56.6046 43.6577 70.3746 0.0000 2.4762 0.0000
# 3 108.6276 70.3746 215.0510 0.0000 1.2173 0.0000
# 4 0.0000 0.0000 0.0000 37.4811 0.0000 2.6252
# 5 -1.1869 2.4762 1.2173 0.0000 32.6591 0.0000
# 6 0.0000 0.0000 0.0000 2.6252 0.0000 17.5002
#
#
#
# Elastic Compliance Matrix: (Units=1/GPa)
#
#
# Indices 1 2 3 4 5 6 
#
# 1 0.021104 -0.021799 -0.003541 0.000000 0.002552 0.000000
# 2 -0.021799 0.071309 -0.012292 0.000000 -0.005741 0.000000
# 3 -0.003541 -0.012292 0.010459 0.000000 0.000413 0.000000
# 4 0.000000 0.000000 0.000000 0.026963 0.000000 -0.004045
# 5 0.002552 -0.005741 0.000413 0.000000 0.031132 0.000000
# 6 0.000000 0.000000 0.000000 -0.004045 0.000000 0.057749
#
#
# Mechanical properties :
#
#
# Convention : Reuss Voigt Hill
#
# Bulk Modulus (GPa) = 36.22173 94.90517 65.56345
# Shear Modulus (GPa) = 16.49176 27.34981 21.92078
#
# Velocity S-wave (km/s) = 3.01432 3.88180 3.47523
# Velocity P-wave (km/s) = 5.66314 8.50758 7.22669
#
# Compressibility (1/GPa) = 0.02760774
#
# Stress axis : x y z
#
# Youngs Moduli (GPa) = 47.38497 14.02348 95.61514
#
# Poissons Ratio (x) = 0.30570 0.33854
# Poissons Ratio (y) = 1.03297 1.17527
# Poissons Ratio (z) = 0.16777 0.17237
#
# Static dielectric constant tensor:
#      x y z
#    x 1.611520 0.000000 -0.010490 
#    y 0.000000 1.611770 0.000000 
#    z -0.010490 0.000000 1.594460 
# 
# From -- ./inp_files/342567.got.cif
#   From: 2010.05.17/outbox.cif.g08.bks.cpg/sg12_172_cif.got.tgz:342567.got - 2010.06.03 13:09:07.
