data_PCOD9181238
_publ_section_title
;
Structure prediction by ZEFSAII (Michael W. Deem and Ramdas Pophale) SiO2 
 PCOD9181238
Probable space group: C 2/M
;
_chemical_formula_sum "Si O2"
_cell_formula_units_Z 48
_cell_length_a 8.710874
_cell_length_b 20.585562
_cell_length_c 15.204730
_cell_angle_alpha 90.000000
_cell_angle_beta 107.561590
_cell_angle_gamma 90.000000
_cell_volume 2599.412498
_symmetry_space_group_name_H-M "C 2/M"
_symmetry_group_IT_number 12
_symmetry_cell_setting 'monoclinic'
loop_
_space_group_symop_operation_xyz
x,y,z
-x,y,-z
-x,-y,-z
x,-y,z
1/2+x,1/2+y,z
1/2-x,1/2+y,-z
1/2-x,1/2-y,-z
1/2+x,1/2-y,z
loop_
_atom_site_type_symbol
_atom_site_label
_atom_site_fract_x
_atom_site_fract_y
_atom_site_fract_z
Si Si1 0.870814 0.806790 0.053351
Si Si2 0.839592 0.424745 0.913627
Si Si3 0.859236 0.191388 0.549374
Si Si4 0.441847 0.738079 0.257134
Si Si5 0.652495 0.149596 0.267474
Si Si6 0.304781 0.427826 0.457090
O O1 0.781584 0.873857 0.061751
O O2 0.951363 0.781507 0.157087
O O3 0.750000 0.750000 0.000000
O O4 0.000000 0.816815 0.000000
O O5 0.783879 0.500000 0.897641
O O6 0.872298 0.394850 0.822545
O O7 0.000000 0.424057 0.000000
O O8 0.750000 0.250000 0.500000
O O9 0.764635 0.123869 0.525681
O O10 0.000000 0.191091 0.500000
O O11 0.934170 0.202237 0.656911
O O12 0.490037 0.814109 0.271505
O O13 0.270714 0.709521 0.260357
O O14 0.742399 0.107068 0.357367
O O15 0.500000 0.434254 0.500000
O O16 0.237495 0.500000 0.452321
#
# Coordination Sequence:
#
# PCOD9181238 Si02
#       6
#     8   8   8   8   8   8
#     4  11  22  37  58  85 117 150 192 240 289 333
#     4  10  22  39  58  82 115 152 192 238 289 345
#     4  11  19  34  53  82 108 142 184 231 277 326
#     4  11  20  33  54  83 110 142 186 230 281 325
#     4  11  20  34  56  84 110 144 188 231 285 335
#     4  10  19  32  52  78 111 143 181 227 276 329
#
# _framework density 18.465710999999999
#
# number of rings (size 3 to 8) (size 9 to 14) (size 15 to 20)
#    0.000    1.333    5.000    4.000    0.000    0.333 
#    0.000    0.000    0.000    0.500    0.000    3.500 
#    0.000    0.000    0.000    0.000    0.000    0.000 
#
# Total GULP energy -133748.090971 kJ/mol
# GULP energy per Si atom -5572.837124 kJ/mol
# Density = 1.842368 g / cm^3
# Si number density = 18.465711 Si / 1000 Ang^3
#
#
#
# Elastic Constant Matrix: (Units=GPa)
#
#
# Indices 1 2 3 4 5 6 
#
# 1 26.1026 42.6980 23.0113 0.0000 6.1909 0.0000
# 2 42.6980 179.4110 57.3074 0.0000 7.7418 0.0000
# 3 23.0113 57.3074 163.3340 0.0000 10.1617 0.0000
# 4 0.0000 0.0000 0.0000 23.3757 0.0000 3.7693
# 5 6.1909 7.7418 10.1617 0.0000 21.2886 0.0000
# 6 0.0000 0.0000 0.0000 3.7693 0.0000 24.2068
#
#
#
# Elastic Compliance Matrix: (Units=1/GPa)
#
#
# Indices 1 2 3 4 5 6 
#
# 1 0.068431 -0.014537 -0.003742 0.000000 -0.012827 0.000000
# 2 -0.014537 0.009399 -0.001340 0.000000 0.001449 0.000000
# 3 -0.003742 -0.001340 0.007237 0.000000 -0.001879 0.000000
# 4 0.000000 0.000000 0.000000 0.043881 0.000000 -0.006833
# 5 -0.012827 0.001449 -0.001879 0.000000 0.051074 0.000000
# 6 0.000000 0.000000 0.000000 -0.006833 0.000000 0.042375
#
#
# Mechanical properties :
#
#
# Convention : Reuss Voigt Hill
#
# Bulk Modulus (GPa) = 21.82057 68.32010 45.07033
# Shear Modulus (GPa) = 18.05635 30.16295 24.10965
#
# Velocity S-wave (km/s) = 3.13042 4.04599 3.61729
# Velocity P-wave (km/s) = 4.99084 7.67498 6.47356
#
# Compressibility (1/GPa) = 0.04582832
#
# Stress axis : x y z
#
# Youngs Moduli (GPa) = 14.61321 106.39556 138.18575
#
# Poissons Ratio (x) = 1.54667 0.51715
# Poissons Ratio (y) = 0.21243 0.18514
# Poissons Ratio (z) = 0.05469 0.14255
#
# Static dielectric constant tensor:
#      x y z
#    x 1.751960 0.000000 -0.004750 
#    y 0.000000 1.689010 0.000000 
#    z -0.004750 0.000000 1.635350 
# 
# From -- ./inp_files/197175.got.cif
#   From: 2010.05.17/outbox.cif.g08.bks.cpg/sg12_99_cif.got.tgz:197175.got - 2010.06.03 13:09:07.
