data_PCOD9181948
_publ_section_title
;
Structure prediction by ZEFSAII (Michael W. Deem and Ramdas Pophale) SiO2 
 PCOD9181948
Probable space group: C 2/M
;
_chemical_formula_sum "Si O2"
_cell_formula_units_Z 48
_cell_length_a 17.637157
_cell_length_b 13.965853
_cell_length_c 10.030839
_cell_angle_alpha 90.000000
_cell_angle_beta 97.135693
_cell_angle_gamma 90.000000
_cell_volume 2451.638836
_symmetry_space_group_name_H-M "C 2/M"
_symmetry_group_IT_number 12
_symmetry_cell_setting 'monoclinic'
loop_
_space_group_symop_operation_xyz
x,y,z
-x,y,-z
-x,-y,-z
x,-y,z
1/2+x,1/2+y,z
1/2-x,1/2+y,-z
1/2-x,1/2-y,-z
1/2+x,1/2-y,z
loop_
_atom_site_type_symbol
_atom_site_label
_atom_site_fract_x
_atom_site_fract_y
_atom_site_fract_z
Si Si1 0.662951 0.394647 0.274498
Si Si2 0.913250 0.611826 0.020597
Si Si3 0.799567 0.310950 0.781199
Si Si4 0.634636 0.757555 0.745075
Si Si5 0.307966 0.888010 0.483941
Si Si6 0.008868 0.895433 0.660383
O O1 0.678326 0.500000 0.217443
O O2 0.680155 0.301203 0.192850
O O3 0.719712 0.387280 0.414173
O O4 0.575554 0.389502 0.298044
O O5 0.916782 0.500000 0.056613
O O6 0.880566 0.671904 0.136159
O O7 0.854027 0.628009 0.887111
O O8 0.000000 0.641725 0.000000
O O9 0.708676 0.309886 0.783258
O O10 0.814164 0.342848 0.631591
O O11 0.649663 0.822048 0.616132
O O12 0.561920 0.690440 0.714545
O O13 0.332454 0.000000 0.488561
O O14 0.000000 0.892395 0.500000
O O15 0.041559 0.000000 0.704104
#
# Coordination Sequence:
#
# PCOD9181948 Si02
#       6
#     8   8   8   8   8   8
#     4   9  18  33  54  82 114 146 181 230 291 345
#     4  11  25  43  60  80 115 160 200 240 287 339
#     4  11  21  38  61  86 113 149 195 243 291 341
#     4  11  22  38  60  89 118 151 193 238 290 344
#     4  10  20  36  61  89 117 149 191 241 288 342
#     4  10  19  32  54  85 118 149 182 228 287 345
#
# _framework density 19.578738999999999
#
# number of rings (size 3 to 8) (size 9 to 14) (size 15 to 20)
#    0.000    1.667    0.000    6.500    0.000    3.333 
#    0.000    0.833    0.000    8.000    0.000    0.000 
#    0.000    0.000    0.000    0.000    0.000    0.000 
#
# Total GULP energy -134003.379885 kJ/mol
# GULP energy per Si atom -5583.474162 kJ/mol
# Density = 1.953418 g / cm^3
# Si number density = 19.578739 Si / 1000 Ang^3
#
#
#
# Elastic Constant Matrix: (Units=GPa)
#
#
# Indices 1 2 3 4 5 6 
#
# 1 33.7597 19.5189 28.2248 0.0000 -1.7739 0.0000
# 2 19.5189 74.9084 15.6297 0.0000 9.2451 0.0000
# 3 28.2248 15.6297 79.8644 0.0000 -3.9987 0.0000
# 4 0.0000 0.0000 0.0000 25.6757 0.0000 4.0547
# 5 -1.7739 9.2451 -3.9987 0.0000 12.2767 0.0000
# 6 0.0000 0.0000 0.0000 4.0547 0.0000 40.4292
#
#
#
# Elastic Compliance Matrix: (Units=1/GPa)
#
#
# Indices 1 2 3 4 5 6 
#
# 1 0.048645 -0.010947 -0.014521 0.000000 0.010543 0.000000
# 2 -0.010947 0.018206 -0.000467 0.000000 -0.015444 0.000000
# 3 -0.014521 -0.000467 0.017950 0.000000 0.004100 0.000000
# 4 0.000000 0.000000 0.000000 0.039574 0.000000 -0.003969
# 5 0.010543 -0.015444 0.004100 0.000000 0.095944 0.000000
# 6 0.000000 0.000000 0.000000 -0.003969 0.000000 0.025133
#
#
# Mechanical properties :
#
#
# Convention : Reuss Voigt Hill
#
# Bulk Modulus (GPa) = 30.36803 35.03102 32.69953
# Shear Modulus (GPa) = 16.21803 24.02026 20.11914
#
# Velocity S-wave (km/s) = 2.88123 3.50645 3.20910
# Velocity P-wave (km/s) = 5.15878 5.85874 5.51986
#
# Compressibility (1/GPa) = 0.03292937
#
# Stress axis : x y z
#
# Youngs Moduli (GPa) = 20.55719 54.92807 55.71025
#
# Poissons Ratio (x) = 0.60128 0.80899
# Poissons Ratio (y) = 0.22503 0.02604
# Poissons Ratio (z) = 0.29852 0.02568
#
# Static dielectric constant tensor:
#      x y z
#    x 1.658840 0.000000 0.000510 
#    y 0.000000 1.708420 0.000000 
#    z 0.000510 0.000000 1.657320 
# 
# From -- ./inp_files/73657.got.cif
#   From: 2010.05.17/outbox.cif.g08.bks.cpg/sg12_37_cif.got.tgz:73657.got - 2010.06.03 13:09:07.
