data_PCOD9181763
_publ_section_title
;
Structure prediction by ZEFSAII (Michael W. Deem and Ramdas Pophale) SiO2 
 PCOD9181763
Probable space group: C 2/M
;
_chemical_formula_sum "Si O2"
_cell_formula_units_Z 48
_cell_length_a 31.532069
_cell_length_b 17.888420
_cell_length_c 8.785952
_cell_angle_alpha 90.000000
_cell_angle_beta 23.517665
_cell_angle_gamma 90.000000
_cell_volume 1977.519501
_symmetry_space_group_name_H-M "C 2/M"
_symmetry_group_IT_number 12
_symmetry_cell_setting 'monoclinic'
loop_
_space_group_symop_operation_xyz
x,y,z
-x,y,-z
-x,-y,-z
x,-y,z
1/2+x,1/2+y,z
1/2-x,1/2+y,-z
1/2-x,1/2-y,-z
1/2+x,1/2-y,z
loop_
_atom_site_type_symbol
_atom_site_label
_atom_site_fract_x
_atom_site_fract_y
_atom_site_fract_z
Si Si1 0.380574 0.144152 0.963482
Si Si2 0.998209 0.582890 0.187772
Si Si3 0.194394 0.672598 0.118044
Si Si4 0.886988 0.188842 0.963860
Si Si5 0.184072 0.082066 0.045928
Si Si6 0.536267 0.583960 0.046109
O O1 0.500000 0.132535 0.500000
O O2 0.393201 0.092459 0.071233
O O3 0.304584 0.148752 0.063644
O O4 0.363858 0.227142 0.080236
O O5 0.955193 0.500000 0.379302
O O6 0.930445 0.659964 0.436305
O O7 0.000000 0.578733 0.000000
O O8 0.250000 0.750000 0.000000
O O9 0.244498 0.605903 0.049397
O O10 0.812818 0.147171 0.087696
O O11 0.890717 0.138970 0.100864
O O12 0.000000 0.191888 0.500000
O O13 0.066492 0.079118 0.506150
O O14 0.208411 0.000000 0.904481
O O15 0.579974 0.500000 0.883184
O O16 0.500000 0.611322 0.000000
#
# Coordination Sequence:
#
# PCOD9181763 Si02
#       6
#     8   8   8   8   8   8
#     4   9  19  35  59  84 112 149 195 243 297 352
#     4  10  23  43  65  89 119 161 211 255 298 356
#     4  11  21  38  60  89 120 149 193 256 308 357
#     4   9  16  30  50  76 107 146 188 230 277 356
#     4  10  19  32  54  79 108 150 190 236 298 356
#     4   9  18  31  48  74 108 144 184 227 274 343
#
# _framework density 24.272829999999999
#
# number of rings (size 3 to 8) (size 9 to 14) (size 15 to 20)
#    0.000    2.333    1.667    1.000    2.333    6.333 
#    0.000    2.500    0.000    4.000    0.000    0.000 
#    0.000    0.000    0.000    0.000    0.000    0.000 
#
# Total GULP energy -133642.521705 kJ/mol
# GULP energy per Si atom -5568.438404 kJ/mol
# Density = 2.421758 g / cm^3
# Si number density = 24.272830 Si / 1000 Ang^3
#
#
#
# Elastic Constant Matrix: (Units=GPa)
#
#
# Indices 1 2 3 4 5 6 
#
# 1 191.5866 71.4406 -11.2871 0.0000 -2.4873 0.0000
# 2 71.4406 90.2946 0.6145 0.0000 -3.1787 0.0000
# 3 -11.2871 0.6145 55.7899 0.0000 8.8544 0.0000
# 4 0.0000 0.0000 0.0000 27.9492 0.0000 11.1444
# 5 -2.4873 -3.1787 8.8544 0.0000 20.6077 0.0000
# 6 0.0000 0.0000 0.0000 11.1444 0.0000 27.1890
#
#
#
# Elastic Compliance Matrix: (Units=1/GPa)
#
#
# Indices 1 2 3 4 5 6 
#
# 1 0.007553 -0.006014 0.001714 0.000000 -0.000752 0.000000
# 2 -0.006014 0.015934 -0.001789 0.000000 0.002501 0.000000
# 3 0.001714 -0.001789 0.019641 0.000000 -0.008508 0.000000
# 4 0.000000 0.000000 0.000000 0.042769 0.000000 -0.017530
# 5 -0.000752 0.002501 -0.008508 0.000000 0.052476 0.000000
# 6 0.000000 0.000000 0.000000 -0.017530 0.000000 0.043965
#
#
# Mechanical properties :
#
#
# Convention : Reuss Voigt Hill
#
# Bulk Modulus (GPa) = 32.31145 51.02303 41.66724
# Shear Modulus (GPa) = 24.40996 33.60939 29.00967
#
# Velocity S-wave (km/s) = 3.17464 3.72513 3.46084
# Velocity P-wave (km/s) = 5.17479 6.29034 5.75964
#
# Compressibility (1/GPa) = 0.03094878
#
# Stress axis : x y z
#
# Youngs Moduli (GPa) = 132.38909 62.76020 50.91346
#
# Poissons Ratio (x) = 0.37747 -0.08726
# Poissons Ratio (y) = 0.79625 0.09109
# Poissons Ratio (z) = -0.22689 0.11229
#
# Static dielectric constant tensor:
#      x y z
#    x 2.039260 0.000000 -0.098900 
#    y 0.000000 1.878920 0.000000 
#    z -0.098900 0.000000 2.185370 
# 
# From -- ./inp_files/112755.got.cif
#   From: 2010.05.17/outbox.cif.g08.bks.cpg/sg12_57_cif.got.tgz:112755.got - 2010.06.03 13:09:07.
