data_PCOD9181831
_publ_section_title
;
Structure prediction by ZEFSAII (Michael W. Deem and Ramdas Pophale) SiO2 
 PCOD9181831
Probable space group: C 2/M
;
_chemical_formula_sum "Si O2"
_cell_formula_units_Z 64
_cell_length_a 19.808887
_cell_length_b 18.283006
_cell_length_c 25.935159
_cell_angle_alpha 90.000000
_cell_angle_beta 21.316560
_cell_angle_gamma 90.000000
_cell_volume 3414.487261
_symmetry_space_group_name_H-M "C 2/M"
_symmetry_group_IT_number 12
_symmetry_cell_setting 'monoclinic'
loop_
_space_group_symop_operation_xyz
x,y,z
-x,y,-z
-x,-y,-z
x,-y,z
1/2+x,1/2+y,z
1/2-x,1/2+y,-z
1/2-x,1/2-y,-z
1/2+x,1/2-y,z
loop_
_atom_site_type_symbol
_atom_site_label
_atom_site_fract_x
_atom_site_fract_y
_atom_site_fract_z
Si Si1 0.116912 0.583832 0.369094
Si Si2 0.948995 0.196721 0.803546
Si Si3 0.859052 0.082004 0.472435
Si Si4 0.031344 0.301692 0.112910
Si Si5 0.189316 0.367902 0.489038
Si Si6 0.606901 0.694034 0.874139
Si Si7 0.215244 0.915138 0.357488
Si Si8 0.547945 0.729832 0.317851
O O1 0.164452 0.500000 0.346532
O O2 0.294888 0.631210 0.228760
O O3 0.000000 0.615705 0.500000
O O4 0.971717 0.589356 0.425514
O O5 0.990781 0.255522 0.818418
O O6 0.116505 0.138308 0.679990
O O7 0.942308 0.231684 0.751021
O O8 0.741347 0.167277 0.962354
O O9 0.726940 0.097531 0.517922
O O10 0.761617 0.087278 0.597053
O O11 0.006672 0.147031 0.363482
O O12 0.937487 0.000000 0.412640
O O13 0.010499 0.244973 0.080412
O O14 0.869057 0.361684 0.224703
O O15 0.115491 0.284820 0.548465
O O16 0.769638 0.742391 0.783674
O O17 0.500000 0.663736 0.000000
O O18 0.000000 0.893355 0.500000
O O19 0.234402 0.000000 0.326909
#
# Coordination Sequence:
#
# PCOD9181831 Si02
#       8
#     8   8   8   8   8   8   8   8
#     4  10  22  39  60  86 115 146 186 231 279 335
#     4  10  20  33  54  82 111 144 179 228 273 327
#     4  10  19  32  54  81 110 140 182 233 279 327
#     4  11  21  35  56  81 114 146 186 226 278 328
#     4  10  19  34  58  83 109 143 187 227 275 329
#     4  11  22  38  60  83 114 147 187 234 279 333
#     4  10  21  37  56  80 110 146 189 235 277 326
#     4  10  19  35  56  82 109 144 187 231 279 328
#
# _framework density 18.743663000000002
#
# number of rings (size 3 to 8) (size 9 to 14) (size 15 to 20)
#    0.000    1.750    1.250    4.875    0.000    2.750 
#    0.000    3.125    0.000    3.750    0.000    0.000 
#    0.000    0.000    0.000    0.000    0.000    0.000 
#
# Total GULP energy -178531.304240 kJ/mol
# GULP energy per Si atom -5579.103258 kJ/mol
# Density = 1.870100 g / cm^3
# Si number density = 18.743663 Si / 1000 Ang^3
#
#
#
# Elastic Constant Matrix: (Units=GPa)
#
#
# Indices 1 2 3 4 5 6 
#
# 1 33.8299 3.3391 4.6117 0.0267 7.8018 -0.0036
# 2 3.3391 73.0932 39.5069 0.0183 8.3952 -0.0014
# 3 4.6117 39.5069 95.1527 0.0820 3.6077 -0.0260
# 4 0.0267 0.0183 0.0820 15.1646 -0.0094 5.0658
# 5 7.8018 8.3952 3.6077 -0.0094 31.0768 -0.0030
# 6 -0.0036 -0.0014 -0.0260 5.0658 -0.0030 17.4133
#
#
#
# Elastic Compliance Matrix: (Units=1/GPa)
#
#
# Indices 1 2 3 4 5 6 
#
# 1 0.031521 0.000158 -0.001297 -0.000060 -0.007805 0.000021
# 2 0.000158 0.018132 -0.007381 0.000021 -0.004081 -0.000016
# 3 -0.001297 -0.007381 0.013609 -0.000076 0.000740 0.000042
# 4 -0.000060 0.000021 -0.000076 0.073042 0.000038 -0.021249
# 5 -0.007805 -0.004081 0.000740 0.000038 0.035154 -0.000006
# 6 0.000021 -0.000016 0.000042 -0.021249 -0.000006 0.063609
#
#
# Mechanical properties :
#
#
# Convention : Reuss Voigt Hill
#
# Bulk Modulus (GPa) = 21.63536 32.99901 27.31719
# Shear Modulus (GPa) = 18.69042 23.03882 20.86462
#
# Velocity S-wave (km/s) = 3.16121 3.50973 3.34002
# Velocity P-wave (km/s) = 4.98920 5.83677 5.42955
#
# Compressibility (1/GPa) = 0.04622064
#
# Stress axis : x y z
#
# Youngs Moduli (GPa) = 31.72484 55.15014 73.48057
#
# Poissons Ratio (x) = -0.00870 0.09532
# Poissons Ratio (y) = -0.00500 0.54239
# Poissons Ratio (z) = 0.04115 0.40708
#
# Static dielectric constant tensor:
#      x y z
#    x 1.671210 0.000000 -0.002000 
#    y 0.000000 1.639100 0.000030 
#    z -0.002000 0.000030 1.661270 
# 
# From -- ./inp_files/366797.got.cif
#   From: 2010.05.17/outbox.cif.g08.bks.cpg/sg12_184_cif.got.tgz:366797.got - 2010.06.03 13:09:07.
