data_PCOD9181591
_publ_section_title
;
Structure prediction by ZEFSAII (Michael W. Deem and Ramdas Pophale) SiO2 
 PCOD9181591
Probable space group: C 2/M
;
_chemical_formula_sum "Si O2"
_cell_formula_units_Z 56
_cell_length_a 8.719869
_cell_length_b 32.803682
_cell_length_c 12.364983
_cell_angle_alpha 90.000000
_cell_angle_beta 129.280427
_cell_angle_gamma 90.000000
_cell_volume 2737.781341
_symmetry_space_group_name_H-M "C 2/M"
_symmetry_group_IT_number 12
_symmetry_cell_setting 'monoclinic'
loop_
_space_group_symop_operation_xyz
x,y,z
-x,y,-z
-x,-y,-z
x,-y,z
1/2+x,1/2+y,z
1/2-x,1/2+y,-z
1/2-x,1/2-y,-z
1/2+x,1/2-y,z
loop_
_atom_site_type_symbol
_atom_site_label
_atom_site_fract_x
_atom_site_fract_y
_atom_site_fract_z
Si Si1 0.934164 0.704510 0.732882
Si Si2 0.164545 0.611732 0.316827
Si Si3 0.074353 0.873488 0.375905
Si Si4 0.904162 0.546099 0.075517
Si Si5 0.070081 0.895439 0.909141
Si Si6 0.663627 0.691298 0.977016
Si Si7 0.971301 0.216470 0.318361
O O1 0.934125 0.656126 0.710688
O O2 0.732883 0.714194 0.707025
O O3 0.131222 0.710101 0.893409
O O4 0.948955 0.737394 0.642658
O O5 0.272315 0.603325 0.479064
O O6 0.349808 0.616847 0.315940
O O7 0.017402 0.577684 0.205007
O O8 0.085144 0.886772 0.255864
O O9 0.094613 0.824367 0.403947
O O10 0.907833 0.500000 0.119399
O O11 0.685652 0.562748 0.953358
O O12 0.000000 0.546786 0.000000
O O13 0.209915 0.855636 0.965004
O O14 0.000000 0.893809 0.000000
O O15 0.500000 0.693754 0.000000
O O16 0.571265 0.708750 0.827019
#
# Coordination Sequence:
#
# PCOD9181591 Si02
#       7
#     8   8   8   8   8   8   8
#     4  11  20  33  54  79 116 159 198 247 299 340
#     4  10  20  38  63  85 120 161 199 248 304 351
#     4   9  20  38  59  87 120 161 202 242 297 358
#     4  11  22  39  66  98 120 150 202 252 296 361
#     4  10  20  37  63  88 123 154 195 244 303 359
#     4  10  19  32  53  80 113 152 203 246 292 350
#     4  10  21  32  51  80 115 154 204 248 286 349
#
# _framework density 20.454519000000001
#
# number of rings (size 3 to 8) (size 9 to 14) (size 15 to 20)
#    0.000    1.857    2.857    1.714    0.000    0.857 
#    0.000    2.857    0.000    0.857    0.000    0.000 
#    0.000    0.000    0.000    0.000    0.000    0.000 
#
# Total GULP energy -156141.112749 kJ/mol
# GULP energy per Si atom -5576.468312 kJ/mol
# Density = 2.040796 g / cm^3
# Si number density = 20.454519 Si / 1000 Ang^3
#
#
#
# Elastic Constant Matrix: (Units=GPa)
#
#
# Indices 1 2 3 4 5 6 
#
# 1 30.5274 20.4692 15.4903 0.0000 -11.1368 0.0000
# 2 20.4692 143.1235 36.1385 0.0000 3.8337 0.0000
# 3 15.4903 36.1385 91.0249 0.0000 -5.8723 0.0000
# 4 0.0000 0.0000 0.0000 407.0638 0.0000 574.8806
# 5 -11.1368 3.8337 -5.8723 0.0000 22.9435 0.0000
# 6 0.0000 0.0000 0.0000 574.8806 0.0000 881.6382
#
#
#
# Elastic Compliance Matrix: (Units=1/GPa)
#
#
# Indices 1 2 3 4 5 6 
#
# 1 0.047531 -0.006391 -0.004061 0.000000 0.023100 0.000000
# 2 -0.006391 0.008728 -0.002717 0.000000 -0.005256 0.000000
# 3 -0.004061 -0.002717 0.012870 0.000000 0.001777 0.000000
# 4 0.000000 0.000000 0.000000 0.031049 0.000000 -0.020246
# 5 0.023100 -0.005256 0.001777 0.000000 0.056131 0.000000
# 6 0.000000 0.000000 0.000000 -0.020246 0.000000 0.014336
#
#
# Mechanical properties :
#
#
# Convention : Reuss Voigt Hill
#
# Bulk Modulus (GPa) = 23.36915 45.43020 34.39968
# Shear Modulus (GPa) = 23.66917 275.16763 149.41840
#
# Velocity S-wave (km/s) = 3.40540 11.61114 8.55615
# Velocity P-wave (km/s) = 5.18768 14.21326 10.69880
#
# Compressibility (1/GPa) = 0.04279145
#
# Stress axis : x y z
#
# Youngs Moduli (GPa) = 21.03903 114.57752 77.69879
#
# Poissons Ratio (x) = 0.73228 0.31553
# Poissons Ratio (y) = 0.13446 0.21107
# Poissons Ratio (z) = 0.08544 0.31125
#
# Static dielectric constant tensor:
#      x y z
#    x 1.694960 0.000000 0.023060 
#    y 0.000000 1.774460 0.000000 
#    z 0.023060 0.000000 1.746370 
# 
# From -- ./inp_files/125841.got.cif
#   From: 2010.05.17/outbox.cif.g08.bks.cpg/sg12_63_cif.got.tgz:125841.got - 2010.06.03 13:09:07.
