data_PCOD9181059
_publ_section_title
;
Structure prediction by ZEFSAII (Michael W. Deem and Ramdas Pophale) SiO2 
 PCOD9181059
Probable space group: C 2/M
;
_chemical_formula_sum "Si O2"
_cell_formula_units_Z 64
_cell_length_a 14.814596
_cell_length_b 7.569941
_cell_length_c 27.041871
_cell_angle_alpha 90.000000
_cell_angle_beta 77.885302
_cell_angle_gamma 90.000000
_cell_volume 2965.088991
_symmetry_space_group_name_H-M "C 2/M"
_symmetry_group_IT_number 12
_symmetry_cell_setting 'monoclinic'
loop_
_space_group_symop_operation_xyz
x,y,z
-x,y,-z
-x,-y,-z
x,-y,z
1/2+x,1/2+y,z
1/2-x,1/2+y,-z
1/2-x,1/2-y,-z
1/2+x,1/2-y,z
loop_
_atom_site_type_symbol
_atom_site_label
_atom_site_fract_x
_atom_site_fract_y
_atom_site_fract_z
Si Si1 0.781167 0.713261 0.420238
Si Si2 0.948877 0.212920 0.751542
Si Si3 0.748319 0.704893 0.887783
Si Si4 0.636977 0.791369 0.691337
Si Si5 0.542238 0.297086 0.140201
Si Si6 0.057737 0.217079 0.945820
Si Si7 0.262105 0.214186 0.223297
Si Si8 0.602475 0.210945 0.499061
O O1 0.788014 0.500000 0.419044
O O2 0.814462 0.780389 0.363242
O O3 0.676478 0.757117 0.447131
O O4 0.848008 0.779342 0.456691
O O5 0.973399 0.283502 0.803773
O O6 0.843935 0.265680 0.753077
O O7 0.027049 0.268097 0.704457
O O8 0.948511 0.000000 0.753792
O O9 0.764404 0.500000 0.897312
O O10 0.847284 0.796016 0.880411
O O11 0.664569 0.772118 0.930979
O O12 0.716142 0.719060 0.834171
O O13 0.675173 0.719901 0.739036
O O14 0.657230 0.000000 0.690041
O O15 0.511115 0.500000 0.146973
O O16 0.491743 0.219638 0.098656
O O17 0.057372 0.000000 0.945737
O O18 0.000000 0.273607 0.000000
O O19 0.266844 0.000000 0.219816
O O20 0.500000 0.280862 0.500000
O O21 0.594000 0.000000 0.506159
#
# Coordination Sequence:
#
# PCOD9181059 Si02
#       8
#     8   8   8   8   8   8   8   8
#     4   9  19  34  50  73 102 129 163 203 243 288
#     4   9  18  32  49  70  96 128 163 194 233 292
#     4  10  19  32  52  75  96 123 164 206 239 283
#     4  10  20  33  50  73 102 131 159 201 247 283
#     4   9  18  34  53  71  97 132 164 198 245 295
#     4   9  18  32  50  72  98 129 163 199 245 299
#     4   9  19  35  51  69  98 133 162 192 242 298
#     4   9  18  34  54  73  97 131 167 203 243 286
#
# _framework density 21.584512
#
# number of rings (size 3 to 8) (size 9 to 14) (size 15 to 20)
#    0.000    2.750    0.000    1.875    0.000    5.750 
#    0.000    1.250    0.000    2.625    0.000    0.000 
#    0.000    0.000    0.000    0.000    0.000    0.000 
#
# Total GULP energy -178614.943719 kJ/mol
# GULP energy per Si atom -5581.716991 kJ/mol
# Density = 2.153538 g / cm^3
# Si number density = 21.584512 Si / 1000 Ang^3
#
#
#
# Elastic Constant Matrix: (Units=GPa)
#
#
# Indices 1 2 3 4 5 6 
#
# 1 97.1398 -4.7168 43.9564 0.0000 -25.2273 0.0000
# 2 -4.7168 50.0943 -8.1720 0.0000 4.7353 0.0000
# 3 43.9564 -8.1720 49.7746 0.0000 -32.3121 0.0000
# 4 0.0000 0.0000 0.0000 10.3561 0.0000 -10.3569
# 5 -25.2273 4.7353 -32.3121 0.0000 25.1654 0.0000
# 6 0.0000 0.0000 0.0000 -10.3569 0.0000 10.8758
#
#
#
# Elastic Compliance Matrix: (Units=1/GPa)
#
#
# Indices 1 2 3 4 5 6 
#
# 1 0.018008 -0.001091 -0.025409 0.000000 -0.014368 0.000000
# 2 -0.001091 0.020611 0.006726 0.000003 0.003664 0.000003
# 3 -0.025409 0.006726 0.157848 0.000004 0.175938 0.000004
# 4 0.000000 0.000003 0.000004 2.027393 0.000007 1.930672
# 5 -0.014368 0.003664 0.175938 0.000007 0.250548 0.000007
# 6 0.000000 0.000003 0.000004 1.930672 0.000007 1.930513
#
#
# Mechanical properties :
#
#
# Convention : Reuss Voigt Hill
#
# Bulk Modulus (GPa) = 6.37277 28.79378 17.58327
# Shear Modulus (GPa) = 1.11191 20.34217 10.72704
#
# Velocity S-wave (km/s) = 0.71851 3.07325 2.23172
# Velocity P-wave (km/s) = 1.90977 5.09531 3.84769
#
# Compressibility (1/GPa) = 0.15691774
#
# Stress axis : x y z
#
# Youngs Moduli (GPa) = 55.53079 48.51895 6.33522
#
# Poissons Ratio (x) = 0.05295 0.16097
# Poissons Ratio (y) = 0.06060 -0.04261
# Poissons Ratio (z) = 1.41100 -0.32636
#
# Static dielectric constant tensor:
#      x y z
#    x 1.777470 0.000000 0.007650 
#    y 0.000000 1.797720 0.000000 
#    z 0.007650 0.000000 1.769750 
# 
# From -- ./inp_files/359694.got.cif
#   From: 2010.05.17/outbox.cif.g08.bks.cpg/sg12_180_cif.got.tgz:359694.got - 2010.06.03 13:09:07.
