data_PCOD9181508
_publ_section_title
;
Structure prediction by ZEFSAII (Michael W. Deem and Ramdas Pophale) SiO2 
 PCOD9181508
Probable space group: C 2/M
;
_chemical_formula_sum "Si O2"
_cell_formula_units_Z 64
_cell_length_a 15.001680
_cell_length_b 7.453485
_cell_length_c 28.855896
_cell_angle_alpha 90.000000
_cell_angle_beta 128.699979
_cell_angle_gamma 90.000000
_cell_volume 2518.072052
_symmetry_space_group_name_H-M "C 2/M"
_symmetry_group_IT_number 12
_symmetry_cell_setting 'monoclinic'
loop_
_space_group_symop_operation_xyz
x,y,z
-x,y,-z
-x,-y,-z
x,-y,z
1/2+x,1/2+y,z
1/2-x,1/2+y,-z
1/2-x,1/2-y,-z
1/2+x,1/2-y,z
loop_
_atom_site_type_symbol
_atom_site_label
_atom_site_fract_x
_atom_site_fract_y
_atom_site_fract_z
Si Si1 0.676393 0.713226 0.022368
Si Si2 0.918478 0.717818 0.516905
Si Si3 0.724353 0.288538 0.392740
Si Si4 0.262357 0.702233 0.150906
Si Si5 0.505267 0.720941 0.805295
Si Si6 0.250844 0.780877 0.299867
Si Si7 0.489744 0.215748 0.353816
Si Si8 0.982059 0.792326 0.899128
O O1 0.674164 0.500000 0.032061
O O2 0.550434 0.778669 0.965581
O O3 0.750000 0.750000 0.000000
O O4 0.726649 0.799167 0.084881
O O5 0.919696 0.500000 0.521101
O O6 0.793278 0.782304 0.459543
O O7 0.963482 0.782339 0.580956
O O8 0.000000 0.763030 0.500000
O O9 0.746422 0.500000 0.399739
O O10 0.773067 0.222441 0.359978
O O11 0.588858 0.265002 0.350561
O O12 0.268678 0.500000 0.170318
O O13 0.389654 0.782381 0.192396
O O14 0.154268 0.786808 0.141198
O O15 0.507919 0.500000 0.805131
O O16 0.376881 0.778043 0.752560
O O17 0.523493 0.784640 0.863975
O O18 0.359470 0.722483 0.305028
O O19 0.248037 0.000000 0.297412
O O20 0.486419 0.000000 0.353965
O O21 0.015408 0.000000 0.908460
#
# Coordination Sequence:
#
# PCOD9181508 Si02
#       8
#     8   8   8   8   8   8   8   8
#     4  11  21  36  59  85 114 146 179 218 270 324
#     4   9  15  28  51  76 103 135 176 216 255 318
#     4  10  19  32  53  79 105 137 175 218 269 318
#     4  11  22  37  57  84 112 143 180 222 269 319
#     4   9  19  37  56  76 107 142 181 224 267 314
#     4   9  18  34  56  76  99 142 187 217 257 320
#     4  10  19  32  53  79 104 136 177 219 264 317
#     4  10  21  38  57  80 110 144 176 216 270 322
#
# _framework density 25.416270999999998
#
# number of rings (size 3 to 8) (size 9 to 14) (size 15 to 20)
#    0.000    2.125    2.500    1.500    0.000    3.500 
#    0.000    0.625    0.000    3.750    0.000    0.000 
#    0.000    0.000    0.000    0.000    0.000    0.000 
#
# Total GULP energy -178849.818204 kJ/mol
# GULP energy per Si atom -5589.056819 kJ/mol
# Density = 2.535842 g / cm^3
# Si number density = 25.416271 Si / 1000 Ang^3
#
#
#
# Elastic Constant Matrix: (Units=GPa)
#
#
# Indices 1 2 3 4 5 6 
#
# 1 111.0726 -13.3214 6.6482 0.0000 28.1455 0.0000
# 2 -13.3214 80.3417 0.7491 0.0000 -1.4518 0.0000
# 3 6.6482 0.7491 60.3380 0.0000 31.0563 0.0000
# 4 0.0000 0.0000 0.0000 3.3482 0.0000 5.5333
# 5 28.1455 -1.4518 31.0563 0.0000 45.5095 0.0000
# 6 0.0000 0.0000 0.0000 5.5333 0.0000 17.4331
#
#
#
# Elastic Compliance Matrix: (Units=1/GPa)
#
#
# Indices 1 2 3 4 5 6 
#
# 1 0.011379 0.001683 0.003576 0.000000 -0.009424 0.000000
# 2 0.001683 0.012715 -0.000025 0.000000 -0.000618 0.000000
# 3 0.003576 -0.000025 0.026695 0.000000 -0.020429 0.000000
# 4 0.000000 0.000000 0.000000 0.628186 0.000000 -0.199388
# 5 -0.009424 -0.000618 -0.020429 0.000000 0.041723 0.000000
# 6 0.000000 0.000000 0.000000 -0.199388 0.000000 0.120649
#
#
# Mechanical properties :
#
#
# Convention : Reuss Voigt Hill
#
# Bulk Modulus (GPa) = 16.32491 26.65601 21.49046
# Shear Modulus (GPa) = 5.87339 30.43658 18.15499
#
# Velocity S-wave (km/s) = 1.52181 3.46428 2.67555
# Velocity P-wave (km/s) = 3.08623 5.14900 4.24482
#
# Compressibility (1/GPa) = 0.06125608
#
# Stress axis : x y z
#
# Youngs Moduli (GPa) = 87.88171 78.64743 37.46081
#
# Poissons Ratio (x) = -0.13237 -0.13395
# Poissons Ratio (y) = -0.14791 0.00094
# Poissons Ratio (z) = -0.31425 0.00198
#
# Static dielectric constant tensor:
#      x y z
#    x 1.983790 0.000000 0.036710 
#    y 0.000000 1.957240 0.000000 
#    z 0.036710 0.000000 2.050500 
# 
# From -- ./inp_files/375592.got.cif
#   From: 2010.05.17/outbox.cif.g08.bks.cpg/sg12_188_cif.got.tgz:375592.got - 2010.06.03 13:09:07.
