data_PCOD9181458
_publ_section_title
;
Structure prediction by ZEFSAII (Michael W. Deem and Ramdas Pophale) SiO2 
 PCOD9181458
Probable space group: C 2/M
;
_chemical_formula_sum "Si O2"
_cell_formula_units_Z 56
_cell_length_a 30.824516
_cell_length_b 8.987778
_cell_length_c 12.824693
_cell_angle_alpha 90.000000
_cell_angle_beta 105.939472
_cell_angle_gamma 90.000000
_cell_volume 3416.398421
_symmetry_space_group_name_H-M "C 2/M"
_symmetry_group_IT_number 12
_symmetry_cell_setting 'monoclinic'
loop_
_space_group_symop_operation_xyz
x,y,z
-x,y,-z
-x,-y,-z
x,-y,z
1/2+x,1/2+y,z
1/2-x,1/2+y,-z
1/2-x,1/2-y,-z
1/2+x,1/2-y,z
loop_
_atom_site_type_symbol
_atom_site_label
_atom_site_fract_x
_atom_site_fract_y
_atom_site_fract_z
Si Si1 0.296529 0.822116 0.910004
Si Si2 0.701974 0.822976 0.842151
Si Si3 0.112356 0.822183 0.703468
Si Si4 0.446840 0.321997 0.130868
Si Si5 0.605678 0.821038 0.096821
Si Si6 0.549970 0.821210 0.490810
Si Si7 0.542493 0.821213 0.244953
O O1 0.251231 0.739128 0.846230
O O2 0.341903 0.778575 0.879493
O O3 0.289811 0.000000 0.896101
O O4 0.304202 0.789713 0.038145
O O5 0.661616 0.746302 0.753475
O O6 0.700155 0.000000 0.827946
O O7 0.082275 0.783075 0.785500
O O8 0.086934 0.757011 0.586704
O O9 0.115098 0.000000 0.699090
O O10 0.448832 0.500000 0.123720
O O11 0.496640 0.256015 0.177369
O O12 0.422521 0.254391 0.014101
O O13 0.582581 0.784842 0.191522
O O14 0.603386 0.000000 0.080826
O O15 0.500000 0.782568 0.500000
O O16 0.552692 0.779883 0.371042
O O17 0.554957 0.000000 0.503161
O O18 0.535541 0.000000 0.237812
#
# Coordination Sequence:
#
# PCOD9181458 Si02
#       7
#     8   8   8   8   8   8   8
#     4   9  18  32  51  76 106 135 165 206 258 310
#     4  10  19  32  53  78 103 134 170 210 257 309
#     4  11  22  34  52  77 107 139 172 214 260 304
#     4  11  22  33  49  76 109 141 173 211 255 304
#     4  10  20  35  54  76 105 141 174 207 253 311
#     4  10  20  35  55  76 100 135 177 220 259 298
#     4  10  21  36  54  75 102 139 180 214 251 305
#
# _framework density 16.391531000000001
#
# number of rings (size 3 to 8) (size 9 to 14) (size 15 to 20)
#    0.000    1.857    2.857    1.714    0.000    5.429 
#    0.000    0.000    0.000    0.857    0.000    0.000 
#    0.000    0.000    0.000    0.000    0.000    0.000 
#
# Total GULP energy -156332.839620 kJ/mol
# GULP energy per Si atom -5583.315701 kJ/mol
# Density = 1.635422 g / cm^3
# Si number density = 16.391531 Si / 1000 Ang^3
#
#
#
# Elastic Constant Matrix: (Units=GPa)
#
#
# Indices 1 2 3 4 5 6 
#
# 1 161.8902 54.8144 96.6321 0.0000 9.4126 0.0000
# 2 54.8144 28.7135 42.7324 0.0000 5.9605 0.0000
# 3 96.6321 42.7324 99.5685 0.0000 5.1565 0.0000
# 4 0.0000 0.0000 0.0000 24.6720 0.0000 6.5137
# 5 9.4126 5.9605 5.1565 0.0000 31.4503 0.0000
# 6 0.0000 0.0000 0.0000 6.5137 0.0000 23.4812
#
#
#
# Elastic Compliance Matrix: (Units=1/GPa)
#
#
# Indices 1 2 3 4 5 6 
#
# 1 0.019630 -0.025345 -0.008188 0.000000 0.000271 0.000000
# 2 -0.025345 0.133496 -0.032050 0.000000 -0.012460 0.000000
# 3 -0.008188 -0.032050 0.031571 0.000000 0.003348 0.000000
# 4 0.000000 0.000000 0.000000 0.043735 0.000000 -0.012132
# 5 0.000271 -0.012460 0.003348 0.000000 0.033528 0.000000
# 6 0.000000 0.000000 0.000000 -0.012132 0.000000 0.045953
#
#
# Mechanical properties :
#
#
# Convention : Reuss Voigt Hill
#
# Bulk Modulus (GPa) = 18.68067 75.39224 47.03645
# Shear Modulus (GPa) = 10.94275 22.32024 16.63150
#
# Velocity S-wave (km/s) = 2.58657 3.69412 3.18880
# Velocity P-wave (km/s) = 4.51018 8.01809 6.50506
#
# Compressibility (1/GPa) = 0.05353128
#
# Stress axis : x y z
#
# Youngs Moduli (GPa) = 50.94201 7.49084 31.67419
#
# Poissons Ratio (x) = 0.18986 0.25934
# Poissons Ratio (y) = 1.29114 1.01517
# Poissons Ratio (z) = 0.41710 0.24008
#
# Static dielectric constant tensor:
#      x y z
#    x 1.544810 0.000000 -0.014460 
#    y 0.000000 1.545860 0.000000 
#    z -0.014460 0.000000 1.518270 
# 
# From -- ./inp_files/186392.got.cif
#   From: 2010.05.17/outbox.cif.g08.bks.cpg/sg12_94_cif.got.tgz:186392.got - 2010.06.03 13:09:07.
