data_PCOD9181432
_publ_section_title
;
Structure prediction by ZEFSAII (Michael W. Deem and Ramdas Pophale) SiO2 
 PCOD9181432
Probable space group: C 2/M
;
_chemical_formula_sum "Si O2"
_cell_formula_units_Z 56
_cell_length_a 30.539309
_cell_length_b 7.507536
_cell_length_c 12.187751
_cell_angle_alpha 90.000000
_cell_angle_beta 69.277525
_cell_angle_gamma 90.000000
_cell_volume 2613.566769
_symmetry_space_group_name_H-M "C 2/M"
_symmetry_group_IT_number 12
_symmetry_cell_setting 'monoclinic'
loop_
_space_group_symop_operation_xyz
x,y,z
-x,y,-z
-x,-y,-z
x,-y,z
1/2+x,1/2+y,z
1/2-x,1/2+y,-z
1/2-x,1/2-y,-z
1/2+x,1/2-y,z
loop_
_atom_site_type_symbol
_atom_site_label
_atom_site_fract_x
_atom_site_fract_y
_atom_site_fract_z
Si Si1 0.815420 0.783227 0.366390
Si Si2 0.085590 0.705864 0.123299
Si Si3 0.452999 0.216603 0.477563
Si Si4 0.783986 0.292810 0.632221
Si Si5 0.896471 0.792741 0.134431
Si Si6 0.020380 0.284193 0.786876
Si Si7 0.365546 0.781455 0.703644
O O1 0.813645 0.719539 0.493158
O O2 0.767173 0.719327 0.351877
O O3 0.859631 0.722112 0.256481
O O4 0.815233 0.000000 0.371274
O O5 0.078393 0.500000 0.161560
O O6 0.118760 0.778768 0.189445
O O7 0.033046 0.782514 0.165232
O O8 0.106296 0.711848 0.983542
O O9 0.500000 0.272329 0.500000
O O10 0.456028 0.273485 0.348597
O O11 0.407084 0.272526 0.583945
O O12 0.453172 0.000000 0.477361
O O13 0.775825 0.500000 0.664610
O O14 0.816007 0.216975 0.700440
O O15 0.948035 0.772781 0.139463
O O16 0.886013 0.000000 0.129625
O O17 0.019746 0.500000 0.790429
O O18 0.363356 0.000000 0.703537
#
# Coordination Sequence:
#
# PCOD9181432 Si02
#       7
#     8   8   8   8   8   8   8
#     4   9  19  35  52  74 104 132 161 203 249 292
#     4  10  20  34  51  73 101 130 166 211 250 288
#     4   9  14  24  45  75 104 122 144 190 250 299
#     4   9  17  32  57  82 100 123 160 204 251 301
#     4  11  23  36  49  67  99 140 174 203 242 291
#     4  10  19  32  53  77  99 127 166 211 252 291
#     4   9  16  28  49  77 103 127 156 199 254 300
#
# _framework density 21.426658
#
# number of rings (size 3 to 8) (size 9 to 14) (size 15 to 20)
#    0.000    2.429    1.429    1.714    0.000    4.571 
#    0.000    1.429    0.000    1.286    0.000    0.000 
#    0.000    0.000    0.000    0.000    0.000    0.000 
#
# Total GULP energy -156351.953801 kJ/mol
# GULP energy per Si atom -5583.998350 kJ/mol
# Density = 2.137789 g / cm^3
# Si number density = 21.426658 Si / 1000 Ang^3
#
#
#
# Elastic Constant Matrix: (Units=GPa)
#
#
# Indices 1 2 3 4 5 6 
#
# 1 123.5254 -5.2891 39.1694 0.0000 30.4485 0.0000
# 2 -5.2891 52.6425 -11.1774 0.0000 -0.9716 0.0000
# 3 39.1694 -11.1774 68.7071 0.0000 20.0324 0.0000
# 4 0.0000 0.0000 0.0000 -0.8660 0.0000 -11.0072
# 5 30.4485 -0.9716 20.0324 0.0000 30.1329 0.0000
# 6 0.0000 0.0000 0.0000 -11.0072 0.0000 -10.4354
#
#
#
# Elastic Compliance Matrix: (Units=1/GPa)
#
#
# Indices 1 2 3 4 5 6 
#
# 1 0.011590 0.000162 -0.003930 0.000000 -0.009094 0.000000
# 2 0.000162 0.019762 0.003702 0.000000 -0.001988 0.000000
# 3 -0.003930 0.003702 0.020101 0.000000 -0.009273 0.000000
# 4 0.000000 0.000000 0.000000 0.093073 0.000000 -0.098172
# 5 -0.009094 -0.001988 -0.009273 0.000000 0.048476 0.000000
# 6 0.000000 0.000000 0.000000 -0.098172 0.000000 0.007723
#
#
# Mechanical properties :
#
#
# Convention : Reuss Voigt Hill
#
# Bulk Modulus (GPa) = 19.48496 32.25343 25.86919
# Shear Modulus (GPa) = 22.93972 18.57778 20.75875
#
# Velocity S-wave (km/s) = 3.27558 2.94775 3.11598
# Velocity P-wave (km/s) = 4.83936 5.16442 5.00453
#
# Compressibility (1/GPa) = 0.05132164
#
# Stress axis : x y z
#
# Youngs Moduli (GPa) = 86.28041 50.60293 49.74972
#
# Poissons Ratio (x) = -0.00821 0.19550
# Poissons Ratio (y) = -0.01400 -0.18417
# Poissons Ratio (z) = 0.33905 -0.18733
#
# Static dielectric constant tensor:
#      x y z
#    x 1.779070 0.000000 0.000760 
#    y 0.000000 1.847080 0.000000 
#    z 0.000760 0.000000 1.741110 
# 
# From -- ./inp_files/186456.got.cif
#   From: 2010.05.17/outbox.cif.g08.bks.cpg/sg12_94_cif.got.tgz:186456.got - 2010.06.03 13:09:07.
