data_PCOD9181695
_publ_section_title
;
Structure prediction by ZEFSAII (Michael W. Deem and Ramdas Pophale) SiO2 
 PCOD9181695
Probable space group: C 2/M
;
_chemical_formula_sum "Si O2"
_cell_formula_units_Z 48
_cell_length_a 23.564177
_cell_length_b 13.557105
_cell_length_c 13.883533
_cell_angle_alpha 90.000000
_cell_angle_beta 26.989503
_cell_angle_gamma 90.000000
_cell_volume 2012.842554
_symmetry_space_group_name_H-M "C 2/M"
_symmetry_group_IT_number 12
_symmetry_cell_setting 'monoclinic'
loop_
_space_group_symop_operation_xyz
x,y,z
-x,y,-z
-x,-y,-z
x,-y,z
1/2+x,1/2+y,z
1/2-x,1/2+y,-z
1/2-x,1/2-y,-z
1/2+x,1/2-y,z
loop_
_atom_site_type_symbol
_atom_site_label
_atom_site_fract_x
_atom_site_fract_y
_atom_site_fract_z
Si Si1 0.292616 0.885547 0.474511
Si Si2 0.294768 0.786314 0.773655
Si Si3 0.482173 0.809556 0.334471
Si Si4 0.912754 0.886804 0.358316
Si Si5 0.239535 0.886484 0.048838
Si Si6 0.097375 0.810649 0.923288
O O1 0.417123 0.839999 0.331880
O O2 0.220601 0.850961 0.486571
O O3 0.190288 0.870852 0.713882
O O4 0.316120 0.000000 0.423649
O O5 0.400614 0.838862 0.550809
O O6 0.235588 0.859871 0.941766
O O7 0.188247 0.753988 0.858564
O O8 0.337127 0.692097 0.771733
O O9 0.462301 0.691137 0.360601
O O10 0.617050 0.857147 0.140929
O O11 0.902204 0.000000 0.405980
O O12 0.011642 0.878950 0.120894
O O13 0.212210 0.000000 0.108154
O O14 0.000000 0.755748 0.000000
#
# Coordination Sequence:
#
# PCOD9181695 Si02
#       6
#     8   8   8   8   8   8
#     4   9  18  31  53  85 116 152 197 244 291 347
#     4  10  23  41  60  90 119 154 200 247 297 356
#     4  11  21  37  60  86 118 157 200 247 296 355
#     4  10  19  32  53  84 120 155 192 238 296 355
#     4  11  24  43  65  87 120 161 202 248 297 357
#     4   9  17  34  59  85 114 148 192 244 295 346
#
# _framework density 23.846872999999999
#
# number of rings (size 3 to 8) (size 9 to 14) (size 15 to 20)
#    0.000    2.000    1.667    2.000    0.000    7.333 
#    0.000    0.000    0.000    3.500    0.000    0.000 
#    0.000    0.000    0.000    0.000    0.000    0.000 
#
# Total GULP energy -134029.061959 kJ/mol
# GULP energy per Si atom -5584.544248 kJ/mol
# Density = 2.379260 g / cm^3
# Si number density = 23.846873 Si / 1000 Ang^3
#
#
#
# Elastic Constant Matrix: (Units=GPa)
#
#
# Indices 1 2 3 4 5 6 
#
# 1 112.5451 7.4409 5.2050 0.0000 -14.7873 0.0000
# 2 7.4409 65.8882 -27.6118 0.0000 0.5226 0.0000
# 3 5.2050 -27.6118 41.3315 0.0000 -14.2469 0.0000
# 4 0.0000 0.0000 0.0000 11.4109 0.0000 -6.3533
# 5 -14.7873 0.5226 -14.2469 0.0000 30.4824 0.0000
# 6 0.0000 0.0000 0.0000 -6.3533 0.0000 20.7696
#
#
#
# Elastic Compliance Matrix: (Units=1/GPa)
#
#
# Indices 1 2 3 4 5 6 
#
# 1 0.009581 -0.001373 -0.000613 0.000000 0.004385 0.000000
# 2 -0.001373 0.022782 0.017914 0.000000 0.007316 0.000000
# 3 -0.000613 0.017914 0.042951 0.000000 0.019470 0.000000
# 4 0.000000 0.000000 0.000000 0.105625 0.000000 0.032310
# 5 0.004385 0.007316 0.019470 0.000000 0.043907 0.000000
# 6 0.000000 0.000000 0.000000 0.032310 0.000000 0.058031
#
#
# Mechanical properties :
#
#
# Convention : Reuss Voigt Hill
#
# Bulk Modulus (GPa) = 9.33105 21.09254 15.21180
# Shear Modulus (GPa) = 17.43722 28.18130 22.80926
#
# Velocity S-wave (km/s) = 2.70703 3.44140 3.09607
# Velocity P-wave (km/s) = 3.70029 4.96540 4.37877
#
# Compressibility (1/GPa) = 0.10716911
#
# Stress axis : x y z
#
# Youngs Moduli (GPa) = 104.37762 43.89508 23.28249
#
# Poissons Ratio (x) = 0.06029 0.01426
# Poissons Ratio (y) = 0.14336 -0.41709
# Poissons Ratio (z) = 0.06394 -0.78634
#
# Static dielectric constant tensor:
#      x y z
#    x 1.966840 0.000000 -0.046660 
#    y 0.000000 1.881300 0.000000 
#    z -0.046660 0.000000 1.961870 
# 
# From -- ./inp_files/214657.got.cif
#   From: 2010.05.17/outbox.cif.g08.bks.cpg/sg12_108_cif.got.tgz:214657.got - 2010.06.03 13:09:07.
