data_PCOD9181761
_publ_section_title
;
Structure prediction by ZEFSAII (Michael W. Deem and Ramdas Pophale) SiO2 
 PCOD9181761
Probable space group: C 2/M
;
_chemical_formula_sum "Si O2"
_cell_formula_units_Z 56
_cell_length_a 16.399174
_cell_length_b 9.093039
_cell_length_c 20.402321
_cell_angle_alpha 90.000000
_cell_angle_beta 129.507876
_cell_angle_gamma 90.000000
_cell_volume 2347.293739
_symmetry_space_group_name_H-M "C 2/M"
_symmetry_group_IT_number 12
_symmetry_cell_setting 'monoclinic'
loop_
_space_group_symop_operation_xyz
x,y,z
-x,y,-z
-x,-y,-z
x,-y,z
1/2+x,1/2+y,z
1/2-x,1/2+y,-z
1/2-x,1/2-y,-z
1/2+x,1/2-y,z
loop_
_atom_site_type_symbol
_atom_site_label
_atom_site_fract_x
_atom_site_fract_y
_atom_site_fract_z
Si Si1 0.156395 0.819714 0.100172
Si Si2 0.244062 0.158490 0.666807
Si Si3 0.399085 0.343179 0.683726
Si Si4 0.628705 0.327643 0.834569
Si Si5 0.377936 0.657291 0.533826
Si Si6 0.446852 0.831650 0.406470
Si Si7 0.524658 0.819289 0.911438
O O1 0.276002 0.761099 0.150397
O O2 0.090844 0.749644 0.127885
O O3 0.151571 0.000000 0.098712
O O4 0.096490 0.748290 0.006869
O O5 0.358639 0.216406 0.709236
O O6 0.192116 0.155217 0.566688
O O7 0.163201 0.258205 0.664868
O O8 0.245679 0.000000 0.697774
O O9 0.380213 0.500000 0.708561
O O10 0.523644 0.334166 0.735956
O O11 0.329746 0.350874 0.581745
O O12 0.658371 0.500000 0.863476
O O13 0.582959 0.245628 0.876279
O O14 0.440672 0.500000 0.561484
O O15 0.451773 0.798388 0.584302
O O16 0.500000 0.765595 0.500000
O O17 0.426307 0.000000 0.406546
O O18 0.522270 0.000000 0.910322
#
# Coordination Sequence:
#
# PCOD9181761 Si02
#       7
#     8   8   8   8   8   8   8
#     4  11  22  40  67  98 128 162 204 250 298 356
#     4  10  19  32  54  79 106 140 186 240 292 348
#     4  10  22  38  55  77 111 150 190 235 290 350
#     4  11  23  41  61  88 127 168 207 252 304 361
#     4   9  18  34  54  78 105 140 186 240 294 345
#     4   9  17  30  50  75 101 132 175 229 286 342
#     4  11  22  40  67  98 128 162 204 250 298 356
#
# _framework density 23.857261000000001
#
# number of rings (size 3 to 8) (size 9 to 14) (size 15 to 20)
#    0.000    1.857    0.000    5.571    0.000    4.000 
#    2.571    0.000    0.000    0.000    0.000    0.000 
#    0.000    0.000    0.000    0.000    0.000    0.000 
#
# Total GULP energy -155869.579302 kJ/mol
# GULP energy per Si atom -5566.770689 kJ/mol
# Density = 2.380296 g / cm^3
# Si number density = 23.857261 Si / 1000 Ang^3
#
#
#
# Elastic Constant Matrix: (Units=GPa)
#
#
# Indices 1 2 3 4 5 6 
#
# 1 99.5919 55.9532 35.3845 0.0000 14.9619 0.0000
# 2 55.9532 135.7084 13.3950 0.0000 23.5269 0.0000
# 3 35.3845 13.3950 55.9302 0.0000 -6.8358 0.0000
# 4 0.0000 0.0000 0.0000 -27.1801 0.0000 -1.1734
# 5 14.9619 23.5269 -6.8358 0.0000 54.1229 0.0000
# 6 0.0000 0.0000 0.0000 -1.1734 0.0000 37.3297
#
#
#
# Elastic Compliance Matrix: (Units=1/GPa)
#
#
# Indices 1 2 3 4 5 6 
#
# 1 0.017236 -0.005483 -0.010037 0.000000 -0.003649 0.000000
# 2 -0.005483 0.010035 0.000729 0.000000 -0.002754 0.000000
# 3 -0.010037 0.000729 0.024737 0.000000 0.005582 0.000000
# 4 0.000000 0.000000 0.000000 -0.036742 0.000000 -0.001155
# 5 -0.003649 -0.002754 0.005582 0.000000 0.021388 0.000000
# 6 0.000000 0.000000 0.000000 -0.001155 0.000000 0.026752
#
#
# Mechanical properties :
#
#
# Convention : Reuss Voigt Hill
#
# Bulk Modulus (GPa) = 44.59234 55.63290 50.11262
# Shear Modulus (GPa) = 49.76929 25.28768 37.52849
#
# Velocity S-wave (km/s) = 4.57237 3.25923 3.97046
# Velocity P-wave (km/s) = 6.82695 6.12643 6.48616
#
# Compressibility (1/GPa) = 0.02242537
#
# Stress axis : x y z
#
# Youngs Moduli (GPa) = 58.01850 99.65117 40.42508
#
# Poissons Ratio (x) = 0.54640 0.40575
# Poissons Ratio (y) = 0.31812 -0.02947
# Poissons Ratio (z) = 0.58234 -0.07264
#
# Static dielectric constant tensor:
#      x y z
#    x 2.106390 0.000000 -0.030910 
#    y 0.000000 1.962230 0.000000 
#    z -0.030910 0.000000 1.996430 
# 
# From -- ./inp_files/363138.got.cif
#   From: 2010.05.17/outbox.cif.g08.bks.cpg/sg12_182_cif.got.tgz:363138.got - 2010.06.03 13:09:07.
