data_PCOD9181694
_publ_section_title
;
Structure prediction by ZEFSAII (Michael W. Deem and Ramdas Pophale) SiO2 
 PCOD9181694
Probable space group: C 2/M
;
_chemical_formula_sum "Si O2"
_cell_formula_units_Z 44
_cell_length_a 25.418081
_cell_length_b 8.224129
_cell_length_c 11.903261
_cell_angle_alpha 90.000000
_cell_angle_beta 125.392429
_cell_angle_gamma 90.000000
_cell_volume 2028.453748
_symmetry_space_group_name_H-M "C 2/M"
_symmetry_group_IT_number 12
_symmetry_cell_setting 'monoclinic'
loop_
_space_group_symop_operation_xyz
x,y,z
-x,y,-z
-x,-y,-z
x,-y,z
1/2+x,1/2+y,z
1/2-x,1/2+y,-z
1/2-x,1/2-y,-z
1/2+x,1/2-y,z
loop_
_atom_site_type_symbol
_atom_site_label
_atom_site_fract_x
_atom_site_fract_y
_atom_site_fract_z
Si Si1 0.178238 0.692577 0.872939
Si Si2 0.000000 0.246009 0.000000
Si Si3 0.085819 0.808750 0.295166
Si Si4 0.629024 0.321800 0.028608
Si Si5 0.204282 0.313517 0.311805
Si Si6 0.842217 0.196771 0.405775
O O1 0.175941 0.500000 0.881003
O O2 0.128324 0.773785 0.898394
O O3 0.160941 0.740637 0.724532
O O4 0.250000 0.750000 0.000000
O O5 0.959433 0.303500 0.839541
O O6 0.060487 0.172583 0.006369
O O7 0.156256 0.795353 0.325032
O O8 0.097874 0.760165 0.438970
O O9 0.064949 0.000000 0.262064
O O10 0.659582 0.500000 0.077050
O O11 0.672789 0.193798 0.148776
O O12 0.204513 0.500000 0.351905
O O13 0.276102 0.248801 0.385017
O O14 0.839830 0.000000 0.399850
#
# Coordination Sequence:
#
# PCOD9181694 Si02
#       6
#     8   4   8   8   8   8
#     4  12  24  39  61  89 122 158 196 242 300 363
#     4  10  21  40  65  90 117 156 207 250 293 344
#     4  10  20  36  58  84 117 158 203 249 293 345
#     4  11  21  37  62  89 119 159 202 246 292 349
#     4  10  19  32  53  84 120 154 194 244 300 356
#     4  10  21  36  56  85 121 157 197 244 297 354
#
# _framework density 21.691399000000001
#
# number of rings (size 3 to 8) (size 9 to 14) (size 15 to 20)
#    0.000    1.455    1.818    6.000    0.000    1.455 
#    0.000   12.273    0.000    4.364    0.000    0.000 
#    0.000    0.000    0.000    0.000    0.000    0.000 
#
# Total GULP energy -122571.437655 kJ/mol
# GULP energy per Si atom -5571.428984 kJ/mol
# Density = 2.164203 g / cm^3
# Si number density = 21.691399 Si / 1000 Ang^3
#
#
#
# Elastic Constant Matrix: (Units=GPa)
#
#
# Indices 1 2 3 4 5 6 
#
# 1 49.8320 8.7669 39.0986 0.0000 -0.1185 0.0000
# 2 8.7669 70.3099 21.5052 0.0000 0.9239 0.0000
# 3 39.0986 21.5052 184.3136 0.0000 -13.7088 0.0000
# 4 0.0000 0.0000 0.0000 16.1807 0.0000 -11.5272
# 5 -0.1185 0.9239 -13.7088 0.0000 22.0934 0.0000
# 6 0.0000 0.0000 0.0000 -11.5272 0.0000 -19.1771
#
#
#
# Elastic Compliance Matrix: (Units=1/GPa)
#
#
# Indices 1 2 3 4 5 6 
#
# 1 0.024422 -0.001401 -0.005245 0.000000 -0.003065 0.000000
# 2 -0.001401 0.014895 -0.001560 0.000000 -0.001598 0.000000
# 3 -0.005245 -0.001560 0.007048 0.000000 0.004410 0.000000
# 4 0.000000 0.000000 0.000000 0.043272 0.000000 -0.026010
# 5 -0.003065 -0.001598 0.004410 0.000000 0.048049 0.000000
# 6 0.000000 0.000000 0.000000 -0.026010 0.000000 -0.036511
#
#
# Mechanical properties :
#
#
# Convention : Reuss Voigt Hill
#
# Bulk Modulus (GPa) = 33.38382 49.24412 41.31397
# Shear Modulus (GPa) = 39.19349 19.49172 29.34260
#
# Velocity S-wave (km/s) = 4.25534 3.00090 3.68194
# Velocity P-wave (km/s) = 6.29028 5.89565 6.09616
#
# Compressibility (1/GPa) = 0.02995463
#
# Stress axis : x y z
#
# Youngs Moduli (GPa) = 40.94672 67.13466 141.87952
#
# Poissons Ratio (x) = 0.09403 0.74419
# Poissons Ratio (y) = 0.05735 0.22129
# Poissons Ratio (z) = 0.21477 0.10471
#
# Static dielectric constant tensor:
#      x y z
#    x 1.782270 0.000000 -0.014200 
#    y 0.000000 1.782040 0.000000 
#    z -0.014200 0.000000 1.868800 
# 
# From -- ./inp_files/173167.got.cif
#   From: 2010.05.17/outbox.cif.g08.bks.cpg/sg12_87_cif.got.tgz:173167.got - 2010.06.03 13:09:07.
