data_PCOD9181316
_publ_section_title
;
Structure prediction by ZEFSAII (Michael W. Deem and Ramdas Pophale) SiO2 
 PCOD9181316
Probable space group: C 2/M
;
_chemical_formula_sum "Si O2"
_cell_formula_units_Z 56
_cell_length_a 25.259857
_cell_length_b 8.862274
_cell_length_c 15.121888
_cell_angle_alpha 90.000000
_cell_angle_beta 58.727961
_cell_angle_gamma 90.000000
_cell_volume 2893.356923
_symmetry_space_group_name_H-M "C 2/M"
_symmetry_group_IT_number 12
_symmetry_cell_setting 'monoclinic'
loop_
_space_group_symop_operation_xyz
x,y,z
-x,y,-z
-x,-y,-z
x,-y,z
1/2+x,1/2+y,z
1/2-x,1/2+y,-z
1/2-x,1/2-y,-z
1/2+x,1/2-y,z
loop_
_atom_site_type_symbol
_atom_site_label
_atom_site_fract_x
_atom_site_fract_y
_atom_site_fract_z
Si Si1 0.435085 0.680748 0.823192
Si Si2 0.807583 0.681277 0.003915
Si Si3 0.732351 0.680688 0.419869
Si Si4 0.332050 0.818941 0.184034
Si Si5 0.515291 0.828655 0.390977
Si Si6 0.067006 0.179724 0.791743
Si Si7 0.380522 0.830754 0.424332
O O1 0.430143 0.500000 0.832309
O O2 0.446164 0.732317 0.712317
O O3 0.496439 0.726120 0.827714
O O4 0.372856 0.758309 0.910622
O O5 0.805151 0.500000 0.999378
O O6 0.808305 0.722993 0.107379
O O7 0.750000 0.750000 0.000000
O O8 0.728735 0.500000 0.427165
O O9 0.750000 0.750000 0.500000
O O10 0.780556 0.723844 0.301840
O O11 0.664632 0.752010 0.466992
O O12 0.398344 0.748577 0.153506
O O13 0.338783 0.000000 0.181527
O O14 0.500000 0.761875 0.500000
O O15 0.448225 0.842847 0.405266
O O16 0.541032 0.000000 0.379650
O O17 0.109461 0.233974 0.672706
O O18 0.067563 0.000000 0.797487
O O19 0.358253 0.000000 0.420728
#
# Coordination Sequence:
#
# PCOD9181316 Si02
#       7
#     8   8   8   8   8   8   8
#     4  10  22  40  62  90 122 158 198 249 306 359
#     4  11  25  46  67  88 117 159 205 254 304 358
#     4  11  21  34  54  83 118 155 193 237 293 355
#     4  10  23  40  60  87 121 159 202 249 303 361
#     4   9  19  36  58  86 118 155 201 247 294 353
#     4  10  20  35  59  89 120 153 194 241 296 358
#     4  10  19  32  52  80 118 157 191 237 293 349
#
# _framework density 19.354680999999999
#
# number of rings (size 3 to 8) (size 9 to 14) (size 15 to 20)
#    0.000    1.857    1.429    2.143    0.000    6.000 
#    0.000    5.714    0.000    0.000    0.000    0.000 
#    0.000    0.000    0.000    0.000    0.000    0.000 
#
# Total GULP energy -156198.571361 kJ/mol
# GULP energy per Si atom -5578.520406 kJ/mol
# Density = 1.931063 g / cm^3
# Si number density = 19.354681 Si / 1000 Ang^3
#
#
#
# Elastic Constant Matrix: (Units=GPa)
#
#
# Indices 1 2 3 4 5 6 
#
# 1 110.2539 44.1502 78.2472 0.0000 1.3450 0.0000
# 2 44.1502 55.3284 47.2089 0.0000 -3.1379 0.0000
# 3 78.2472 47.2089 133.0711 0.0000 0.4412 0.0000
# 4 0.0000 0.0000 0.0000 23.6699 0.0000 -2.9571
# 5 1.3450 -3.1379 0.4412 0.0000 35.2727 0.0000
# 6 0.0000 0.0000 0.0000 -2.9571 0.0000 31.4042
#
#
#
# Elastic Compliance Matrix: (Units=1/GPa)
#
#
# Indices 1 2 3 4 5 6 
#
# 1 0.017512 -0.007546 -0.007616 0.000000 -0.001244 0.000000
# 2 -0.007546 0.029380 -0.005996 0.000000 0.002976 0.000000
# 3 -0.007616 -0.005996 0.014121 0.000000 -0.000420 0.000000
# 4 0.000000 0.000000 0.000000 0.042751 0.000000 0.004026
# 5 -0.001244 0.002976 -0.000420 0.000000 0.028668 0.000000
# 6 0.000000 0.000000 0.000000 0.004026 0.000000 0.032222
#
#
# Mechanical properties :
#
#
# Convention : Reuss Voigt Hill
#
# Bulk Modulus (GPa) = 53.48182 70.87399 62.17791
# Shear Modulus (GPa) = 23.45188 26.67251 25.06219
#
# Velocity S-wave (km/s) = 3.48471 3.71629 3.60236
# Velocity P-wave (km/s) = 6.62446 7.42378 7.03548
#
# Compressibility (1/GPa) = 0.01869794
#
# Stress axis : x y z
#
# Youngs Moduli (GPa) = 57.10360 34.03662 70.81407
#
# Poissons Ratio (x) = 0.25685 0.53932
# Poissons Ratio (y) = 0.43092 0.42457
# Poissons Ratio (z) = 0.43490 0.20407
#
# Static dielectric constant tensor:
#      x y z
#    x 1.736640 0.000000 0.001350 
#    y 0.000000 1.671010 0.000000 
#    z 0.001350 0.000000 1.677060 
# 
# From -- ./inp_files/238257.got.cif
#   From: 2010.05.17/outbox.cif.g08.bks.cpg/sg12_120_cif.got.tgz:238257.got - 2010.06.03 13:09:07.
