data_PCOD9181800
_publ_section_title
;
Structure prediction by ZEFSAII (Michael W. Deem and Ramdas Pophale) SiO2 
 PCOD9181800
Probable space group: C 2/M
;
_chemical_formula_sum "Si O2"
_cell_formula_units_Z 56
_cell_length_a 20.126952
_cell_length_b 15.986186
_cell_length_c 28.933535
_cell_angle_alpha 90.000000
_cell_angle_beta 161.087540
_cell_angle_gamma 90.000000
_cell_volume 3017.410701
_symmetry_space_group_name_H-M "C 2/M"
_symmetry_group_IT_number 12
_symmetry_cell_setting 'monoclinic'
loop_
_space_group_symop_operation_xyz
x,y,z
-x,y,-z
-x,-y,-z
x,-y,z
1/2+x,1/2+y,z
1/2-x,1/2+y,-z
1/2-x,1/2-y,-z
1/2+x,1/2-y,z
loop_
_atom_site_type_symbol
_atom_site_label
_atom_site_fract_x
_atom_site_fract_y
_atom_site_fract_z
Si Si1 0.330991 0.399155 0.350602
Si Si2 0.811757 0.839394 0.982953
Si Si3 0.653053 0.596868 0.144934
Si Si4 0.133004 0.353264 0.959368
Si Si5 0.449625 0.398391 0.601414
Si Si6 0.302325 0.097113 0.895513
Si Si7 0.517850 0.102241 0.707039
O O1 0.500000 0.376224 0.500000
O O2 0.302533 0.500000 0.334123
O O3 0.423910 0.378611 0.361657
O O4 0.108499 0.359135 0.210964
O O5 0.758071 0.881950 0.996583
O O6 0.645287 0.866733 0.835194
O O7 0.802636 0.741006 0.986090
O O8 0.034414 0.858706 0.108141
O O9 0.679059 0.500000 0.175179
O O10 0.864537 0.629419 0.262426
O O11 0.500000 0.599246 0.000000
O O12 0.170892 0.400469 0.032244
O O13 0.430627 0.500000 0.590651
O O14 0.588851 0.367755 0.735704
O O15 0.216264 0.368573 0.446298
O O16 0.299339 0.000000 0.878808
O O17 0.500000 0.136815 0.000000
O O18 0.527120 0.000000 0.714186
#
# Coordination Sequence:
#
# PCOD9181800 Si02
#       7
#     8   8   8   8   8   8   8
#     4  10  19  32  54  81 105 134 173 218 269 313
#     4  10  21  34  50  74 106 138 178 217 261 308
#     4   8  15  30  53  77  99 125 166 221 268 300
#     4  11  22  34  50  72 109 145 173 212 258 312
#     4   9  17  31  52  80 108 131 164 214 262 311
#     4  10  19  33  52  75 106 142 175 204 253 321
#     4   9  17  33  58  83 104 127 169 227 271 302
#
# _framework density 18.558959000000002
#
# number of rings (size 3 to 8) (size 9 to 14) (size 15 to 20)
#    0.000    2.429    1.429    2.571    0.000    5.143 
#    0.000    0.714    6.286    0.000    0.000    4.000 
#    0.000    0.000    0.000    0.000    0.000    0.000 
#
# Total GULP energy -156060.052608 kJ/mol
# GULP energy per Si atom -5573.573307 kJ/mol
# Density = 1.851672 g / cm^3
# Si number density = 18.558959 Si / 1000 Ang^3
#
#
#
# Elastic Constant Matrix: (Units=GPa)
#
#
# Indices 1 2 3 4 5 6 
#
# 1 126.9816 7.7969 50.3119 -0.0089 12.2118 -0.0078
# 2 7.7969 10.3198 14.2457 -0.0463 4.3228 0.0210
# 3 50.3119 14.2457 93.0788 -0.1620 -1.9008 0.0879
# 4 -0.0089 -0.0463 -0.1620 7.0566 0.0123 2.0668
# 5 12.2118 4.3228 -1.9008 0.0123 30.6955 -0.0019
# 6 -0.0078 0.0210 0.0879 2.0668 -0.0019 17.7717
#
#
#
# Elastic Compliance Matrix: (Units=1/GPa)
#
#
# Indices 1 2 3 4 5 6 
#
# 1 0.010685 0.002720 -0.006295 -0.000118 -0.005024 0.000046
# 2 0.002720 0.135009 -0.022572 0.000439 -0.021493 -0.000100
# 3 -0.006295 -0.022572 0.017740 0.000267 0.006782 -0.000094
# 4 -0.000118 0.000439 0.000267 0.146719 -0.000058 -0.017065
# 5 -0.005024 -0.021493 0.006782 -0.000058 0.038024 0.000001
# 6 0.000046 -0.000100 -0.000094 -0.017065 0.000001 0.058254
#
#
# Mechanical properties :
#
#
# Convention : Reuss Voigt Hill
#
# Bulk Modulus (GPa) = 8.99750 41.67656 25.33703
# Shear Modulus (GPa) = 10.08530 21.63981 15.86255
#
# Velocity S-wave (km/s) = 2.33366 3.41838 2.92672
# Velocity P-wave (km/s) = 3.48137 6.17135 5.01026
#
# Compressibility (1/GPa) = 0.11114201
#
# Stress axis : x y z
#
# Youngs Moduli (GPa) = 93.58541 7.40691 56.37026
#
# Poissons Ratio (x) = -0.02015 0.35485
# Poissons Ratio (y) = -0.25460 1.27237
# Poissons Ratio (z) = 0.58912 0.16719
#
# Static dielectric constant tensor:
#      x y z
#    x 1.655510 0.000000 0.022030 
#    y 0.000000 1.664880 -0.000010 
#    z 0.022030 -0.000010 1.647020 
# 
# From -- ./inp_files/157968.got.cif
#   From: 2010.05.17/outbox.cif.g08.bks.cpg/sg12_79_cif.got.tgz:157968.got - 2010.06.03 13:09:07.
