data_PCOD9181399
_publ_section_title
;
Structure prediction by ZEFSAII (Michael W. Deem and Ramdas Pophale) SiO2 
 PCOD9181399
Probable space group: C 2/M
;
_chemical_formula_sum "Si O2"
_cell_formula_units_Z 64
_cell_length_a 21.025355
_cell_length_b 7.442154
_cell_length_c 22.880072
_cell_angle_alpha 90.000000
_cell_angle_beta 123.789398
_cell_angle_gamma 90.000000
_cell_volume 2975.404877
_symmetry_space_group_name_H-M "C 2/M"
_symmetry_group_IT_number 12
_symmetry_cell_setting 'monoclinic'
loop_
_space_group_symop_operation_xyz
x,y,z
-x,y,-z
-x,-y,-z
x,-y,z
1/2+x,1/2+y,z
1/2-x,1/2+y,-z
1/2-x,1/2-y,-z
1/2+x,1/2-y,z
loop_
_atom_site_type_symbol
_atom_site_label
_atom_site_fract_x
_atom_site_fract_y
_atom_site_fract_z
Si Si1 0.344307 0.783431 0.170066
Si Si2 0.722118 0.715073 0.551437
Si Si3 0.506477 0.784267 0.686178
Si Si4 0.549977 0.285777 0.472165
Si Si5 0.895026 0.280650 0.067846
Si Si6 0.133441 0.719736 0.302880
Si Si7 0.669882 0.787831 0.087102
Si Si8 0.927562 0.280535 0.853209
O O1 0.412714 0.719202 0.246946
O O2 0.360967 0.719986 0.112342
O O3 0.259228 0.734311 0.145979
O O4 0.347625 0.000000 0.170854
O O5 0.719202 0.500000 0.557097
O O6 0.750000 0.750000 0.500000
O O7 0.636483 0.786706 0.515373
O O8 0.786353 0.781718 0.629204
O O9 0.489755 0.741396 0.610598
O O10 0.436069 0.721432 0.690631
O O11 0.507122 0.000000 0.691534
O O12 0.500000 0.213438 0.500000
O O13 0.556409 0.500000 0.483733
O O14 0.893204 0.500000 0.068475
O O15 0.983728 0.227774 0.106085
O O16 0.849170 0.217345 0.987374
O O17 0.133496 0.500000 0.303614
O O18 0.116096 0.775206 0.227962
O O19 0.615361 0.716537 0.110513
O O20 0.653587 0.000000 0.076027
O O21 0.927124 0.500000 0.853786
#
# Coordination Sequence:
#
# PCOD9181399 Si02
#       8
#     8   8   8   8   8   8   8   8
#     4  10  20  34  53  74 103 141 175 210 258 312
#     4  10  19  32  53  77 100 130 168 208 248 298
#     4  10  19  34  56  77  98 135 181 216 248 299
#     4  10  22  37  53  79 113 140 162 203 267 318
#     4   9  16  30  51  76 103 135 177 218 254 300
#     4   9  16  29  51  76  99 128 172 215 251 296
#     4  10  20  31  50  80 108 133 169 219 265 304
#     4   9  16  29  51  78 103 131 172 219 259 297
#
# _framework density 21.509675999999999
#
# number of rings (size 3 to 8) (size 9 to 14) (size 15 to 20)
#    0.000    2.375    2.500    0.750    0.000    3.250 
#    0.000    2.500    0.000    3.750    0.000    0.000 
#    0.000    0.000    0.000    0.000    0.000    0.000 
#
# Total GULP energy -178791.073403 kJ/mol
# GULP energy per Si atom -5587.221044 kJ/mol
# Density = 2.146072 g / cm^3
# Si number density = 21.509676 Si / 1000 Ang^3
#
#
#
# Elastic Constant Matrix: (Units=GPa)
#
#
# Indices 1 2 3 4 5 6 
#
# 1 74.6646 -8.5179 7.0836 -0.0001 -5.5660 0.0001
# 2 -8.5179 64.0921 -7.3560 0.0000 -2.5077 0.0000
# 3 7.0836 -7.3560 90.4841 0.0000 16.1551 0.0001
# 4 -0.0001 0.0000 0.0000 -49.3631 0.0000 114.5459
# 5 -5.5660 -2.5077 16.1551 0.0000 27.7976 0.0000
# 6 0.0001 0.0000 0.0001 114.5459 0.0000 -198.3039
#
#
#
# Elastic Compliance Matrix: (Units=1/GPa)
#
#
# Indices 1 2 3 4 5 6 
#
# 1 0.014053 0.001832 -0.001655 0.000000 0.003941 0.000000
# 2 0.001832 0.016003 0.000931 0.000000 0.001269 0.000000
# 3 -0.001655 0.000931 0.012609 0.000000 -0.007576 0.000000
# 4 0.000000 0.000000 0.000000 0.059517 0.000000 0.034379
# 5 0.003941 0.001269 -0.007576 0.000000 0.041281 0.000000
# 6 0.000000 0.000000 0.000000 0.034379 0.000000 0.014815
#
#
# Mechanical properties :
#
#
# Convention : Reuss Voigt Hill
#
# Bulk Modulus (GPa) = 22.28121 23.51782 22.89951
# Shear Modulus (GPa) = 29.23594 -28.10513 0.56540
#
# Velocity S-wave (km/s) = 3.69073 -3.61865 0.51326
# Velocity P-wave (km/s) = 5.34258 2.54994 3.31971
#
# Compressibility (1/GPa) = 0.04488087
#
# Stress axis : x y z
#
# Youngs Moduli (GPa) = 71.15922 62.49020 79.30575
#
# Poissons Ratio (x) = -0.11448 0.13124
# Poissons Ratio (y) = -0.13036 -0.07382
# Poissons Ratio (z) = 0.11776 -0.05817
#
# Static dielectric constant tensor:
#      x y z
#    x 1.737020 0.000000 0.008330 
#    y 0.000000 1.850500 0.000000 
#    z 0.008330 0.000000 1.747470 
# 
# From -- ./inp_files/320047.got.cif
#   From: 2010.05.17/outbox.cif.g08.bks.cpg/sg12_161_cif.got.tgz:320047.got - 2010.06.03 13:09:07.
