data_PCOD9181935
_publ_section_title
;
Structure prediction by ZEFSAII (Michael W. Deem and Ramdas Pophale) SiO2 
 PCOD9181935
Probable space group: C 2/M
;
_chemical_formula_sum "Si O2"
_cell_formula_units_Z 44
_cell_length_a 11.595491
_cell_length_b 18.983239
_cell_length_c 9.471200
_cell_angle_alpha 90.000000
_cell_angle_beta 61.743277
_cell_angle_gamma 90.000000
_cell_volume 1836.365499
_symmetry_space_group_name_H-M "C 2/M"
_symmetry_group_IT_number 12
_symmetry_cell_setting 'monoclinic'
loop_
_space_group_symop_operation_xyz
x,y,z
-x,y,-z
-x,-y,-z
x,-y,z
1/2+x,1/2+y,z
1/2-x,1/2+y,-z
1/2-x,1/2-y,-z
1/2+x,1/2-y,z
loop_
_atom_site_type_symbol
_atom_site_label
_atom_site_fract_x
_atom_site_fract_y
_atom_site_fract_z
Si Si1 0.651760 0.584003 0.369810
Si Si2 0.088351 0.248931 0.751440
Si Si3 0.000000 0.134678 0.000000
Si Si4 0.286295 0.821807 0.064522
Si Si5 0.827180 0.654729 0.513405
Si Si6 0.704600 0.919546 0.187344
O O1 0.500000 0.595750 0.500000
O O2 0.670036 0.500000 0.337451
O O3 0.685936 0.629002 0.211334
O O4 0.746248 0.612018 0.440436
O O5 0.119582 0.298091 0.864776
O O6 0.064438 0.296547 0.627373
O O7 0.225604 0.210257 0.639835
O O8 0.999028 0.186775 0.864717
O O9 0.864029 0.092699 0.092926
O O10 0.250000 0.750000 0.000000
O O11 0.345458 0.871233 0.909975
O O12 0.853183 0.603350 0.628503
O O13 0.675982 0.000000 0.176414
#
# Coordination Sequence:
#
# PCOD9181935 Si02
#       6
#     8   8   4   8   8   8
#     4  10  22  35  52  82 119 148 174 221 287 341
#     4   9  19  34  54  77 107 152 188 225 260 319
#     4  10  19  32  54  84 119 136 180 226 277 328
#     4  11  20  37  52  75 116 153 188 219 263 336
#     4   9  18  34  53  73 110 150 190 216 261 331
#     4  11  22  34  56  86 116 147 176 224 286 339
#
# _framework density 23.960372
#
# number of rings (size 3 to 8) (size 9 to 14) (size 15 to 20)
#    0.000    2.000    3.636    1.364    5.091    0.000 
#    0.000    0.000    0.000    0.000    0.000   24.182 
#    0.000    0.000    0.000    0.000    0.000    0.000 
#
# Total GULP energy -122878.510109 kJ/mol
# GULP energy per Si atom -5585.386823 kJ/mol
# Density = 2.390584 g / cm^3
# Si number density = 23.960372 Si / 1000 Ang^3
#
#
#
# Elastic Constant Matrix: (Units=GPa)
#
#
# Indices 1 2 3 4 5 6 
#
# 1 34.4347 23.6341 33.7353 0.0000 7.4164 0.0000
# 2 23.6341 170.0625 88.8349 0.0000 11.9820 0.0000
# 3 33.7353 88.8349 182.6047 0.0000 15.3496 0.0000
# 4 0.0000 0.0000 0.0000 2933.3534 0.0000 -688.1833
# 5 7.4164 11.9820 15.3496 0.0000 48.8854 0.0000
# 6 0.0000 0.0000 0.0000 -688.1833 0.0000 190.4826
#
#
#
# Elastic Compliance Matrix: (Units=1/GPa)
#
#
# Indices 1 2 3 4 5 6 
#
# 1 0.036500 -0.001960 -0.005510 0.000000 -0.003327 0.000000
# 2 -0.001960 0.008016 -0.003489 0.000000 -0.000572 0.000000
# 3 -0.005510 -0.003489 0.008268 0.000000 -0.000905 0.000000
# 4 0.000000 0.000000 0.000000 0.002237 0.000000 0.008081
# 5 -0.003327 -0.000572 -0.000905 0.000000 0.021385 0.000000
# 6 0.000000 0.000000 0.000000 0.008081 0.000000 0.034447
#
#
# Mechanical properties :
#
#
# Convention : Reuss Voigt Hill
#
# Bulk Modulus (GPa) = 32.39900 75.50116 53.95008
# Shear Modulus (GPa) = 34.95053 650.60411 342.77732
#
# Velocity S-wave (km/s) = 3.82341 16.49615 11.97375
# Velocity P-wave (km/s) = 5.74827 19.85975 14.61938
#
# Compressibility (1/GPa) = 0.03086515
#
# Stress axis : x y z
#
# Youngs Moduli (GPa) = 27.39694 124.75756 120.95021
#
# Poissons Ratio (x) = 0.24450 0.66646
# Poissons Ratio (y) = 0.05369 0.42204
# Poissons Ratio (z) = 0.15096 0.43532
#
# Static dielectric constant tensor:
#      x y z
#    x 2.018710 0.000000 -0.068760 
#    y 0.000000 1.882620 0.000000 
#    z -0.068760 0.000000 1.956480 
# 
# From -- ./inp_files/63254.got.cif
#   From: 2010.05.17/outbox.cif.g08.bks.cpg/sg12_32_cif.got.tgz:63254.got - 2010.06.03 13:09:07.
