data_PCOD9181063
_publ_section_title
;
Structure prediction by ZEFSAII (Michael W. Deem and Ramdas Pophale) SiO2 
 PCOD9181063
Probable space group: C 2/M
;
_chemical_formula_sum "Si O2"
_cell_formula_units_Z 64
_cell_length_a 10.959210
_cell_length_b 15.962492
_cell_length_c 18.521953
_cell_angle_alpha 90.000000
_cell_angle_beta 83.858119
_cell_angle_gamma 90.000000
_cell_volume 3221.563445
_symmetry_space_group_name_H-M "C 2/M"
_symmetry_group_IT_number 12
_symmetry_cell_setting 'monoclinic'
loop_
_space_group_symop_operation_xyz
x,y,z
-x,y,-z
-x,-y,-z
x,-y,z
1/2+x,1/2+y,z
1/2-x,1/2+y,-z
1/2-x,1/2-y,-z
1/2+x,1/2-y,z
loop_
_atom_site_type_symbol
_atom_site_label
_atom_site_fract_x
_atom_site_fract_y
_atom_site_fract_z
Si Si1 0.387326 0.599821 0.102064
Si Si2 0.558471 0.140315 0.420119
Si Si3 0.822795 0.900104 0.955553
Si Si4 0.454697 0.397271 0.249415
Si Si5 0.657238 0.596421 0.596618
Si Si6 0.265201 0.398082 0.806692
Si Si7 0.340008 0.307495 0.543351
Si Si8 0.837467 0.400652 0.334331
O O1 0.361309 0.500000 0.106163
O O2 0.532769 0.606723 0.074496
O O3 0.376991 0.632244 0.184413
O O4 0.313225 0.634770 0.037701
O O5 0.500000 0.110952 0.500000
O O6 0.695800 0.105915 0.404861
O O7 0.569830 0.240894 0.425984
O O8 0.469225 0.115147 0.361616
O O9 0.750198 0.866848 0.890103
O O10 0.797121 0.000000 0.961944
O O11 0.448575 0.500000 0.249282
O O12 0.404331 0.364541 0.328435
O O13 0.597285 0.376220 0.228616
O O14 0.623695 0.500000 0.599858
O O15 0.617640 0.630525 0.521844
O O16 0.260863 0.500000 0.811373
O O17 0.174931 0.372516 0.748028
O O18 0.250000 0.250000 0.500000
O O19 0.261691 0.354430 0.608946
O O20 0.811445 0.500000 0.338679
#
# Coordination Sequence:
#
# PCOD9181063 Si02
#       8
#     8   8   8   8   8   8   8   8
#     4   7   9  15  32  56  89 133 160 182 235 300
#     4  11  22  37  54  72  97 130 169 219 256 302
#     4   7   9  16  32  57  91 128 161 188 234 295
#     4   8  14  25  39  65 102 130 159 202 249 296
#     4  10  19  32  52  75  97 129 170 212 256 305
#     4   8  15  26  41  68 100 128 161 208 249 289
#     4  10  21  36  49  73  95 126 159 214 261 300
#     4  11  21  36  58  78  97 133 176 213 254 299
#
# _framework density 19.866129999999998
#
# number of rings (size 3 to 8) (size 9 to 14) (size 15 to 20)
#    0.000    3.000    2.500    3.000    0.000    1.500 
#    0.000    0.000    0.000    3.750    0.000    0.875 
#    0.000   10.000    6.250    0.250    1.000    0.000 
#
# Total GULP energy -178203.930165 kJ/mol
# GULP energy per Si atom -5568.872818 kJ/mol
# Density = 1.982091 g / cm^3
# Si number density = 19.866130 Si / 1000 Ang^3
#
#
#
# Elastic Constant Matrix: (Units=GPa)
#
#
# Indices 1 2 3 4 5 6 
#
# 1 36.8454 -2.4671 30.5950 0.0000 22.3814 0.0000
# 2 -2.4671 26.3453 16.9918 0.0000 7.3986 0.0000
# 3 30.5950 16.9918 103.9710 0.0000 47.0565 0.0000
# 4 0.0000 0.0000 0.0000 -0.7625 0.0000 1.6710
# 5 22.3814 7.3986 47.0565 0.0000 34.8235 0.0000
# 6 0.0000 0.0000 0.0000 1.6710 0.0000 18.6474
#
#
#
# Elastic Compliance Matrix: (Units=1/GPa)
#
#
# Indices 1 2 3 4 5 6 
#
# 1 0.049489 0.015297 -0.003080 0.000000 -0.030895 0.000000
# 2 0.015297 0.047169 -0.008302 0.000000 -0.008634 0.000000
# 3 -0.003080 -0.008302 0.026227 0.000000 -0.031697 0.000000
# 4 0.000000 0.000000 0.000000 -1.096160 0.000000 0.098230
# 5 -0.030895 -0.008634 -0.031697 0.000000 0.093239 0.000000
# 6 0.000000 0.000000 0.000000 0.098230 0.000000 0.044824
#
#
# Mechanical properties :
#
#
# Convention : Reuss Voigt Hill
#
# Bulk Modulus (GPa) = 7.65022 28.60013 18.12517
# Shear Modulus (GPa) = -6.25414 18.67781 6.21183
#
# Velocity S-wave (km/s) = -1.77623 3.06957 1.77021
# Velocity P-wave (km/s) = 0.58940 5.19525 3.64988
#
# Compressibility (1/GPa) = 0.13071524
#
# Stress axis : x y z
#
# Youngs Moduli (GPa) = 20.20642 21.20017 38.12872
#
# Poissons Ratio (x) = -0.32430 0.11743
# Poissons Ratio (y) = -0.30910 0.31656
# Poissons Ratio (z) = 0.06223 0.17601
#
# Static dielectric constant tensor:
#      x y z
#    x 1.716350 0.000000 0.030290 
#    y 0.000000 1.249630 0.000000 
#    z 0.030290 0.000000 1.785150 
# 
# From -- ./inp_files/263898.got.cif
#   From: 2010.05.17/outbox.cif.g08.bks.cpg/sg12_132_cif.got.tgz:263898.got - 2010.06.03 13:09:07.
