data_PCOD9181257
_publ_section_title
;
Structure prediction by ZEFSAII (Michael W. Deem and Ramdas Pophale) SiO2 
 PCOD9181257
Probable space group: C 2/M
;
_chemical_formula_sum "Si O2"
_cell_formula_units_Z 64
_cell_length_a 20.020526
_cell_length_b 27.199151
_cell_length_c 14.180863
_cell_angle_alpha 90.000000
_cell_angle_beta 150.722515
_cell_angle_gamma 90.000000
_cell_volume 3776.396891
_symmetry_space_group_name_H-M "C 2/M"
_symmetry_group_IT_number 12
_symmetry_cell_setting 'monoclinic'
loop_
_space_group_symop_operation_xyz
x,y,z
-x,y,-z
-x,-y,-z
x,-y,z
1/2+x,1/2+y,z
1/2-x,1/2+y,-z
1/2-x,1/2-y,-z
1/2+x,1/2-y,z
loop_
_atom_site_type_symbol
_atom_site_label
_atom_site_fract_x
_atom_site_fract_y
_atom_site_fract_z
Si Si1 0.929230 0.783638 0.513495
Si Si2 0.928726 0.058260 0.512861
Si Si3 0.085761 0.862852 0.823120
Si Si4 0.428060 0.833411 0.511595
Si Si5 0.121924 0.832755 0.077912
Si Si6 0.122725 0.284376 0.079026
Si Si7 0.121445 0.441507 0.077119
Si Si8 0.881683 0.636696 0.089333
O O1 0.943510 0.725361 0.547597
O O2 0.769346 0.795870 0.306426
O O3 0.000000 0.794964 0.500000
O O4 0.003536 0.815430 0.683839
O O5 0.768728 0.069997 0.304318
O O6 0.000000 0.069406 0.500000
O O7 0.002333 0.090501 0.682058
O O8 0.943551 0.000000 0.548327
O O9 0.101476 0.860119 0.954262
O O10 0.234837 0.862591 0.959125
O O11 0.500000 0.843928 0.500000
O O12 0.268286 0.844517 0.303854
O O13 0.503163 0.860571 0.688987
O O14 0.122977 0.773941 0.058520
O O15 0.000000 0.842603 0.000000
O O16 0.108195 0.316323 0.967284
O O17 0.000000 0.294862 0.000000
O O18 0.119086 0.500000 0.055046
O O19 0.107251 0.410292 0.964862
O O20 0.000000 0.429815 0.000000
#
# Coordination Sequence:
#
# PCOD9181257 Si02
#       8
#     8   8   8   8   8   8   8   8
#     4  10  19  32  52  79 109 139 179 222 267 321
#     4  10  20  36  58  86 114 135 167 217 272 328
#     4  12  21  33  58  82 104 143 187 221 261 319
#     4  10  21  35  52  76 107 145 185 225 261 305
#     4  10  23  39  52  74 111 147 182 227 268 304
#     4  10  21  35  51  79 114 141 174 224 274 319
#     4  10  22  39  58  85 117 139 163 214 278 329
#     4  12  21  33  58  82 105 143 187 218 261 321
#
# _framework density 16.947371
#
# number of rings (size 3 to 8) (size 9 to 14) (size 15 to 20)
#    0.000    1.500    3.750    2.250    0.000    3.000 
#    0.000    3.750    0.000    1.500    0.000    0.000 
#    0.000    0.000    0.000    0.000    0.000    0.000 
#
# Total GULP energy -178784.742678 kJ/mol
# GULP energy per Si atom -5587.023209 kJ/mol
# Density = 1.690880 g / cm^3
# Si number density = 16.947371 Si / 1000 Ang^3
#
#
#
# Elastic Constant Matrix: (Units=GPa)
#
#
# Indices 1 2 3 4 5 6 
#
# 1 125.0344 51.2931 91.6621 0.0000 12.4769 0.0000
# 2 51.2931 57.2755 63.3346 0.0000 -8.6066 0.0000
# 3 91.6621 63.3346 166.5172 0.0000 1.7584 0.0000
# 4 0.0000 0.0000 0.0000 14.2830 0.0000 -1.9821
# 5 12.4769 -8.6066 1.7584 0.0000 37.1082 0.0000
# 6 0.0000 0.0000 0.0000 -1.9821 0.0000 12.4219
#
#
#
# Elastic Compliance Matrix: (Units=1/GPa)
#
#
# Indices 1 2 3 4 5 6 
#
# 1 0.016970 -0.010615 -0.005220 0.000000 -0.007920 0.000000
# 2 -0.010615 0.039037 -0.009143 0.000000 0.013056 0.000000
# 3 -0.005220 -0.009143 0.012366 0.000000 -0.000951 0.000000
# 4 0.000000 0.000000 0.000000 0.071598 0.000000 0.011424
# 5 -0.007920 0.013056 -0.000951 0.000000 0.032684 0.000000
# 6 0.000000 0.000000 0.000000 0.011424 0.000000 0.082326
#
#
# Mechanical properties :
#
#
# Convention : Reuss Voigt Hill
#
# Bulk Modulus (GPa) = 54.29471 84.60074 69.44772
# Shear Modulus (GPa) = 16.07323 22.26512 19.16917
#
# Velocity S-wave (km/s) = 3.08298 3.62854 3.36683
# Velocity P-wave (km/s) = 6.69177 8.22090 7.49543
#
# Compressibility (1/GPa) = 0.01841800
#
# Stress axis : x y z
#
# Youngs Moduli (GPa) = 58.92896 25.61661 80.86464
#
# Poissons Ratio (x) = 0.27191 0.42213
# Poissons Ratio (y) = 0.62552 0.73931
# Poissons Ratio (z) = 0.30762 0.23420
#
# Static dielectric constant tensor:
#      x y z
#    x 1.551530 0.000000 0.017660 
#    y 0.000000 1.575460 0.000000 
#    z 0.017660 0.000000 1.555390 
# 
# From -- ./inp_files/161246.got.cif
#   From: 2010.05.17/outbox.cif.g08.bks.cpg/sg12_81_cif.got.tgz:161246.got - 2010.06.03 13:09:07.
