data_PCOD9181627
_publ_section_title
;
Structure prediction by ZEFSAII (Michael W. Deem and Ramdas Pophale) SiO2 
 PCOD9181627
Probable space group: C 2/M
;
_chemical_formula_sum "Si O2"
_cell_formula_units_Z 48
_cell_length_a 22.451382
_cell_length_b 19.080529
_cell_length_c 16.756216
_cell_angle_alpha 90.000000
_cell_angle_beta 159.110275
_cell_angle_gamma 90.000000
_cell_volume 2559.498045
_symmetry_space_group_name_H-M "C 2/M"
_symmetry_group_IT_number 12
_symmetry_cell_setting 'monoclinic'
loop_
_space_group_symop_operation_xyz
x,y,z
-x,y,-z
-x,-y,-z
x,-y,z
1/2+x,1/2+y,z
1/2-x,1/2+y,-z
1/2-x,1/2-y,-z
1/2+x,1/2-y,z
loop_
_atom_site_type_symbol
_atom_site_label
_atom_site_fract_x
_atom_site_fract_y
_atom_site_fract_z
Si Si1 0.128245 0.713971 0.594251
Si Si2 0.570996 0.712823 0.786518
Si Si3 0.931132 0.919171 0.684932
Si Si4 0.968559 0.273890 0.096945
Si Si5 0.854651 0.848234 0.758805
Si Si6 0.439444 0.076244 0.833699
O O1 0.189849 0.656704 0.606516
O O2 0.000000 0.686788 0.500000
O O3 0.034397 0.773544 0.425132
O O4 0.290899 0.743735 0.844075
O O5 0.563179 0.632742 0.807886
O O6 0.492845 0.752557 0.764611
O O7 0.750000 0.750000 0.000000
O O8 0.874757 0.890352 0.701764
O O9 0.760065 0.915597 0.420323
O O10 0.985062 0.000000 0.757938
O O11 0.101958 0.232878 0.209264
O O12 0.978703 0.356567 0.103482
O O13 0.000000 0.873702 0.000000
O O14 0.479875 0.000000 0.848175
O O15 0.500000 0.076435 0.000000
#
# Coordination Sequence:
#
# PCOD9181627 Si02
#       6
#     8   8   8   8   8   8
#     4  11  20  33  55  84 115 145 182 234 275 330
#     4  11  21  35  55  80 110 146 183 229 278 328
#     4  10  21  37  58  83 110 145 189 234 278 328
#     4  10  19  35  55  82 109 142 189 235 273 321
#     4   9  19  34  58  84 107 139 188 239 276 322
#     4  10  19  32  53  81 113 143 177 225 276 322
#
# _framework density 18.753678000000001
#
# number of rings (size 3 to 8) (size 9 to 14) (size 15 to 20)
#    0.000    1.833    1.667    4.500    0.000    3.000 
#    0.000    0.833    0.000    2.500    0.000    0.000 
#    0.000    0.000    0.000    0.000    0.000    0.000 
#
# Total GULP energy -133771.490087 kJ/mol
# GULP energy per Si atom -5573.812087 kJ/mol
# Density = 1.871099 g / cm^3
# Si number density = 18.753678 Si / 1000 Ang^3
#
#
#
# Elastic Constant Matrix: (Units=GPa)
#
#
# Indices 1 2 3 4 5 6 
#
# 1 103.3130 28.0941 30.0647 0.0000 5.2336 0.0000
# 2 28.0941 108.7019 24.4236 0.0000 2.7002 0.0000
# 3 30.0647 24.4236 73.5615 0.0000 -2.3364 0.0000
# 4 0.0000 0.0000 0.0000 9.0304 0.0000 11.2343
# 5 5.2336 2.7002 -2.3364 0.0000 33.1075 0.0000
# 6 0.0000 0.0000 0.0000 11.2343 0.0000 4.4656
#
#
#
# Elastic Compliance Matrix: (Units=1/GPa)
#
#
# Indices 1 2 3 4 5 6 
#
# 1 0.011518 -0.002007 -0.004103 0.000000 -0.001947 0.000000
# 2 -0.002007 0.010327 -0.002631 0.000000 -0.000711 0.000000
# 3 -0.004103 -0.002631 0.016208 0.000000 0.002007 0.000000
# 4 0.000000 0.000000 0.000000 -0.051997 0.000000 0.130810
# 5 -0.001947 -0.000711 0.002007 0.000000 0.030712 0.000000
# 6 0.000000 0.000000 0.000000 0.130810 0.000000 -0.105149
#
#
# Mechanical properties :
#
#
# Convention : Reuss Voigt Hill
#
# Bulk Modulus (GPa) = 48.61090 50.08236 49.34663
# Shear Modulus (GPa) = -78.07260 22.85365 -27.60947
#
# Velocity S-wave (km/s) = -6.45917 3.49466 -3.84111
# Velocity P-wave (km/s) = 5.44526 6.56101 2.58805
#
# Compressibility (1/GPa) = 0.02057152
#
# Stress axis : x y z
#
# Youngs Moduli (GPa) = 86.82416 96.83445 61.69693
#
# Poissons Ratio (x) = 0.19430 0.25313
# Poissons Ratio (y) = 0.17421 0.16234
# Poissons Ratio (z) = 0.35623 0.25479
#
# Static dielectric constant tensor:
#      x y z
#    x 1.687440 0.000000 0.006720 
#    y 0.000000 1.670910 0.000000 
#    z 0.006720 0.000000 1.679340 
# 
# From -- ./inp_files/61721.got.cif
#   From: 2010.05.17/outbox.cif.g08.bks.cpg/sg12_31_cif.got.tgz:61721.got - 2010.06.03 13:09:07.
