data_PCOD9181011
_publ_section_title
;
Structure prediction by ZEFSAII (Michael W. Deem and Ramdas Pophale) SiO2 
 PCOD9181011
Probable space group: C 2/M
;
_chemical_formula_sum "Si O2"
_cell_formula_units_Z 56
_cell_length_a 19.838102
_cell_length_b 7.821978
_cell_length_c 25.506951
_cell_angle_alpha 90.000000
_cell_angle_beta 132.342849
_cell_angle_gamma 90.000000
_cell_volume 2925.463338
_symmetry_space_group_name_H-M "C 2/M"
_symmetry_group_IT_number 12
_symmetry_cell_setting 'monoclinic'
loop_
_space_group_symop_operation_xyz
x,y,z
-x,y,-z
-x,-y,-z
x,-y,z
1/2+x,1/2+y,z
1/2-x,1/2+y,-z
1/2-x,1/2-y,-z
1/2+x,1/2-y,z
loop_
_atom_site_type_symbol
_atom_site_label
_atom_site_fract_x
_atom_site_fract_y
_atom_site_fract_z
Si Si1 0.420262 0.195838 0.421087
Si Si2 0.646767 0.705072 0.929481
Si Si3 0.295206 0.298900 0.442171
Si Si4 0.912804 0.201127 0.299087
Si Si5 0.114193 0.207370 0.401142
Si Si6 0.283910 0.707698 0.142715
Si Si7 0.578955 0.296153 0.002549
O O1 0.500000 0.272315 0.500000
O O2 0.330731 0.205735 0.409630
O O3 0.404951 0.280794 0.357302
O O4 0.446005 0.000000 0.423806
O O5 0.635842 0.500000 0.923116
O O6 0.648426 0.761811 0.869702
O O7 0.750000 0.750000 0.000000
O O8 0.584272 0.771158 0.944863
O O9 0.312147 0.500000 0.444469
O O10 0.190302 0.268778 0.400870
O O11 0.352083 0.238339 0.523133
O O12 0.829875 0.268616 0.220764
O O13 0.012758 0.271379 0.337324
O O14 0.916382 0.000000 0.288849
O O15 0.114970 0.000000 0.401787
O O16 0.278040 0.500000 0.138430
O O17 0.180727 0.769551 0.079094
O O18 0.563982 0.500000 0.990741
O O19 0.500000 0.227555 0.000000
#
# Coordination Sequence:
#
# PCOD9181011 Si02
#       7
#     8   8   8   8   8   8   8
#     4  11  22  34  51  75 101 131 173 221 264 315
#     4   8  14  27  47  70  95 125 161 197 234 280
#     4  10  19  32  52  73  97 128 166 213 260 308
#     4  10  20  35  53  73 101 136 173 215 267 319
#     4   9  18  32  50  72  98 129 165 208 258 310
#     4   9  18  32  51  74 100 132 170 210 250 299
#     4   9  17  30  50  76 106 137 169 205 246 295
#
# _framework density 19.142267
#
# number of rings (size 3 to 8) (size 9 to 14) (size 15 to 20)
#    0.000    2.571    1.429    0.857    0.000    2.571 
#    0.000    1.429    0.000    3.429    0.000    0.000 
#    0.000    0.000    0.000    0.000    0.000    0.000 
#
# Total GULP energy -155971.802119 kJ/mol
# GULP energy per Si atom -5570.421504 kJ/mol
# Density = 1.909870 g / cm^3
# Si number density = 19.142267 Si / 1000 Ang^3
#
#
#
# Elastic Constant Matrix: (Units=GPa)
#
#
# Indices 1 2 3 4 5 6 
#
# 1 139.2490 -0.8032 45.1795 0.0000 -6.1224 0.0000
# 2 -0.8032 20.7033 -5.5224 0.0000 1.8048 -0.0001
# 3 45.1795 -5.5224 81.5910 0.0000 -9.2683 0.0000
# 4 0.0000 0.0000 0.0000 13.7033 0.0000 1.3342
# 5 -6.1224 1.8048 -9.2683 0.0000 20.5775 0.0000
# 6 0.0000 -0.0001 0.0000 1.3342 0.0000 12.8393
#
#
#
# Elastic Compliance Matrix: (Units=1/GPa)
#
#
# Indices 1 2 3 4 5 6 
#
# 1 0.008778 -0.001003 -0.004871 0.000000 0.000506 0.000000
# 2 -0.001003 0.049477 0.003559 0.000000 -0.003035 0.000000
# 3 -0.004871 0.003559 0.015803 0.000000 0.005356 0.000000
# 4 0.000000 0.000000 0.000000 0.073721 0.000000 -0.007661
# 5 0.000506 -0.003035 0.005356 0.000000 0.051426 0.000000
# 6 0.000000 0.000000 0.000000 -0.007661 0.000000 0.078682
#
#
# Mechanical properties :
#
#
# Convention : Reuss Voigt Hill
#
# Bulk Modulus (GPa) = 14.40335 35.47233 24.93784
# Shear Modulus (GPa) = 16.35810 22.93665 19.64737
#
# Velocity S-wave (km/s) = 2.92645 3.46529 3.20720
# Velocity P-wave (km/s) = 4.35425 5.88065 5.17405
#
# Compressibility (1/GPa) = 0.06942831
#
# Stress axis : x y z
#
# Youngs Moduli (GPa) = 113.91705 20.21160 63.27916
#
# Poissons Ratio (x) = 0.02027 0.30825
# Poissons Ratio (y) = 0.11425 -0.22524
# Poissons Ratio (z) = 0.55492 -0.07194
#
# Static dielectric constant tensor:
#      x y z
#    x 1.690630 0.000000 -0.020780 
#    y 0.000000 1.705210 0.000000 
#    z -0.020780 0.000000 1.676880 
# 
# From -- ./inp_files/280393.got.cif
#   From: 2010.05.17/outbox.cif.g08.bks.cpg/sg12_141_cif.got.tgz:280393.got - 2010.06.03 13:09:07.
