data_PCOD9181719
_publ_section_title
;
Structure prediction by ZEFSAII (Michael W. Deem and Ramdas Pophale) SiO2 
 PCOD9181719
Probable space group: C 2/M
;
_chemical_formula_sum "Si O2"
_cell_formula_units_Z 60
_cell_length_a 14.957516
_cell_length_b 30.066304
_cell_length_c 14.471317
_cell_angle_alpha 90.000000
_cell_angle_beta 32.093194
_cell_angle_gamma 90.000000
_cell_volume 3457.687313
_symmetry_space_group_name_H-M "C 2/M"
_symmetry_group_IT_number 12
_symmetry_cell_setting 'monoclinic'
loop_
_space_group_symop_operation_xyz
x,y,z
-x,y,-z
-x,-y,-z
x,-y,z
1/2+x,1/2+y,z
1/2-x,1/2+y,-z
1/2-x,1/2-y,-z
1/2+x,1/2-y,z
loop_
_atom_site_type_symbol
_atom_site_label
_atom_site_fract_x
_atom_site_fract_y
_atom_site_fract_z
Si Si1 0.119460 0.324452 0.310362
Si Si2 0.955966 0.229046 0.414855
Si Si3 0.905466 0.654452 0.879012
Si Si4 0.500000 0.310374 0.000000
Si Si5 0.925519 0.747308 0.230919
Si Si6 0.918328 0.952159 0.469721
Si Si7 0.625684 0.909323 0.812313
Si Si8 0.381870 0.634794 0.732982
O O1 0.083713 0.346204 0.241389
O O2 0.315828 0.332860 0.161485
O O3 0.000000 0.339046 0.500000
O O4 0.072655 0.271610 0.337321
O O5 0.929825 0.230312 0.327391
O O6 0.769284 0.235935 0.619652
O O7 0.029897 0.180826 0.371400
O O8 0.963101 0.703343 0.859975
O O9 0.028603 0.621427 0.825243
O O10 0.724063 0.644105 0.081497
O O11 0.499836 0.279612 0.090250
O O12 0.724778 0.944652 0.664483
O O13 0.000000 0.954159 0.500000
O O14 0.994215 0.907172 0.360153
O O15 0.950308 0.000000 0.395524
O O16 0.756491 0.880269 0.759783
O O17 0.500000 0.928392 0.000000
#
# Coordination Sequence:
#
# PCOD9181719 Si02
#       8
#     8   8   8   4   8   8   8   8
#     4  11  23  38  53  73 107 145 183 229 273 308
#     4  10  20  36  50  71 102 142 183 221 265 300
#     4  10  21  36  49  76 105 136 183 224 260 309
#     4  12  22  34  52  72  96 140 190 224 266 320
#     4  10  21  32  50  72 100 140 181 229 262 303
#     4   9  18  33  51  78 111 142 172 208 260 320
#     4   9  19  32  51  76 103 140 176 210 255 311
#     4  10  19  32  54  74 103 142 177 214 258 312
#
# _framework density 17.352640000000001
#
# number of rings (size 3 to 8) (size 9 to 14) (size 15 to 20)
#    0.000    2.000    1.333    2.400    4.667    4.000 
#    2.400    2.000    0.000    0.000    0.000    0.000 
#    0.000    3.200    0.000    0.000    0.000    0.000 
#
# Total GULP energy -167280.813047 kJ/mol
# GULP energy per Si atom -5576.027102 kJ/mol
# Density = 1.731314 g / cm^3
# Si number density = 17.352640 Si / 1000 Ang^3
#
#
#
# Elastic Constant Matrix: (Units=GPa)
#
#
# Indices 1 2 3 4 5 6 
#
# 1 70.3492 6.6984 36.0562 0.0000 13.3042 0.0000
# 2 6.6984 60.3517 39.4203 0.0000 -0.1951 0.0000
# 3 36.0562 39.4203 118.9195 0.0000 4.9546 0.0000
# 4 0.0000 0.0000 0.0000 13.5444 0.0000 5.9224
# 5 13.3042 -0.1951 4.9546 0.0000 30.6027 0.0000
# 6 0.0000 0.0000 0.0000 5.9224 0.0000 0.6112
#
#
#
# Elastic Compliance Matrix: (Units=1/GPa)
#
#
# Indices 1 2 3 4 5 6 
#
# 1 0.018383 0.001769 -0.005867 0.000000 -0.007031 0.000000
# 2 0.001769 0.021369 -0.007645 0.000000 0.000605 0.000000
# 3 -0.005867 -0.007645 0.012704 0.000000 0.000445 0.000000
# 4 0.000000 0.000000 0.000000 -0.022811 0.000000 0.221020
# 5 -0.007031 0.000605 0.000445 0.000000 0.035665 -0.000001
# 6 0.000000 0.000000 0.000000 0.221020 -0.000001 -0.505468
#
#
# Mechanical properties :
#
#
# Convention : Reuss Voigt Hill
#
# Bulk Modulus (GPa) = 34.51923 45.99669 40.25796
# Shear Modulus (GPa) = -12.28452 20.11470 3.91509
#
# Velocity S-wave (km/s) = -2.66359 3.40836 1.50369
# Velocity P-wave (km/s) = 3.23672 6.48489 5.12494
#
# Compressibility (1/GPa) = 0.02896936
#
# Stress axis : x y z
#
# Youngs Moduli (GPa) = 54.39767 46.79742 78.71722
#
# Poissons Ratio (x) = -0.08280 0.46186
# Poissons Ratio (y) = -0.09625 0.60180
# Poissons Ratio (z) = 0.31917 0.35777
#
# Static dielectric constant tensor:
#      x y z
#    x 1.614000 0.000000 -0.028670 
#    y 0.000000 1.582050 0.000000 
#    z -0.028670 0.000000 1.653770 
# 
# From -- ./inp_files/219452.got.cif
#   From: 2010.05.17/outbox.cif.g08.bks.cpg/sg12_110_cif.got.tgz:219452.got - 2010.06.03 13:09:07.
