data_PCOD9181332
_publ_section_title
;
Structure prediction by ZEFSAII (Michael W. Deem and Ramdas Pophale) SiO2 
 PCOD9181332
Probable space group: C 2/M
;
_chemical_formula_sum "Si O2"
_cell_formula_units_Z 56
_cell_length_a 19.237990
_cell_length_b 9.760172
_cell_length_c 15.060871
_cell_angle_alpha 90.000000
_cell_angle_beta 68.609918
_cell_angle_gamma 90.000000
_cell_volume 2633.130756
_symmetry_space_group_name_H-M "C 2/M"
_symmetry_group_IT_number 12
_symmetry_cell_setting 'monoclinic'
loop_
_space_group_symop_operation_xyz
x,y,z
-x,y,-z
-x,-y,-z
x,-y,z
1/2+x,1/2+y,z
1/2-x,1/2+y,-z
1/2-x,1/2-y,-z
1/2+x,1/2-y,z
loop_
_atom_site_type_symbol
_atom_site_label
_atom_site_fract_x
_atom_site_fract_y
_atom_site_fract_z
Si Si1 0.870734 0.848149 0.287365
Si Si2 0.209293 0.651961 0.792424
Si Si3 0.909364 0.346793 0.799409
Si Si4 0.983491 0.842036 0.904621
Si Si5 0.881123 0.845475 0.660978
Si Si6 0.261965 0.652446 0.077122
Si Si7 0.178681 0.839672 0.501486
O O1 0.819513 0.721787 0.282996
O O2 0.878756 0.839430 0.389155
O O3 0.943409 0.839225 0.192485
O O4 0.836122 0.000000 0.285640
O O5 0.179220 0.500000 0.822567
O O6 0.298506 0.641452 0.743355
O O7 0.188735 0.761909 0.877178
O O8 0.942597 0.500000 0.782710
O O9 0.930272 0.263705 0.878570
O O10 0.926106 0.255899 0.704388
O O11 0.820063 0.363144 0.842979
O O12 0.956279 0.000000 0.915016
O O13 0.000000 0.808651 0.000000
O O14 0.862239 0.795326 0.570194
O O15 0.913262 0.000000 0.642806
O O16 0.289744 0.500000 0.043600
O O17 0.250000 0.750000 0.000000
O O18 0.250000 0.750000 0.500000
O O19 0.201515 0.000000 0.476344
#
# Coordination Sequence:
#
# PCOD9181332 Si02
#       7
#     8   8   8   8   8   8   8
#     4  10  21  36  56  84 116 150 192 239 284 339
#     4  10  19  32  52  81 115 149 184 225 279 340
#     4  10  22  39  58  82 110 146 191 240 286 334
#     4  10  23  42  61  81 109 153 199 238 284 340
#     4   9  18  34  56  83 115 152 184 221 279 346
#     4  10  21  35  53  80 111 143 185 234 291 346
#     4  10  19  33  56  87 121 152 187 231 287 345
#
# _framework density 21.267457
#
# number of rings (size 3 to 8) (size 9 to 14) (size 15 to 20)
#    0.000    2.143    1.429    1.286    2.000    3.714 
#    0.000    0.714    0.000    4.286    0.000    0.000 
#    0.000    0.000    0.000    0.000    0.000    0.000 
#
# Total GULP energy -156100.591036 kJ/mol
# GULP energy per Si atom -5575.021108 kJ/mol
# Density = 2.121905 g / cm^3
# Si number density = 21.267457 Si / 1000 Ang^3
#
#
#
# Elastic Constant Matrix: (Units=GPa)
#
#
# Indices 1 2 3 4 5 6 
#
# 1 43.0153 42.4251 26.8335 0.0000 15.2575 0.0000
# 2 42.4251 160.3837 57.3548 0.0000 37.5893 0.0000
# 3 26.8335 57.3548 129.6648 0.0000 33.1139 0.0000
# 4 0.0000 0.0000 0.0000 19.3288 0.0000 6.4640
# 5 15.2575 37.5893 33.1139 0.0000 38.5156 0.0000
# 6 0.0000 0.0000 0.0000 6.4640 0.0000 16.8530
#
#
#
# Elastic Compliance Matrix: (Units=1/GPa)
#
#
# Indices 1 2 3 4 5 6 
#
# 1 0.033165 -0.006814 -0.002809 0.000000 -0.004073 0.000000
# 2 -0.006814 0.009910 -0.001528 0.000000 -0.005659 0.000000
# 3 -0.002809 -0.001528 0.010641 0.000000 -0.006544 0.000000
# 4 0.000000 0.000000 0.000000 0.059349 0.000000 -0.022764
# 5 -0.004073 -0.005659 -0.006544 0.000000 0.038726 0.000000
# 6 0.000000 0.000000 0.000000 -0.022764 0.000000 0.068068
#
#
# Mechanical properties :
#
#
# Convention : Reuss Voigt Hill
#
# Bulk Modulus (GPa) = 31.83386 65.14341 48.48864
# Shear Modulus (GPa) = 19.79162 28.70282 24.24722
#
# Velocity S-wave (km/s) = 3.05389 3.67769 3.38021
# Velocity P-wave (km/s) = 5.23792 6.98076 6.17118
#
# Compressibility (1/GPa) = 0.03141309
#
# Stress axis : x y z
#
# Youngs Moduli (GPa) = 30.15239 100.90580 93.97758
#
# Poissons Ratio (x) = 0.68754 0.26401
# Poissons Ratio (y) = 0.20545 0.14364
# Poissons Ratio (z) = 0.08471 0.15423
#
# Static dielectric constant tensor:
#      x y z
#    x 1.803520 0.000000 -0.014280 
#    y 0.000000 1.791050 0.000000 
#    z -0.014280 0.000000 1.820650 
# 
# From -- ./inp_files/237310.got.cif
#   From: 2010.05.17/outbox.cif.g08.bks.cpg/sg12_119_cif.got.tgz:237310.got - 2010.06.03 13:09:07.
