data_PCOD9181880
_publ_section_title
;
Structure prediction by ZEFSAII (Michael W. Deem and Ramdas Pophale) SiO2 
 PCOD9181880
Probable space group: C 2/M
;
_chemical_formula_sum "Si O2"
_cell_formula_units_Z 64
_cell_length_a 14.830719
_cell_length_b 8.470734
_cell_length_c 27.849069
_cell_angle_alpha 90.000000
_cell_angle_beta 70.323860
_cell_angle_gamma 90.000000
_cell_volume 3294.316959
_symmetry_space_group_name_H-M "C 2/M"
_symmetry_group_IT_number 12
_symmetry_cell_setting 'monoclinic'
loop_
_space_group_symop_operation_xyz
x,y,z
-x,y,-z
-x,-y,-z
x,-y,z
1/2+x,1/2+y,z
1/2-x,1/2+y,-z
1/2-x,1/2-y,-z
1/2+x,1/2-y,z
loop_
_atom_site_type_symbol
_atom_site_label
_atom_site_fract_x
_atom_site_fract_y
_atom_site_fract_z
Si Si1 0.649270 0.185696 0.902237
Si Si2 0.529619 0.191000 0.441542
Si Si3 0.371168 0.809176 0.718083
Si Si4 0.142286 0.310019 0.011978
Si Si5 0.769680 0.307907 0.640288
Si Si6 0.934933 0.189443 0.363414
Si Si7 0.016909 0.183555 0.122272
Si Si8 0.842170 0.313722 0.831992
O O1 0.591644 0.278605 0.872126
O O2 0.760804 0.222492 0.876046
O O3 0.630880 0.000000 0.900186
O O4 0.616422 0.231640 0.961742
O O5 0.500000 0.242749 0.500000
O O6 0.638026 0.239552 0.408033
O O7 0.459028 0.252864 0.412837
O O8 0.526966 0.000000 0.440498
O O9 0.296817 0.758967 0.689784
O O10 0.475977 0.748690 0.684438
O O11 0.344089 0.759755 0.776545
O O12 0.374372 0.000000 0.716982
O O13 0.138575 0.500000 0.017067
O O14 0.076378 0.235417 0.064476
O O15 0.250000 0.250000 0.000000
O O16 0.767055 0.500000 0.640442
O O17 0.667619 0.253395 0.638355
O O18 0.934435 0.000000 0.363091
O O19 0.057929 0.280027 0.159627
O O20 0.030628 0.000000 0.129208
O O21 0.821376 0.500000 0.837725
#
# Coordination Sequence:
#
# PCOD9181880 Si02
#       8
#     8   8   8   8   8   8   8   8
#     4  11  24  41  61  87 117 149 187 234 285 344
#     4   9  18  34  54  76 109 153 192 227 273 332
#     4   9  20  39  59  79 107 145 185 227 276 335
#     4  11  22  38  62  87 116 150 188 232 283 342
#     4   8  16  33  54  77 108 143 182 224 274 331
#     4  10  19  32  54  82 111 144 182 231 281 326
#     4  12  25  40  60  86 117 154 192 233 282 341
#     4  11  23  40  62  86 114 148 189 239 292 343
#
# _framework density 19.427395000000001
#
# number of rings (size 3 to 8) (size 9 to 14) (size 15 to 20)
#    0.000    1.875    1.250    3.750    0.000    5.750 
#    0.000    6.250    0.000    0.000    0.000    0.000 
#    0.000    0.000    0.000    0.000    0.000    0.000 
#
# Total GULP energy -178714.201736 kJ/mol
# GULP energy per Si atom -5584.818804 kJ/mol
# Density = 1.938318 g / cm^3
# Si number density = 19.427395 Si / 1000 Ang^3
#
#
#
# Elastic Constant Matrix: (Units=GPa)
#
#
# Indices 1 2 3 4 5 6 
#
# 1 119.0293 4.3891 24.6282 0.0000 16.6139 0.0000
# 2 4.3891 20.2430 15.3423 0.0000 2.3482 0.0000
# 3 24.6282 15.3423 101.1332 0.0000 20.0866 0.0000
# 4 0.0000 0.0000 0.0000 22.7023 0.0000 0.8297
# 5 16.6139 2.3482 20.0866 0.0000 13.9840 0.0000
# 6 0.0000 0.0000 0.0000 0.8297 0.0000 26.4183
#
#
#
# Elastic Compliance Matrix: (Units=1/GPa)
#
#
# Indices 1 2 3 4 5 6 
#
# 1 0.010085 -0.000831 0.000031 0.000000 -0.011886 0.000000
# 2 -0.000831 0.056039 -0.009271 0.000000 0.004894 0.000000
# 3 0.000031 -0.009271 0.015370 0.000000 -0.020557 0.000000
# 4 0.000000 0.000000 0.000000 0.044099 0.000000 -0.001385
# 5 -0.011886 0.004894 -0.020557 0.000000 0.114338 0.000000
# 6 0.000000 0.000000 0.000000 -0.001385 0.000000 0.037896
#
#
# Mechanical properties :
#
#
# Convention : Reuss Voigt Hill
#
# Bulk Modulus (GPa) = 16.29967 36.56942 26.43454
# Shear Modulus (GPa) = 15.70257 25.69066 20.69662
#
# Velocity S-wave (km/s) = 2.84609 3.64042 3.26748
# Velocity P-wave (km/s) = 4.38276 6.04439 5.27936
#
# Compressibility (1/GPa) = 0.06135095
#
# Stress axis : x y z
#
# Youngs Moduli (GPa) = 99.16136 17.84477 65.06265
#
# Poissons Ratio (x) = 0.01483 -0.00202
# Poissons Ratio (y) = 0.08243 0.60319
# Poissons Ratio (z) = -0.00308 0.16544
#
# Static dielectric constant tensor:
#      x y z
#    x 1.652960 0.000000 0.012110 
#    y 0.000000 1.657870 0.000000 
#    z 0.012110 0.000000 1.666580 
# 
# From -- ./inp_files/359757.got.cif
#   From: 2010.05.17/outbox.cif.g08.bks.cpg/sg12_180_cif.got.tgz:359757.got - 2010.06.03 13:09:07.
