data_PCOD9181838
_publ_section_title
;
Structure prediction by ZEFSAII (Michael W. Deem and Ramdas Pophale) SiO2 
 PCOD9181838
Probable space group: C 2/M
;
_chemical_formula_sum "Si O2"
_cell_formula_units_Z 56
_cell_length_a 25.023327
_cell_length_b 13.797035
_cell_length_c 8.657476
_cell_angle_alpha 90.000000
_cell_angle_beta 105.779956
_cell_angle_gamma 90.000000
_cell_volume 2876.328940
_symmetry_space_group_name_H-M "C 2/M"
_symmetry_group_IT_number 12
_symmetry_cell_setting 'monoclinic'
loop_
_space_group_symop_operation_xyz
x,y,z
-x,y,-z
-x,-y,-z
x,-y,z
1/2+x,1/2+y,z
1/2-x,1/2+y,-z
1/2-x,1/2-y,-z
1/2+x,1/2-y,z
loop_
_atom_site_type_symbol
_atom_site_label
_atom_site_fract_x
_atom_site_fract_y
_atom_site_fract_z
Si Si1 0.316544 0.112455 0.289254
Si Si2 0.714546 0.707592 0.333862
Si Si3 0.891703 0.257970 0.576371
Si Si4 0.029828 0.112514 0.272238
Si Si5 0.084790 0.112890 0.972152
Si Si6 0.340242 0.204366 0.984171
Si Si7 0.059329 0.385550 0.112954
O O1 0.253341 0.122386 0.301725
O O2 0.358704 0.179594 0.423355
O O3 0.316986 0.158181 0.119749
O O4 0.333527 0.000000 0.305106
O O5 0.750000 0.750000 0.500000
O O6 0.654515 0.695940 0.364605
O O7 0.704266 0.784282 0.188004
O O8 0.939956 0.180879 0.580422
O O9 0.921562 0.332453 0.716730
O O10 0.965644 0.133853 0.185146
O O11 0.034981 0.000000 0.317942
O O12 0.059462 0.125168 0.125756
O O13 0.134270 0.187485 0.980697
O O14 0.100643 0.000000 0.970235
O O15 0.392167 0.139889 0.969138
O O16 0.055740 0.500000 0.135486
O O17 0.000000 0.351336 0.000000
#
# Coordination Sequence:
#
# PCOD9181838 Si02
#       7
#     8   8   8   8   8   8   8
#     4  11  24  39  55  80 116 155 190 233 284 341
#     4   9  20  37  59  80 101 138 190 242 284 328
#     4  10  19  36  58  82 111 146 189 237 286 335
#     4   9  16  30  56  88 113 137 180 232 283 336
#     4   9  17  30  55  88 113 139 178 228 287 342
#     4  11  20  36  58  81 115 148 185 230 291 344
#     4  10  19  32  54  81 110 151 199 237 272 328
#
# _framework density 19.469260999999999
#
# number of rings (size 3 to 8) (size 9 to 14) (size 15 to 20)
#    0.000    2.143    2.857    3.000    0.000    1.143 
#    0.000    4.286    0.000   14.571    0.000    0.000 
#    0.000    0.000    0.000    0.000    0.000    0.000 
#
# Total GULP energy -156070.062381 kJ/mol
# GULP energy per Si atom -5573.930799 kJ/mol
# Density = 1.942495 g / cm^3
# Si number density = 19.469261 Si / 1000 Ang^3
#
#
#
# Elastic Constant Matrix: (Units=GPa)
#
#
# Indices 1 2 3 4 5 6 
#
# 1 45.9333 29.8570 41.7055 0.0000 18.8723 0.0000
# 2 29.8570 88.0713 36.6194 0.0000 9.5427 0.0000
# 3 41.7055 36.6194 101.3125 0.0000 21.1630 0.0000
# 4 0.0000 0.0000 0.0000 19.7261 0.0000 1.4667
# 5 18.8723 9.5427 21.1630 0.0000 30.4862 0.0000
# 6 0.0000 0.0000 0.0000 1.4667 0.0000 17.7746
#
#
#
# Elastic Compliance Matrix: (Units=1/GPa)
#
#
# Indices 1 2 3 4 5 6 
#
# 1 0.045118 -0.008483 -0.011962 0.000000 -0.016971 0.000000
# 2 -0.008483 0.014982 -0.002387 0.000000 0.002219 0.000000
# 3 -0.011962 -0.002387 0.016321 0.000000 -0.003178 0.000000
# 4 0.000000 0.000000 0.000000 0.051007 0.000000 -0.004209
# 5 -0.016971 0.002219 -0.003178 0.000000 0.044819 0.000000
# 6 0.000000 0.000000 0.000000 -0.004209 0.000000 0.056607
#
#
# Mechanical properties :
#
#
# Convention : Reuss Voigt Hill
#
# Bulk Modulus (GPa) = 32.51117 50.18676 41.34897
# Shear Modulus (GPa) = 17.55791 22.07304 19.81548
#
# Velocity S-wave (km/s) = 3.00630 3.37076 3.19373
# Velocity P-wave (km/s) = 5.36521 6.40177 5.90627
#
# Compressibility (1/GPa) = 0.03075866
#
# Stress axis : x y z
#
# Youngs Moduli (GPa) = 22.16386 66.74554 61.27075
#
# Poissons Ratio (x) = 0.56621 0.73291
# Poissons Ratio (y) = 0.18802 0.14623
# Poissons Ratio (z) = 0.26512 0.15930
#
# Static dielectric constant tensor:
#      x y z
#    x 1.719600 0.000000 0.001700 
#    y 0.000000 1.672680 0.000000 
#    z 0.001700 0.000000 1.699800 
# 
# From -- ./inp_files/96478.got.cif
#   From: 2010.05.17/outbox.cif.g08.bks.cpg/sg12_49_cif.got.tgz:96478.got - 2010.06.03 13:09:07.
