data_PCOD9181198
_publ_section_title
;
Structure prediction by ZEFSAII (Michael W. Deem and Ramdas Pophale) SiO2 
 PCOD9181198
Probable space group: C 2/M
;
_chemical_formula_sum "Si O2"
_cell_formula_units_Z 48
_cell_length_a 24.237386
_cell_length_b 8.369506
_cell_length_c 27.723700
_cell_angle_alpha 90.000000
_cell_angle_beta 28.308458
_cell_angle_gamma 90.000000
_cell_volume 2666.950742
_symmetry_space_group_name_H-M "C 2/M"
_symmetry_group_IT_number 12
_symmetry_cell_setting 'monoclinic'
loop_
_space_group_symop_operation_xyz
x,y,z
-x,y,-z
-x,-y,-z
x,-y,z
1/2+x,1/2+y,z
1/2-x,1/2+y,-z
1/2-x,1/2-y,-z
1/2+x,1/2-y,z
loop_
_atom_site_type_symbol
_atom_site_label
_atom_site_fract_x
_atom_site_fract_y
_atom_site_fract_z
Si Si1 0.806751 0.811904 0.809908
Si Si2 0.187078 0.694068 0.000184
Si Si3 0.945465 0.190892 0.615794
Si Si4 0.621283 0.318074 0.879896
Si Si5 0.327271 0.811543 0.609666
Si Si6 0.578775 0.811539 0.807544
O O1 0.913414 0.749757 0.694480
O O2 0.703106 0.781003 0.852146
O O3 0.826911 0.000000 0.802210
O O4 0.760337 0.746878 0.896855
O O5 0.184440 0.500000 0.999931
O O6 0.051480 0.747966 0.104591
O O7 0.250000 0.750000 0.000000
O O8 0.860706 0.257819 0.638762
O O9 0.075051 0.232952 0.499285
O O10 0.930796 0.000000 0.626419
O O11 0.665735 0.500000 0.836453
O O12 0.596128 0.225467 0.850435
O O13 0.500000 0.334228 0.000000
O O14 0.196063 0.765817 0.695919
O O15 0.341860 0.000000 0.596297
O O16 0.582657 0.000000 0.795069
#
# Coordination Sequence:
#
# PCOD9181198 Si02
#       6
#     8   8   8   8   8   8
#     4  10  20  35  55  78 108 145 181 217 264 326
#     4  10  23  40  58  80 105 140 182 228 276 322
#     4  10  19  32  52  77 110 150 183 213 260 325
#     4  11  21  30  47  80 113 141 174 216 269 321
#     4  11  21  32  49  78 115 146 179 222 266 315
#     4  11  21  35  55  77 108 147 183 218 265 329
#
# _framework density 17.998083000000001
#
# number of rings (size 3 to 8) (size 9 to 14) (size 15 to 20)
#    0.000    1.500    3.333    4.000    0.000    3.333 
#    0.000    0.000    0.000    1.000    0.000    0.000 
#    0.000    0.000    0.000    0.000    0.000    0.000 
#
# Total GULP energy -133760.212035 kJ/mol
# GULP energy per Si atom -5573.342168 kJ/mol
# Density = 1.795712 g / cm^3
# Si number density = 17.998083 Si / 1000 Ang^3
#
#
#
# Elastic Constant Matrix: (Units=GPa)
#
#
# Indices 1 2 3 4 5 6 
#
# 1 92.3777 -10.5010 50.5682 -0.0025 2.3777 0.0010
# 2 -10.5010 21.1306 2.1580 -0.0071 -0.6396 0.0046
# 3 50.5682 2.1580 132.9379 -0.0012 2.0699 0.0010
# 4 -0.0025 -0.0071 -0.0012 14.6533 -0.0008 -9.4268
# 5 2.3777 -0.6396 2.0699 -0.0008 12.1308 -0.0010
# 6 0.0010 0.0046 0.0010 -9.4268 -0.0010 11.7595
#
#
#
# Elastic Compliance Matrix: (Units=1/GPa)
#
#
# Indices 1 2 3 4 5 6 
#
# 1 0.014939 0.007969 -0.005788 0.000007 -0.001520 0.000001
# 2 0.007969 0.051739 -0.003900 0.000027 0.001832 0.000001
# 3 -0.005788 -0.003900 0.009799 -0.000003 -0.000743 -0.000001
# 4 0.000007 0.000027 -0.000003 0.140913 0.000019 0.112960
# 5 -0.001520 0.001832 -0.000743 0.000019 0.082956 0.000022
# 6 0.000001 0.000001 -0.000001 0.112960 0.000022 0.175589
#
#
# Mechanical properties :
#
#
# Convention : Reuss Voigt Hill
#
# Bulk Modulus (GPa) = 13.69142 36.76628 25.22885
# Shear Modulus (GPa) = 9.92617 21.32348 15.62482
#
# Velocity S-wave (km/s) = 2.35098 3.44577 2.94961
# Velocity P-wave (km/s) = 3.87210 6.02523 5.06441
#
# Compressibility (1/GPa) = 0.07303844
#
# Stress axis : x y z
#
# Youngs Moduli (GPa) = 66.94056 19.32788 102.05176
#
# Poissons Ratio (x) = -0.15402 0.59069
# Poissons Ratio (y) = -0.53345 0.39798
# Poissons Ratio (z) = 0.38746 0.07537
#
# Static dielectric constant tensor:
#      x y z
#    x 1.569360 0.000000 0.008510 
#    y 0.000000 1.631190 0.000000 
#    z 0.008510 0.000000 1.705130 
# 
# From -- ./inp_files/367108.got.cif
#   From: 2010.05.17/outbox.cif.g08.bks.cpg/sg12_184_cif.got.tgz:367108.got - 2010.06.03 13:09:07.
