data_PCOD9181678
_publ_section_title
;
Structure prediction by ZEFSAII (Michael W. Deem and Ramdas Pophale) SiO2 
 PCOD9181678
Probable space group: C 2/M
;
_chemical_formula_sum "Si O2"
_cell_formula_units_Z 44
_cell_length_a 24.348744
_cell_length_b 14.773344
_cell_length_c 9.483714
_cell_angle_alpha 90.000000
_cell_angle_beta 132.677283
_cell_angle_gamma 90.000000
_cell_volume 2508.011514
_symmetry_space_group_name_H-M "C 2/M"
_symmetry_group_IT_number 12
_symmetry_cell_setting 'monoclinic'
loop_
_space_group_symop_operation_xyz
x,y,z
-x,y,-z
-x,-y,-z
x,-y,z
1/2+x,1/2+y,z
1/2-x,1/2+y,-z
1/2-x,1/2-y,-z
1/2+x,1/2-y,z
loop_
_atom_site_type_symbol
_atom_site_label
_atom_site_fract_x
_atom_site_fract_y
_atom_site_fract_z
Si Si1 0.507637 0.500000 0.845697
Si Si2 0.950669 0.841535 0.551403
Si Si3 0.208599 0.158719 0.870519
Si Si4 0.952606 0.500000 0.058841
Si Si5 0.343428 0.000000 0.345393
Si Si6 0.691238 0.000000 0.048351
Si Si7 0.677325 0.500000 0.036930
Si Si8 0.470609 0.136730 0.607401
O O1 0.467808 0.414618 0.700609
O O2 0.500000 0.500000 0.000000
O O3 0.596772 0.500000 0.968486
O O4 0.866032 0.827293 0.350151
O O5 0.973935 0.742285 0.641222
O O6 0.000000 0.867642 0.500000
O O7 0.250000 0.250000 0.000000
O O8 0.183303 0.091394 0.953094
O O9 0.262437 0.093160 0.873961
O O10 0.863866 0.500000 0.915243
O O11 0.977432 0.585896 0.193057
O O12 0.000000 0.500000 0.000000
O O13 0.342796 0.000000 0.171892
O O14 0.390106 0.912080 0.473804
O O15 0.258628 0.000000 0.253490
O O16 0.500000 0.121470 0.500000
#
# Coordination Sequence:
#
# PCOD9181678 Si02
#       8
#     4   8   8   4   4   4   4   8
#     4  12  25  41  57  81 126 170 202 236 287 357
#     4  11  21  37  61  86 115 150 206 252 291 344
#     4  10  20  34  62  91 114 141 189 261 309 332
#     4  11  22  36  55  83 121 152 183 223 290 367
#     4   9  15  33  57  82 117 131 188 246 297 342
#     4  10  19  32  53  83 117 141 185 234 289 352
#     4  10  20  34  55  88 111 146 195 238 288 352
#     4  10  19  34  58  84 109 148 188 244 291 339
#
# _framework density 17.543779000000001
#
# number of rings (size 3 to 8) (size 9 to 14) (size 15 to 20)
#    0.000    1.818    3.636    4.091    2.545    0.727 
#    0.000    3.636    0.000    3.273    0.000    0.000 
#    0.000    0.000    0.000    0.000    0.000    0.000 
#
# Total GULP energy -122544.698495 kJ/mol
# GULP energy per Si atom -5570.213568 kJ/mol
# Density = 1.750385 g / cm^3
# Si number density = 17.543779 Si / 1000 Ang^3
#
#
#
# Elastic Constant Matrix: (Units=GPa)
#
#
# Indices 1 2 3 4 5 6 
#
# 1 118.7205 55.1848 41.7935 0.0000 9.5481 0.0000
# 2 55.1848 132.8006 57.1013 0.0000 -12.5292 0.0000
# 3 41.7935 57.1013 64.7304 0.0000 9.0430 0.0000
# 4 0.0000 0.0000 0.0000 -74.4516 0.0000 -24.8350
# 5 9.5481 -12.5292 9.0430 0.0000 27.9439 0.0000
# 6 0.0000 0.0000 0.0000 -24.8350 0.0000 -6.2321
#
#
#
# Elastic Compliance Matrix: (Units=1/GPa)
#
#
# Indices 1 2 3 4 5 6 
#
# 1 0.011834 -0.003758 -0.003693 0.000000 -0.004533 0.000000
# 2 -0.003758 0.016193 -0.013670 0.000000 0.012968 0.000000
# 3 -0.003693 -0.013670 0.032019 0.000000 -0.015229 0.000000
# 4 0.000000 0.000000 0.000000 0.040789 0.000000 -0.162546
# 5 -0.004533 0.012968 -0.015229 0.000000 0.048078 0.000000
# 6 0.000000 0.000000 0.000000 -0.162546 0.000000 0.487288
#
#
# Mechanical properties :
#
#
# Convention : Reuss Voigt Hill
#
# Bulk Modulus (GPa) = 56.16144 69.37898 62.77021
# Shear Modulus (GPa) = 7.30592 0.26350 3.78471
#
# Velocity S-wave (km/s) = 2.04290 0.38797 1.47037
# Velocity P-wave (km/s) = 6.13565 6.31132 6.22411
#
# Compressibility (1/GPa) = 0.01780581
#
# Stress axis : x y z
#
# Youngs Moduli (GPa) = 84.49948 61.75617 31.23120
#
# Poissons Ratio (x) = 0.23205 0.11533
# Poissons Ratio (y) = 0.31751 0.42692
# Poissons Ratio (z) = 0.31205 0.84419
#
# Static dielectric constant tensor:
#      x y z
#    x 1.661310 0.000000 0.064430 
#    y 0.000000 1.618390 0.000000 
#    z 0.064430 0.000000 1.626430 
# 
# From -- ./inp_files/96178.got.cif
#   From: 2010.05.17/outbox.cif.g08.bks.cpg/sg12_49_cif.got.tgz:96178.got - 2010.06.03 13:09:07.
