data_PCOD9181510
_publ_section_title
;
Structure prediction by ZEFSAII (Michael W. Deem and Ramdas Pophale) SiO2 
 PCOD9181510
Probable space group: C 2/M
;
_chemical_formula_sum "Si O2"
_cell_formula_units_Z 40
_cell_length_a 17.062736
_cell_length_b 15.014067
_cell_length_c 14.588416
_cell_angle_alpha 90.000000
_cell_angle_beta 32.103112
_cell_angle_gamma 90.000000
_cell_volume 1986.155056
_symmetry_space_group_name_H-M "C 2/M"
_symmetry_group_IT_number 12
_symmetry_cell_setting 'monoclinic'
loop_
_space_group_symop_operation_xyz
x,y,z
-x,y,-z
-x,-y,-z
x,-y,z
1/2+x,1/2+y,z
1/2-x,1/2+y,-z
1/2-x,1/2-y,-z
1/2+x,1/2-y,z
loop_
_atom_site_type_symbol
_atom_site_label
_atom_site_fract_x
_atom_site_fract_y
_atom_site_fract_z
Si Si1 0.352425 0.823651 0.348037
Si Si2 0.880613 0.274436 0.801572
Si Si3 0.671344 0.098517 0.308370
Si Si4 0.081738 0.162624 0.824151
Si Si5 0.950242 0.901484 0.347345
O O1 0.250000 0.750000 0.500000
O O2 0.495630 0.835806 0.270071
O O3 0.411320 0.768293 0.202326
O O4 0.226332 0.896286 0.457040
O O5 0.810818 0.326950 0.786376
O O6 0.964995 0.182440 0.691608
O O7 0.750000 0.250000 0.000000
O O8 0.500000 0.095502 0.500000
O O9 0.755694 0.126174 0.316444
O O10 0.720856 0.000000 0.229666
O O11 0.027885 0.116532 0.784001
O O12 0.000000 0.142002 0.000000
O O13 0.004805 0.000000 0.316788
#
# Coordination Sequence:
#
# PCOD9181510 Si02
#       5
#     8   8   8   8   8
#     4   8  17  34  51  69  99 142 180 202 241 310
#     4  10  20  33  50  77 112 142 169 209 263 317
#     4  11  21  32  51  80 109 134 165 214 269 312
#     4  10  19  32  53  79 105 131 165 216 269 309
#     4  10  20  36  56  76 103 143 184 211 246 313
#
# _framework density 20.139413999999999
#
# number of rings (size 3 to 8) (size 9 to 14) (size 15 to 20)
#    0.000    2.600    0.000    6.600    0.000    6.400 
#    0.000    0.000    0.000    6.000    0.000    0.000 
#    0.000    0.000    0.000    0.000    0.000    0.000 
#
# Total GULP energy -111404.006076 kJ/mol
# GULP energy per Si atom -5570.200304 kJ/mol
# Density = 2.009358 g / cm^3
# Si number density = 20.139414 Si / 1000 Ang^3
#
#
#
# Elastic Constant Matrix: (Units=GPa)
#
#
# Indices 1 2 3 4 5 6 
#
# 1 51.3807 22.6764 -12.1069 0.0000 -8.1217 0.0000
# 2 22.6764 109.0156 -8.5121 0.0000 7.7354 0.0000
# 3 -12.1069 -8.5121 47.8554 -0.0001 -2.2070 0.0000
# 4 0.0000 0.0000 -0.0001 12.3347 0.0000 -0.8330
# 5 -8.1217 7.7354 -2.2070 0.0000 25.4573 0.0000
# 6 0.0000 0.0000 0.0000 -0.8330 0.0000 13.2056
#
#
#
# Elastic Compliance Matrix: (Units=1/GPa)
#
#
# Indices 1 2 3 4 5 6 
#
# 1 0.024808 -0.005423 0.005775 0.000000 0.010063 0.000000
# 2 -0.005423 0.010676 0.000299 0.000000 -0.004948 0.000000
# 3 0.005775 0.000299 0.022582 0.000000 0.003710 0.000000
# 4 0.000000 0.000000 0.000000 0.081419 0.000000 0.005136
# 5 0.010063 -0.004948 0.003710 0.000000 0.044317 0.000000
# 6 0.000000 0.000000 0.000000 0.005136 0.000000 0.076050
#
#
# Mechanical properties :
#
#
# Convention : Reuss Voigt Hill
#
# Bulk Modulus (GPa) = 16.84456 23.59629 20.22043
# Shear Modulus (GPa) = 17.96379 23.94579 20.95479
#
# Velocity S-wave (km/s) = 2.98983 3.45193 3.22916
# Velocity P-wave (km/s) = 4.50565 5.25639 4.89544
#
# Compressibility (1/GPa) = 0.05936635
#
# Stress axis : x y z
#
# Youngs Moduli (GPa) = 40.31014 93.67210 44.28379
#
# Poissons Ratio (x) = 0.50802 -0.25576
# Poissons Ratio (y) = 0.21862 -0.01322
# Poissons Ratio (z) = -0.23281 -0.02797
#
# Static dielectric constant tensor:
#      x y z
#    x 1.764780 0.000000 -0.017200 
#    y 0.000000 1.779400 0.000000 
#    z -0.017200 0.000000 1.814260 
# 
# From -- ./inp_files/74962.got.cif
#   From: 2010.05.17/outbox.cif.g08.bks.cpg/sg12_38_cif.got.tgz:74962.got - 2010.06.03 13:09:07.
