data_PCOD9181833
_publ_section_title
;
Structure prediction by ZEFSAII (Michael W. Deem and Ramdas Pophale) SiO2 
 PCOD9181833
Probable space group: C 2/M
;
_chemical_formula_sum "Si O2"
_cell_formula_units_Z 56
_cell_length_a 16.971086
_cell_length_b 7.879550
_cell_length_c 25.145193
_cell_angle_alpha 90.000000
_cell_angle_beta 136.376117
_cell_angle_gamma 90.000000
_cell_volume 2319.880450
_symmetry_space_group_name_H-M "C 2/M"
_symmetry_group_IT_number 12
_symmetry_cell_setting 'monoclinic'
loop_
_space_group_symop_operation_xyz
x,y,z
-x,y,-z
-x,-y,-z
x,-y,z
1/2+x,1/2+y,z
1/2-x,1/2+y,-z
1/2-x,1/2-y,-z
1/2+x,1/2-y,z
loop_
_atom_site_type_symbol
_atom_site_label
_atom_site_fract_x
_atom_site_fract_y
_atom_site_fract_z
Si Si1 0.400209 0.794806 0.745258
Si Si2 0.793199 0.296079 0.962882
Si Si3 0.974816 0.197979 0.664980
Si Si4 0.463330 0.207174 0.889273
Si Si5 0.400935 0.812871 0.521537
Si Si6 0.718551 0.291972 0.814525
Si Si7 0.353171 0.693634 0.388131
O O1 0.435176 0.721334 0.705954
O O2 0.472721 0.742043 0.831940
O O3 0.268505 0.748292 0.692216
O O4 0.403904 0.000000 0.742871
O O5 0.794505 0.500000 0.959828
O O6 0.719566 0.235795 0.876762
O O7 0.750000 0.250000 0.000000
O O8 0.925102 0.237093 0.024293
O O9 0.894110 0.276707 0.580610
O O10 0.105163 0.266402 0.728819
O O11 0.977609 0.000000 0.653566
O O12 0.340508 0.261465 0.850916
O O13 0.462005 0.000000 0.890165
O O14 0.347378 0.696533 0.449763
O O15 0.536974 0.798416 0.575801
O O16 0.357040 0.000000 0.488761
O O17 0.714958 0.500000 0.810977
O O18 0.372851 0.500000 0.380307
#
# Coordination Sequence:
#
# PCOD9181833 Si02
#       7
#     8   8   8   8   8   8   8
#     4  10  21  36  55  80 110 143 180 224 272 325
#     4  10  19  32  54  81 110 142 176 219 268 319
#     4  11  22  36  55  78 109 146 183 226 274 324
#     4   9  17  32  55  80 106 139 181 224 266 316
#     4  11  22  37  58  83 111 141 180 227 272 324
#     4   9  18  33  54  80 106 139 185 227 264 316
#     4  10  20  37  60  83 110 144 181 221 270 326
#
# _framework density 24.139174000000001
#
# number of rings (size 3 to 8) (size 9 to 14) (size 15 to 20)
#    0.000    2.000    0.000    5.143    0.000    5.714 
#    0.000    0.714    0.000    4.286    0.000    0.000 
#    0.000    0.000    0.000    0.000    0.000    0.000 
#
# Total GULP energy -156570.689865 kJ/mol
# GULP energy per Si atom -5591.810352 kJ/mol
# Density = 2.408423 g / cm^3
# Si number density = 24.139174 Si / 1000 Ang^3
#
#
#
# Elastic Constant Matrix: (Units=GPa)
#
#
# Indices 1 2 3 4 5 6 
#
# 1 55.3385 -5.1912 -3.4290 0.0000 -14.3160 0.0000
# 2 -5.1912 29.6082 -0.1425 0.0000 1.6182 0.0000
# 3 -3.4290 -0.1425 105.0383 0.0000 -12.7781 0.0000
# 4 0.0000 0.0000 0.0000 -15.7785 0.0000 -2.1347
# 5 -14.3160 1.6182 -12.7781 0.0000 42.0245 0.0000
# 6 0.0000 0.0000 0.0000 -2.1347 0.0000 16.8873
#
#
#
# Elastic Compliance Matrix: (Units=1/GPa)
#
#
# Indices 1 2 3 4 5 6 
#
# 1 0.020349 0.003177 0.001555 0.000000 0.007282 0.000000
# 2 0.003177 0.034343 0.000126 0.000000 -0.000202 0.000000
# 3 0.001555 0.000126 0.010005 0.000000 0.003567 0.000000
# 4 0.000000 0.000000 0.000000 -0.062312 0.000000 -0.007877
# 5 0.007282 -0.000202 0.003567 0.000000 0.027369 0.000000
# 6 0.000000 0.000000 0.000000 -0.007877 0.000000 0.058220
#
#
# Mechanical properties :
#
#
# Convention : Reuss Voigt Hill
#
# Bulk Modulus (GPa) = 13.43867 19.16219 16.30043
# Shear Modulus (GPa) = 48.51374 21.87651 35.19513
#
# Velocity S-wave (km/s) = 4.48789 3.01369 3.82253
# Velocity P-wave (km/s) = 5.69509 4.47942 5.12344
#
# Compressibility (1/GPa) = 0.07441215
#
# Stress axis : x y z
#
# Youngs Moduli (GPa) = 49.14274 29.11793 99.94827
#
# Poissons Ratio (x) = -0.09251 -0.15537
# Poissons Ratio (y) = -0.15614 -0.01257
# Poissons Ratio (z) = -0.07639 -0.00366
#
# Static dielectric constant tensor:
#      x y z
#    x 1.962350 0.000000 -0.015400 
#    y 0.000000 1.876890 0.000000 
#    z -0.015400 0.000000 1.897540 
# 
# From -- ./inp_files/342558.got.cif
#   From: 2010.05.17/outbox.cif.g08.bks.cpg/sg12_172_cif.got.tgz:342558.got - 2010.06.03 13:09:07.
