data_PCOD9181262
_publ_section_title
;
Structure prediction by ZEFSAII (Michael W. Deem and Ramdas Pophale) SiO2 
 PCOD9181262
Probable space group: C 2/M
;
_chemical_formula_sum "Si O2"
_cell_formula_units_Z 64
_cell_length_a 23.940253
_cell_length_b 7.759335
_cell_length_c 24.840095
_cell_angle_alpha 90.000000
_cell_angle_beta 42.533007
_cell_angle_gamma 90.000000
_cell_volume 3119.339982
_symmetry_space_group_name_H-M "C 2/M"
_symmetry_group_IT_number 12
_symmetry_cell_setting 'monoclinic'
loop_
_space_group_symop_operation_xyz
x,y,z
-x,y,-z
-x,-y,-z
x,-y,z
1/2+x,1/2+y,z
1/2-x,1/2+y,-z
1/2-x,1/2-y,-z
1/2+x,1/2-y,z
loop_
_atom_site_type_symbol
_atom_site_label
_atom_site_fract_x
_atom_site_fract_y
_atom_site_fract_z
Si Si1 0.016976 0.294816 0.424429
Si Si2 0.785600 0.198394 0.331681
Si Si3 0.247582 0.701513 0.865622
Si Si4 0.349518 0.300715 0.489351
Si Si5 0.098755 0.208041 0.660835
Si Si6 0.334139 0.793204 0.972139
Si Si7 0.202387 0.701929 0.285116
Si Si8 0.087215 0.294038 0.188603
O O1 0.013148 0.500000 0.414782
O O2 0.943414 0.208515 0.444001
O O3 0.000000 0.273516 0.500000
O O4 0.109071 0.227557 0.346830
O O5 0.708647 0.202547 0.427679
O O6 0.860425 0.275807 0.313186
O O7 0.753981 0.277965 0.298296
O O8 0.808781 0.000000 0.303653
O O9 0.230975 0.500000 0.869381
O O10 0.252407 0.784687 0.803827
O O11 0.337770 0.719572 0.829534
O O12 0.181887 0.773069 0.956104
O O13 0.322866 0.500000 0.508161
O O14 0.352476 0.229878 0.426603
O O15 0.002670 0.251467 0.725816
O O16 0.106352 0.000000 0.654922
O O17 0.403144 0.733520 0.880643
O O18 0.341178 0.000000 0.971816
O O19 0.250000 0.750000 0.000000
O O20 0.189840 0.500000 0.307498
O O21 0.098407 0.500000 0.181763
#
# Coordination Sequence:
#
# PCOD9181262 Si02
#       8
#     8   8   8   8   8   8   8   8
#     4  10  19  34  52  70  96 134 171 202 249 304
#     4  10  21  39  56  69  96 138 178 213 253 302
#     4  10  19  32  52  79 110 136 162 203 255 305
#     4  11  22  34  51  77 103 128 167 216 262 303
#     4  10  22  37  53  75 102 133 170 215 261 299
#     4   8  16  30  49  75 105 135 163 197 246 301
#     4  10  20  34  53  75  99 133 176 213 248 300
#     4  10  19  33  54  79 106 135 169 205 245 302
#
# _framework density 20.517161999999999
#
# number of rings (size 3 to 8) (size 9 to 14) (size 15 to 20)
#    0.000    2.125    1.250    2.250    0.000    5.750 
#    0.000    0.000    0.000    0.750    0.000    5.250 
#    0.000    0.000    0.000    0.000    0.000    0.000 
#
# Total GULP energy -178552.207266 kJ/mol
# GULP energy per Si atom -5579.756477 kJ/mol
# Density = 2.047046 g / cm^3
# Si number density = 20.517162 Si / 1000 Ang^3
#
#
#
# Elastic Constant Matrix: (Units=GPa)
#
#
# Indices 1 2 3 4 5 6 
#
# 1 49.9746 -3.9400 3.5755 -0.0016 9.5142 0.0011
# 2 -3.9400 33.9028 -8.2697 0.0021 0.1269 0.0088
# 3 3.5755 -8.2697 83.9269 0.0006 20.1705 -0.0023
# 4 -0.0016 0.0021 0.0006 14.1932 -0.0015 8.7918
# 5 9.5142 0.1269 20.1705 -0.0015 17.7002 -0.0014
# 6 0.0011 0.0088 -0.0023 8.7918 -0.0014 1.2640
#
#
#
# Elastic Compliance Matrix: (Units=1/GPa)
#
#
# Indices 1 2 3 4 5 6 
#
# 1 0.023134 0.003541 0.003247 -0.000011 -0.016161 0.000017
# 2 0.003541 0.031086 0.004714 -0.000040 -0.007498 0.000056
# 3 0.003247 0.004714 0.017447 -0.000004 -0.021662 0.000001
# 4 -0.000011 -0.000040 -0.000004 -0.021295 0.000021 0.148120
# 5 -0.016161 -0.007498 -0.021662 0.000021 0.089922 -0.000018
# 6 0.000017 0.000056 0.000001 0.148120 -0.000018 -0.239119
#
#
# Mechanical properties :
#
#
# Convention : Reuss Voigt Hill
#
# Bulk Modulus (GPa) = 10.56276 16.72620 13.64448
# Shear Modulus (GPa) = -55.38742 18.39404 -18.49669
#
# Velocity S-wave (km/s) = -5.20137 2.99744 -3.00579
# Velocity P-wave (km/s) = 5.55994 4.48882 2.31985
#
# Compressibility (1/GPa) = 0.09467219
#
# Stress axis : x y z
#
# Youngs Moduli (GPa) = 43.22694 32.16919 57.31529
#
# Poissons Ratio (x) = -0.11391 -0.18612
# Poissons Ratio (y) = -0.15307 -0.27020
# Poissons Ratio (z) = -0.14037 -0.15166
#
# Static dielectric constant tensor:
#      x y z
#    x 1.736590 0.000020 0.027130 
#    y 0.000020 1.487260 -0.000020 
#    z 0.027130 -0.000020 1.746540 
# 
# From -- ./inp_files/348555.got.cif
#   From: 2010.05.17/outbox.cif.g08.bks.cpg/sg12_175_cif.got.tgz:348555.got - 2010.06.03 13:09:07.
