data_PCOD9181506
_publ_section_title
;
Structure prediction by ZEFSAII (Michael W. Deem and Ramdas Pophale) SiO2 
 PCOD9181506
Probable space group: C 2/M
;
_chemical_formula_sum "Si O2"
_cell_formula_units_Z 56
_cell_length_a 19.729455
_cell_length_b 8.760991
_cell_length_c 30.905189
_cell_angle_alpha 90.000000
_cell_angle_beta 142.867571
_cell_angle_gamma 90.000000
_cell_volume 3224.717209
_symmetry_space_group_name_H-M "C 2/M"
_symmetry_group_IT_number 12
_symmetry_cell_setting 'monoclinic'
loop_
_space_group_symop_operation_xyz
x,y,z
-x,y,-z
-x,-y,-z
x,-y,z
1/2+x,1/2+y,z
1/2-x,1/2+y,-z
1/2-x,1/2-y,-z
1/2+x,1/2-y,z
loop_
_atom_site_type_symbol
_atom_site_label
_atom_site_fract_x
_atom_site_fract_y
_atom_site_fract_z
Si Si1 0.873648 0.183090 0.059204
Si Si2 0.524689 0.316394 0.657777
Si Si3 0.925570 0.817004 0.777167
Si Si4 0.726943 0.317155 0.218076
Si Si5 0.871155 0.316997 0.656555
Si Si6 0.470876 0.183015 0.935991
Si Si7 0.826264 0.183398 0.500496
O O1 0.953650 0.223574 0.140647
O O2 0.936882 0.248009 0.049430
O O3 0.870053 0.000000 0.054743
O O4 0.750000 0.250000 0.000000
O O5 0.531615 0.500000 0.663176
O O6 0.647816 0.246080 0.719822
O O7 0.454432 0.257303 0.663518
O O8 0.452179 0.271019 0.577996
O O9 0.834241 0.777541 0.767639
O O10 0.900965 0.737671 0.719464
O O11 0.922869 0.000000 0.769809
O O12 0.726602 0.500000 0.214057
O O13 0.648473 0.247266 0.140759
O O14 0.881339 0.500000 0.658712
O O15 0.742740 0.273400 0.577596
O O16 0.470523 0.000000 0.931970
O O17 0.500000 0.223942 0.000000
O O18 0.750000 0.250000 0.500000
O O19 0.824265 0.000000 0.501647
#
# Coordination Sequence:
#
# PCOD9181506 Si02
#       7
#     8   8   8   8   8   8   8
#     4  10  21  37  57  79 105 137 174 215 256 304
#     4  10  19  33  54  77 104 137 172 213 259 305
#     4   9  20  37  53  73 104 138 170 209 258 306
#     4  10  21  37  55  76 105 138 173 213 255 304
#     4  10  19  32  53  79 104 133 173 216 256 304
#     4  10  21  37  57  80 106 136 170 210 258 310
#     4   8  16  30  48  73 102 132 168 211 257 301
#
# _framework density 17.365863000000001
#
# number of rings (size 3 to 8) (size 9 to 14) (size 15 to 20)
#    0.000    2.429    0.000    3.000    0.000    6.857 
#    0.000    2.143    0.000    4.286    0.000    0.000 
#    0.000    0.000    0.000    0.000    0.000    0.000 
#
# Total GULP energy -156103.564938 kJ/mol
# GULP energy per Si atom -5575.127319 kJ/mol
# Density = 1.732634 g / cm^3
# Si number density = 17.365863 Si / 1000 Ang^3
#
#
#
# Elastic Constant Matrix: (Units=GPa)
#
#
# Indices 1 2 3 4 5 6 
#
# 1 66.7337 37.0871 100.6318 0.0000 3.2983 0.0001
# 2 37.0871 49.2664 65.3269 0.0000 -2.0720 0.0002
# 3 100.6318 65.3269 208.2381 0.0000 4.9905 0.0000
# 4 0.0000 0.0000 0.0000 25.2448 0.0000 0.4540
# 5 3.2983 -2.0720 4.9905 0.0000 34.3183 0.0000
# 6 0.0001 0.0002 0.0000 0.4540 0.0000 30.8142
#
#
#
# Elastic Compliance Matrix: (Units=1/GPa)
#
#
# Indices 1 2 3 4 5 6 
#
# 1 0.058926 -0.011650 -0.024755 0.000000 -0.002767 0.000000
# 2 -0.011650 0.037532 -0.006247 0.000000 0.004294 0.000000
# 3 -0.024755 -0.006247 0.018742 0.000000 -0.000723 0.000000
# 4 0.000000 0.000000 0.000000 0.039623 0.000000 -0.000584
# 5 -0.002767 0.004294 -0.000723 0.000000 0.029769 0.000000
# 6 0.000000 0.000000 0.000000 -0.000584 0.000000 0.032461
#
#
# Mechanical properties :
#
#
# Convention : Reuss Voigt Hill
#
# Bulk Modulus (GPa) = 33.44962 81.14776 57.29869
# Shear Modulus (GPa) = 16.00905 26.15495 21.08200
#
# Velocity S-wave (km/s) = 3.03952 3.88508 3.48802
# Velocity P-wave (km/s) = 5.62333 8.18260 7.02056
#
# Compressibility (1/GPa) = 0.02989570
#
# Stress axis : x y z
#
# Youngs Moduli (GPa) = 16.97054 26.64372 53.35504
#
# Poissons Ratio (x) = 0.31040 1.32080
# Poissons Ratio (y) = 0.19770 0.33333
# Poissons Ratio (z) = 0.42011 0.16645
#
# Static dielectric constant tensor:
#      x y z
#    x 1.549860 0.000000 -0.000400 
#    y 0.000000 1.582820 0.000000 
#    z -0.000400 0.000000 1.611940 
# 
# From -- ./inp_files/342513.got.cif
#   From: 2010.05.17/outbox.cif.g08.bks.cpg/sg12_172_cif.got.tgz:342513.got - 2010.06.03 13:09:07.
