data_PCOD9181155
_publ_section_title
;
Structure prediction by ZEFSAII (Michael W. Deem and Ramdas Pophale) SiO2 
 PCOD9181155
Probable space group: C 2/M
;
_chemical_formula_sum "Si O2"
_cell_formula_units_Z 64
_cell_length_a 14.609246
_cell_length_b 8.781473
_cell_length_c 28.139345
_cell_angle_alpha 90.000000
_cell_angle_beta 73.986541
_cell_angle_gamma 90.000000
_cell_volume 3469.936503
_symmetry_space_group_name_H-M "C 2/M"
_symmetry_group_IT_number 12
_symmetry_cell_setting 'monoclinic'
loop_
_space_group_symop_operation_xyz
x,y,z
-x,y,-z
-x,-y,-z
x,-y,z
1/2+x,1/2+y,z
1/2-x,1/2+y,-z
1/2-x,1/2-y,-z
1/2+x,1/2-y,z
loop_
_atom_site_type_symbol
_atom_site_label
_atom_site_fract_x
_atom_site_fract_y
_atom_site_fract_z
Si Si1 0.011186 0.318922 0.612580
Si Si2 0.373988 0.683508 0.323854
Si Si3 0.187553 0.683258 0.408455
Si Si4 0.604078 0.325824 0.510857
Si Si5 0.028112 0.815691 0.942813
Si Si6 0.791829 0.316681 0.136379
Si Si7 0.415744 0.684368 0.866864
Si Si8 0.608972 0.684378 0.787479
O O1 0.015117 0.500000 0.615260
O O2 0.037544 0.245813 0.658887
O O3 0.086407 0.262371 0.562176
O O4 0.906985 0.275213 0.608023
O O5 0.376624 0.500000 0.324149
O O6 0.279778 0.732845 0.365995
O O7 0.373043 0.731714 0.269204
O O8 0.188932 0.500000 0.412830
O O9 0.175086 0.752842 0.462569
O O10 0.500000 0.323725 0.500000
O O11 0.629893 0.500000 0.517319
O O12 0.126871 0.745206 0.910617
O O13 0.948631 0.770580 0.915129
O O14 0.036683 0.000000 0.940119
O O15 0.000000 0.770606 0.000000
O O16 0.793918 0.500000 0.136361
O O17 0.687570 0.262515 0.134794
O O18 0.819376 0.255222 0.184516
O O19 0.412352 0.500000 0.866885
O O20 0.502529 0.728480 0.819742
O O21 0.615722 0.500000 0.789396
#
# Coordination Sequence:
#
# PCOD9181155 Si02
#       8
#     8   8   8   8   8   8   8   8
#     4  10  20  34  52  74 102 132 161 202 255 305
#     4  10  21  36  54  75  99 130 168 208 250 301
#     4   9  19  35  52  73 102 132 162 202 254 303
#     4   9  17  31  52  75  98 128 167 205 242 297
#     4   9  18  34  54  76 107 145 178 207 245 299
#     4  10  19  32  52  77 104 134 170 214 258 295
#     4   8  16  32  52  74 102 136 171 208 253 298
#     4   9  19  37  55  71  98 135 172 209 251 303
#
# _framework density 18.444140999999998
#
# number of rings (size 3 to 8) (size 9 to 14) (size 15 to 20)
#    0.000    2.750    0.000    1.875    0.000    5.250 
#    0.000    5.000    0.000    0.000    0.000    0.000 
#    0.000    0.000    0.000    0.000    0.000    0.000 
#
# Total GULP energy -178538.064352 kJ/mol
# GULP energy per Si atom -5579.314511 kJ/mol
# Density = 1.840216 g / cm^3
# Si number density = 18.444141 Si / 1000 Ang^3
#
#
#
# Elastic Constant Matrix: (Units=GPa)
#
#
# Indices 1 2 3 4 5 6 
#
# 1 120.3748 18.1396 55.6374 0.0000 15.4765 0.0000
# 2 18.1396 15.1738 21.4814 0.0000 2.9646 0.0000
# 3 55.6374 21.4814 130.5163 0.0000 14.2502 0.0000
# 4 0.0000 0.0000 0.0000 25.7688 0.0000 3.2469
# 5 15.4765 2.9646 14.2502 0.0000 12.4465 0.0000
# 6 0.0000 0.0000 0.0000 3.2469 0.0000 21.6958
#
#
#
# Elastic Compliance Matrix: (Units=1/GPa)
#
#
# Indices 1 2 3 4 5 6 
#
# 1 0.012137 -0.008837 -0.002630 0.000000 -0.009976 0.000000
# 2 -0.008837 0.092618 -0.011735 0.000000 0.002363 0.000000
# 3 -0.002630 -0.011735 0.011488 0.000000 -0.007087 0.000000
# 4 0.000000 0.000000 0.000000 0.039552 0.000000 -0.005919
# 5 -0.009976 0.002363 -0.007087 0.000000 0.100300 0.000000
# 6 0.000000 0.000000 0.000000 -0.005919 0.000000 0.046978
#
#
# Mechanical properties :
#
#
# Convention : Reuss Voigt Hill
#
# Bulk Modulus (GPa) = 14.31841 50.73129 32.52485
# Shear Modulus (GPa) = 13.41352 23.36933 18.39143
#
# Velocity S-wave (km/s) = 2.69969 3.56340 3.16118
# Velocity P-wave (km/s) = 4.18303 6.67050 5.56746
#
# Compressibility (1/GPa) = 0.06984017
#
# Stress axis : x y z
#
# Youngs Moduli (GPa) = 82.39021 10.79698 87.04421
#
# Poissons Ratio (x) = 0.09541 0.22896
# Poissons Ratio (y) = 0.72807 1.02145
# Poissons Ratio (z) = 0.21672 0.12670
#
# Static dielectric constant tensor:
#      x y z
#    x 1.654050 0.000000 0.009070 
#    y 0.000000 1.621670 0.000000 
#    z 0.009070 0.000000 1.614660 
# 
# From -- ./inp_files/359851.got.cif
#   From: 2010.05.17/outbox.cif.g08.bks.cpg/sg12_180_cif.got.tgz:359851.got - 2010.06.03 13:09:07.
