data_PCOD9181874
_publ_section_title
;
Structure prediction by ZEFSAII (Michael W. Deem and Ramdas Pophale) SiO2 
 PCOD9181874
Probable space group: C 2/M
;
_chemical_formula_sum "Si O2"
_cell_formula_units_Z 64
_cell_length_a 10.223805
_cell_length_b 19.464233
_cell_length_c 16.439319
_cell_angle_alpha 90.000000
_cell_angle_beta 61.192189
_cell_angle_gamma 90.000000
_cell_volume 2866.534963
_symmetry_space_group_name_H-M "C 2/M"
_symmetry_group_IT_number 12
_symmetry_cell_setting 'monoclinic'
loop_
_space_group_symop_operation_xyz
x,y,z
-x,y,-z
-x,-y,-z
x,-y,z
1/2+x,1/2+y,z
1/2-x,1/2+y,-z
1/2-x,1/2-y,-z
1/2+x,1/2-y,z
loop_
_atom_site_type_symbol
_atom_site_label
_atom_site_fract_x
_atom_site_fract_y
_atom_site_fract_z
Si Si1 0.385553 0.423611 0.964549
Si Si2 0.192375 0.080347 0.280119
Si Si3 0.839287 0.924701 0.405215
Si Si4 0.178840 0.073894 0.780962
Si Si5 0.717022 0.675719 0.111010
Si Si6 0.875505 0.311336 0.488745
Si Si7 0.121590 0.218429 0.834883
Si Si8 0.709886 0.203218 0.645938
O O1 0.335642 0.500000 0.002611
O O2 0.501035 0.431274 0.854216
O O3 0.255407 0.373669 0.974874
O O4 0.500000 0.398420 0.000000
O O5 0.212027 0.125186 0.191567
O O6 0.264192 0.126203 0.330323
O O7 0.017020 0.079609 0.353403
O O8 0.239988 0.000000 0.258432
O O9 0.798747 0.919377 0.321695
O O10 0.764622 0.861990 0.473135
O O11 0.792936 0.000000 0.449488
O O12 0.212030 0.146103 0.813068
O O13 0.243413 0.000000 0.788179
O O14 0.832230 0.734535 0.102836
O O15 0.554827 0.706847 0.132063
O O16 0.834792 0.246138 0.557446
O O17 0.919392 0.294123 0.383732
O O18 0.000000 0.351648 0.500000
O O19 0.177991 0.253869 0.735596
#
# Coordination Sequence:
#
# PCOD9181874 Si02
#       8
#     8   8   8   8   8   8   8   8
#     4   9  16  29  53  85 114 138 173 221 265 305
#     4  10  19  34  57  75  95 127 173 224 258 303
#     4  10  19  34  54  73  94 129 172 212 257 304
#     4   9  16  30  51  74  98 132 177 212 248 310
#     4  10  19  32  54  82 111 140 177 216 261 319
#     4  11  24  35  50  69 103 136 166 218 267 321
#     4  10  19  33  55  77 105 138 179 221 260 315
#     4  10  23  34  50  75  99 128 173 215 268 316
#
# _framework density 22.326608
#
# number of rings (size 3 to 8) (size 9 to 14) (size 15 to 20)
#    0.000    2.125    3.750    0.375    7.000    0.750 
#    0.000    3.750    0.000    5.250    0.000    0.000 
#    0.000    9.500    0.000    0.000    0.000    0.000 
#
# Total GULP energy -178135.238956 kJ/mol
# GULP energy per Si atom -5566.726217 kJ/mol
# Density = 2.227579 g / cm^3
# Si number density = 22.326608 Si / 1000 Ang^3
#
#
#
# Elastic Constant Matrix: (Units=GPa)
#
#
# Indices 1 2 3 4 5 6 
#
# 1 44.6384 33.4017 17.0550 0.0000 26.3012 0.0000
# 2 33.4017 140.5696 23.1201 0.0000 18.0920 0.0000
# 3 17.0550 23.1201 60.8592 0.0000 26.4047 0.0000
# 4 0.0000 0.0000 0.0000 17.0291 0.0000 15.4375
# 5 26.3012 18.0920 26.4047 0.0000 30.6944 0.0000
# 6 0.0000 0.0000 0.0000 15.4375 0.0000 23.5781
#
#
#
# Elastic Compliance Matrix: (Units=1/GPa)
#
#
# Indices 1 2 3 4 5 6 
#
# 1 0.054124 -0.008010 0.009491 0.000000 -0.049821 0.000000
# 2 -0.008010 0.008973 -0.002947 0.000000 0.004110 0.000000
# 3 0.009491 -0.002947 0.028186 0.000000 -0.030642 0.000000
# 4 0.000000 0.000000 0.000000 0.144478 0.000000 -0.094596
# 5 -0.049821 0.004110 -0.030642 0.000000 0.099207 0.000000
# 6 0.000000 0.000000 0.000000 -0.094596 0.000000 0.104348
#
#
# Mechanical properties :
#
#
# Convention : Reuss Voigt Hill
#
# Bulk Modulus (GPa) = 11.31850 43.69119 27.50485
# Shear Modulus (GPa) = 10.59998 25.75967 18.17983
#
# Velocity S-wave (km/s) = 2.18128 3.40040 2.85663
# Velocity P-wave (km/s) = 3.38002 5.91849 4.81939
#
# Compressibility (1/GPa) = 0.08835092
#
# Stress axis : x y z
#
# Youngs Moduli (GPa) = 18.47600 111.44620 35.47877
#
# Poissons Ratio (x) = 0.89264 -0.33672
# Poissons Ratio (y) = 0.14799 0.10457
# Poissons Ratio (z) = -0.17535 0.32846
#
# Static dielectric constant tensor:
#      x y z
#    x 1.909790 0.000000 0.020500 
#    y 0.000000 1.955170 0.000000 
#    z 0.020500 0.000000 1.837860 
# 
# From -- ./inp_files/263882.got.cif
#   From: 2010.05.17/outbox.cif.g08.bks.cpg/sg12_132_cif.got.tgz:263882.got - 2010.06.03 13:09:07.
