data_PCOD9181946
_publ_section_title
;
Structure prediction by ZEFSAII (Michael W. Deem and Ramdas Pophale) SiO2 
 PCOD9181946
Probable space group: C 2/M
;
_chemical_formula_sum "Si O2"
_cell_formula_units_Z 64
_cell_length_a 20.859129
_cell_length_b 8.736250
_cell_length_c 19.815311
_cell_angle_alpha 90.000000
_cell_angle_beta 90.124940
_cell_angle_gamma 90.000000
_cell_volume 3610.946748
_symmetry_space_group_name_H-M "C 2/M"
_symmetry_group_IT_number 12
_symmetry_cell_setting 'monoclinic'
loop_
_space_group_symop_operation_xyz
x,y,z
-x,y,-z
-x,-y,-z
x,-y,z
1/2+x,1/2+y,z
1/2-x,1/2+y,-z
1/2-x,1/2-y,-z
1/2+x,1/2-y,z
loop_
_atom_site_type_symbol
_atom_site_label
_atom_site_fract_x
_atom_site_fract_y
_atom_site_fract_z
Si Si1 0.311362 0.817436 0.963017
Si Si2 0.635314 0.184244 0.329272
Si Si3 0.135364 0.315692 0.176623
Si Si4 0.566913 0.317196 0.961277
Si Si5 0.812085 0.182486 0.536866
Si Si6 0.506720 0.683784 0.824143
Si Si7 0.066112 0.317575 0.540277
Si Si8 0.991803 0.816324 0.329349
O O1 0.320524 0.763968 0.885313
O O2 0.306064 0.000000 0.962362
O O3 0.250000 0.750000 0.000000
O O4 0.375220 0.768180 0.002863
O O5 0.654828 0.228380 0.252840
O O6 0.679594 0.252207 0.387584
O O7 0.563220 0.248200 0.339393
O O8 0.633595 0.000000 0.334662
O O9 0.132975 0.500000 0.175313
O O10 0.063418 0.254872 0.164982
O O11 0.579564 0.500000 0.963711
O O12 0.554498 0.269757 0.883810
O O13 0.500000 0.290361 0.000000
O O14 0.691146 0.500000 0.461354
O O15 0.750000 0.250000 0.500000
O O16 0.875088 0.236156 0.496281
O O17 0.499584 0.500000 0.828748
O O18 0.527280 0.720391 0.747876
O O19 0.076464 0.500000 0.539887
O O20 0.000000 0.286104 0.500000
O O21 0.054518 0.256130 0.615459
O O22 0.994305 0.000000 0.337143
#
# Coordination Sequence:
#
# PCOD9181946 Si02
#       8
#     8   8   8   8   8   8   8   8
#     4  11  23  38  56  82 114 151 193 236 282 335
#     4  10  19  35  57  83 113 147 187 232 284 338
#     4   9  19  34  55  81 111 146 186 232 281 334
#     4  10  19  34  57  83 113 147 184 229 283 335
#     4  12  25  41  61  86 117 151 190 234 283 340
#     4   9  18  32  53  83 115 147 185 232 284 336
#     4  11  22  37  59  85 116 150 188 232 281 333
#     4  10  19  32  54  85 116 148 190 236 284 334
#
# _framework density 17.723883000000001
#
# number of rings (size 3 to 8) (size 9 to 14) (size 15 to 20)
#    0.000    1.750    2.500    2.625    0.000    2.750 
#    0.000    1.250    0.000    3.000    0.000    0.000 
#    0.000    0.000    0.000    0.000    0.000    0.000 
#
# Total GULP energy -178664.468235 kJ/mol
# GULP energy per Si atom -5583.264632 kJ/mol
# Density = 1.768354 g / cm^3
# Si number density = 17.723883 Si / 1000 Ang^3
#
#
#
# Elastic Constant Matrix: (Units=GPa)
#
#
# Indices 1 2 3 4 5 6 
#
# 1 80.4374 40.8022 66.5520 0.0000 -0.6073 0.0000
# 2 40.8022 58.6335 48.6448 0.0000 0.9494 0.0000
# 3 66.5520 48.6448 167.8616 0.0000 -0.9508 0.0000
# 4 0.0000 0.0000 0.0000 27.4584 0.0000 0.1808
# 5 -0.6073 0.9494 -0.9508 0.0000 29.1691 0.0000
# 6 0.0000 0.0000 0.0000 0.1808 0.0000 30.2638
#
#
#
# Elastic Compliance Matrix: (Units=1/GPa)
#
#
# Indices 1 2 3 4 5 6 
#
# 1 0.022918 -0.011090 -0.005869 0.000000 0.000647 0.000000
# 2 -0.011090 0.027846 -0.003680 0.000000 -0.001257 0.000000
# 3 -0.005869 -0.003680 0.009352 0.000000 0.000302 0.000000
# 4 0.000000 0.000000 0.000000 0.036420 0.000000 -0.000218
# 5 0.000647 -0.001257 0.000302 0.000000 0.034347 0.000000
# 6 0.000000 0.000000 0.000000 -0.000218 0.000000 0.033044
#
#
# Mechanical properties :
#
#
# Convention : Reuss Voigt Hill
#
# Bulk Modulus (GPa) = 53.08150 68.77006 60.92578
# Shear Modulus (GPa) = 23.64249 27.44048 25.54148
#
# Velocity S-wave (km/s) = 3.65627 3.93901 3.80027
# Velocity P-wave (km/s) = 6.91654 7.71834 7.32841
#
# Compressibility (1/GPa) = 0.01883895
#
# Stress axis : x y z
#
# Youngs Moduli (GPa) = 43.63373 35.91239 106.92637
#
# Poissons Ratio (x) = 0.39826 0.62755
# Poissons Ratio (y) = 0.48388 0.39347
# Poissons Ratio (z) = 0.25608 0.13215
#
# Static dielectric constant tensor:
#      x y z
#    x 1.557380 0.000000 -0.003290 
#    y 0.000000 1.595330 0.000000 
#    z -0.003290 0.000000 1.642370 
# 
# From -- ./inp_files/281416.got.cif
#   From: 2010.05.17/outbox.cif.g08.bks.cpg/sg12_141_cif.got.tgz:281416.got - 2010.06.03 13:09:07.
