data_PCOD9181019
_publ_section_title
;
Structure prediction by ZEFSAII (Michael W. Deem and Ramdas Pophale) SiO2 
 PCOD9181019
Probable space group: C 2/M
;
_chemical_formula_sum "Si O2"
_cell_formula_units_Z 52
_cell_length_a 27.360501
_cell_length_b 22.499131
_cell_length_c 9.498950
_cell_angle_alpha 90.000000
_cell_angle_beta 150.251427
_cell_angle_gamma 90.000000
_cell_volume 2901.467234
_symmetry_space_group_name_H-M "C 2/M"
_symmetry_group_IT_number 12
_symmetry_cell_setting 'monoclinic'
loop_
_space_group_symop_operation_xyz
x,y,z
-x,y,-z
-x,-y,-z
x,-y,z
1/2+x,1/2+y,z
1/2-x,1/2+y,-z
1/2-x,1/2-y,-z
1/2+x,1/2-y,z
loop_
_atom_site_type_symbol
_atom_site_label
_atom_site_fract_x
_atom_site_fract_y
_atom_site_fract_z
Si Si1 0.644156 0.566707 0.921767
Si Si2 0.849797 0.773280 0.322906
Si Si3 0.151830 0.566950 0.406451
Si Si4 0.609447 0.067378 0.972869
Si Si5 0.000000 0.161613 0.500000
Si Si6 0.071112 0.648420 0.437292
Si Si7 0.249737 0.389730 0.090050
O O1 0.606113 0.500000 0.840676
O O2 0.564204 0.616685 0.754811
O O3 0.681895 0.577317 0.854854
O O4 0.738014 0.573216 0.257775
O O5 0.923889 0.797932 0.391468
O O6 0.908451 0.718309 0.538284
O O7 0.810304 0.832830 0.300947
O O8 0.750000 0.750000 0.000000
O O9 0.118173 0.500000 0.359483
O O10 0.088325 0.613366 0.335323
O O11 0.145676 0.572874 0.224306
O O12 0.530018 0.120596 0.754952
O O13 0.567268 0.000000 0.849190
O O14 0.699732 0.074455 0.090756
O O15 0.157138 0.630893 0.762188
#
# Coordination Sequence:
#
# PCOD9181019 Si02
#       7
#     8   8   8   8   4   8   8
#     4   9  17  33  56  80 105 133 175 223 266 314
#     4   9  20  34  53  76 108 141 177 215 268 313
#     4   9  19  35  52  74 108 145 174 214 272 328
#     4  11  21  32  53  81 109 141 178 223 280 324
#     4  10  19  32  58  84 101 136 182 224 262 316
#     4  10  19  32  52  74 105 140 185 220 259 318
#     4   9  19  33  50  79 107 138 172 224 268 313
#
# _framework density 17.921966000000001
#
# number of rings (size 3 to 8) (size 9 to 14) (size 15 to 20)
#    0.000    2.462    0.000    3.000    4.308    3.692 
#    0.000    0.769    3.385    2.769    0.000   14.000 
#    0.000    0.000    0.000    0.000    0.000    0.000 
#
# Total GULP energy -144751.304390 kJ/mol
# GULP energy per Si atom -5567.357861 kJ/mol
# Density = 1.788118 g / cm^3
# Si number density = 17.921966 Si / 1000 Ang^3
#
#
#
# Elastic Constant Matrix: (Units=GPa)
#
#
# Indices 1 2 3 4 5 6 
#
# 1 67.8346 27.1280 24.6738 0.0000 7.1627 0.0000
# 2 27.1280 104.5567 38.4596 0.0000 3.6851 0.0000
# 3 24.6738 38.4596 54.6121 0.0000 10.6988 0.0000
# 4 0.0000 0.0000 0.0000 33.2073 0.0000 17.4780
# 5 7.1627 3.6851 10.6988 0.0000 27.3624 0.0000
# 6 0.0000 0.0000 0.0000 17.4780 0.0000 31.4105
#
#
#
# Elastic Compliance Matrix: (Units=1/GPa)
#
#
# Indices 1 2 3 4 5 6 
#
# 1 0.018134 -0.002384 -0.006116 0.000000 -0.002035 0.000000
# 2 -0.002384 0.013320 -0.008744 0.000000 0.002249 0.000000
# 3 -0.006116 -0.008744 0.028901 0.000000 -0.008522 0.000000
# 4 0.000000 0.000000 0.000000 0.042586 0.000000 -0.023697
# 5 -0.002035 0.002249 -0.008522 0.000000 0.040108 0.000000
# 6 0.000000 0.000000 0.000000 -0.023697 0.000000 0.045022
#
#
# Mechanical properties :
#
#
# Convention : Reuss Voigt Hill
#
# Bulk Modulus (GPa) = 38.65680 45.28069 41.96874
# Shear Modulus (GPa) = 21.62802 27.51216 24.57009
#
# Velocity S-wave (km/s) = 3.47765 3.92230 3.70665
# Velocity P-wave (km/s) = 6.14343 6.77000 6.46431
#
# Compressibility (1/GPa) = 0.02586867
#
# Stress axis : x y z
#
# Youngs Moduli (GPa) = 55.14368 75.07693 34.60058
#
# Poissons Ratio (x) = 0.17897 0.21161
# Poissons Ratio (y) = 0.13145 0.30254
# Poissons Ratio (z) = 0.33725 0.65645
#
# Static dielectric constant tensor:
#      x y z
#    x 1.614690 0.000000 0.021190 
#    y 0.000000 1.664550 0.000000 
#    z 0.021190 0.000000 1.633500 
# 
# From -- ./inp_files/106867.got.cif
#   From: 2010.05.17/outbox.cif.g08.bks.cpg/sg12_54_cif.got.tgz:106867.got - 2010.06.03 13:09:07.
