data_PCOD9181495
_publ_section_title
;
Structure prediction by ZEFSAII (Michael W. Deem and Ramdas Pophale) SiO2 
 PCOD9181495
Probable space group: C 2/M
;
_chemical_formula_sum "Si O2"
_cell_formula_units_Z 64
_cell_length_a 22.809956
_cell_length_b 28.906217
_cell_length_c 12.228326
_cell_angle_alpha 90.000000
_cell_angle_beta 154.441390
_cell_angle_gamma 90.000000
_cell_volume 3478.541930
_symmetry_space_group_name_H-M "C 2/M"
_symmetry_group_IT_number 12
_symmetry_cell_setting 'monoclinic'
loop_
_space_group_symop_operation_xyz
x,y,z
-x,y,-z
-x,-y,-z
x,-y,z
1/2+x,1/2+y,z
1/2-x,1/2+y,-z
1/2-x,1/2-y,-z
1/2+x,1/2-y,z
loop_
_atom_site_type_symbol
_atom_site_label
_atom_site_fract_x
_atom_site_fract_y
_atom_site_fract_z
Si Si1 0.184577 0.365006 0.577534
Si Si2 0.351925 0.240449 0.967573
Si Si3 0.822348 0.832377 0.024119
Si Si4 0.161051 0.731261 0.447938
Si Si5 0.621301 0.857533 0.875712
Si Si6 0.120619 0.945761 0.117686
Si Si7 0.722329 0.550818 0.836067
Si Si8 0.045651 0.076043 0.741185
O O1 0.289038 0.346353 0.843968
O O2 0.169089 0.324550 0.462929
O O3 0.248827 0.412777 0.645199
O O4 0.039452 0.366092 0.393544
O O5 0.345995 0.277648 0.057117
O O6 0.231841 0.251153 0.679671
O O7 0.504114 0.246235 0.175488
O O8 0.345807 0.187706 0.997126
O O9 0.694745 0.845561 0.885084
O O10 0.942304 0.868163 0.257205
O O11 0.250000 0.750000 0.500000
O O12 0.683772 0.905180 0.024020
O O13 0.152510 0.000000 0.184457
O O14 0.070697 0.937278 0.908748
O O15 0.000000 0.933946 0.000000
O O16 0.784040 0.500000 0.926405
O O17 0.662025 0.555441 0.857704
O O18 0.594441 0.556665 0.540440
#
# Coordination Sequence:
#
# PCOD9181495 Si02
#       8
#     8   8   8   8   8   8   8   8
#     4   9  20  36  52  78 107 138 176 221 272 326
#     4  10  21  35  54  82 110 142 184 229 276 340
#     4   9  18  33  55  78 107 142 173 221 276 330
#     4  10  21  37  57  76 106 144 187 231 278 323
#     4  10  20  34  51  79 111 142 176 216 274 338
#     4  10  20  35  57  81 105 139 184 233 278 321
#     4  10  19  32  53  78 110 146 178 224 271 320
#     4   9  18  33  54  80 107 136 184 228 269 319
#
# _framework density 18.398513999999999
#
# number of rings (size 3 to 8) (size 9 to 14) (size 15 to 20)
#    0.000    2.375    0.000    2.625    1.750    3.500 
#    0.000    1.250    0.000    4.500    0.000    2.625 
#    0.000    0.000    0.000    0.000    0.000    0.000 
#
# Total GULP energy -178262.661485 kJ/mol
# GULP energy per Si atom -5570.708171 kJ/mol
# Density = 1.835664 g / cm^3
# Si number density = 18.398514 Si / 1000 Ang^3
#
#
#
# Elastic Constant Matrix: (Units=GPa)
#
#
# Indices 1 2 3 4 5 6 
#
# 1 46.1883 26.2447 1.9813 0.0000 10.1874 0.0000
# 2 26.2447 137.7904 22.2188 0.0000 13.7589 0.0000
# 3 1.9813 22.2188 30.2985 0.0000 5.2609 0.0000
# 4 0.0000 0.0000 0.0000 23.9914 0.0000 6.9161
# 5 10.1874 13.7589 5.2609 0.0000 18.3822 0.0000
# 6 0.0000 0.0000 0.0000 6.9161 0.0000 19.1107
#
#
#
# Elastic Compliance Matrix: (Units=1/GPa)
#
#
# Indices 1 2 3 4 5 6 
#
# 1 0.026790 -0.004442 0.003689 0.000000 -0.012579 0.000000
# 2 -0.004442 0.009366 -0.006091 0.000000 -0.002805 0.000000
# 3 0.003689 -0.006091 0.038718 0.000000 -0.008567 0.000000
# 4 0.000000 0.000000 0.000000 0.046536 0.000000 -0.016841
# 5 -0.012579 -0.002805 -0.008567 0.000000 0.065923 0.000000
# 6 0.000000 0.000000 0.000000 -0.016841 0.000000 0.058422
#
#
# Mechanical properties :
#
#
# Convention : Reuss Voigt Hill
#
# Bulk Modulus (GPa) = 16.34306 35.01851 25.68079
# Shear Modulus (GPa) = 17.86758 23.21901 20.54329
#
# Velocity S-wave (km/s) = 3.11970 3.55632 3.34514
# Velocity P-wave (km/s) = 4.67748 5.99482 5.37665
#
# Compressibility (1/GPa) = 0.06118804
#
# Stress axis : x y z
#
# Youngs Moduli (GPa) = 37.32682 106.77348 25.82809
#
# Poissons Ratio (x) = 0.47425 -0.09529
# Poissons Ratio (y) = 0.16579 0.15731
# Poissons Ratio (z) = -0.13771 0.65031
#
# Static dielectric constant tensor:
#      x y z
#    x 1.625630 0.000000 -0.004420 
#    y 0.000000 1.686070 0.000000 
#    z -0.004420 0.000000 1.627940 
# 
# From -- ./inp_files/170616.got.cif
#   From: 2010.05.17/outbox.cif.g08.bks.cpg/sg12_86_cif.got.tgz:170616.got - 2010.06.03 13:09:07.
