data_PCOD9181206
_publ_section_title
;
Structure prediction by ZEFSAII (Michael W. Deem and Ramdas Pophale) SiO2 
 PCOD9181206
Probable space group: C 2/M
;
_chemical_formula_sum "Si O2"
_cell_formula_units_Z 64
_cell_length_a 12.137187
_cell_length_b 24.356384
_cell_length_c 16.084645
_cell_angle_alpha 90.000000
_cell_angle_beta 34.093172
_cell_angle_gamma 90.000000
_cell_volume 2665.318937
_symmetry_space_group_name_H-M "C 2/M"
_symmetry_group_IT_number 12
_symmetry_cell_setting 'monoclinic'
loop_
_space_group_symop_operation_xyz
x,y,z
-x,y,-z
-x,-y,-z
x,-y,z
1/2+x,1/2+y,z
1/2-x,1/2+y,-z
1/2-x,1/2-y,-z
1/2+x,1/2-y,z
loop_
_atom_site_type_symbol
_atom_site_label
_atom_site_fract_x
_atom_site_fract_y
_atom_site_fract_z
Si Si1 0.468194 0.236069 0.338751
Si Si2 0.217848 0.061575 0.644449
Si Si3 0.025705 0.738313 0.114569
Si Si4 0.292210 0.560356 0.816980
Si Si5 0.035171 0.158000 0.381672
Si Si6 0.595918 0.881704 0.083704
Si Si7 0.093988 0.381740 0.619832
Si Si8 0.972441 0.858694 0.110215
O O1 0.250000 0.250000 0.500000
O O2 0.436412 0.236239 0.261002
O O3 0.593726 0.286578 0.295808
O O4 0.525242 0.174210 0.327297
O O5 0.383368 0.077297 0.472133
O O6 0.005571 0.059474 0.729994
O O7 0.183042 0.107914 0.736585
O O8 0.251679 0.000000 0.656221
O O9 0.017623 0.675313 0.091989
O O10 0.943909 0.792711 0.122783
O O11 0.250000 0.750000 0.000000
O O12 0.260559 0.500000 0.800873
O O13 0.319950 0.607954 0.731141
O O14 0.134126 0.574712 0.987236
O O15 0.819406 0.138183 0.488045
O O16 0.000000 0.170010 0.500000
O O17 0.482136 0.898613 0.240239
O O18 0.816608 0.867240 0.977399
O O19 0.000000 0.880928 0.000000
#
# Coordination Sequence:
#
# PCOD9181206 Si02
#       8
#     8   8   8   8   8   8   8   8
#     4   9  16  30  49  69  99 134 164 199 247 304
#     4   9  18  34  55  75 100 139 179 207 243 307
#     4   9  16  30  49  69  99 134 164 199 247 304
#     4   9  18  34  55  75 100 139 179 207 243 307
#     4  10  19  32  52  78 104 133 172 214 253 296
#     4   9  18  34  53  75 102 135 171 208 254 306
#     4   9  18  34  53  75 102 135 171 208 254 306
#     4  10  19  32  52  78 104 133 172 214 253 296
#
# _framework density 24.012136000000002
#
# number of rings (size 3 to 8) (size 9 to 14) (size 15 to 20)
#    0.000    2.750    0.000    3.750    0.000    1.000 
#    0.000   21.250    0.000    1.500    0.000    0.000 
#    0.000    0.000    0.000    0.000    0.000    0.000 
#
# Total GULP energy -178568.586627 kJ/mol
# GULP energy per Si atom -5580.268332 kJ/mol
# Density = 2.395748 g / cm^3
# Si number density = 24.012136 Si / 1000 Ang^3
#
#
#
# Elastic Constant Matrix: (Units=GPa)
#
#
# Indices 1 2 3 4 5 6 
#
# 1 62.2140 32.4356 3.9200 0.0015 -2.3926 -0.0014
# 2 32.4356 138.6523 53.7626 -0.0035 16.4522 0.0023
# 3 3.9200 53.7626 132.1705 -0.0166 3.2258 0.0060
# 4 0.0015 -0.0035 -0.0166 32.7077 0.0036 -1.1753
# 5 -2.3926 16.4522 3.2258 0.0036 31.8834 0.0009
# 6 -0.0014 0.0023 0.0060 -1.1753 0.0009 17.2749
#
#
#
# Elastic Compliance Matrix: (Units=1/GPa)
#
#
# Indices 1 2 3 4 5 6 
#
# 1 0.019032 -0.005562 0.001597 -0.000001 0.004137 0.000001
# 2 -0.005562 0.010752 -0.004073 0.000000 -0.005553 0.000000
# 3 0.001597 -0.004073 0.009144 0.000004 0.001296 -0.000002
# 4 -0.000001 0.000000 0.000004 0.030649 -0.000004 0.002085
# 5 0.004137 -0.005553 0.001296 -0.000004 0.034409 -0.000001
# 6 0.000001 0.000000 -0.000002 0.002085 -0.000001 0.058029
#
#
# Mechanical properties :
#
#
# Convention : Reuss Voigt Hill
#
# Bulk Modulus (GPa) = 43.76157 57.03034 50.39596
# Shear Modulus (GPa) = 26.92396 32.56777 29.74587
#
# Velocity S-wave (km/s) = 3.35216 3.68680 3.52346
# Velocity P-wave (km/s) = 5.76602 6.47499 6.13076
#
# Compressibility (1/GPa) = 0.02285110
#
# Stress axis : x y z
#
# Youngs Moduli (GPa) = 52.54305 93.00785 109.36467
#
# Poissons Ratio (x) = 0.51735 -0.17468
# Poissons Ratio (y) = 0.29227 0.44544
# Poissons Ratio (z) = -0.08392 0.37882
#
# Static dielectric constant tensor:
#      x y z
#    x 1.965940 0.000000 -0.045930 
#    y 0.000000 1.882100 0.000010 
#    z -0.045930 0.000010 1.871720 
# 
# From -- ./inp_files/218490.got.cif
#   From: 2010.05.17/outbox.cif.g08.bks.cpg/sg12_110_cif.got.tgz:218490.got - 2010.06.03 13:09:07.
