data_PCOD9181692
_publ_section_title
;
Structure prediction by ZEFSAII (Michael W. Deem and Ramdas Pophale) SiO2 
 PCOD9181692
Probable space group: C 2/M
;
_chemical_formula_sum "Si O2"
_cell_formula_units_Z 56
_cell_length_a 23.117397
_cell_length_b 7.986942
_cell_length_c 18.096449
_cell_angle_alpha 90.000000
_cell_angle_beta 128.890098
_cell_angle_gamma 90.000000
_cell_volume 2600.690569
_symmetry_space_group_name_H-M "C 2/M"
_symmetry_group_IT_number 12
_symmetry_cell_setting 'monoclinic'
loop_
_space_group_symop_operation_xyz
x,y,z
-x,y,-z
-x,-y,-z
x,-y,z
1/2+x,1/2+y,z
1/2-x,1/2+y,-z
1/2-x,1/2-y,-z
1/2+x,1/2-y,z
loop_
_atom_site_type_symbol
_atom_site_label
_atom_site_fract_x
_atom_site_fract_y
_atom_site_fract_z
Si Si1 0.418703 0.703808 0.411081
Si Si2 0.408867 0.295615 0.650229
Si Si3 0.167410 0.693362 0.960340
Si Si4 0.299975 0.297784 0.439738
Si Si5 0.915638 0.201420 0.954775
Si Si6 0.854360 0.801958 0.754276
Si Si7 0.426563 0.702598 0.255814
O O1 0.500000 0.763595 0.500000
O O2 0.422365 0.500000 0.411764
O O3 0.360615 0.747217 0.426815
O O4 0.396086 0.757992 0.310867
O O5 0.405431 0.500000 0.647194
O O6 0.336910 0.238134 0.546191
O O7 0.409923 0.235968 0.735662
O O8 0.486340 0.251519 0.674887
O O9 0.175868 0.500000 0.982596
O O10 0.115014 0.725890 0.847837
O O11 0.250000 0.750000 0.000000
O O12 0.124583 0.760401 0.999383
O O13 0.292457 0.500000 0.437228
O O14 0.224259 0.224947 0.347832
O O15 0.865404 0.264572 0.845396
O O16 0.919892 0.000000 0.957992
O O17 0.000000 0.259116 0.000000
O O18 0.867548 0.000000 0.770743
O O19 0.421813 0.500000 0.246879
#
# Coordination Sequence:
#
# PCOD9181692 Si02
#       7
#     8   8   8   8   8   8   8
#     4   9  16  30  55  87 115 147 193 239 283 346
#     4   9  17  33  58  85 116 157 200 235 279 353
#     4  12  27  45  65  92 126 162 208 263 320 376
#     4  10  19  32  53  84 119 154 194 236 283 347
#     4  10  22  44  70  93 122 163 212 261 315 378
#     4  10  21  35  55  84 116 153 194 241 297 353
#     4  10  19  36  63  88 115 153 199 248 299 355
#
# _framework density 21.532741999999999
#
# number of rings (size 3 to 8) (size 9 to 14) (size 15 to 20)
#    0.000    2.000    1.429    2.571    2.000    3.143 
#    0.000    2.857    0.000    0.857    0.000    0.000 
#    0.000    0.000    0.000    0.000    0.000    0.000 
#
# Total GULP energy -156146.916345 kJ/mol
# GULP energy per Si atom -5576.675584 kJ/mol
# Density = 2.148373 g / cm^3
# Si number density = 21.532742 Si / 1000 Ang^3
#
#
#
# Elastic Constant Matrix: (Units=GPa)
#
#
# Indices 1 2 3 4 5 6 
#
# 1 113.9279 18.6269 61.3981 0.0000 -24.9843 0.0000
# 2 18.6269 25.8486 5.2766 0.0000 -3.1400 0.0000
# 3 61.3981 5.2766 138.6672 0.0000 -29.8883 0.0000
# 4 0.0000 0.0000 0.0000 20.2578 0.0000 4.1852
# 5 -24.9843 -3.1400 -29.8883 0.0000 42.5425 0.0000
# 6 0.0000 0.0000 0.0000 4.1852 0.0000 7.0061
#
#
#
# Elastic Compliance Matrix: (Units=1/GPa)
#
#
# Indices 1 2 3 4 5 6 
#
# 1 0.013635 -0.008350 -0.004863 0.000000 0.003975 0.000000
# 2 -0.008350 0.044273 0.001956 0.000000 -0.000262 0.000000
# 3 -0.004863 0.001956 0.010259 0.000000 0.004496 0.000000
# 4 0.000000 0.000000 0.000000 0.056314 0.000000 -0.033640
# 5 0.003975 -0.000262 0.004496 0.000000 0.028980 0.000000
# 6 0.000000 0.000000 0.000000 -0.033640 0.000000 0.162828
#
#
# Mechanical properties :
#
#
# Convention : Reuss Voigt Hill
#
# Bulk Modulus (GPa) = 21.90402 49.89410 35.89906
# Shear Modulus (GPa) = 14.12348 26.83740 20.48044
#
# Velocity S-wave (km/s) = 2.56385 3.53420 3.08739
# Velocity P-wave (km/s) = 4.35418 6.31472 5.42377
#
# Compressibility (1/GPa) = 0.04565372
#
# Stress axis : x y z
#
# Youngs Moduli (GPa) = 73.34047 22.58715 97.47272
#
# Poissons Ratio (x) = 0.18861 0.47398
# Poissons Ratio (y) = 0.61240 -0.19066
# Poissons Ratio (z) = 0.35663 -0.04418
#
# Static dielectric constant tensor:
#      x y z
#    x 1.857650 0.000000 -0.019920 
#    y 0.000000 1.776760 0.000000 
#    z -0.019920 0.000000 1.786540 
# 
# From -- ./inp_files/288419.got.cif
#   From: 2010.05.17/outbox.cif.g08.bks.cpg/sg12_145_cif.got.tgz:288419.got - 2010.06.03 13:09:07.
