data_PCOD9181945
_publ_section_title
;
Structure prediction by ZEFSAII (Michael W. Deem and Ramdas Pophale) SiO2 
 PCOD9181945
Probable space group: C 2/M
;
_chemical_formula_sum "Si O2"
_cell_formula_units_Z 48
_cell_length_a 9.616928
_cell_length_b 24.191358
_cell_length_c 8.087187
_cell_angle_alpha 90.000000
_cell_angle_beta 98.711592
_cell_angle_gamma 90.000000
_cell_volume 1859.750276
_symmetry_space_group_name_H-M "C 2/M"
_symmetry_group_IT_number 12
_symmetry_cell_setting 'monoclinic'
loop_
_space_group_symop_operation_xyz
x,y,z
-x,y,-z
-x,-y,-z
x,-y,z
1/2+x,1/2+y,z
1/2-x,1/2+y,-z
1/2-x,1/2-y,-z
1/2+x,1/2-y,z
loop_
_atom_site_type_symbol
_atom_site_label
_atom_site_fract_x
_atom_site_fract_y
_atom_site_fract_z
Si Si1 0.444287 0.560651 0.701318
Si Si2 0.715075 0.060924 0.258638
Si Si3 0.291873 0.655567 0.476407
Si Si4 0.248844 0.891902 0.067243
Si Si5 0.352271 0.286957 0.134781
Si Si6 0.091936 0.311355 0.679908
O O1 0.401549 0.500000 0.625246
O O2 0.613038 0.560203 0.734762
O O3 0.397964 0.614788 0.591925
O O4 0.356751 0.568352 0.853625
O O5 0.685056 0.108166 0.387014
O O6 0.666085 0.000000 0.294247
O O7 0.672066 0.079376 0.069197
O O8 0.325401 0.688201 0.314551
O O9 0.242194 0.696439 0.612172
O O10 0.367095 0.864605 0.205675
O O11 0.151014 0.842457 0.974860
O O12 0.459135 0.237821 0.209007
O O13 0.250000 0.250000 0.000000
O O14 0.000000 0.314780 0.500000
#
# Coordination Sequence:
#
# PCOD9181945 Si02
#       6
#     8   8   8   8   8   8
#     4  10  19  32  54  85 116 143 170 208 270 336
#     4  10  19  33  55  82 112 144 173 212 274 333
#     4  10  20  34  54  80 110 139 178 223 263 317
#     4   9  19  34  54  81 111 139 175 218 262 321
#     4   9  19  37  54  75 104 137 178 224 267 309
#     4  10  21  38  57  74 101 144 186 225 268 311
#
# _framework density 25.809916000000001
#
# number of rings (size 3 to 8) (size 9 to 14) (size 15 to 20)
#    0.000    2.333    0.000    2.500    0.000    5.333 
#    0.000   12.500    0.000   19.000    0.000    0.000 
#    0.000    0.000    0.000    0.000    0.000    0.000 
#
# Total GULP energy -133633.774693 kJ/mol
# GULP energy per Si atom -5568.073946 kJ/mol
# Density = 2.575117 g / cm^3
# Si number density = 25.809916 Si / 1000 Ang^3
#
#
#
# Elastic Constant Matrix: (Units=GPa)
#
#
# Indices 1 2 3 4 5 6 
#
# 1 38.5449 20.2947 15.5561 0.0000 7.7537 0.0000
# 2 20.2947 142.8075 25.5391 0.0000 3.0106 0.0000
# 3 15.5561 25.5391 131.7780 0.0000 16.2515 0.0000
# 4 0.0000 0.0000 0.0000 -25.2480 0.0000 27.8686
# 5 7.7537 3.0106 16.2515 0.0000 32.6103 0.0000
# 6 0.0000 0.0000 0.0000 27.8686 0.0000 -6.6475
#
#
#
# Elastic Compliance Matrix: (Units=1/GPa)
#
#
# Indices 1 2 3 4 5 6 
#
# 1 0.029919 -0.003756 -0.002098 0.000000 -0.005721 0.000000
# 2 -0.003756 0.007725 -0.001146 0.000000 0.000751 0.000000
# 3 -0.002098 -0.001146 0.008507 0.000000 -0.003635 0.000000
# 4 0.000000 0.000000 0.000000 0.010918 0.000000 0.045774
# 5 -0.005721 0.000751 -0.003635 0.000000 0.033767 0.000000
# 6 0.000000 0.000000 0.000000 0.045774 0.000000 0.041470
#
#
# Mechanical properties :
#
#
# Convention : Reuss Voigt Hill
#
# Bulk Modulus (GPa) = 31.10468 48.43447 39.76957
# Shear Modulus (GPa) = 31.84200 16.92567 24.38383
#
# Velocity S-wave (km/s) = 3.51623 2.56360 3.07701
# Velocity P-wave (km/s) = 5.34442 5.25065 5.29774
#
# Compressibility (1/GPa) = 0.03214950
#
# Stress axis : x y z
#
# Youngs Moduli (GPa) = 33.42343 129.44316 117.55501
#
# Poissons Ratio (x) = 0.48619 0.24668
# Poissons Ratio (y) = 0.12554 0.13477
# Poissons Ratio (z) = 0.07014 0.14840
#
# Static dielectric constant tensor:
#      x y z
#    x 2.294750 0.000000 0.028000 
#    y 0.000000 2.055170 0.000000 
#    z 0.028000 0.000000 2.084420 
# 
# From -- ./inp_files/51426.got.cif
#   From: 2010.05.17/outbox.cif.g08.bks.cpg/sg12_26_cif.got.tgz:51426.got - 2010.06.03 13:09:07.
