data_PCOD9181931
_publ_section_title
;
Structure prediction by ZEFSAII (Michael W. Deem and Ramdas Pophale) SiO2 
 PCOD9181931
Probable space group: C 2/M
;
_chemical_formula_sum "Si O2"
_cell_formula_units_Z 64
_cell_length_a 22.485179
_cell_length_b 16.353701
_cell_length_c 13.225562
_cell_angle_alpha 90.000000
_cell_angle_beta 145.382400
_cell_angle_gamma 90.000000
_cell_volume 2762.795268
_symmetry_space_group_name_H-M "C 2/M"
_symmetry_group_IT_number 12
_symmetry_cell_setting 'monoclinic'
loop_
_space_group_symop_operation_xyz
x,y,z
-x,y,-z
-x,-y,-z
x,-y,z
1/2+x,1/2+y,z
1/2-x,1/2+y,-z
1/2-x,1/2-y,-z
1/2+x,1/2-y,z
loop_
_atom_site_type_symbol
_atom_site_label
_atom_site_fract_x
_atom_site_fract_y
_atom_site_fract_z
Si Si1 0.320538 0.901939 0.362895
Si Si2 0.243618 0.099788 0.035001
Si Si3 0.016930 0.867573 0.917195
Si Si4 0.977667 0.091666 0.301161
Si Si5 0.575554 0.187609 0.011026
Si Si6 0.717101 0.405209 0.641991
Si Si7 0.963935 0.401982 0.243183
Si Si8 0.778452 0.841075 0.567074
O O1 0.268727 0.874029 0.185523
O O2 0.444287 0.884594 0.547849
O O3 0.268495 0.869912 0.392954
O O4 0.308062 0.000000 0.345923
O O5 0.348752 0.119167 0.121567
O O6 0.235306 0.000000 0.023106
O O7 0.135178 0.131908 0.832793
O O8 0.036454 0.913765 0.840915
O O9 0.901646 0.834118 0.743484
O O10 0.085121 0.785591 0.020161
O O11 0.000000 0.912951 0.000000
O O12 0.095506 0.124580 0.486409
O O13 0.979100 0.000000 0.345977
O O14 0.690259 0.147180 0.179513
O O15 0.500000 0.167953 0.000000
O O16 0.519598 0.150692 0.834157
O O17 0.722383 0.500000 0.682189
O O18 0.742241 0.399989 0.556988
O O19 0.967739 0.500000 0.227363
O O20 0.750000 0.750000 0.500000
#
# Coordination Sequence:
#
# PCOD9181931 Si02
#       8
#     8   8   8   8   8   8   8   8
#     4  10  19  32  54  84 116 150 189 237 294 350
#     4   9  18  34  55  79 109 146 189 240 293 342
#     4  10  20  33  51  78 110 144 182 226 281 342
#     4   9  19  36  57  81 112 149 190 236 284 337
#     4  11  22  37  55  80 115 153 190 233 288 344
#     4  10  21  36  55  81 113 152 196 236 275 333
#     4  10  20  34  54  81 112 148 193 239 284 341
#     4  11  20  32  52  79 113 149 185 230 284 342
#
# _framework density 23.164944999999999
#
# number of rings (size 3 to 8) (size 9 to 14) (size 15 to 20)
#    0.000    2.000    0.000    4.875    0.000    4.250 
#    0.000    1.250    0.000    3.000    0.000    0.000 
#    0.000    0.000    0.000    0.000    0.000    0.250 
#
# Total GULP energy -178537.476569 kJ/mol
# GULP energy per Si atom -5579.296143 kJ/mol
# Density = 2.311222 g / cm^3
# Si number density = 23.164945 Si / 1000 Ang^3
#
#
#
# Elastic Constant Matrix: (Units=GPa)
#
#
# Indices 1 2 3 4 5 6 
#
# 1 65.9320 10.0727 18.6586 0.0000 15.7062 0.0000
# 2 10.0727 56.8967 36.4648 0.0000 6.8294 0.0000
# 3 18.6586 36.4648 122.2289 0.0000 22.0699 0.0000
# 4 0.0000 0.0000 0.0000 38.0474 0.0000 26.5630
# 5 15.7062 6.8294 22.0699 0.0000 41.9288 0.0000
# 6 0.0000 0.0000 0.0000 26.5630 0.0000 6.8908
#
#
#
# Elastic Compliance Matrix: (Units=1/GPa)
#
#
# Indices 1 2 3 4 5 6 
#
# 1 0.017051 -0.001640 -0.001114 0.000000 -0.005533 0.000000
# 2 -0.001640 0.021889 -0.006351 0.000000 0.000392 0.000000
# 3 -0.001114 -0.006351 0.011032 0.000000 -0.004355 0.000000
# 4 0.000000 0.000000 0.000000 -0.015540 0.000000 0.059905
# 5 -0.005533 0.000392 -0.004355 0.000000 0.028151 0.000000
# 6 0.000000 0.000000 0.000000 0.059905 0.000000 -0.085805
#
#
# Mechanical properties :
#
#
# Convention : Reuss Voigt Hill
#
# Bulk Modulus (GPa) = 31.48383 41.71665 36.60024
# Shear Modulus (GPa) = 896.48985 29.36415 462.92700
#
# Velocity S-wave (km/s) = 19.69373 3.56422 14.15179
# Velocity P-wave (km/s) = 23.03789 5.91488 16.81860
#
# Compressibility (1/GPa) = 0.03176233
#
# Stress axis : x y z
#
# Youngs Moduli (GPa) = 58.64657 45.68478 90.64143
#
# Poissons Ratio (x) = 0.07493 0.10102
# Poissons Ratio (y) = 0.09619 0.57563
# Poissons Ratio (z) = 0.06536 0.29013
#
# Static dielectric constant tensor:
#      x y z
#    x 1.918570 0.000000 -0.010210 
#    y 0.000000 1.727500 0.000000 
#    z -0.010210 0.000000 1.928460 
# 
# From -- ./inp_files/241506.got.cif
#   From: 2010.05.17/outbox.cif.g08.bks.cpg/sg12_121_cif.got.tgz:241506.got - 2010.06.03 13:09:07.
