data_PCOD9181226
_publ_section_title
;
Structure prediction by ZEFSAII (Michael W. Deem and Ramdas Pophale) SiO2 
 PCOD9181226
Probable space group: C 2/M
;
_chemical_formula_sum "Si O2"
_cell_formula_units_Z 52
_cell_length_a 9.354644
_cell_length_b 23.290379
_cell_length_c 27.569206
_cell_angle_alpha 90.000000
_cell_angle_beta 150.938331
_cell_angle_gamma 90.000000
_cell_volume 2917.706000
_symmetry_space_group_name_H-M "C 2/M"
_symmetry_group_IT_number 12
_symmetry_cell_setting 'monoclinic'
loop_
_space_group_symop_operation_xyz
x,y,z
-x,y,-z
-x,-y,-z
x,-y,z
1/2+x,1/2+y,z
1/2-x,1/2+y,-z
1/2-x,1/2-y,-z
1/2+x,1/2-y,z
loop_
_atom_site_type_symbol
_atom_site_label
_atom_site_fract_x
_atom_site_fract_y
_atom_site_fract_z
Si Si1 0.000000 0.255531 0.000000
Si Si2 0.884089 0.268249 0.860443
Si Si3 0.182546 0.933553 0.003263
Si Si4 0.823647 0.931677 0.590143
Si Si5 0.190080 0.625091 0.209432
Si Si6 0.196139 0.930920 0.605951
Si Si7 0.694672 0.135764 0.805945
O O1 0.879178 0.284948 0.915742
O O2 0.718441 0.223001 0.939171
O O3 0.699939 0.312958 0.775146
O O4 0.786715 0.202230 0.825656
O O5 0.485373 0.902757 0.107468
O O6 0.224009 0.000000 0.001980
O O7 0.000000 0.933070 0.000000
O O8 0.988962 0.899955 0.906243
O O9 0.500000 0.906635 0.500000
O O10 0.037582 0.914260 0.696728
O O11 0.982160 0.915759 0.587224
O O12 0.802075 0.000000 0.582834
O O13 0.997939 0.632244 0.201568
O O14 0.493350 0.894255 0.704804
O O15 0.000000 0.920168 0.500000
O O16 0.263518 0.000000 0.627643
#
# Coordination Sequence:
#
# PCOD9181226 Si02
#       7
#     4   8   8   8   8   8   8
#     4  10  20  32  52  70 104 144 182 204 248 310
#     4  11  20  34  51  76 106 146 179 215 254 312
#     4   9  16  26  46  77 105 129 162 214 266 306
#     4   9  18  35  58  81 104 136 177 220 266 315
#     4  10  19  32  52  78 108 137 174 218 259 314
#     4   9  18  35  58  81 104 136 177 220 266 315
#     4  10  19  32  52  78 108 137 174 218 259 314
#
# _framework density 17.822220000000002
#
# number of rings (size 3 to 8) (size 9 to 14) (size 15 to 20)
#    0.000    2.308    1.538    2.769    2.154    3.692 
#    2.769    0.769    0.000    3.692    0.000    3.231 
#    0.000    0.000    0.000    0.000    0.000    0.000 
#
# Total GULP energy -144753.882358 kJ/mol
# GULP energy per Si atom -5567.457014 kJ/mol
# Density = 1.778166 g / cm^3
# Si number density = 17.822220 Si / 1000 Ang^3
#
#
#
# Elastic Constant Matrix: (Units=GPa)
#
#
# Indices 1 2 3 4 5 6 
#
# 1 42.5854 11.6841 31.1293 -0.0082 -5.8048 -0.0003
# 2 11.6841 43.2697 30.8909 0.0005 -3.1970 0.0002
# 3 31.1293 30.8909 131.1207 -0.0110 -9.0089 0.0089
# 4 -0.0082 0.0005 -0.0110 -14.6809 0.0011 -3.1464
# 5 -5.8048 -3.1970 -9.0089 0.0011 26.2792 0.0001
# 6 -0.0003 0.0002 0.0089 -3.1464 0.0001 20.1606
#
#
#
# Elastic Compliance Matrix: (Units=1/GPa)
#
#
# Indices 1 2 3 4 5 6 
#
# 1 0.029256 -0.003416 -0.005864 -0.000012 0.004037 0.000001
# 2 -0.003416 0.028217 -0.005789 0.000007 0.000694 0.000003
# 3 -0.005864 -0.005789 0.010492 -0.000004 0.001597 -0.000005
# 4 -0.000012 0.000007 -0.000004 -0.065911 0.000000 -0.010287
# 5 0.004037 0.000694 0.001597 0.000000 0.039577 -0.000001
# 6 0.000001 0.000003 -0.000005 -0.010287 -0.000001 0.047996
#
#
# Mechanical properties :
#
#
# Convention : Reuss Voigt Hill
#
# Bulk Modulus (GPa) = 26.43491 40.48715 33.46103
# Shear Modulus (GPa) = 37.77187 15.90320 26.83754
#
# Velocity S-wave (km/s) = 4.60866 2.99042 3.88473
# Velocity P-wave (km/s) = 6.57148 5.88982 6.23997
#
# Compressibility (1/GPa) = 0.03782876
#
# Stress axis : x y z
#
# Youngs Moduli (GPa) = 34.18129 35.43911 95.30811
#
# Poissons Ratio (x) = 0.12104 0.55885
# Poissons Ratio (y) = 0.11675 0.55176
# Poissons Ratio (z) = 0.20043 0.20517
#
# Static dielectric constant tensor:
#      x y z
#    x 1.623590 0.000000 0.004620 
#    y 0.000000 1.615120 -0.000010 
#    z 0.004620 -0.000010 1.624730 
# 
# From -- ./inp_files/357054.got.cif
#   From: 2010.05.17/outbox.cif.g08.bks.cpg/sg12_179_cif.got.tgz:357054.got - 2010.06.03 13:09:07.
