data_PCOD9181327
_publ_section_title
;
Structure prediction by ZEFSAII (Michael W. Deem and Ramdas Pophale) SiO2 
 PCOD9181327
Probable space group: C 2/M
;
_chemical_formula_sum "Si O2"
_cell_formula_units_Z 56
_cell_length_a 29.860716
_cell_length_b 8.953633
_cell_length_c 22.392912
_cell_angle_alpha 90.000000
_cell_angle_beta 149.513641
_cell_angle_gamma 90.000000
_cell_volume 3037.409683
_symmetry_space_group_name_H-M "C 2/M"
_symmetry_group_IT_number 12
_symmetry_cell_setting 'monoclinic'
loop_
_space_group_symop_operation_xyz
x,y,z
-x,y,-z
-x,-y,-z
x,-y,z
1/2+x,1/2+y,z
1/2-x,1/2+y,-z
1/2-x,1/2-y,-z
1/2+x,1/2-y,z
loop_
_atom_site_type_symbol
_atom_site_label
_atom_site_fract_x
_atom_site_fract_y
_atom_site_fract_z
Si Si1 0.917396 0.179057 0.143141
Si Si2 0.461262 0.323507 0.521996
Si Si3 0.245002 0.179035 0.718373
Si Si4 0.890411 0.677830 0.642442
Si Si5 0.783586 0.820675 0.886198
Si Si6 0.234771 0.321404 0.390787
Si Si7 0.885140 0.678492 0.229197
O O1 0.872478 0.245982 0.150610
O O2 0.016206 0.241860 0.254360
O O3 0.918185 0.000000 0.148149
O O4 0.862590 0.222833 0.021300
O O5 0.500000 0.303897 0.500000
O O6 0.466801 0.500000 0.543594
O O7 0.358852 0.279509 0.404080
O O8 0.521812 0.232091 0.636874
O O9 0.287459 0.252100 0.825106
O O10 0.285435 0.219963 0.700622
O O11 0.249096 0.000000 0.729766
O O12 0.901264 0.500000 0.648590
O O13 0.843000 0.709422 0.651567
O O14 0.821946 0.738754 0.514596
O O15 0.692027 0.776065 0.813505
O O16 0.783212 0.000000 0.880966
O O17 0.251985 0.500000 0.412133
O O18 0.883546 0.500000 0.221153
#
# Coordination Sequence:
#
# PCOD9181327 Si02
#       7
#     8   8   8   8   8   8   8
#     4  11  23  39  57  77 107 147 187 228 278 330
#     4  10  19  32  52  81 113 145 178 214 265 329
#     4  10  20  35  56  80 110 148 183 217 266 327
#     4  10  20  36  59  87 113 140 182 230 274 321
#     4  10  23  39  54  77 110 146 185 229 273 325
#     4   9  19  36  59  87 116 145 177 220 276 333
#     4  11  22  36  56  82 109 142 185 233 279 321
#
# _framework density 18.436762000000002
#
# number of rings (size 3 to 8) (size 9 to 14) (size 15 to 20)
#    0.000    1.857    1.429    2.571    0.000    4.857 
#    0.000    0.714    0.000    4.286    0.000    0.000 
#    0.000    0.000    0.000    0.000    0.000    0.000 
#
# Total GULP energy -156431.488898 kJ/mol
# GULP energy per Si atom -5586.838889 kJ/mol
# Density = 1.839480 g / cm^3
# Si number density = 18.436762 Si / 1000 Ang^3
#
#
#
# Elastic Constant Matrix: (Units=GPa)
#
#
# Indices 1 2 3 4 5 6 
#
# 1 87.5063 31.4313 40.2694 0.0000 -34.9389 0.0000
# 2 31.4313 34.7048 31.3123 0.0000 -13.2960 0.0000
# 3 40.2694 31.3123 79.6638 0.0000 -29.4047 0.0000
# 4 0.0000 0.0000 0.0000 25.4981 0.0000 -10.5141
# 5 -34.9389 -13.2960 -29.4047 0.0000 31.2239 0.0000
# 6 0.0000 0.0000 0.0000 -10.5141 0.0000 23.5102
#
#
#
# Elastic Compliance Matrix: (Units=1/GPa)
#
#
# Indices 1 2 3 4 5 6 
#
# 1 0.025843 -0.016134 0.002171 0.000000 0.024092 0.000000
# 2 -0.016134 0.055018 -0.017606 0.000000 -0.011205 0.000000
# 3 0.002171 -0.017606 0.025299 0.000000 0.018757 0.000000
# 4 0.000000 0.000000 0.000000 0.048086 0.000000 0.021505
# 5 0.024092 -0.011205 0.018757 0.000000 0.071878 0.000000
# 6 0.000000 0.000000 0.000000 0.021505 0.000000 0.052152
#
#
# Mechanical properties :
#
#
# Convention : Reuss Voigt Hill
#
# Bulk Modulus (GPa) = 23.24373 45.32233 34.28303
# Shear Modulus (GPa) = 14.05463 22.63723 18.34593
#
# Velocity S-wave (km/s) = 2.76400 3.50784 3.15790
# Velocity P-wave (km/s) = 4.77712 6.40645 5.65082
#
# Compressibility (1/GPa) = 0.04302235
#
# Stress axis : x y z
#
# Youngs Moduli (GPa) = 38.69473 18.17576 39.52757
#
# Poissons Ratio (x) = 0.29325 -0.08580
# Poissons Ratio (y) = 0.62430 0.69591
# Poissons Ratio (z) = -0.08399 0.31999
#
# Static dielectric constant tensor:
#      x y z
#    x 1.646680 0.000000 -0.005630 
#    y 0.000000 1.617250 0.000000 
#    z -0.005630 0.000000 1.605600 
# 
# From -- ./inp_files/329636.got.cif
#   From: 2010.05.17/outbox.cif.g08.bks.cpg/sg12_165_cif.got.tgz:329636.got - 2010.06.03 13:09:07.
