data_PCOD9181804
_publ_section_title
;
Structure prediction by ZEFSAII (Michael W. Deem and Ramdas Pophale) SiO2 
 PCOD9181804
Probable space group: C 2/M
;
_chemical_formula_sum "Si O2"
_cell_formula_units_Z 56
_cell_length_a 19.463719
_cell_length_b 7.733913
_cell_length_c 19.935717
_cell_angle_alpha 90.000000
_cell_angle_beta 120.927038
_cell_angle_gamma 90.000000
_cell_volume 2574.271721
_symmetry_space_group_name_H-M "C 2/M"
_symmetry_group_IT_number 12
_symmetry_cell_setting 'monoclinic'
loop_
_space_group_symop_operation_xyz
x,y,z
-x,y,-z
-x,-y,-z
x,-y,z
1/2+x,1/2+y,z
1/2-x,1/2+y,-z
1/2-x,1/2-y,-z
1/2+x,1/2-y,z
loop_
_atom_site_type_symbol
_atom_site_label
_atom_site_fract_x
_atom_site_fract_y
_atom_site_fract_z
Si Si1 0.998279 0.211249 0.670247
Si Si2 0.499486 0.700710 0.823319
Si Si3 0.677196 0.798255 0.260391
Si Si4 0.247559 0.802257 0.921079
Si Si5 0.172002 0.212748 0.749621
Si Si6 0.322835 0.293501 0.584883
Si Si7 0.076471 0.789850 0.994292
O O1 0.083067 0.265876 0.682076
O O2 0.001665 0.272035 0.749593
O O3 0.910296 0.265129 0.601349
O O4 0.998112 0.000000 0.668973
O O5 0.521444 0.500000 0.827853
O O6 0.407096 0.710685 0.800281
O O7 0.556968 0.773409 0.909083
O O8 0.755010 0.730619 0.260786
O O9 0.688481 0.779627 0.346036
O O10 0.667720 0.000000 0.239287
O O11 0.190726 0.724822 0.835034
O O12 0.223643 0.000000 0.911552
O O13 0.250000 0.750000 0.000000
O O14 0.338359 0.780507 0.940273
O O15 0.173091 0.000000 0.749903
O O16 0.326632 0.500000 0.594608
O O17 0.250000 0.250000 0.500000
O O18 0.081342 0.000000 0.996915
O O19 0.000000 0.740540 0.000000
#
# Coordination Sequence:
#
# PCOD9181804 Si02
#       7
#     8   8   8   8   8   8   8
#     4   8  15  30  52  73  94 129 173 206 241 297
#     4   9  17  31  50  70  98 137 177 217 260 310
#     4  10  19  32  54  81 106 134 170 215 263 311
#     4  11  22  35  52  75 106 144 185 231 280 326
#     4   9  18  33  52  75 104 137 175 218 262 313
#     4  10  20  36  59  83 107 136 168 206 252 307
#     4  10  20  33  50  73 102 138 181 228 275 322
#
# _framework density 21.753724999999999
#
# number of rings (size 3 to 8) (size 9 to 14) (size 15 to 20)
#    0.000    2.429    0.000    3.857    0.000    3.143 
#    0.000    2.857    0.000   15.429    0.000    0.000 
#    0.000    0.000    0.000    0.000    0.000    0.000 
#
# Total GULP energy -156239.985085 kJ/mol
# GULP energy per Si atom -5579.999467 kJ/mol
# Density = 2.170421 g / cm^3
# Si number density = 21.753725 Si / 1000 Ang^3
#
#
#
# Elastic Constant Matrix: (Units=GPa)
#
#
# Indices 1 2 3 4 5 6 
#
# 1 123.9846 -5.2417 25.0300 0.0000 33.1460 0.0000
# 2 -5.2417 32.1469 -8.3897 0.0000 -1.7103 0.0000
# 3 25.0300 -8.3897 84.9646 0.0000 34.9407 0.0000
# 4 0.0000 0.0000 0.0000 13.9149 0.0000 -0.2699
# 5 33.1460 -1.7103 34.9407 0.0000 36.4423 0.0000
# 6 0.0000 0.0000 0.0000 -0.2699 0.0000 20.0715
#
#
#
# Elastic Compliance Matrix: (Units=1/GPa)
#
#
# Indices 1 2 3 4 5 6 
#
# 1 0.010836 0.001589 0.001630 0.000000 -0.011344 0.000000
# 2 0.001589 0.032303 0.004445 0.000000 -0.004191 0.000000
# 3 0.001630 0.004445 0.020228 0.000000 -0.020668 0.000000
# 4 0.000000 0.000000 0.000000 0.071884 0.000000 0.000967
# 5 -0.011344 -0.004191 -0.020668 0.000000 0.057379 0.000000
# 6 0.000000 0.000000 0.000000 0.000967 0.000000 0.049835
#
#
# Mechanical properties :
#
#
# Convention : Reuss Voigt Hill
#
# Bulk Modulus (GPa) = 12.70727 29.32149 21.01438
# Shear Modulus (GPa) = 19.73400 29.39891 24.56646
#
# Velocity S-wave (km/s) = 3.01517 3.68019 3.36415
# Velocity P-wave (km/s) = 4.23978 5.61840 4.97706
#
# Compressibility (1/GPa) = 0.07869511
#
# Stress axis : x y z
#
# Youngs Moduli (GPa) = 92.28110 30.95652 49.43652
#
# Poissons Ratio (x) = -0.04918 -0.08057
# Poissons Ratio (y) = -0.14661 -0.21976
# Poissons Ratio (z) = -0.15039 -0.13761
#
# Static dielectric constant tensor:
#      x y z
#    x 1.860320 0.000000 0.046840 
#    y 0.000000 2.001690 0.000000 
#    z 0.046840 0.000000 1.878800 
# 
# From -- ./inp_files/314449.got.cif
#   From: 2010.05.17/outbox.cif.g08.bks.cpg/sg12_158_cif.got.tgz:314449.got - 2010.06.03 13:09:07.
