data_PCOD9181377
_publ_section_title
;
Structure prediction by ZEFSAII (Michael W. Deem and Ramdas Pophale) SiO2 
 PCOD9181377
Probable space group: C 2/M
;
_chemical_formula_sum "Si O2"
_cell_formula_units_Z 64
_cell_length_a 30.824237
_cell_length_b 16.740025
_cell_length_c 12.041914
_cell_angle_alpha 90.000000
_cell_angle_beta 35.843252
_cell_angle_gamma 90.000000
_cell_volume 3638.501920
_symmetry_space_group_name_H-M "C 2/M"
_symmetry_group_IT_number 12
_symmetry_cell_setting 'monoclinic'
loop_
_space_group_symop_operation_xyz
x,y,z
-x,y,-z
-x,-y,-z
x,-y,z
1/2+x,1/2+y,z
1/2-x,1/2+y,-z
1/2-x,1/2-y,-z
1/2+x,1/2-y,z
loop_
_atom_site_type_symbol
_atom_site_label
_atom_site_fract_x
_atom_site_fract_y
_atom_site_fract_z
Si Si1 0.932110 0.095175 0.004725
Si Si2 0.719405 0.664320 0.704050
Si Si3 0.578516 0.667806 0.724577
Si Si4 0.116167 0.592147 0.015353
Si Si5 0.585459 0.096770 0.326065
Si Si6 0.520121 0.849252 0.834444
Si Si7 0.152823 0.592520 0.416536
Si Si8 0.752844 0.151515 0.606424
O O1 0.860277 0.130936 0.094001
O O2 0.924992 0.134517 0.142081
O O3 0.927744 0.000000 0.021566
O O4 0.013404 0.121458 0.794993
O O5 0.781562 0.640828 0.662580
O O6 0.719646 0.759085 0.684160
O O7 0.740533 0.629491 0.537877
O O8 0.555312 0.760575 0.770821
O O9 0.664086 0.654376 0.515878
O O10 0.089214 0.500000 0.067874
O O11 0.121561 0.616294 0.133000
O O12 0.055216 0.645947 0.079852
O O13 0.194612 0.597777 0.791771
O O14 0.500000 0.123958 0.500000
O O15 0.627683 0.124764 0.348403
O O16 0.583650 0.000000 0.339441
O O17 0.581466 0.900945 0.644404
O O18 0.500000 0.876831 0.000000
O O19 0.175015 0.500000 0.360495
#
# Coordination Sequence:
#
# PCOD9181377 Si02
#       8
#     8   8   8   8   8   8   8   8
#     4  10  19  32  53  75 102 144 190 219 247 307
#     4  10  20  35  52  80 113 144 175 220 276 323
#     4  10  19  34  51  73 107 148 178 211 261 323
#     4  11  23  36  55  81 110 143 182 226 272 323
#     4   9  18  37  55  74 104 144 186 227 270 313
#     4  12  21  32  52  81 114 145 173 209 273 335
#     4  11  21  34  56  79 107 143 185 228 268 323
#     4  10  21  34  53  77 114 150 171 212 280 334
#
# _framework density 17.589656999999999
#
# number of rings (size 3 to 8) (size 9 to 14) (size 15 to 20)
#    0.000    1.625    3.750    3.000    1.750    5.000 
#    0.000    0.625    0.000    0.000    0.000    0.000 
#    0.000    4.000    0.000    0.250    0.000    0.000 
#
# Total GULP energy -178452.378683 kJ/mol
# GULP energy per Si atom -5576.636834 kJ/mol
# Density = 1.754962 g / cm^3
# Si number density = 17.589657 Si / 1000 Ang^3
#
#
#
# Elastic Constant Matrix: (Units=GPa)
#
#
# Indices 1 2 3 4 5 6 
#
# 1 127.4745 13.2161 44.2442 0.0000 -6.6049 0.0000
# 2 13.2161 39.5227 -1.4422 0.0000 -2.4754 0.0000
# 3 44.2442 -1.4422 49.9388 0.0000 -14.3412 0.0000
# 4 0.0000 0.0000 0.0000 30.9284 0.0000 -4.8801
# 5 -6.6049 -2.4754 -14.3412 0.0000 32.0035 0.0000
# 6 0.0000 0.0000 0.0000 -4.8801 0.0000 17.0486
#
#
#
# Elastic Compliance Matrix: (Units=1/GPa)
#
#
# Indices 1 2 3 4 5 6 
#
# 1 0.012330 -0.004760 -0.011978 0.000000 -0.003191 0.000000
# 2 -0.004760 0.027360 0.006121 0.000000 0.003877 0.000000
# 3 -0.011978 0.006121 0.034706 0.000000 0.013553 0.000000
# 4 0.000000 0.000000 0.000000 0.033862 0.000000 0.009693
# 5 -0.003191 0.003877 0.013553 0.000000 0.036961 0.000000
# 6 0.000000 0.000000 0.000000 0.009693 0.000000 0.061430
#
#
# Mechanical properties :
#
#
# Convention : Reuss Voigt Hill
#
# Bulk Modulus (GPa) = 18.81086 36.55248 27.68167
# Shear Modulus (GPa) = 20.35792 26.72396 23.54094
#
# Velocity S-wave (km/s) = 3.40572 3.90205 3.66230
# Velocity P-wave (km/s) = 5.11691 6.41304 5.80128
#
# Compressibility (1/GPa) = 0.05316078
#
# Stress axis : x y z
#
# Youngs Moduli (GPa) = 81.10130 36.54998 28.81376
#
# Poissons Ratio (x) = 0.17398 0.34513
# Poissons Ratio (y) = 0.38605 -0.17636
# Poissons Ratio (z) = 0.97144 -0.22371
#
# Static dielectric constant tensor:
#      x y z
#    x 1.619260 0.000000 -0.028790 
#    y 0.000000 1.608820 0.000000 
#    z -0.028790 0.000000 1.622350 
# 
# From -- ./inp_files/189444.got.cif
#   From: 2010.05.17/outbox.cif.g08.bks.cpg/sg12_95_cif.got.tgz:189444.got - 2010.06.03 13:09:07.
