data_PCOD9181944
_publ_section_title
;
Structure prediction by ZEFSAII (Michael W. Deem and Ramdas Pophale) SiO2 
 PCOD9181944
Probable space group: C 2/M
;
_chemical_formula_sum "Si O2"
_cell_formula_units_Z 56
_cell_length_a 21.603600
_cell_length_b 9.179084
_cell_length_c 14.792699
_cell_angle_alpha 90.000000
_cell_angle_beta 83.366343
_cell_angle_gamma 90.000000
_cell_volume 2913.771878
_symmetry_space_group_name_H-M "C 2/M"
_symmetry_group_IT_number 12
_symmetry_cell_setting 'monoclinic'
loop_
_space_group_symop_operation_xyz
x,y,z
-x,y,-z
-x,-y,-z
x,-y,z
1/2+x,1/2+y,z
1/2-x,1/2+y,-z
1/2-x,1/2-y,-z
1/2+x,1/2-y,z
loop_
_atom_site_type_symbol
_atom_site_label
_atom_site_fract_x
_atom_site_fract_y
_atom_site_fract_z
Si Si1 0.522734 0.330171 0.736003
Si Si2 0.342341 0.825133 0.616359
Si Si3 0.351266 0.671522 0.169042
Si Si4 0.910606 0.669138 0.431275
Si Si5 0.182641 0.324727 0.006626
Si Si6 0.897412 0.326330 0.802815
Si Si7 0.717231 0.829846 0.661439
O O1 0.510046 0.500000 0.726470
O O2 0.582712 0.314142 0.791126
O O3 0.541950 0.259948 0.637013
O O4 0.463522 0.252155 0.788776
O O5 0.396183 0.784398 0.535945
O O6 0.362488 0.791750 0.715012
O O7 0.278259 0.741836 0.608358
O O8 0.332867 0.000000 0.608827
O O9 0.338196 0.500000 0.157065
O O10 0.300497 0.741219 0.245178
O O11 0.350406 0.758799 0.076029
O O12 0.930267 0.500000 0.427230
O O13 0.843121 0.678968 0.393089
O O14 0.188204 0.500000 0.999337
O O15 0.143904 0.288541 0.103413
O O16 0.250000 0.250000 0.000000
O O17 0.907513 0.500000 0.802473
O O18 0.727810 0.000000 0.679777
#
# Coordination Sequence:
#
# PCOD9181944 Si02
#       7
#     8   8   8   8   8   8   8
#     4  10  22  39  59  82 109 144 188 235 281 325
#     4  10  20  35  55  80 112 152 189 226 278 336
#     4  10  21  38  59  82 111 148 186 230 281 333
#     4   9  19  35  56  81 112 149 187 227 277 336
#     4  11  23  39  61  89 117 148 183 224 276 332
#     4  10  23  40  57  79 111 148 185 225 274 333
#     4  10  19  32  54  85 115 145 184 232 281 332
#
# _framework density 19.219075
#
# number of rings (size 3 to 8) (size 9 to 14) (size 15 to 20)
#    0.000    2.000    0.000    3.000    0.000    6.857 
#    0.000    5.714    0.000    0.000    0.000    0.000 
#    0.000    0.000    0.000    0.000    0.000    0.000 
#
# Total GULP energy -156462.798945 kJ/mol
# GULP energy per Si atom -5587.957105 kJ/mol
# Density = 1.917533 g / cm^3
# Si number density = 19.219075 Si / 1000 Ang^3
#
#
#
# Elastic Constant Matrix: (Units=GPa)
#
#
# Indices 1 2 3 4 5 6 
#
# 1 51.6065 39.4023 33.7270 0.0000 -25.4200 0.0000
# 2 39.4023 62.0326 59.8583 0.0000 -13.9740 0.0000
# 3 33.7270 59.8583 153.9653 0.0000 -20.8499 0.0000
# 4 0.0000 0.0000 0.0000 29.8968 0.0000 -6.6182
# 5 -25.4200 -13.9740 -20.8499 0.0000 27.6427 0.0000
# 6 0.0000 0.0000 0.0000 -6.6182 0.0000 31.7087
#
#
#
# Elastic Compliance Matrix: (Units=1/GPa)
#
#
# Indices 1 2 3 4 5 6 
#
# 1 0.069009 -0.039440 0.006805 0.000000 0.048656 0.000000
# 2 -0.039440 0.049298 -0.013435 0.000000 -0.021481 0.000000
# 3 0.006805 -0.013435 0.011311 0.000000 0.007998 0.000000
# 4 0.000000 0.000000 0.000000 0.035069 0.000000 0.007319
# 5 0.048656 -0.021481 0.007998 0.000000 0.076092 0.000000
# 6 0.000000 0.000000 0.000000 0.007319 0.000000 0.033065
#
#
# Mechanical properties :
#
#
# Convention : Reuss Voigt Hill
#
# Bulk Modulus (GPa) = 26.68252 59.28661 42.98456
# Shear Modulus (GPa) = 13.21089 26.82411 20.01750
#
# Velocity S-wave (km/s) = 2.62465 3.73996 3.23080
# Velocity P-wave (km/s) = 4.80609 7.04021 6.02756
#
# Compressibility (1/GPa) = 0.03747772
#
# Stress axis : x y z
#
# Youngs Moduli (GPa) = 14.49079 20.28494 88.41309
#
# Poissons Ratio (x) = 0.80004 -0.60169
# Poissons Ratio (y) = 0.57152 1.18785
# Poissons Ratio (z) = -0.09862 0.27253
#
# Static dielectric constant tensor:
#      x y z
#    x 1.668610 0.000000 0.021450 
#    y 0.000000 1.637630 0.000000 
#    z 0.021450 0.000000 1.663650 
# 
# From -- ./inp_files/237466.got.cif
#   From: 2010.05.17/outbox.cif.g08.bks.cpg/sg12_119_cif.got.tgz:237466.got - 2010.06.03 13:09:07.
