data_PCOD9181691
_publ_section_title
;
Structure prediction by ZEFSAII (Michael W. Deem and Ramdas Pophale) SiO2 
 PCOD9181691
Probable space group: C 2/M
;
_chemical_formula_sum "Si O2"
_cell_formula_units_Z 52
_cell_length_a 31.612793
_cell_length_b 7.469057
_cell_length_c 10.915760
_cell_angle_alpha 90.000000
_cell_angle_beta 91.411349
_cell_angle_gamma 90.000000
_cell_volume 2576.622816
_symmetry_space_group_name_H-M "C 2/M"
_symmetry_group_IT_number 12
_symmetry_cell_setting 'monoclinic'
loop_
_space_group_symop_operation_xyz
x,y,z
-x,y,-z
-x,-y,-z
x,-y,z
1/2+x,1/2+y,z
1/2-x,1/2+y,-z
1/2-x,1/2-y,-z
1/2+x,1/2-y,z
loop_
_atom_site_type_symbol
_atom_site_label
_atom_site_fract_x
_atom_site_fract_y
_atom_site_fract_z
Si Si1 0.950983 0.000000 0.529555
Si Si2 0.111342 0.287666 0.073725
Si Si3 0.548470 0.500000 0.966531
Si Si4 0.401234 0.500000 0.271470
Si Si5 0.337455 0.216263 0.156880
Si Si6 0.899440 0.705191 0.650287
Si Si7 0.188682 0.783259 0.459292
Si Si8 0.759716 0.704128 0.293967
O O1 0.921673 0.000000 0.406058
O O2 0.937036 0.170373 0.608183
O O3 0.000000 0.000000 0.500000
O O4 0.103426 0.500000 0.064203
O O5 0.117207 0.241489 0.216031
O O6 0.149655 0.247870 0.982963
O O7 0.071953 0.172986 0.023577
O O8 0.560517 0.500000 0.824115
O O9 0.500000 0.500000 0.000000
O O10 0.371247 0.328805 0.239557
O O11 0.290315 0.277537 0.191027
O O12 0.340509 0.000000 0.178203
O O13 0.912779 0.500000 0.655326
O O14 0.859385 0.727517 0.558784
O O15 0.210358 0.709730 0.583012
O O16 0.216256 0.717504 0.344154
O O17 0.191263 0.000000 0.465085
O O18 0.750131 0.500000 0.258950
#
# Coordination Sequence:
#
# PCOD9181691 Si02
#       8
#     4   8   4   4   8   8   8   8
#     4  12  27  42  63  86 118 151 194 249 296 353
#     4   9  20  38  60  84 111 154 195 236 292 350
#     4  10  21  36  63  86 112 141 190 247 298 347
#     4  10  22  36  56  90 110 150 192 228 305 356
#     4   9  18  36  58  83 117 151 191 242 290 338
#     4  11  23  41  62  83 118 161 199 234 295 360
#     4  10  19  32  53  84 117 159 197 239 292 343
#     4   9  18  31  52  82 119 153 197 248 288 336
#
# _framework density 20.181456000000001
#
# number of rings (size 3 to 8) (size 9 to 14) (size 15 to 20)
#    0.000    2.154    0.769    1.846    3.231    3.077 
#    0.000    0.769    0.000    0.000    0.000    0.000 
#    0.000    0.000    0.000    0.000    0.000    0.000 
#
# Total GULP energy -145087.425711 kJ/mol
# GULP energy per Si atom -5580.285604 kJ/mol
# Density = 2.013552 g / cm^3
# Si number density = 20.181456 Si / 1000 Ang^3
#
#
#
# Elastic Constant Matrix: (Units=GPa)
#
#
# Indices 1 2 3 4 5 6 
#
# 1 90.7584 13.9795 13.2049 0.0000 -40.5887 0.0000
# 2 13.9795 73.1816 15.1014 0.0000 -11.2927 0.0000
# 3 13.2049 15.1014 65.9138 0.0000 -15.0838 0.0000
# 4 0.0000 0.0000 0.0000 26.8449 0.0000 -8.5404
# 5 -40.5887 -11.2927 -15.0838 0.0000 28.3805 0.0000
# 6 0.0000 0.0000 0.0000 -8.5404 0.0000 17.4917
#
#
#
# Elastic Compliance Matrix: (Units=1/GPa)
#
#
# Indices 1 2 3 4 5 6 
#
# 1 0.031756 0.000404 0.004526 0.000000 0.047983 0.000000
# 2 0.000404 0.014873 -0.002279 0.000000 0.005285 0.000000
# 3 0.004526 -0.002279 0.018284 0.000000 0.015284 0.000000
# 4 0.000000 0.000000 0.000000 0.044101 0.000000 0.021532
# 5 0.047983 0.005285 0.015284 0.000000 0.114084 0.000000
# 6 0.000000 0.000000 0.000000 0.021532 0.000000 0.067683
#
#
# Mechanical properties :
#
#
# Convention : Reuss Voigt Hill
#
# Bulk Modulus (GPa) = 14.24190 34.93616 24.58903
# Shear Modulus (GPa) = 16.18722 27.04797 21.61759
#
# Velocity S-wave (km/s) = 2.83518 3.66490 3.27641
# Velocity P-wave (km/s) = 4.21781 5.93778 5.15010
#
# Compressibility (1/GPa) = 0.07021535
#
# Stress axis : x y z
#
# Youngs Moduli (GPa) = 31.48995 67.23479 54.69167
#
# Poissons Ratio (x) = -0.02717 -0.24753
# Poissons Ratio (y) = -0.01272 0.12465
# Poissons Ratio (z) = -0.14252 0.15324
#
# Static dielectric constant tensor:
#      x y z
#    x 1.680520 0.000000 -0.040950 
#    y 0.000000 1.696280 0.000000 
#    z -0.040950 0.000000 1.748430 
# 
# From -- ./inp_files/185877.got.cif
#   From: 2010.05.17/outbox.cif.g08.bks.cpg/sg12_93_cif.got.tgz:185877.got - 2010.06.03 13:09:07.
