data_PCOD9181686
_publ_section_title
;
Structure prediction by ZEFSAII (Michael W. Deem and Ramdas Pophale) SiO2 
 PCOD9181686
Probable space group: C 2/M
;
_chemical_formula_sum "Si O2"
_cell_formula_units_Z 40
_cell_length_a 19.691573
_cell_length_b 9.115753
_cell_length_c 12.529072
_cell_angle_alpha 90.000000
_cell_angle_beta 56.382338
_cell_angle_gamma 90.000000
_cell_volume 1872.866514
_symmetry_space_group_name_H-M "C 2/M"
_symmetry_group_IT_number 12
_symmetry_cell_setting 'monoclinic'
loop_
_space_group_symop_operation_xyz
x,y,z
-x,y,-z
-x,-y,-z
x,-y,z
1/2+x,1/2+y,z
1/2-x,1/2+y,-z
1/2-x,1/2-y,-z
1/2+x,1/2-y,z
loop_
_atom_site_type_symbol
_atom_site_label
_atom_site_fract_x
_atom_site_fract_y
_atom_site_fract_z
Si Si1 0.404020 0.173412 0.269357
Si Si2 0.935677 0.824906 0.802304
Si Si3 0.743564 0.831279 0.367962
Si Si4 0.596472 0.673086 0.402975
Si Si5 0.375470 0.330687 0.086276
O O1 0.477429 0.244462 0.270735
O O2 0.313728 0.239682 0.368704
O O3 0.419732 0.226732 0.133366
O O4 0.403183 0.000000 0.279305
O O5 0.888283 0.791624 0.734954
O O6 0.951446 0.000000 0.787758
O O7 0.888405 0.789179 0.952801
O O8 0.654939 0.764360 0.428492
O O9 0.783898 0.828032 0.212707
O O10 0.742504 0.000000 0.404195
O O11 0.500000 0.698343 0.500000
O O12 0.611934 0.500000 0.407980
O O13 0.403537 0.500000 0.075783
#
# Coordination Sequence:
#
# PCOD9181686 Si02
#       5
#     8   8   8   8   8
#     4  10  19  32  53  84 114 138 172 217 264 314
#     4  10  19  34  55  79 111 146 175 210 264 319
#     4   9  19  36  56  78 108 143 176 213 265 320
#     4  10  22  39  57  78 105 139 181 226 266 307
#     4   8  17  32  53  80 111 143 171 208 263 322
#
# _framework density 21.357633
#
# number of rings (size 3 to 8) (size 9 to 14) (size 15 to 20)
#    1.200    1.400    0.000    2.400    0.000    5.200 
#    0.000    1.000    0.000    0.000    0.000    0.000 
#    0.000    0.000    0.000    0.000    0.000    0.000 
#
# Total GULP energy -111547.973905 kJ/mol
# GULP energy per Si atom -5577.398695 kJ/mol
# Density = 2.130902 g / cm^3
# Si number density = 21.357633 Si / 1000 Ang^3
#
#
#
# Elastic Constant Matrix: (Units=GPa)
#
#
# Indices 1 2 3 4 5 6 
#
# 1 106.8199 63.0845 10.3333 0.0000 7.4057 0.0000
# 2 63.0845 73.9643 2.4012 0.0000 10.1829 0.0000
# 3 10.3333 2.4012 72.5061 0.0000 9.3200 0.0000
# 4 0.0000 0.0000 0.0000 8.2603 0.0000 -8.8398
# 5 7.4057 10.1829 9.3200 0.0000 29.6419 0.0000
# 6 0.0000 0.0000 0.0000 -8.8398 0.0000 31.0112
#
#
#
# Elastic Compliance Matrix: (Units=1/GPa)
#
#
# Indices 1 2 3 4 5 6 
#
# 1 0.019279 -0.016591 -0.002409 0.000000 0.001640 0.000000
# 2 -0.016591 0.028470 0.002236 0.000000 -0.006339 0.000000
# 3 -0.002409 0.002236 0.014676 0.000000 -0.004781 0.000000
# 4 0.000000 0.000000 0.000000 0.174199 0.000000 0.049656
# 5 0.001640 -0.006339 -0.004781 0.000000 0.037007 0.000000
# 6 0.000000 0.000000 0.000000 0.049656 0.000000 0.046401
#
#
# Mechanical properties :
#
#
# Convention : Reuss Voigt Hill
#
# Bulk Modulus (GPa) = 34.60399 44.99204 39.79802
# Shear Modulus (GPa) = 13.76687 25.61411 19.69049
#
# Velocity S-wave (km/s) = 2.54163 3.46684 3.03964
# Velocity P-wave (km/s) = 4.98503 6.09402 5.56721
#
# Compressibility (1/GPa) = 0.02889840
#
# Stress axis : x y z
#
# Youngs Moduli (GPa) = 51.87062 35.12437 68.13981
#
# Poissons Ratio (x) = 0.58273 0.16414
# Poissons Ratio (y) = 0.86056 -0.15238
# Poissons Ratio (z) = 0.12495 -0.07855
#
# Static dielectric constant tensor:
#      x y z
#    x 1.709270 0.000000 -0.010050 
#    y 0.000000 1.723030 0.000000 
#    z -0.010050 0.000000 1.901290 
# 
# From -- ./inp_files/229094.got.cif
#   From: 2010.05.17/outbox.cif.g08.bks.cpg/sg12_115_cif.got.tgz:229094.got - 2010.06.03 13:09:07.
