data_PCOD9181962
_publ_section_title
;
Structure prediction by ZEFSAII (Michael W. Deem and Ramdas Pophale) SiO2 
 PCOD9181962
Probable space group: C 2/M
;
_chemical_formula_sum "Si O2"
_cell_formula_units_Z 56
_cell_length_a 24.753542
_cell_length_b 9.008035
_cell_length_c 15.282554
_cell_angle_alpha 90.000000
_cell_angle_beta 50.885457
_cell_angle_gamma 90.000000
_cell_volume 2643.999932
_symmetry_space_group_name_H-M "C 2/M"
_symmetry_group_IT_number 12
_symmetry_cell_setting 'monoclinic'
loop_
_space_group_symop_operation_xyz
x,y,z
-x,y,-z
-x,-y,-z
x,-y,z
1/2+x,1/2+y,z
1/2-x,1/2+y,-z
1/2-x,1/2-y,-z
1/2+x,1/2-y,z
loop_
_atom_site_type_symbol
_atom_site_label
_atom_site_fract_x
_atom_site_fract_y
_atom_site_fract_z
Si Si1 0.875805 0.330846 0.050172
Si Si2 0.974663 0.178677 0.804689
Si Si3 0.121025 0.675851 0.651075
Si Si4 0.141616 0.674733 0.423061
Si Si5 0.082428 0.178151 0.327497
Si Si6 0.301399 0.678283 0.279019
Si Si7 0.228756 0.834660 0.106896
O O1 0.900964 0.500000 0.040548
O O2 0.861991 0.237796 0.152252
O O3 0.797322 0.341582 0.094090
O O4 0.921141 0.251210 0.928753
O O5 0.959272 0.220075 0.718088
O O6 0.050242 0.241427 0.749653
O O7 0.971052 0.000000 0.814450
O O8 0.117548 0.500000 0.673020
O O9 0.129008 0.695304 0.539055
O O10 0.182454 0.749271 0.644037
O O11 0.137369 0.500000 0.406878
O O12 0.082421 0.755481 0.425372
O O13 0.223006 0.721421 0.329041
O O14 0.160921 0.229081 0.221426
O O15 0.076726 0.000000 0.342344
O O16 0.303279 0.500000 0.281463
O O17 0.207061 0.000000 0.102738
O O18 0.250000 0.750000 0.000000
#
# Coordination Sequence:
#
# PCOD9181962 Si02
#       7
#     8   8   8   8   8   8   8
#     4  11  22  37  61  93 126 161 200 248 305 364
#     4  11  24  42  62  90 127 167 207 248 298 363
#     4  11  25  45  64  87 121 163 209 256 304 360
#     4  10  23  41  65  94 123 157 202 255 309 361
#     4  10  21  37  60  91 126 161 201 248 302 362
#     4  11  23  41  66  95 122 156 202 255 310 363
#     4  10  19  32  54  87 123 160 198 244 301 359
#
# _framework density 21.180032000000001
#
# number of rings (size 3 to 8) (size 9 to 14) (size 15 to 20)
#    0.000    1.429    2.857    2.143    0.000    5.143 
#    0.000    5.714    0.000    0.000    0.000    0.000 
#    0.000    0.000    0.000    0.000    0.000    0.000 
#
# Total GULP energy -156238.445272 kJ/mol
# GULP energy per Si atom -5579.944474 kJ/mol
# Density = 2.113183 g / cm^3
# Si number density = 21.180032 Si / 1000 Ang^3
#
#
#
# Elastic Constant Matrix: (Units=GPa)
#
#
# Indices 1 2 3 4 5 6 
#
# 1 100.1409 35.4563 18.9040 0.0000 10.9491 0.0000
# 2 35.4563 72.3002 35.0667 0.0002 11.2102 0.0000
# 3 18.9040 35.0667 54.3575 0.0000 8.0737 0.0000
# 4 0.0000 0.0002 0.0000 30.7097 0.0000 10.3613
# 5 10.9491 11.2102 8.0737 0.0000 29.4326 0.0000
# 6 0.0000 0.0000 0.0000 10.3613 0.0000 25.5940
#
#
#
# Elastic Compliance Matrix: (Units=1/GPa)
#
#
# Indices 1 2 3 4 5 6 
#
# 1 0.012249 -0.005448 -0.000392 0.000000 -0.002374 0.000000
# 2 -0.005448 0.023084 -0.012501 0.000000 -0.003336 0.000000
# 3 -0.000392 -0.012501 0.026968 0.000000 -0.002490 0.000000
# 4 0.000000 0.000000 0.000000 0.037714 0.000000 -0.015268
# 5 -0.002374 -0.003336 -0.002490 0.000000 0.036813 0.000000
# 6 0.000000 0.000000 0.000000 -0.015268 0.000000 0.045253
#
#
# Mechanical properties :
#
#
# Convention : Reuss Voigt Hill
#
# Bulk Modulus (GPa) = 39.03807 45.07253 42.05530
# Shear Modulus (GPa) = 21.99712 26.30536 24.15124
#
# Velocity S-wave (km/s) = 3.22619 3.52801 3.38047
# Velocity P-wave (km/s) = 5.68765 6.15814 5.92756
#
# Compressibility (1/GPa) = 0.02561602
#
# Stress axis : x y z
#
# Youngs Moduli (GPa) = 81.64182 43.32061 37.08134
#
# Poissons Ratio (x) = 0.23603 0.01455
# Poissons Ratio (y) = 0.44482 0.46356
# Poissons Ratio (z) = 0.03203 0.54156
#
# Static dielectric constant tensor:
#      x y z
#    x 1.879090 0.000000 -0.190090 
#    y 0.000000 1.734590 0.000000 
#    z -0.190090 0.000000 2.199690 
# 
# From -- ./inp_files/238397.got.cif
#   From: 2010.05.17/outbox.cif.g08.bks.cpg/sg12_120_cif.got.tgz:238397.got - 2010.06.03 13:09:07.
