data_PCOD9181721
_publ_section_title
;
Structure prediction by ZEFSAII (Michael W. Deem and Ramdas Pophale) SiO2 
 PCOD9181721
Probable space group: C 2/M
;
_chemical_formula_sum "Si O2"
_cell_formula_units_Z 56
_cell_length_a 21.347578
_cell_length_b 21.934005
_cell_length_c 18.818131
_cell_angle_alpha 90.000000
_cell_angle_beta 21.095460
_cell_angle_gamma 90.000000
_cell_volume 3171.410735
_symmetry_space_group_name_H-M "C 2/M"
_symmetry_group_IT_number 12
_symmetry_cell_setting 'monoclinic'
loop_
_space_group_symop_operation_xyz
x,y,z
-x,y,-z
-x,-y,-z
x,-y,z
1/2+x,1/2+y,z
1/2-x,1/2+y,-z
1/2-x,1/2-y,-z
1/2+x,1/2-y,z
loop_
_atom_site_type_symbol
_atom_site_label
_atom_site_fract_x
_atom_site_fract_y
_atom_site_fract_z
Si Si1 0.578368 0.309221 0.340180
Si Si2 0.004848 0.269736 0.707301
Si Si3 0.015448 0.689077 0.064203
Si Si4 0.402507 0.303052 0.260140
Si Si5 0.477363 0.888826 0.809607
Si Si6 0.411180 0.431918 0.750595
Si Si7 0.850351 0.931611 0.360237
O O1 0.500000 0.296369 0.500000
O O2 0.533925 0.261277 0.325944
O O3 0.532607 0.376770 0.360203
O O4 0.783059 0.306950 0.132383
O O5 0.205443 0.289685 0.491634
O O6 0.982604 0.221979 0.795387
O O7 0.915749 0.332662 0.824434
O O8 0.938185 0.756667 0.158050
O O9 0.949318 0.643166 0.195416
O O10 0.000000 0.667680 0.000000
O O11 0.410213 0.375768 0.246453
O O12 0.645864 0.922267 0.598156
O O13 0.298037 0.924793 0.014160
O O14 0.441439 0.500000 0.689576
O O15 0.526786 0.426674 0.699835
O O16 0.871342 0.000000 0.309225
#
# Coordination Sequence:
#
# PCOD9181721 Si02
#       7
#     8   8   8   8   8   8   8
#     4  11  22  32  51  71 104 134 169 209 245 304
#     4   9  17  31  51  76  94 131 160 206 262 285
#     4  10  21  32  51  76  99 134 162 207 263 293
#     4   9  17  31  52  71 103 123 164 210 244 306
#     4   9  20  34  55  73 104 130 166 213 244 305
#     4  10  21  34  50  73 102 135 174 208 240 292
#     4  10  19  32  54  76 100 135 166 205 249 292
#
# _framework density 17.657757
#
# number of rings (size 3 to 8) (size 9 to 14) (size 15 to 20)
#    0.000    2.286    1.429    2.143    4.000    2.000 
#    0.000    0.000    0.000    2.571    0.000    0.000 
#    0.000    6.571    0.000    0.000    0.000    0.000 
#
# Total GULP energy -155931.241835 kJ/mol
# GULP energy per Si atom -5568.972923 kJ/mol
# Density = 1.761757 g / cm^3
# Si number density = 17.657757 Si / 1000 Ang^3
#
#
#
# Elastic Constant Matrix: (Units=GPa)
#
#
# Indices 1 2 3 4 5 6 
#
# 1 46.3350 10.3683 -5.7812 0.0326 -0.1023 -0.0177
# 2 10.3683 84.5064 -6.8065 0.0204 1.0740 -0.0317
# 3 -5.7812 -6.8065 20.3569 0.0145 -2.2053 -0.0210
# 4 0.0326 0.0204 0.0145 21.0364 -0.0115 -2.0203
# 5 -0.1023 1.0740 -2.2053 -0.0115 23.5372 0.0082
# 6 -0.0177 -0.0317 -0.0210 -2.0203 0.0082 25.7202
#
#
#
# Elastic Compliance Matrix: (Units=1/GPa)
#
#
# Indices 1 2 3 4 5 6 
#
# 1 0.022830 -0.002345 0.005780 -0.000035 0.000748 0.000015
# 2 -0.002345 0.012403 0.003454 -0.000009 -0.000253 0.000016
# 3 0.005780 0.003454 0.052438 -0.000041 0.004781 0.000046
# 4 -0.000035 -0.000009 -0.000041 0.047898 0.000019 0.003762
# 5 0.000748 -0.000253 0.004781 0.000019 0.042949 -0.000008
# 6 0.000015 0.000016 0.000046 0.003762 -0.000008 0.039176
#
#
# Mechanical properties :
#
#
# Convention : Reuss Voigt Hill
#
# Bulk Modulus (GPa) = 9.85725 16.30661 13.08193
# Shear Modulus (GPa) = 21.03227 24.28660 22.65943
#
# Velocity S-wave (km/s) = 3.45499 3.71267 3.58614
# Velocity P-wave (km/s) = 4.63793 5.25675 4.95701
#
# Compressibility (1/GPa) = 0.10144812
#
# Stress axis : x y z
#
# Youngs Moduli (GPa) = 43.80276 80.62877 19.07023
#
# Poissons Ratio (x) = 0.18907 -0.11023
# Poissons Ratio (y) = 0.10271 -0.06586
# Poissons Ratio (z) = -0.25320 -0.27846
#
# Static dielectric constant tensor:
#      x y z
#    x 2.198810 -0.000070 0.581860 
#    y -0.000070 1.644230 -0.000030 
#    z 0.581860 -0.000030 2.199490 
# 
# From -- ./inp_files/77636.got.cif
#   From: 2010.05.17/outbox.cif.g08.bks.cpg/sg12_39_cif.got.tgz:77636.got - 2010.06.03 13:09:07.
