data_PCOD9181767
_publ_section_title
;
Structure prediction by ZEFSAII (Michael W. Deem and Ramdas Pophale) SiO2 
 PCOD9181767
Probable space group: C 2/M
;
_chemical_formula_sum "Si O2"
_cell_formula_units_Z 56
_cell_length_a 17.480467
_cell_length_b 14.624703
_cell_length_c 18.771367
_cell_angle_alpha 90.000000
_cell_angle_beta 48.066642
_cell_angle_gamma 90.000000
_cell_volume 3569.963216
_symmetry_space_group_name_H-M "C 2/M"
_symmetry_group_IT_number 12
_symmetry_cell_setting 'monoclinic'
loop_
_space_group_symop_operation_xyz
x,y,z
-x,y,-z
-x,-y,-z
x,-y,z
1/2+x,1/2+y,z
1/2-x,1/2+y,-z
1/2-x,1/2-y,-z
1/2+x,1/2-y,z
loop_
_atom_site_type_symbol
_atom_site_label
_atom_site_fract_x
_atom_site_fract_y
_atom_site_fract_z
Si Si1 0.620571 0.104280 0.902750
Si Si2 0.915377 0.389098 0.495462
Si Si3 0.790793 0.893635 0.296706
Si Si4 0.938176 0.273529 0.190328
Si Si5 0.265791 0.104572 0.833627
Si Si6 0.006394 0.390501 0.708240
Si Si7 0.168259 0.743302 0.987317
O O1 0.623167 0.169527 0.832154
O O2 0.678118 0.152055 0.932965
O O3 0.653549 0.000000 0.868703
O O4 0.500000 0.101330 0.000000
O O5 0.921044 0.500000 0.492780
O O6 0.801576 0.365995 0.593013
O O7 0.000000 0.356271 0.500000
O O8 0.943903 0.361257 0.397816
O O9 0.882303 0.821345 0.242443
O O10 0.746522 0.890184 0.243733
O O11 0.819412 0.000000 0.292574
O O12 0.948548 0.336111 0.253523
O O13 0.052781 0.255401 0.089249
O O14 0.383739 0.125776 0.779977
O O15 0.190235 0.173038 0.920470
O O16 0.244744 0.000000 0.868151
O O17 0.020839 0.500000 0.707870
O O18 0.250000 0.750000 0.000000
#
# Coordination Sequence:
#
# PCOD9181767 Si02
#       7
#     8   8   8   8   8   8   8
#     4   9  19  34  50  70  98 132 167 209 256 291
#     4   9  16  30  53  79 102 127 167 215 260 303
#     4  10  20  34  53  76 105 138 166 206 262 312
#     4  11  21  33  52  73 109 137 168 210 251 311
#     4  10  19  33  53  75 101 133 173 213 253 297
#     4  10  19  32  54  80 101 129 171 219 259 295
#     4  11  21  34  50  74 102 136 177 211 245 303
#
# _framework density 15.686436
#
# number of rings (size 3 to 8) (size 9 to 14) (size 15 to 20)
#    0.000    2.000    4.286    0.429    0.000    2.286 
#    0.000    1.429    0.000    0.000    0.000    0.000 
#    0.000    2.857    0.000    0.000    0.000    0.000 
#
# Total GULP energy -156089.977548 kJ/mol
# GULP energy per Si atom -5574.642055 kJ/mol
# Density = 1.565073 g / cm^3
# Si number density = 15.686436 Si / 1000 Ang^3
#
#
#
# Elastic Constant Matrix: (Units=GPa)
#
#
# Indices 1 2 3 4 5 6 
#
# 1 82.5126 42.2016 34.0450 0.0000 8.1128 0.0000
# 2 42.2016 84.8037 52.2027 0.0000 -1.2324 0.0000
# 3 34.0450 52.2027 103.1810 0.0000 9.7145 0.0000
# 4 0.0000 0.0000 0.0000 22.2785 0.0000 5.3619
# 5 8.1128 -1.2324 9.7145 0.0000 19.0848 0.0000
# 6 0.0000 0.0000 0.0000 5.3619 0.0000 24.5992
#
#
#
# Elastic Compliance Matrix: (Units=1/GPa)
#
#
# Indices 1 2 3 4 5 6 
#
# 1 0.017436 -0.008248 -0.000874 0.000000 -0.007499 0.000000
# 2 -0.008248 0.021659 -0.009136 0.000000 0.009555 0.000000
# 3 -0.000874 -0.009136 0.015359 0.000000 -0.008037 0.000000
# 4 0.000000 0.000000 0.000000 0.047371 0.000000 -0.010325
# 5 -0.007499 0.009555 -0.008037 0.000000 0.060293 0.000000
# 6 0.000000 0.000000 0.000000 -0.010325 0.000000 0.042902
#
#
# Mechanical properties :
#
#
# Convention : Reuss Voigt Hill
#
# Bulk Modulus (GPa) = 55.74830 58.59955 57.17392
# Shear Modulus (GPa) = 20.20065 22.66237 21.43151
#
# Velocity S-wave (km/s) = 3.59246 3.80506 3.70028
# Velocity P-wave (km/s) = 7.26801 7.53277 7.40157
#
# Compressibility (1/GPa) = 0.01793777
#
# Stress axis : x y z
#
# Youngs Moduli (GPa) = 57.35374 46.16972 65.10737
#
# Poissons Ratio (x) = 0.38079 0.05692
# Poissons Ratio (y) = 0.47303 0.59485
# Poissons Ratio (z) = 0.05014 0.42183
#
# Static dielectric constant tensor:
#      x y z
#    x 1.519950 0.000000 0.009270 
#    y 0.000000 1.514810 0.000000 
#    z 0.009270 0.000000 1.517710 
# 
# From -- ./inp_files/214194.got.cif
#   From: 2010.05.17/outbox.cif.g08.bks.cpg/sg12_108_cif.got.tgz:214194.got - 2010.06.03 13:09:07.
