data_PCOD9181141
_publ_section_title
;
Structure prediction by ZEFSAII (Michael W. Deem and Ramdas Pophale) SiO2 
 PCOD9181141
Probable space group: C 2/M
;
_chemical_formula_sum "Si O2"
_cell_formula_units_Z 64
_cell_length_a 16.752614
_cell_length_b 7.534812
_cell_length_c 29.427852
_cell_angle_alpha 90.000000
_cell_angle_beta 137.864769
_cell_angle_gamma 90.000000
_cell_volume 2492.069665
_symmetry_space_group_name_H-M "C 2/M"
_symmetry_group_IT_number 12
_symmetry_cell_setting 'monoclinic'
loop_
_space_group_symop_operation_xyz
x,y,z
-x,y,-z
-x,-y,-z
x,-y,z
1/2+x,1/2+y,z
1/2-x,1/2+y,-z
1/2-x,1/2-y,-z
1/2+x,1/2-y,z
loop_
_atom_site_type_symbol
_atom_site_label
_atom_site_fract_x
_atom_site_fract_y
_atom_site_fract_z
Si Si1 0.732909 0.702389 0.668322
Si Si2 0.981134 0.291548 0.543899
Si Si3 0.287790 0.298152 0.787626
Si Si4 0.128293 0.216768 0.035713
Si Si5 0.881525 0.710556 0.164619
Si Si6 0.955347 0.786290 0.093482
Si Si7 0.470441 0.217430 0.295250
Si Si8 0.774575 0.286108 0.582064
O O1 0.776197 0.500000 0.687357
O O2 0.590138 0.706449 0.616551
O O3 0.794835 0.800062 0.735857
O O4 0.751916 0.770911 0.625181
O O5 0.006452 0.500000 0.556062
O O6 0.841526 0.270365 0.495132
O O7 0.000000 0.224640 0.500000
O O8 0.283570 0.500000 0.803453
O O9 0.409952 0.217903 0.857085
O O10 0.159126 0.218646 0.743866
O O11 0.245990 0.279567 0.111247
O O12 0.130415 0.000000 0.038570
O O13 0.129342 0.272345 0.983185
O O14 0.000000 0.271824 0.000000
O O15 0.876574 0.500000 0.168996
O O16 0.918396 0.741190 0.128608
O O17 0.969907 0.770172 0.241689
O O18 0.960893 0.000000 0.093298
O O19 0.591231 0.276074 0.371032
O O20 0.471771 0.000000 0.300550
O O21 0.772842 0.500000 0.580355
#
# Coordination Sequence:
#
# PCOD9181141 Si02
#       8
#     8   8   8   8   8   8   8   8
#     4  10  19  32  52  77 103 130 164 206 253 303
#     4   9  17  30  50  76 103 130 164 204 247 298
#     4  10  20  34  51  71  99 134 170 209 253 301
#     4   9  17  31  53  79 105 136 175 214 251 297
#     4  10  19  33  55  78 101 134 175 214 252 300
#     4  10  20  33  51  77 106 134 168 213 259 299
#     4   9  18  33  52  73  97 130 172 212 251 298
#     4   9  17  31  51  73  98 128 164 208 253 297
#
# _framework density 25.681464999999999
#
# number of rings (size 3 to 8) (size 9 to 14) (size 15 to 20)
#    0.000    2.500    0.000    2.625    0.000    6.500 
#    0.000    2.500    0.000    3.000    0.000    0.000 
#    0.000    0.000    0.000    0.000    0.000    0.000 
#
# Total GULP energy -178826.015779 kJ/mol
# GULP energy per Si atom -5588.312993 kJ/mol
# Density = 2.562301 g / cm^3
# Si number density = 25.681465 Si / 1000 Ang^3
#
#
#
# Elastic Constant Matrix: (Units=GPa)
#
#
# Indices 1 2 3 4 5 6 
#
# 1 77.5996 -8.4257 14.6110 0.0000 17.4358 0.0001
# 2 -8.4257 65.2052 -0.5644 -0.0001 1.6702 0.0002
# 3 14.6110 -0.5644 136.8090 0.0000 17.6543 0.0000
# 4 0.0000 -0.0001 0.0000 7.7831 0.0000 -4.9728
# 5 17.4358 1.6702 17.6543 0.0000 49.2822 0.0000
# 6 0.0001 0.0002 0.0000 -4.9728 0.0000 1.3763
#
#
#
# Elastic Compliance Matrix: (Units=1/GPa)
#
#
# Indices 1 2 3 4 5 6 
#
# 1 0.014354 0.001971 -0.000903 0.000000 -0.004822 0.000001
# 2 0.001971 0.015622 0.000013 0.000001 -0.001231 0.000001
# 3 -0.000903 0.000013 0.007722 0.000000 -0.002447 0.000000
# 4 0.000000 0.000001 0.000000 -0.098183 0.000000 -0.354763
# 5 -0.004822 -0.001231 -0.002447 0.000000 0.022916 -0.000001
# 6 0.000001 0.000001 0.000000 -0.354763 -0.000001 -0.555251
#
#
# Mechanical properties :
#
#
# Convention : Reuss Voigt Hill
#
# Bulk Modulus (GPa) = 25.08798 32.31725 28.70262
# Shear Modulus (GPa) = -8.59557 29.95450 10.67946
#
# Velocity S-wave (km/s) = -1.83146 3.41894 2.04144
# Velocity P-wave (km/s) = 2.30603 5.31006 4.09356
#
# Compressibility (1/GPa) = 0.03985972
#
# Stress axis : x y z
#
# Youngs Moduli (GPa) = 69.66702 64.01030 129.50493
#
# Poissons Ratio (x) = -0.12613 0.11689
# Poissons Ratio (y) = -0.13728 -0.00167
# Poissons Ratio (z) = 0.06288 -0.00082
#
# Static dielectric constant tensor:
#      x y z
#    x 2.092830 0.000000 0.005080 
#    y 0.000000 1.996090 0.000000 
#    z 0.005080 0.000000 1.986600 
# 
# From -- ./inp_files/378303.got.cif
#   From: 2010.05.17/outbox.cif.g08.bks.cpg/sg12_190_cif.got.tgz:378303.got - 2010.06.03 13:09:07.
