data_PCOD9181451
_publ_section_title
;
Structure prediction by ZEFSAII (Michael W. Deem and Ramdas Pophale) SiO2 
 PCOD9181451
Probable space group: C 2/M
;
_chemical_formula_sum "Si O2"
_cell_formula_units_Z 44
_cell_length_a 13.053752
_cell_length_b 28.010982
_cell_length_c 5.211329
_cell_angle_alpha 90.000000
_cell_angle_beta 97.129836
_cell_angle_gamma 90.000000
_cell_volume 1890.779671
_symmetry_space_group_name_H-M "C 2/M"
_symmetry_group_IT_number 12
_symmetry_cell_setting 'monoclinic'
loop_
_space_group_symop_operation_xyz
x,y,z
-x,y,-z
-x,-y,-z
x,-y,z
1/2+x,1/2+y,z
1/2-x,1/2+y,-z
1/2-x,1/2-y,-z
1/2+x,1/2-y,z
loop_
_atom_site_type_symbol
_atom_site_label
_atom_site_fract_x
_atom_site_fract_y
_atom_site_fract_z
Si Si1 0.885095 0.899448 0.419885
Si Si2 0.928290 0.602571 0.228206
Si Si3 0.926992 0.500000 0.226729
Si Si4 0.172472 0.200972 0.772098
Si Si5 0.125711 0.054996 0.081252
Si Si6 0.304322 0.803362 0.310901
O O1 0.893152 0.845657 0.316630
O O2 0.839083 0.908649 0.685431
O O3 0.000000 0.918591 0.500000
O O4 0.830646 0.929573 0.181347
O O5 0.871144 0.551069 0.203409
O O6 0.862163 0.649731 0.240620
O O7 0.000000 0.601055 0.500000
O O8 0.000000 0.606238 0.000000
O O9 0.000000 0.500000 0.500000
O O10 0.000000 0.500000 0.000000
O O11 0.265834 0.194869 0.592870
O O12 0.131742 0.254112 0.703294
O O13 0.209847 0.200962 0.077871
O O14 0.145655 0.000000 0.154739
O O15 0.000000 0.059341 0.000000
#
# Coordination Sequence:
#
# PCOD9181451 Si02
#       6
#     8   8   4   8   8   8
#     4  10  19  32  53  78 102 136 181 230 266 303
#     4  10  19  34  58  86 108 138 179 224 268 322
#     4   8  16  30  52  80 108 134 165 210 273 324
#     4  10  21  37  54  75 107 150 181 216 272 324
#     4   9  17  30  50  74 100 133 172 214 266 317
#     4  10  21  37  56  76 108 149 180 213 271 333
#
# _framework density 23.270826
#
# number of rings (size 3 to 8) (size 9 to 14) (size 15 to 20)
#    0.000    2.364    0.000    2.727    0.000    2.909 
#    0.000    2.727   12.000    0.000    0.000    0.000 
#    0.000    0.000    0.000    0.000    0.000    0.000 
#
# Total GULP energy -122753.487390 kJ/mol
# GULP energy per Si atom -5579.703972 kJ/mol
# Density = 2.321786 g / cm^3
# Si number density = 23.270826 Si / 1000 Ang^3
#
#
#
# Elastic Constant Matrix: (Units=GPa)
#
#
# Indices 1 2 3 4 5 6 
#
# 1 23.8555 13.1793 11.1109 0.0000 -2.8788 0.0000
# 2 13.1793 155.5722 20.7263 0.0000 -3.1161 0.0000
# 3 11.1109 20.7263 150.4361 0.0000 -5.6571 0.0000
# 4 0.0000 0.0000 0.0000 36.0569 0.0000 0.7428
# 5 -2.8788 -3.1161 -5.6571 0.0000 21.9500 0.0000
# 6 0.0000 0.0000 0.0000 0.7428 0.0000 37.1020
#
#
#
# Elastic Compliance Matrix: (Units=1/GPa)
#
#
# Indices 1 2 3 4 5 6 
#
# 1 0.045649 -0.003408 -0.002721 0.000000 0.004802 0.000000
# 2 -0.003408 0.006813 -0.000674 0.000000 0.000347 0.000000
# 3 -0.002721 -0.000674 0.006992 0.000000 0.001349 0.000000
# 4 0.000000 0.000000 0.000000 0.027745 0.000000 -0.000555
# 5 0.004802 0.000347 0.001349 0.000000 0.046585 0.000000
# 6 0.000000 0.000000 0.000000 -0.000555 0.000000 0.026964
#
#
# Mechanical properties :
#
#
# Convention : Reuss Voigt Hill
#
# Bulk Modulus (GPa) = 21.81176 46.65519 34.23347
# Shear Modulus (GPa) = 26.36602 38.01161 32.18882
#
# Velocity S-wave (km/s) = 3.36967 4.04597 3.72321
# Velocity P-wave (km/s) = 4.95307 6.47448 5.76419
#
# Compressibility (1/GPa) = 0.04584683
#
# Stress axis : x y z
#
# Youngs Moduli (GPa) = 21.90629 146.77062 143.02195
#
# Poissons Ratio (x) = 0.50025 0.38922
# Poissons Ratio (y) = 0.07467 0.09639
# Poissons Ratio (z) = 0.05962 0.09891
#
# Static dielectric constant tensor:
#      x y z
#    x 1.913840 0.000000 -0.006940 
#    y 0.000000 1.912160 0.000000 
#    z -0.006940 0.000000 1.859030 
# 
# From -- ./inp_files/12105.got.cif
#   From: 2010.05.17/outbox.cif.g08.bks.cpg/sg12_7_cif.got.tgz:12105.got - 2010.06.03 13:09:07.
