data_PCOD9181853
_publ_section_title
;
Structure prediction by ZEFSAII (Michael W. Deem and Ramdas Pophale) SiO2 
 PCOD9181853
Probable space group: C 2/M
;
_chemical_formula_sum "Si O2"
_cell_formula_units_Z 64
_cell_length_a 17.959895
_cell_length_b 13.707852
_cell_length_c 26.953668
_cell_angle_alpha 90.000000
_cell_angle_beta 33.474765
_cell_angle_gamma 90.000000
_cell_volume 3660.087298
_symmetry_space_group_name_H-M "C 2/M"
_symmetry_group_IT_number 12
_symmetry_cell_setting 'monoclinic'
loop_
_space_group_symop_operation_xyz
x,y,z
-x,y,-z
-x,-y,-z
x,-y,z
1/2+x,1/2+y,z
1/2-x,1/2+y,-z
1/2-x,1/2-y,-z
1/2+x,1/2-y,z
loop_
_atom_site_type_symbol
_atom_site_label
_atom_site_fract_x
_atom_site_fract_y
_atom_site_fract_z
Si Si1 0.880438 0.392075 0.836570
Si Si2 0.344670 0.384734 0.652475
Si Si3 0.362351 0.384577 0.472353
Si Si4 0.333971 0.841851 0.972752
Si Si5 0.612157 0.116012 0.863838
Si Si6 0.823706 0.694674 0.343328
Si Si7 0.574443 0.611617 0.677267
Si Si8 0.277889 0.679886 0.863026
O O1 0.850728 0.500000 0.831593
O O2 0.852519 0.398403 0.911066
O O3 0.802019 0.296385 0.858878
O O4 0.038681 0.365978 0.741701
O O5 0.352857 0.500000 0.636279
O O6 0.493011 0.351431 0.586268
O O7 0.238844 0.374151 0.756239
O O8 0.283428 0.331692 0.639154
O O9 0.350311 0.500000 0.489622
O O10 0.241904 0.332062 0.567546
O O11 0.368289 0.374113 0.409956
O O12 0.484649 0.829111 0.910781
O O13 0.250000 0.750000 0.000000
O O14 0.252550 0.872038 0.067341
O O15 0.659153 0.157437 0.890475
O O16 0.579416 0.000000 0.885772
O O17 0.861794 0.808186 0.322321
O O18 0.596116 0.500000 0.679987
O O19 0.415088 0.635012 0.764902
#
# Coordination Sequence:
#
# PCOD9181853 Si02
#       8
#     8   8   8   8   8   8   8   8
#     4  10  20  35  54  80 111 142 178 220 262 317
#     4  10  19  32  54  82 108 134 171 222 274 316
#     4  10  19  33  54  81 109 134 172 223 270 318
#     4  10  21  35  54  81 109 136 171 216 265 320
#     4  11  20  34  57  81 108 139 175 221 269 313
#     4  11  20  32  54  81 107 144 177 215 271 319
#     4  10  21  36  52  77 111 142 179 222 262 310
#     4  10  21  35  55  82 108 144 178 219 267 316
#
# _framework density 17.485921999999999
#
# number of rings (size 3 to 8) (size 9 to 14) (size 15 to 20)
#    0.000    1.750    2.500    3.000    0.000    3.500 
#    0.000    0.000    0.000    9.000    0.000    0.000 
#    0.000    0.000    0.000    0.000    0.000    0.000 
#
# Total GULP energy -178393.652655 kJ/mol
# GULP energy per Si atom -5574.801645 kJ/mol
# Density = 1.744612 g / cm^3
# Si number density = 17.485922 Si / 1000 Ang^3
#
#
#
# Elastic Constant Matrix: (Units=GPa)
#
#
# Indices 1 2 3 4 5 6 
#
# 1 46.7084 29.0478 3.7380 0.0000 0.6556 0.0000
# 2 29.0478 88.2553 38.1150 0.0000 -1.1394 0.0000
# 3 3.7380 38.1150 72.6545 -0.0004 7.4918 0.0001
# 4 0.0000 0.0000 -0.0004 -21.0230 0.0001 28.6425
# 5 0.6556 -1.1394 7.4918 0.0001 24.0207 0.0000
# 6 0.0000 0.0000 0.0001 28.6425 0.0000 3.6539
#
#
#
# Elastic Compliance Matrix: (Units=1/GPa)
#
#
# Indices 1 2 3 4 5 6 
#
# 1 0.028137 -0.011374 0.004809 0.000000 -0.002807 0.000000
# 2 -0.011374 0.019489 -0.010091 0.000000 0.004382 0.000000
# 3 0.004809 -0.010091 0.019500 0.000000 -0.006692 0.000000
# 4 0.000000 0.000000 0.000000 -0.004072 0.000000 0.031924
# 5 -0.002807 0.004382 -0.006692 0.000000 0.044002 0.000000
# 6 0.000000 0.000000 0.000000 0.031924 0.000000 0.023431
#
#
# Mechanical properties :
#
#
# Convention : Reuss Voigt Hill
#
# Bulk Modulus (GPa) = 29.57321 38.82442 34.19881
# Shear Modulus (GPa) = 28.55989 10.44480 19.50235
#
# Velocity S-wave (km/s) = 4.04580 2.44668 3.34326
# Velocity P-wave (km/s) = 6.22688 5.49846 5.87397
#
# Compressibility (1/GPa) = 0.03381439
#
# Stress axis : x y z
#
# Youngs Moduli (GPa) = 35.53989 51.31168 51.28214
#
# Poissons Ratio (x) = 0.58362 -0.24660
# Poissons Ratio (y) = 0.40423 0.51747
# Poissons Ratio (z) = -0.17090 0.51776
#
# Static dielectric constant tensor:
#      x y z
#    x 1.580370 0.000000 0.018310 
#    y 0.000000 1.600310 0.000000 
#    z 0.018310 0.000000 1.623070 
# 
# From -- ./inp_files/315713.got.cif
#   From: 2010.05.17/outbox.cif.g08.bks.cpg/sg12_158_cif.got.tgz:315713.got - 2010.06.03 13:09:07.
