data_PCOD9181061
_publ_section_title
;
Structure prediction by ZEFSAII (Michael W. Deem and Ramdas Pophale) SiO2 
 PCOD9181061
Probable space group: C 2/M
;
_chemical_formula_sum "Si O2"
_cell_formula_units_Z 48
_cell_length_a 18.816729
_cell_length_b 9.029385
_cell_length_c 16.459731
_cell_angle_alpha 90.000000
_cell_angle_beta 90.241018
_cell_angle_gamma 90.000000
_cell_volume 2796.541008
_symmetry_space_group_name_H-M "C 2/M"
_symmetry_group_IT_number 12
_symmetry_cell_setting 'monoclinic'
loop_
_space_group_symop_operation_xyz
x,y,z
-x,y,-z
-x,-y,-z
x,-y,z
1/2+x,1/2+y,z
1/2-x,1/2+y,-z
1/2-x,1/2-y,-z
1/2+x,1/2-y,z
loop_
_atom_site_type_symbol
_atom_site_label
_atom_site_fract_x
_atom_site_fract_y
_atom_site_fract_z
Si Si1 0.716714 0.676074 0.921421
Si Si2 0.330557 0.175570 0.327793
Si Si3 0.051718 0.176006 0.261744
Si Si4 0.412024 0.322904 0.178447
Si Si5 0.704371 0.823195 0.247493
Si Si6 0.969554 0.322467 0.411436
O O1 0.721758 0.500000 0.931366
O O2 0.633850 0.711840 0.901771
O O3 0.759964 0.715527 0.839495
O O4 0.750000 0.750000 0.000000
O O5 0.375482 0.228939 0.249583
O O6 0.256038 0.258670 0.317591
O O7 0.385358 0.210822 0.400897
O O8 0.318577 0.000000 0.325623
O O9 0.126288 0.256089 0.251391
O O10 0.995800 0.204018 0.187644
O O11 0.012938 0.236260 0.342466
O O12 0.062058 0.000000 0.267889
O O13 0.400909 0.500000 0.194798
O O14 0.702393 0.000000 0.253856
O O15 0.977446 0.500000 0.397546
O O16 0.000000 0.287683 0.500000
#
# Coordination Sequence:
#
# PCOD9181061 Si02
#       6
#     8   8   8   8   8   8
#     4   9  18  32  50  71  95 125 159 196 239 286
#     4   9  16  28  49  73  94 123 164 198 229 282
#     4  10  19  32  52  75  97 125 164 204 239 281
#     4   8  16  31  48  68  96 127 158 194 238 285
#     4  10  20  34  50  70  99 130 160 198 244 287
#     4   9  18  33  52  74 101 130 158 194 242 290
#
# _framework density 17.164061
#
# number of rings (size 3 to 8) (size 9 to 14) (size 15 to 20)
#    0.000    2.833    0.000    2.500    0.000    5.000 
#    0.000    1.667    0.000    5.000    0.000    0.000 
#    0.000    0.000    0.000    0.000    0.000    0.000 
#
# Total GULP energy -133614.371758 kJ/mol
# GULP energy per Si atom -5567.265490 kJ/mol
# Density = 1.712499 g / cm^3
# Si number density = 17.164061 Si / 1000 Ang^3
#
#
#
# Elastic Constant Matrix: (Units=GPa)
#
#
# Indices 1 2 3 4 5 6 
#
# 1 170.4013 62.0352 59.1630 0.0000 37.2171 0.0000
# 2 62.0352 45.0100 33.7490 0.0000 15.5903 0.0000
# 3 59.1630 33.7490 76.0253 0.0000 38.8222 0.0000
# 4 0.0000 0.0000 0.0000 22.6172 0.0000 1.9030
# 5 37.2171 15.5903 38.8222 0.0000 31.4180 0.0000
# 6 0.0000 0.0000 0.0000 1.9030 0.0000 27.6336
#
#
#
# Elastic Compliance Matrix: (Units=1/GPa)
#
#
# Indices 1 2 3 4 5 6 
#
# 1 0.013376 -0.016504 0.002240 0.000000 -0.010422 0.000000
# 2 -0.016504 0.053928 -0.020092 0.000000 0.017618 0.000000
# 3 0.002240 -0.020092 0.044968 0.000000 -0.048248 0.000000
# 4 0.000000 0.000000 0.000000 0.044472 0.000000 -0.003063
# 5 -0.010422 0.017618 -0.048248 0.000000 0.095051 0.000000
# 6 0.000000 0.000000 0.000000 -0.003063 0.000000 0.036399
#
#
# Mechanical properties :
#
#
# Convention : Reuss Voigt Hill
#
# Bulk Modulus (GPa) = 22.95844 66.81455 44.88649
# Shear Modulus (GPa) = 13.46165 25.43305 19.44735
#
# Velocity S-wave (km/s) = 2.80356 3.85354 3.36970
# Velocity P-wave (km/s) = 4.88721 7.66885 6.43024
#
# Compressibility (1/GPa) = 0.04355697
#
# Stress axis : x y z
#
# Youngs Moduli (GPa) = 74.76263 18.54340 22.23817
#
# Poissons Ratio (x) = 0.30605 -0.04981
# Poissons Ratio (y) = 1.23392 0.44682
# Poissons Ratio (z) = -0.16745 0.37258
#
# Static dielectric constant tensor:
#      x y z
#    x 1.614690 0.000000 0.035420 
#    y 0.000000 1.571810 0.000000 
#    z 0.035420 0.000000 1.575840 
# 
# From -- ./inp_files/221530.got.cif
#   From: 2010.05.17/outbox.cif.g08.bks.cpg/sg12_111_cif.got.tgz:221530.got - 2010.06.03 13:09:07.
