data_PCOD9181858
_publ_section_title
;
Structure prediction by ZEFSAII (Michael W. Deem and Ramdas Pophale) SiO2 
 PCOD9181858
Probable space group: C 2/M
;
_chemical_formula_sum "Si O2"
_cell_formula_units_Z 56
_cell_length_a 21.109107
_cell_length_b 7.746885
_cell_length_c 17.762285
_cell_angle_alpha 90.000000
_cell_angle_beta 74.752442
_cell_angle_gamma 90.000000
_cell_volume 2802.414937
_symmetry_space_group_name_H-M "C 2/M"
_symmetry_group_IT_number 12
_symmetry_cell_setting 'monoclinic'
loop_
_space_group_symop_operation_xyz
x,y,z
-x,y,-z
-x,-y,-z
x,-y,z
1/2+x,1/2+y,z
1/2-x,1/2+y,-z
1/2-x,1/2-y,-z
1/2+x,1/2-y,z
loop_
_atom_site_type_symbol
_atom_site_label
_atom_site_fract_x
_atom_site_fract_y
_atom_site_fract_z
Si Si1 0.431297 0.292220 0.326780
Si Si2 0.683611 0.712216 0.747386
Si Si3 0.174334 0.700969 0.345704
Si Si4 0.655235 0.204236 0.084918
Si Si5 0.699527 0.708087 0.912398
Si Si6 0.427267 0.207723 0.500406
Si Si7 0.577310 0.299093 0.247475
O O1 0.433189 0.500000 0.319539
O O2 0.376657 0.230080 0.285287
O O3 0.414112 0.247745 0.417809
O O4 0.504781 0.227877 0.285933
O O5 0.684460 0.500000 0.747236
O O6 0.753474 0.773401 0.692355
O O7 0.678841 0.766180 0.836025
O O8 0.184690 0.500000 0.361425
O O9 0.128764 0.776419 0.425949
O O10 0.131749 0.710616 0.282750
O O11 0.726449 0.270594 0.091719
O O12 0.598989 0.282947 0.154285
O O13 0.653524 0.000000 0.097868
O O14 0.654137 0.238797 0.996372
O O15 0.701898 0.500000 0.911288
O O16 0.500000 0.273088 0.500000
O O17 0.429083 0.000000 0.509142
O O18 0.577879 0.500000 0.268864
#
# Coordination Sequence:
#
# PCOD9181858 Si02
#       7
#     8   8   8   8   8   8   8
#     4  10  22  37  55  78 109 144 178 221 268 318
#     4   9  18  36  57  78 106 143 181 216 266 321
#     4  10  19  35  58  79 103 141 183 221 264 318
#     4  10  19  32  54  82 108 139 177 221 267 312
#     4   9  17  32  55  80 106 138 176 221 265 312
#     4  10  20  34  55  81 109 140 178 222 269 321
#     4  11  21  33  52  81 109 138 179 223 265 313
#
# _framework density 19.982766000000002
#
# number of rings (size 3 to 8) (size 9 to 14) (size 15 to 20)
#    0.000    2.143    2.857    0.857    0.000    2.571 
#    0.000    2.143    0.000    4.286    0.000    0.000 
#    0.000    0.000    0.000    0.000    0.000    0.000 
#
# Total GULP energy -156307.148855 kJ/mol
# GULP energy per Si atom -5582.398173 kJ/mol
# Density = 1.993728 g / cm^3
# Si number density = 19.982766 Si / 1000 Ang^3
#
#
#
# Elastic Constant Matrix: (Units=GPa)
#
#
# Indices 1 2 3 4 5 6 
#
# 1 71.7216 -7.0709 34.8438 0.0000 6.6956 0.0000
# 2 -7.0709 26.6579 -11.5339 0.0000 -1.1447 0.0000
# 3 34.8438 -11.5339 140.5272 0.0000 0.5484 0.0000
# 4 0.0000 0.0000 0.0000 20.1807 0.0000 9.6601
# 5 6.6956 -1.1447 0.5484 0.0000 32.3647 0.0000
# 6 0.0000 0.0000 0.0000 9.6601 0.0000 6.6620
#
#
#
# Elastic Compliance Matrix: (Units=1/GPa)
#
#
# Indices 1 2 3 4 5 6 
#
# 1 0.016358 0.002541 -0.003835 0.000000 -0.003229 0.000000
# 2 0.002541 0.039345 0.002596 0.000000 0.000822 0.000000
# 3 -0.003835 0.002596 0.008277 0.000000 0.000745 0.000000
# 4 0.000000 0.000000 0.000000 0.161989 0.000000 -0.234889
# 5 -0.003229 0.000822 0.000745 0.000000 0.031582 0.000000
# 6 0.000000 0.000000 0.000000 -0.234889 0.000000 0.490700
#
#
# Mechanical properties :
#
#
# Convention : Reuss Voigt Hill
#
# Bulk Modulus (GPa) = 15.01858 30.15385 22.58622
# Shear Modulus (GPa) = 6.51176 26.68599 16.59887
#
# Velocity S-wave (km/s) = 1.80714 3.65835 2.88524
# Velocity P-wave (km/s) = 3.44767 5.74172 4.73570
#
# Compressibility (1/GPa) = 0.06658418
#
# Stress axis : x y z
#
# Youngs Moduli (GPa) = 61.13298 25.41629 120.81595
#
# Poissons Ratio (x) = -0.06458 0.46330
# Poissons Ratio (y) = -0.15534 -0.31364
# Poissons Ratio (z) = 0.23443 -0.06598
#
# Static dielectric constant tensor:
#      x y z
#    x 1.683730 0.000000 -0.018270 
#    y 0.000000 1.740000 0.000000 
#    z -0.018270 0.000000 1.700270 
# 
# From -- ./inp_files/275221.got.cif
#   From: 2010.05.17/outbox.cif.g08.bks.cpg/sg12_138_cif.got.tgz:275221.got - 2010.06.03 13:09:07.
