data_PCOD9181204
_publ_section_title
;
Structure prediction by ZEFSAII (Michael W. Deem and Ramdas Pophale) SiO2 
 PCOD9181204
Probable space group: C 2/M
;
_chemical_formula_sum "Si O2"
_cell_formula_units_Z 40
_cell_length_a 25.209890
_cell_length_b 9.313650
_cell_length_c 7.948008
_cell_angle_alpha 90.000000
_cell_angle_beta 109.018513
_cell_angle_gamma 90.000000
_cell_volume 1764.293693
_symmetry_space_group_name_H-M "C 2/M"
_symmetry_group_IT_number 12
_symmetry_cell_setting 'monoclinic'
loop_
_space_group_symop_operation_xyz
x,y,z
-x,y,-z
-x,-y,-z
x,-y,z
1/2+x,1/2+y,z
1/2-x,1/2+y,-z
1/2-x,1/2-y,-z
1/2+x,1/2-y,z
loop_
_atom_site_type_symbol
_atom_site_label
_atom_site_fract_x
_atom_site_fract_y
_atom_site_fract_z
Si Si1 0.116995 0.668425 0.175551
Si Si2 0.585418 0.333933 0.674293
Si Si3 0.178116 0.662984 0.599455
Si Si4 0.714079 0.669534 0.105009
Si Si5 0.980083 0.168907 0.751335
O O1 0.111416 0.500000 0.127156
O O2 0.152755 0.678292 0.387568
O O3 0.155067 0.756059 0.084104
O O4 0.057702 0.742251 0.158929
O O5 0.593488 0.500000 0.724697
O O6 0.643929 0.262176 0.692073
O O7 0.552905 0.327324 0.461247
O O8 0.541861 0.273538 0.766673
O O9 0.166118 0.500000 0.640691
O O10 0.244365 0.683329 0.689959
O O11 0.707644 0.500000 0.063416
O O12 0.750000 0.750000 0.000000
O O13 0.983019 0.000000 0.800685
#
# Coordination Sequence:
#
# PCOD9181204 Si02
#       5
#     8   8   8   8   8
#     4  10  19  32  52  78 103 131 166 204 246 295
#     4   8  14  25  45  72 102 133 164 197 239 289
#     4   9  19  33  51  76 104 131 164 205 249 294
#     4  11  23  38  53  71  98 133 169 209 253 298
#     4   8  14  26  44  71 104 134 162 197 240 288
#
# _framework density 22.671963000000002
#
# number of rings (size 3 to 8) (size 9 to 14) (size 15 to 20)
#    0.000    2.800    0.000    3.000    0.000    3.200 
#    0.000    4.000    0.000    1.200    0.000    8.400 
#    0.000    0.000    0.000    0.000    0.000    0.000 
#
# Total GULP energy -111732.617214 kJ/mol
# GULP energy per Si atom -5586.630861 kJ/mol
# Density = 2.262036 g / cm^3
# Si number density = 22.671963 Si / 1000 Ang^3
#
#
#
# Elastic Constant Matrix: (Units=GPa)
#
#
# Indices 1 2 3 4 5 6 
#
# 1 165.2791 86.6300 15.0994 0.0000 -33.6943 0.0000
# 2 86.6300 125.5979 20.2928 0.0000 -49.8928 0.0000
# 3 15.0994 20.2928 71.2365 0.0000 -10.9731 0.0000
# 4 0.0000 0.0000 0.0000 11.0832 0.0000 -13.8187
# 5 -33.6943 -49.8928 -10.9731 0.0000 47.7349 0.0000
# 6 0.0000 0.0000 0.0000 -13.8187 0.0000 33.7194
#
#
#
# Elastic Compliance Matrix: (Units=1/GPa)
#
#
# Indices 1 2 3 4 5 6 
#
# 1 0.009480 -0.006616 -0.000165 0.000000 -0.000261 0.000000
# 2 -0.006616 0.018445 -0.001661 0.000000 0.014227 0.000000
# 3 -0.000165 -0.001661 0.014784 0.000000 0.001546 0.000000
# 4 0.000000 0.000000 0.000000 0.184498 0.000000 0.075610
# 5 -0.000261 0.014227 0.001546 0.000000 0.035991 0.000000
# 6 0.000000 0.000000 0.000000 0.075610 0.000000 0.060642
#
#
# Mechanical properties :
#
#
# Convention : Reuss Voigt Hill
#
# Bulk Modulus (GPa) = 38.72029 67.35089 53.03559
# Shear Modulus (GPa) = 14.31307 34.51359 24.41333
#
# Velocity S-wave (km/s) = 2.51532 3.90590 3.28503
# Velocity P-wave (km/s) = 5.05483 7.07903 6.15077
#
# Compressibility (1/GPa) = 0.02582625
#
# Stress axis : x y z
#
# Youngs Moduli (GPa) = 105.48788 54.21522 67.64089
#
# Poissons Ratio (x) = 0.35867 0.01116
# Poissons Ratio (y) = 0.69788 0.11232
# Poissons Ratio (z) = 0.01741 0.09003
#
# Static dielectric constant tensor:
#      x y z
#    x 1.829020 0.000000 0.059880 
#    y 0.000000 1.770910 0.000000 
#    z 0.059880 0.000000 1.910590 
# 
# From -- ./inp_files/92786.got.cif
#   From: 2010.05.17/outbox.cif.g08.bks.cpg/sg12_47_cif.got.tgz:92786.got - 2010.06.03 13:09:07.
