data_PCOD9181534
_publ_section_title
;
Structure prediction by ZEFSAII (Michael W. Deem and Ramdas Pophale) SiO2 
 PCOD9181534
Probable space group: C 2/M
;
_chemical_formula_sum "Si O2"
_cell_formula_units_Z 64
_cell_length_a 28.468209
_cell_length_b 18.379189
_cell_length_c 8.406905
_cell_angle_alpha 90.000000
_cell_angle_beta 52.402383
_cell_angle_gamma 90.000000
_cell_volume 3485.142320
_symmetry_space_group_name_H-M "C 2/M"
_symmetry_group_IT_number 12
_symmetry_cell_setting 'monoclinic'
loop_
_space_group_symop_operation_xyz
x,y,z
-x,y,-z
-x,-y,-z
x,-y,z
1/2+x,1/2+y,z
1/2-x,1/2+y,-z
1/2-x,1/2-y,-z
1/2+x,1/2-y,z
loop_
_atom_site_type_symbol
_atom_site_label
_atom_site_fract_x
_atom_site_fract_y
_atom_site_fract_z
Si Si1 0.484529 0.268908 0.343101
Si Si2 0.865813 0.211781 0.417160
Si Si3 0.690200 0.085406 0.829445
Si Si4 0.272912 0.685509 0.845555
Si Si5 0.349462 0.352553 0.966619
Si Si6 0.695243 0.585476 0.627574
Si Si7 0.599532 0.789853 0.979049
Si Si8 0.025717 0.922208 0.267637
O O1 0.500000 0.265682 0.500000
O O2 0.415399 0.266841 0.444910
O O3 0.500594 0.349314 0.242856
O O4 0.529457 0.213988 0.162270
O O5 0.802170 0.222687 0.630611
O O6 0.854389 0.129431 0.373594
O O7 0.883873 0.258249 0.227398
O O8 0.723795 0.126909 0.902346
O O9 0.739762 0.092254 0.586917
O O10 0.630994 0.132390 0.926417
O O11 0.679745 0.000000 0.877468
O O12 0.250000 0.750000 0.000000
O O13 0.322742 0.645574 0.846940
O O14 0.305751 0.377639 0.197025
O O15 0.371827 0.270621 0.960431
O O16 0.404800 0.406647 0.863806
O O17 0.681179 0.500000 0.664340
O O18 0.000000 0.923612 0.500000
O O19 0.012897 0.000000 0.218307
#
# Coordination Sequence:
#
# PCOD9181534 Si02
#       8
#     8   8   8   8   8   8   8   8
#     4  10  20  35  55  83 110 143 192 236 279 330
#     4  10  21  34  56  82 111 144 188 229 274 333
#     4  10  22  38  56  81 113 148 185 230 286 340
#     4  11  21  33  57  86 113 143 182 228 282 332
#     4  10  19  32  53  79 109 145 190 227 271 324
#     4   9  20  35  53  80 116 153 186 225 275 335
#     4  10  20  36  57  78 108 149 189 231 276 328
#     4   9  17  28  45  71 108 146 176 211 261 317
#
# _framework density 18.363669000000002
#
# number of rings (size 3 to 8) (size 9 to 14) (size 15 to 20)
#    0.000    2.125    1.250    3.000    1.750    3.000 
#    0.000    5.000    0.000    6.375    0.000    0.000 
#    0.000    0.000    0.000    0.000    0.000    0.000 
#
# Total GULP energy -178208.576242 kJ/mol
# GULP energy per Si atom -5569.018008 kJ/mol
# Density = 1.832187 g / cm^3
# Si number density = 18.363669 Si / 1000 Ang^3
#
#
#
# Elastic Constant Matrix: (Units=GPa)
#
#
# Indices 1 2 3 4 5 6 
#
# 1 36.5968 15.5065 9.5832 0.0000 -3.2752 0.0000
# 2 15.5065 100.8433 47.2718 0.0000 -15.5363 0.0000
# 3 9.5832 47.2718 69.1115 0.0000 -1.3689 0.0000
# 4 0.0000 0.0000 0.0000 52.2600 0.0000 3.4142
# 5 -3.2752 -15.5363 -1.3689 0.0000 21.7852 0.0000
# 6 0.0000 0.0000 0.0000 3.4142 0.0000 19.1057
#
#
#
# Elastic Compliance Matrix: (Units=1/GPa)
#
#
# Indices 1 2 3 4 5 6 
#
# 1 0.029391 -0.003445 -0.001682 0.000000 0.001856 0.000000
# 2 -0.003445 0.017436 -0.011226 0.000000 0.011211 0.000000
# 3 -0.001682 -0.011226 0.022245 0.000000 -0.006861 0.000000
# 4 0.000000 0.000000 0.000000 0.019361 0.000000 -0.003460
# 5 0.001856 0.011211 -0.006861 0.000000 0.053746 0.000000
# 6 0.000000 0.000000 0.000000 -0.003460 0.000000 0.052959
#
#
# Mechanical properties :
#
#
# Convention : Reuss Voigt Hill
#
# Bulk Modulus (GPa) = 27.49870 39.03049 33.26459
# Shear Modulus (GPa) = 20.83621 27.57617 24.20619
#
# Velocity S-wave (km/s) = 3.37210 3.87934 3.63458
# Velocity P-wave (km/s) = 5.49258 6.43165 5.98057
#
# Compressibility (1/GPa) = 0.03636536
#
# Stress axis : x y z
#
# Youngs Moduli (GPa) = 34.02395 57.35334 44.95300
#
# Poissons Ratio (x) = 0.19757 0.07563
# Poissons Ratio (y) = 0.11720 0.50465
# Poissons Ratio (z) = 0.05725 0.64386
#
# Static dielectric constant tensor:
#      x y z
#    x 1.691920 0.000000 -0.000290 
#    y 0.000000 1.625730 0.000000 
#    z -0.000290 0.000000 1.684700 
# 
# From -- ./inp_files/112850.got.cif
#   From: 2010.05.17/outbox.cif.g08.bks.cpg/sg12_57_cif.got.tgz:112850.got - 2010.06.03 13:09:07.
