data_PCOD9181787
_publ_section_title
;
Structure prediction by ZEFSAII (Michael W. Deem and Ramdas Pophale) SiO2 
 PCOD9181787
Probable space group: C 2/M
;
_chemical_formula_sum "Si O2"
_cell_formula_units_Z 64
_cell_length_a 27.772989
_cell_length_b 14.011825
_cell_length_c 21.799500
_cell_angle_alpha 90.000000
_cell_angle_beta 157.703293
_cell_angle_gamma 90.000000
_cell_volume 3218.582171
_symmetry_space_group_name_H-M "C 2/M"
_symmetry_group_IT_number 12
_symmetry_cell_setting 'monoclinic'
loop_
_space_group_symop_operation_xyz
x,y,z
-x,y,-z
-x,-y,-z
x,-y,z
1/2+x,1/2+y,z
1/2-x,1/2+y,-z
1/2-x,1/2-y,-z
1/2+x,1/2-y,z
loop_
_atom_site_type_symbol
_atom_site_label
_atom_site_fract_x
_atom_site_fract_y
_atom_site_fract_z
Si Si1 0.954354 0.104032 0.516541
Si Si2 0.306221 0.603421 0.759748
Si Si3 0.809926 0.611135 0.141190
Si Si4 0.366633 0.277546 0.715672
Si Si5 0.576006 0.388628 0.785600
Si Si6 0.197227 0.885919 0.478524
Si Si7 0.950596 0.313691 0.511802
Si Si8 0.401111 0.393544 0.007819
O O1 0.063990 0.112553 0.697706
O O2 0.890200 0.207296 0.446304
O O3 0.000000 0.100424 0.500000
O O4 0.891762 0.000000 0.455786
O O5 0.333265 0.500000 0.763878
O O6 0.341629 0.683157 0.753440
O O7 0.378462 0.610067 0.908983
O O8 0.158961 0.612448 0.602919
O O9 0.844012 0.500000 0.167766
O O10 0.935990 0.670225 0.305632
O O11 0.729196 0.611811 0.108942
O O12 0.707081 0.647906 0.969783
O O13 0.311244 0.172093 0.644710
O O14 0.297526 0.345969 0.584601
O O15 0.512093 0.303911 0.872819
O O16 0.579341 0.500000 0.807915
O O17 0.439396 0.355580 0.652145
O O18 0.208126 0.000000 0.495044
O O19 0.000000 0.324010 0.500000
O O20 0.455122 0.500000 0.087110
#
# Coordination Sequence:
#
# PCOD9181787 Si02
#       8
#     8   8   8   8   8   8   8   8
#     4   9  19  35  54  75 102 139 187 237 271 311
#     4  11  22  34  54  83 115 143 176 228 287 338
#     4  10  19  32  54  80 108 143 182 224 269 331
#     4  11  21  34  56  84 111 142 185 231 279 326
#     4   9  17  33  56  79 104 140 185 224 267 326
#     4  10  20  35  57  82 110 146 186 228 274 330
#     4  11  21  34  53  80 111 147 183 222 274 338
#     4  10  19  34  55  79 109 145 182 226 277 334
#
# _framework density 19.884532
#
# number of rings (size 3 to 8) (size 9 to 14) (size 15 to 20)
#    0.000    1.875    2.500    2.625    0.000    2.000 
#    0.000    0.000    0.000    3.000    0.000    0.000 
#    0.000    0.000    0.000    0.000    0.000    0.000 
#
# Total GULP energy -178216.573100 kJ/mol
# GULP energy per Si atom -5569.267909 kJ/mol
# Density = 1.983927 g / cm^3
# Si number density = 19.884532 Si / 1000 Ang^3
#
#
#
# Elastic Constant Matrix: (Units=GPa)
#
#
# Indices 1 2 3 4 5 6 
#
# 1 51.1071 10.4289 18.0758 0.0000 -19.7064 0.0000
# 2 10.4289 105.6636 31.0318 0.0000 6.8726 0.0000
# 3 18.0758 31.0318 81.1611 0.0000 -4.4755 0.0000
# 4 0.0000 0.0000 0.0000 28.6667 0.0000 -1.7198
# 5 -19.7064 6.8726 -4.4755 0.0000 36.8642 0.0000
# 6 0.0000 0.0000 0.0000 -1.7198 0.0000 5.3868
#
#
#
# Elastic Compliance Matrix: (Units=1/GPa)
#
#
# Indices 1 2 3 4 5 6 
#
# 1 0.027144 -0.002337 -0.004357 0.000000 0.014417 0.000000
# 2 -0.002337 0.011096 -0.003931 0.000000 -0.003795 0.000000
# 3 -0.004357 -0.003931 0.014806 0.000000 0.000201 0.000000
# 4 0.000000 0.000000 0.000000 0.035565 0.000000 0.011355
# 5 0.014417 -0.003795 0.000201 0.000000 0.035565 0.000000
# 6 0.000000 0.000000 0.000000 0.011355 0.000000 0.189263
#
#
# Mechanical properties :
#
#
# Convention : Reuss Voigt Hill
#
# Bulk Modulus (GPa) = 31.45157 39.66720 35.55939
# Shear Modulus (GPa) = 14.48069 26.07658 20.27863
#
# Velocity S-wave (km/s) = 2.70152 3.62525 3.19693
# Velocity P-wave (km/s) = 5.05790 6.12498 5.61684
#
# Compressibility (1/GPa) = 0.03179491
#
# Stress axis : x y z
#
# Youngs Moduli (GPa) = 36.84118 90.12173 67.54149
#
# Poissons Ratio (x) = 0.21064 0.29426
# Poissons Ratio (y) = 0.08611 0.26553
# Poissons Ratio (z) = 0.16050 0.35430
#
# Static dielectric constant tensor:
#      x y z
#    x 1.707010 0.000000 -0.017370 
#    y 0.000000 1.734250 0.000000 
#    z -0.017370 0.000000 1.739740 
# 
# From -- ./inp_files/189430.got.cif
#   From: 2010.05.17/outbox.cif.g08.bks.cpg/sg12_95_cif.got.tgz:189430.got - 2010.06.03 13:09:07.
