data_PCOD9181170
_publ_section_title
;
Structure prediction by ZEFSAII (Michael W. Deem and Ramdas Pophale) SiO2 
 PCOD9181170
Probable space group: C 2/M
;
_chemical_formula_sum "Si O2"
_cell_formula_units_Z 48
_cell_length_a 19.015084
_cell_length_b 8.997995
_cell_length_c 25.947297
_cell_angle_alpha 90.000000
_cell_angle_beta 41.282203
_cell_angle_gamma 90.000000
_cell_volume 2929.055167
_symmetry_space_group_name_H-M "C 2/M"
_symmetry_group_IT_number 12
_symmetry_cell_setting 'monoclinic'
loop_
_space_group_symop_operation_xyz
x,y,z
-x,y,-z
-x,-y,-z
x,-y,z
1/2+x,1/2+y,z
1/2-x,1/2+y,-z
1/2-x,1/2-y,-z
1/2+x,1/2-y,z
loop_
_atom_site_type_symbol
_atom_site_label
_atom_site_fract_x
_atom_site_fract_y
_atom_site_fract_z
Si Si1 0.907483 0.821320 0.010699
Si Si2 0.800567 0.673806 0.258841
Si Si3 0.677434 0.322260 0.151739
Si Si4 0.859564 0.323523 0.723129
Si Si5 0.021123 0.177622 0.144939
Si Si6 0.572353 0.324719 0.412997
O O1 0.943400 0.785535 0.932701
O O2 0.892469 0.000000 0.022679
O O3 0.796210 0.742227 0.083231
O O4 0.000000 0.779263 0.000000
O O5 0.810990 0.500000 0.240110
O O6 0.755626 0.764792 0.234349
O O7 0.699812 0.688073 0.353249
O O8 0.910621 0.740029 0.217031
O O9 0.680551 0.500000 0.155137
O O10 0.621830 0.251164 0.232314
O O11 0.611718 0.283879 0.136404
O O12 0.860115 0.500000 0.725960
O O13 0.937949 0.264140 0.634910
O O14 0.003941 0.000000 0.156770
O O15 0.500000 0.273113 0.500000
O O16 0.550610 0.500000 0.416164
#
# Coordination Sequence:
#
# PCOD9181170 Si02
#       6
#     8   8   8   8   8   8
#     4  10  21  36  54  75 101 135 177 222 268 308
#     4   9  18  32  53  79 104 135 172 209 258 312
#     4  11  22  35  51  74 105 142 181 216 260 308
#     4  10  19  32  52  77 105 135 174 217 258 304
#     4  10  21  35  51  75 108 142 174 216 263 309
#     4   8  16  32  54  81 109 134 166 211 260 309
#
# _framework density 16.387537999999999
#
# number of rings (size 3 to 8) (size 9 to 14) (size 15 to 20)
#    1.000    1.333    0.000    3.500    0.000    4.000 
#    0.000    0.000    0.000    1.000    0.000    0.000 
#    0.000    0.000    0.000    0.000    0.000    0.000 
#
# Total GULP energy -133653.687283 kJ/mol
# GULP energy per Si atom -5568.903637 kJ/mol
# Density = 1.635024 g / cm^3
# Si number density = 16.387538 Si / 1000 Ang^3
#
#
#
# Elastic Constant Matrix: (Units=GPa)
#
#
# Indices 1 2 3 4 5 6 
#
# 1 103.3619 47.1808 63.8092 0.0000 22.7175 0.0000
# 2 47.1808 55.0279 53.3896 0.0000 8.1462 0.0000
# 3 63.8092 53.3896 121.5573 0.0000 14.3292 0.0000
# 4 0.0000 0.0000 0.0000 22.3282 0.0000 -7.8282
# 5 22.7175 8.1462 14.3292 0.0000 14.4822 0.0000
# 6 0.0000 0.0000 0.0000 -7.8282 0.0000 19.2847
#
#
#
# Elastic Compliance Matrix: (Units=1/GPa)
#
#
# Indices 1 2 3 4 5 6 
#
# 1 0.023454 -0.012700 -0.003666 0.000000 -0.026020 0.000000
# 2 -0.012700 0.038816 -0.011497 0.000000 0.009465 0.000000
# 3 -0.003666 -0.011497 0.015578 0.000000 -0.003194 0.000000
# 4 0.000000 0.000000 0.000000 0.052218 0.000000 0.021197
# 5 -0.026020 0.009465 -0.003194 0.000000 0.107703 0.000000
# 6 0.000000 0.000000 0.000000 0.021197 0.000000 0.060459
#
#
# Mechanical properties :
#
#
# Convention : Reuss Voigt Hill
#
# Bulk Modulus (GPa) = 45.20940 67.63402 56.42171
# Shear Modulus (GPa) = 13.83779 18.92350 16.38065
#
# Velocity S-wave (km/s) = 2.90903 3.40185 3.16504
# Velocity P-wave (km/s) = 6.23945 7.53600 6.91817
#
# Compressibility (1/GPa) = 0.02211929
#
# Stress axis : x y z
#
# Youngs Moduli (GPa) = 42.63623 25.76272 64.19512
#
# Poissons Ratio (x) = 0.32720 0.23537
# Poissons Ratio (y) = 0.54150 0.73807
# Poissons Ratio (z) = 0.15632 0.29620
#
# Static dielectric constant tensor:
#      x y z
#    x 1.536840 0.000000 0.005110 
#    y 0.000000 1.546270 0.000000 
#    z 0.005110 0.000000 1.558910 
# 
# From -- ./inp_files/313589.got.cif
#   From: 2010.05.17/outbox.cif.g08.bks.cpg/sg12_157_cif.got.tgz:313589.got - 2010.06.03 13:09:07.
