data_PCOD9181717
_publ_section_title
;
Structure prediction by ZEFSAII (Michael W. Deem and Ramdas Pophale) SiO2 
 PCOD9181717
Probable space group: C 2/M
;
_chemical_formula_sum "Si O2"
_cell_formula_units_Z 64
_cell_length_a 9.613987
_cell_length_b 24.928574
_cell_length_c 15.194091
_cell_angle_alpha 90.000000
_cell_angle_beta 113.747747
_cell_angle_gamma 90.000000
_cell_volume 3333.128926
_symmetry_space_group_name_H-M "C 2/M"
_symmetry_group_IT_number 12
_symmetry_cell_setting 'monoclinic'
loop_
_space_group_symop_operation_xyz
x,y,z
-x,y,-z
-x,-y,-z
x,-y,z
1/2+x,1/2+y,z
1/2-x,1/2+y,-z
1/2-x,1/2-y,-z
1/2+x,1/2-y,z
loop_
_atom_site_type_symbol
_atom_site_label
_atom_site_fract_x
_atom_site_fract_y
_atom_site_fract_z
Si Si1 0.778658 0.335216 0.892671
Si Si2 0.172807 0.563424 0.766395
Si Si3 0.717820 0.773208 0.785884
Si Si4 0.616175 0.357287 0.449267
Si Si5 0.921993 0.640179 0.118049
Si Si6 0.929556 0.378188 0.579607
Si Si7 0.044087 0.257289 0.409751
Si Si8 0.936444 0.136677 0.763647
O O1 0.783228 0.272791 0.865257
O O2 0.607352 0.356284 0.840501
O O3 0.899445 0.362100 0.857232
O O4 0.838894 0.344877 0.006151
O O5 0.176163 0.500000 0.760327
O O6 0.134702 0.585094 0.853764
O O7 0.332182 0.590446 0.779252
O O8 0.039999 0.588052 0.669672
O O9 0.623640 0.814172 0.823103
O O10 0.605334 0.744948 0.687129
O O11 0.843436 0.808659 0.766340
O O12 0.500000 0.355679 0.500000
O O13 0.755865 0.393054 0.517805
O O14 0.654092 0.294188 0.436398
O O15 0.559218 0.374996 0.339460
O O16 0.000000 0.377412 0.500000
O O17 0.914808 0.316976 0.611163
O O18 0.000000 0.262826 0.500000
#
# Coordination Sequence:
#
# PCOD9181717 Si02
#       8
#     8   8   8   8   8   8   8   8
#     4  11  23  39  65  93 132 167 204 262 331 387
#     4  11  25  46  71  91 118 165 223 278 329 377
#     4  11  20  36  62  91 137 177 213 245 305 389
#     4  11  23  35  58  95 136 174 205 247 310 378
#     4  10  24  43  61  96 127 167 216 265 322 392
#     4  11  20  39  61  89 128 166 214 257 305 376
#     4  10  19  32  53  90 130 170 203 237 296 373
#     4  11  22  41  62  95 130 167 220 271 305 379
#
# _framework density 19.201179
#
# number of rings (size 3 to 8) (size 9 to 14) (size 15 to 20)
#    0.000    1.250    5.000    2.250    1.750    4.250 
#    0.000    3.125    0.000    0.750    0.000    0.000 
#    0.000    0.000    0.000    0.000    0.000    0.000 
#
# Total GULP energy -178526.260062 kJ/mol
# GULP energy per Si atom -5578.945627 kJ/mol
# Density = 1.915748 g / cm^3
# Si number density = 19.201179 Si / 1000 Ang^3
#
#
#
# Elastic Constant Matrix: (Units=GPa)
#
#
# Indices 1 2 3 4 5 6 
#
# 1 135.3729 38.2146 59.1572 0.0000 6.1186 0.0000
# 2 38.2146 96.0039 26.9978 0.0000 4.1031 0.0000
# 3 59.1572 26.9978 101.5494 0.0000 -0.7907 0.0000
# 4 0.0000 0.0000 0.0000 -9.8240 0.0000 10.2156
# 5 6.1186 4.1031 -0.7907 0.0000 30.8975 0.0000
# 6 0.0000 0.0000 0.0000 10.2156 0.0000 6.1724
#
#
#
# Elastic Compliance Matrix: (Units=1/GPa)
#
#
# Indices 1 2 3 4 5 6 
#
# 1 0.010612 -0.002594 -0.005507 0.000000 -0.001898 0.000000
# 2 -0.002594 0.011969 -0.001680 0.000000 -0.001119 0.000000
# 3 -0.005507 -0.001680 0.013515 0.000000 0.001659 0.000000
# 4 0.000000 0.000000 0.000000 -0.037410 0.000000 0.061914
# 5 -0.001898 -0.001119 0.001659 0.000000 0.032932 0.000000
# 6 0.000000 0.000000 0.000000 0.061914 0.000000 0.059541
#
#
# Mechanical properties :
#
#
# Convention : Reuss Voigt Hill
#
# Bulk Modulus (GPa) = 60.48041 64.62950 62.55495
# Shear Modulus (GPa) = 43.01783 19.35297 31.18540
#
# Velocity S-wave (km/s) = 4.73839 3.17820 4.03443
# Velocity P-wave (km/s) = 7.84240 6.87023 7.37236
#
# Compressibility (1/GPa) = 0.01653428
#
# Stress axis : x y z
#
# Youngs Moduli (GPa) = 94.23697 83.54909 73.99293
#
# Poissons Ratio (x) = 0.21675 0.40746
# Poissons Ratio (y) = 0.24447 0.12427
# Poissons Ratio (z) = 0.51894 0.14032
#
# Static dielectric constant tensor:
#      x y z
#    x 1.703950 0.000000 0.016670 
#    y 0.000000 1.678890 0.000000 
#    z 0.016670 0.000000 1.694990 
# 
# From -- ./inp_files/199882.got.cif
#   From: 2010.05.17/outbox.cif.g08.bks.cpg/sg12_100_cif.got.tgz:199882.got - 2010.06.03 13:09:07.
