data_PCOD9181728
_publ_section_title
;
Structure prediction by ZEFSAII (Michael W. Deem and Ramdas Pophale) SiO2 
 PCOD9181728
Probable space group: C 2/M
;
_chemical_formula_sum "Si O2"
_cell_formula_units_Z 40
_cell_length_a 24.359637
_cell_length_b 10.832168
_cell_length_c 9.015315
_cell_angle_alpha 90.000000
_cell_angle_beta 121.177452
_cell_angle_gamma 90.000000
_cell_volume 2035.268292
_symmetry_space_group_name_H-M "C 2/M"
_symmetry_group_IT_number 12
_symmetry_cell_setting 'monoclinic'
loop_
_space_group_symop_operation_xyz
x,y,z
-x,y,-z
-x,-y,-z
x,-y,z
1/2+x,1/2+y,z
1/2-x,1/2+y,-z
1/2-x,1/2-y,-z
1/2+x,1/2-y,z
loop_
_atom_site_type_symbol
_atom_site_label
_atom_site_fract_x
_atom_site_fract_y
_atom_site_fract_z
Si Si1 0.070694 0.638614 0.528811
Si Si2 0.737953 0.637991 0.778042
Si Si3 0.433977 0.354425 0.976635
Si Si4 0.351633 0.744529 0.114574
Si Si5 0.629502 0.646776 0.416804
O O1 0.076523 0.500000 0.471691
O O2 0.122317 0.653216 0.734688
O O3 0.085175 0.752886 0.439017
O O4 0.000000 0.650246 0.500000
O O5 0.762124 0.500000 0.795175
O O6 0.681510 0.645202 0.823338
O O7 0.701042 0.673743 0.576441
O O8 0.795630 0.716738 0.923592
O O9 0.443376 0.500000 0.015715
O O10 0.381572 0.339540 0.773310
O O11 0.500000 0.304221 0.000000
O O12 0.410472 0.297996 0.096597
O O13 0.615899 0.500000 0.432286
#
# Coordination Sequence:
#
# PCOD9181728 Si02
#       5
#     8   8   8   8   8
#     4  10  20  34  52  76 107 141 178 220 264 313
#     4   9  18  33  52  75 102 134 177 223 261 306
#     4  10  20  34  53  79 109 139 176 222 267 314
#     4  10  19  32  54  77 103 139 177 215 265 316
#     4   9  19  35  54  77 105 138 177 219 264 315
#
# _framework density 19.653428999999999
#
# number of rings (size 3 to 8) (size 9 to 14) (size 15 to 20)
#    0.000    2.400    0.000    2.400    0.000    2.000 
#    0.000    3.000    0.000    5.400    0.000    0.000 
#    0.000    0.000    0.000    0.000    0.000    0.000 
#
# Total GULP energy -111385.197647 kJ/mol
# GULP energy per Si atom -5569.259882 kJ/mol
# Density = 1.960870 g / cm^3
# Si number density = 19.653429 Si / 1000 Ang^3
#
#
#
# Elastic Constant Matrix: (Units=GPa)
#
#
# Indices 1 2 3 4 5 6 
#
# 1 52.6277 6.6963 -3.4976 0.0000 -8.1733 0.0000
# 2 6.6963 68.5587 5.8412 0.0000 -6.9728 0.0000
# 3 -3.4976 5.8412 58.8753 0.0000 8.2029 0.0000
# 4 0.0000 0.0000 0.0000 20.9102 0.0000 5.2223
# 5 -8.1733 -6.9728 8.2029 0.0000 24.3781 0.0000
# 6 0.0000 0.0000 0.0000 5.2223 0.0000 1.9264
#
#
#
# Elastic Compliance Matrix: (Units=1/GPa)
#
#
# Indices 1 2 3 4 5 6 
#
# 1 0.020173 -0.001379 0.000470 0.000000 0.006211 0.000000
# 2 -0.001379 0.015392 -0.002264 0.000000 0.004702 0.000000
# 3 0.000470 -0.002264 0.018157 0.000000 -0.006600 0.000000
# 4 0.000000 0.000000 0.000000 0.148089 0.000000 -0.401460
# 5 0.006211 0.004702 -0.006600 0.000000 0.046668 0.000000
# 6 0.000000 0.000000 0.000000 -0.401460 0.000000 1.607439
#
#
# Mechanical properties :
#
#
# Convention : Reuss Voigt Hill
#
# Bulk Modulus (GPa) = 21.10788 22.01573 21.56181
# Shear Modulus (GPa) = 2.66233 20.84439 11.75336
#
# Velocity S-wave (km/s) = 1.16515 3.26022 2.44812
# Velocity P-wave (km/s) = 3.54591 5.03967 4.35728
#
# Compressibility (1/GPa) = 0.04737567
#
# Stress axis : x y z
#
# Youngs Moduli (GPa) = 49.57211 64.96958 55.07491
#
# Poissons Ratio (x) = 0.08957 -0.02588
# Poissons Ratio (y) = 0.06834 0.12469
# Poissons Ratio (z) = -0.02329 0.14710
#
# Static dielectric constant tensor:
#      x y z
#    x 1.687370 0.000000 0.024900 
#    y 0.000000 1.680610 0.000000 
#    z 0.024900 0.000000 1.709110 
# 
# From -- ./inp_files/71241.got.cif
#   From: 2010.05.17/outbox.cif.g08.bks.cpg/sg12_36_cif.got.tgz:71241.got - 2010.06.03 13:09:07.
