data_PCOD9181454
_publ_section_title
;
Structure prediction by ZEFSAII (Michael W. Deem and Ramdas Pophale) SiO2 
 PCOD9181454
Probable space group: C 2/M
;
_chemical_formula_sum "Si O2"
_cell_formula_units_Z 56
_cell_length_a 30.488725
_cell_length_b 7.749987
_cell_length_c 12.385633
_cell_angle_alpha 90.000000
_cell_angle_beta 69.656684
_cell_angle_gamma 90.000000
_cell_volume 2744.026255
_symmetry_space_group_name_H-M "C 2/M"
_symmetry_group_IT_number 12
_symmetry_cell_setting 'monoclinic'
loop_
_space_group_symop_operation_xyz
x,y,z
-x,y,-z
-x,-y,-z
x,-y,z
1/2+x,1/2+y,z
1/2-x,1/2+y,-z
1/2-x,1/2-y,-z
1/2+x,1/2-y,z
loop_
_atom_site_type_symbol
_atom_site_label
_atom_site_fract_x
_atom_site_fract_y
_atom_site_fract_z
Si Si1 0.687422 0.208048 0.146912
Si Si2 0.525590 0.204292 0.275157
Si Si3 0.397641 0.209399 0.628807
Si Si4 0.366398 0.298118 0.207133
Si Si5 0.791476 0.792736 0.109945
Si Si6 0.951411 0.709309 0.981852
Si Si7 0.582539 0.702432 0.627566
O O1 0.645439 0.266283 0.259261
O O2 0.738378 0.272481 0.142281
O O3 0.687884 0.000000 0.150962
O O4 0.682640 0.255690 0.025427
O O5 0.554760 0.269722 0.352531
O O6 0.544771 0.272133 0.144551
O O7 0.470113 0.226249 0.328785
O O8 0.534625 0.000000 0.264477
O O9 0.395409 0.271816 0.508534
O O10 0.397623 0.000000 0.624069
O O11 0.356130 0.500000 0.236049
O O12 0.321040 0.223248 0.185506
O O13 0.386025 0.222450 0.302245
O O14 0.408520 0.283751 0.085408
O O15 0.788899 0.000000 0.122307
O O16 0.946883 0.500000 0.986395
O O17 0.000000 0.751391 0.000000
O O18 0.577175 0.500000 0.654076
#
# Coordination Sequence:
#
# PCOD9181454 Si02
#       7
#     8   8   8   8   8   8   8
#     4   9  18  35  58  82 105 130 167 213 258 306
#     4  10  20  35  53  75 102 133 170 213 260 304
#     4  10  21  36  54  74 100 135 173 214 258 301
#     4  10  21  35  51  75 108 142 170 205 257 309
#     4   9  18  34  57  82 107 134 164 205 260 313
#     4  10  19  32  53  78 103 132 169 213 254 299
#     4  11  23  36  50  71 103 140 177 213 248 298
#
# _framework density 20.407969000000001
#
# number of rings (size 3 to 8) (size 9 to 14) (size 15 to 20)
#    0.000    2.143    1.429    1.714    0.000    6.000 
#    0.000    0.714    0.000    0.000    0.000    0.000 
#    0.000    0.000    0.000    0.000    0.000    0.000 
#
# Total GULP energy -156336.703146 kJ/mol
# GULP energy per Si atom -5583.453684 kJ/mol
# Density = 2.036152 g / cm^3
# Si number density = 20.407969 Si / 1000 Ang^3
#
#
#
# Elastic Constant Matrix: (Units=GPa)
#
#
# Indices 1 2 3 4 5 6 
#
# 1 126.4071 -3.1995 64.9152 0.0000 33.0170 0.0000
# 2 -3.1995 19.5151 -8.1468 0.0000 2.5303 0.0000
# 3 64.9152 -8.1468 109.8947 0.0000 23.2513 0.0000
# 4 0.0000 0.0000 0.0000 19.4152 0.0000 -2.2159
# 5 33.0170 2.5303 23.2513 0.0000 23.3144 0.0000
# 6 0.0000 0.0000 0.0000 -2.2159 0.0000 14.5292
#
#
#
# Elastic Compliance Matrix: (Units=1/GPa)
#
#
# Indices 1 2 3 4 5 6 
#
# 1 0.014838 0.002356 -0.005184 0.000000 -0.016098 0.000000
# 2 0.002356 0.056155 0.006041 0.000000 -0.015456 0.000000
# 3 -0.005184 0.006041 0.014189 0.000000 -0.007465 0.000000
# 4 0.000000 0.000000 0.000000 0.052419 0.000000 0.007995
# 5 -0.016098 -0.015456 -0.007465 0.000000 0.074812 0.000000
# 6 0.000000 0.000000 0.000000 0.007995 0.000000 0.070046
#
#
# Mechanical properties :
#
#
# Convention : Reuss Voigt Hill
#
# Bulk Modulus (GPa) = 10.91611 40.32830 25.62221
# Shear Modulus (GPa) = 16.30963 24.93494 20.62228
#
# Velocity S-wave (km/s) = 2.83004 3.49925 3.18229
# Velocity P-wave (km/s) = 4.00492 6.01085 5.10733
#
# Compressibility (1/GPa) = 0.09160771
#
# Stress axis : x y z
#
# Youngs Moduli (GPa) = 67.39678 17.80797 70.47678
#
# Poissons Ratio (x) = -0.04195 0.36535
# Poissons Ratio (y) = -0.15877 -0.42578
# Poissons Ratio (z) = 0.34938 -0.10758
#
# Static dielectric constant tensor:
#      x y z
#    x 1.750630 0.000000 0.031910 
#    y 0.000000 1.764500 0.000000 
#    z 0.031910 0.000000 1.693980 
# 
# From -- ./inp_files/186430.got.cif
#   From: 2010.05.17/outbox.cif.g08.bks.cpg/sg12_94_cif.got.tgz:186430.got - 2010.06.03 13:09:07.
