data_PCOD9181682
_publ_section_title
;
Structure prediction by ZEFSAII (Michael W. Deem and Ramdas Pophale) SiO2 
 PCOD9181682
Probable space group: C 2/M
;
_chemical_formula_sum "Si O2"
_cell_formula_units_Z 56
_cell_length_a 17.471737
_cell_length_b 22.594689
_cell_length_c 14.847978
_cell_angle_alpha 90.000000
_cell_angle_beta 31.005422
_cell_angle_gamma 90.000000
_cell_volume 3019.378056
_symmetry_space_group_name_H-M "C 2/M"
_symmetry_group_IT_number 12
_symmetry_cell_setting 'monoclinic'
loop_
_space_group_symop_operation_xyz
x,y,z
-x,y,-z
-x,-y,-z
x,-y,z
1/2+x,1/2+y,z
1/2-x,1/2+y,-z
1/2-x,1/2-y,-z
1/2+x,1/2-y,z
loop_
_atom_site_type_symbol
_atom_site_label
_atom_site_fract_x
_atom_site_fract_y
_atom_site_fract_z
Si Si1 0.891407 0.893807 0.338795
Si Si2 0.586544 0.500000 0.817368
Si Si3 0.555032 0.710220 0.853090
Si Si4 0.110218 0.731351 0.473159
Si Si5 0.967118 0.850054 0.637739
Si Si6 0.943655 0.500000 0.455509
Si Si7 0.671150 0.201849 0.011072
Si Si8 0.551124 0.118912 0.656492
O O1 0.941556 0.943537 0.217460
O O2 0.926642 0.833776 0.248744
O O3 0.713174 0.895050 0.536630
O O4 0.980729 0.897493 0.341744
O O5 0.765218 0.500000 0.647650
O O6 0.500000 0.500000 0.000000
O O7 0.715437 0.735416 0.718176
O O8 0.442011 0.760674 0.935722
O O9 0.500000 0.678995 0.000000
O O10 0.084749 0.671259 0.552157
O O11 0.000000 0.728949 0.500000
O O12 0.062758 0.791760 0.568486
O O13 0.000000 0.863832 0.500000
O O14 0.799330 0.829398 0.823867
O O15 0.991522 0.558811 0.352601
O O16 0.000000 0.500000 0.500000
O O17 0.576025 0.149863 0.155374
O O18 0.750000 0.250000 0.000000
#
# Coordination Sequence:
#
# PCOD9181682 Si02
#       8
#     8   4   8   8   8   4   8   8
#     4  10  21  39  57  84 121 160 201 249 305 359
#     4  10  22  40  63  90 120 161 203 255 304 363
#     4  11  21  33  56  88 120 156 196 243 308 369
#     4  10  19  32  53  83 118 154 194 244 301 362
#     4  11  22  37  58  84 118 156 199 248 305 364
#     4  10  22  40  58  90 121 159 208 245 301 365
#     4  12  22  37  57  86 121 156 203 248 306 365
#     4  10  21  36  58  80 117 161 198 247 305 358
#
# _framework density 18.546866999999999
#
# number of rings (size 3 to 8) (size 9 to 14) (size 15 to 20)
#    0.000    1.429    2.857    3.429    0.000    3.429 
#    0.000    0.357    0.000    0.000    0.000    3.500 
#    0.000    0.000    0.000    0.000    0.000    0.000 
#
# Total GULP energy -156109.582994 kJ/mol
# GULP energy per Si atom -5575.342250 kJ/mol
# Density = 1.850465 g / cm^3
# Si number density = 18.546867 Si / 1000 Ang^3
#
#
#
# Elastic Constant Matrix: (Units=GPa)
#
#
# Indices 1 2 3 4 5 6 
#
# 1 130.9625 37.7979 60.9598 -0.0046 8.6898 0.0065
# 2 37.7979 66.3146 38.2921 0.0070 14.2841 0.0038
# 3 60.9598 38.2921 141.7509 0.0026 10.2264 0.0063
# 4 -0.0046 0.0070 0.0026 19.7080 0.0019 2.1974
# 5 8.6898 14.2841 10.2264 0.0019 27.7674 -0.0105
# 6 0.0065 0.0038 0.0063 2.1974 -0.0105 22.7523
#
#
#
# Elastic Compliance Matrix: (Units=1/GPa)
#
#
# Indices 1 2 3 4 5 6 
#
# 1 0.010350 -0.003953 -0.003386 0.000004 0.000042 -0.000002
# 2 -0.003953 0.021095 -0.003395 -0.000007 -0.008364 -0.000005
# 3 -0.003386 -0.003395 0.009477 -0.000001 -0.000684 -0.000001
# 4 0.000004 -0.000007 -0.000001 0.051293 -0.000003 -0.004954
# 5 0.000042 -0.008364 -0.000684 -0.000003 0.040555 0.000021
# 6 -0.000002 -0.000005 -0.000001 -0.004954 0.000021 0.044430
#
#
# Mechanical properties :
#
#
# Convention : Reuss Voigt Hill
#
# Bulk Modulus (GPa) = 51.40405 68.12529 59.76467
# Shear Modulus (GPa) = 24.37197 27.51076 25.94136
#
# Velocity S-wave (km/s) = 3.62895 3.85555 3.74397
# Velocity P-wave (km/s) = 6.73312 7.52540 7.14026
#
# Compressibility (1/GPa) = 0.01945372
#
# Stress axis : x y z
#
# Youngs Moduli (GPa) = 96.61736 47.40502 105.51468
#
# Poissons Ratio (x) = 0.18739 0.35729
# Poissons Ratio (y) = 0.38193 0.35823
# Poissons Ratio (z) = 0.32717 0.16094
#
# Static dielectric constant tensor:
#      x y z
#    x 1.670970 0.000000 0.000720 
#    y 0.000000 1.662930 0.000000 
#    z 0.000720 0.000000 1.676070 
# 
# From -- ./inp_files/227609.got.cif
#   From: 2010.05.17/outbox.cif.g08.bks.cpg/sg12_114_cif.got.tgz:227609.got - 2010.06.03 13:09:07.
