data_PCOD9181781
_publ_section_title
;
Structure prediction by ZEFSAII (Michael W. Deem and Ramdas Pophale) SiO2 
 PCOD9181781
Probable space group: C 2/M
;
_chemical_formula_sum "Si O2"
_cell_formula_units_Z 56
_cell_length_a 14.406449
_cell_length_b 9.467454
_cell_length_c 23.174499
_cell_angle_alpha 90.000000
_cell_angle_beta 117.292021
_cell_angle_gamma 90.000000
_cell_volume 2808.965761
_symmetry_space_group_name_H-M "C 2/M"
_symmetry_group_IT_number 12
_symmetry_cell_setting 'monoclinic'
loop_
_space_group_symop_operation_xyz
x,y,z
-x,y,-z
-x,-y,-z
x,-y,z
1/2+x,1/2+y,z
1/2-x,1/2+y,-z
1/2-x,1/2-y,-z
1/2+x,1/2-y,z
loop_
_atom_site_type_symbol
_atom_site_label
_atom_site_fract_x
_atom_site_fract_y
_atom_site_fract_z
Si Si1 0.002800 0.167166 0.281292
Si Si2 0.717488 0.662613 0.079699
Si Si3 0.273966 0.335691 0.209312
Si Si4 0.119196 0.335441 0.519318
Si Si5 0.908358 0.338601 0.042159
Si Si6 0.822195 0.664224 0.599643
Si Si7 0.449595 0.835562 0.814767
O O1 0.885216 0.195947 0.269766
O O2 0.091437 0.252161 0.339718
O O3 0.002103 0.226783 0.216058
O O4 0.022709 0.000000 0.289061
O O5 0.692966 0.500000 0.084491
O O6 0.751535 0.740623 0.147404
O O7 0.815443 0.668275 0.063291
O O8 0.623776 0.738680 0.019056
O O9 0.277998 0.500000 0.191392
O O10 0.174961 0.322161 0.222578
O O11 0.132029 0.500000 0.540782
O O12 0.140933 0.329093 0.456782
O O13 0.209115 0.238086 0.572257
O O14 0.000000 0.293536 0.500000
O O15 0.913465 0.500000 0.022894
O O16 0.010461 0.306206 0.109053
O O17 0.817334 0.500000 0.615330
O O18 0.478480 0.000000 0.810445
#
# Coordination Sequence:
#
# PCOD9181781 Si02
#       7
#     8   8   8   8   8   8   8
#     4  11  23  39  58  82 115 151 188 235 281 328
#     4  10  19  32  54  80 106 140 183 232 285 344
#     4  10  22  38  57  80 109 145 186 234 288 342
#     4   9  19  38  63  92 124 154 189 232 275 319
#     4   9  18  33  54  77 104 141 182 230 287 346
#     4  10  21  37  60  88 119 157 192 228 274 327
#     4  10  21  39  59  80 107 145 191 234 284 345
#
# _framework density 19.936164000000002
#
# number of rings (size 3 to 8) (size 9 to 14) (size 15 to 20)
#    0.000    2.143    1.429    1.286    0.000    4.857 
#    0.000    5.714    0.000    0.000    0.000    0.000 
#    0.000    0.000    0.000    0.000    0.000    0.000 
#
# Total GULP energy -156371.275189 kJ/mol
# GULP energy per Si atom -5584.688400 kJ/mol
# Density = 1.989079 g / cm^3
# Si number density = 19.936164 Si / 1000 Ang^3
#
#
#
# Elastic Constant Matrix: (Units=GPa)
#
#
# Indices 1 2 3 4 5 6 
#
# 1 90.5288 35.6597 18.5602 0.0000 37.6477 0.0000
# 2 35.6597 86.7573 47.2518 0.0000 30.0129 0.0000
# 3 18.5602 47.2518 63.7389 0.0000 37.2591 0.0000
# 4 0.0000 0.0000 0.0000 33.2334 0.0000 -0.3093
# 5 37.6477 30.0129 37.2591 0.0000 34.5818 0.0000
# 6 0.0000 0.0000 0.0000 -0.3093 0.0000 14.7312
#
#
#
# Elastic Compliance Matrix: (Units=1/GPa)
#
#
# Indices 1 2 3 4 5 6 
#
# 1 0.042624 -0.014042 0.048622 0.000000 -0.086602 0.000000
# 2 -0.014042 0.024126 -0.028345 0.000000 0.024888 0.000000
# 3 0.048622 -0.028345 0.105639 0.000000 -0.142150 0.000000
# 4 0.000000 0.000000 0.000000 0.030096 0.000000 0.000632
# 5 -0.086602 0.024888 -0.142150 0.000000 0.254753 0.000000
# 6 0.000000 0.000000 0.000000 0.000632 0.000000 0.067896
#
#
# Mechanical properties :
#
#
# Convention : Reuss Voigt Hill
#
# Bulk Modulus (GPa) = 5.40952 49.32983 27.36968
# Shear Modulus (GPa) = 8.70649 25.81283 17.25966
#
# Velocity S-wave (km/s) = 2.09205 3.60220 2.94555
# Velocity P-wave (km/s) = 2.92487 6.48835 5.03257
#
# Compressibility (1/GPa) = 0.18485917
#
# Stress axis : x y z
#
# Youngs Moduli (GPa) = 23.46122 41.44832 9.46619
#
# Poissons Ratio (x) = 0.58202 -0.46027
# Poissons Ratio (y) = 0.32944 0.26832
# Poissons Ratio (z) = -1.14074 1.17486
#
# Static dielectric constant tensor:
#      x y z
#    x 1.742770 0.000000 0.016350 
#    y 0.000000 1.671460 0.000000 
#    z 0.016350 0.000000 1.689700 
# 
# From -- ./inp_files/360032.got.cif
#   From: 2010.05.17/outbox.cif.g08.bks.cpg/sg12_181_cif.got.tgz:360032.got - 2010.06.03 13:09:07.
