data_PCOD9181779
_publ_section_title
;
Structure prediction by ZEFSAII (Michael W. Deem and Ramdas Pophale) SiO2 
 PCOD9181779
Probable space group: C 2/M
;
_chemical_formula_sum "Si O2"
_cell_formula_units_Z 48
_cell_length_a 30.971372
_cell_length_b 7.569887
_cell_length_c 17.840292
_cell_angle_alpha 90.000000
_cell_angle_beta 150.980621
_cell_angle_gamma 90.000000
_cell_volume 2029.027439
_symmetry_space_group_name_H-M "C 2/M"
_symmetry_group_IT_number 12
_symmetry_cell_setting 'monoclinic'
loop_
_space_group_symop_operation_xyz
x,y,z
-x,y,-z
-x,-y,-z
x,-y,z
1/2+x,1/2+y,z
1/2-x,1/2+y,-z
1/2-x,1/2-y,-z
1/2+x,1/2-y,z
loop_
_atom_site_type_symbol
_atom_site_label
_atom_site_fract_x
_atom_site_fract_y
_atom_site_fract_z
Si Si1 0.475079 0.298416 0.649822
Si Si2 0.646117 0.210007 0.832467
Si Si3 0.320221 0.288729 0.671415
Si Si4 0.148557 0.705058 0.671845
Si Si5 0.187317 0.216606 0.172797
Si Si6 0.013664 0.216527 0.167952
O O1 0.444229 0.500000 0.602980
O O2 0.580501 0.293166 0.793663
O O3 0.425803 0.211391 0.505094
O O4 0.457159 0.222866 0.704892
O O5 0.621333 0.277863 0.711316
O O6 0.631723 0.000000 0.816912
O O7 0.750000 0.250000 0.000000
O O8 0.327430 0.500000 0.689020
O O9 0.250000 0.250000 0.500000
O O10 0.293258 0.224094 0.712659
O O11 0.416300 0.224981 0.788278
O O12 0.167637 0.500000 0.717068
O O13 0.238523 0.781530 0.772602
O O14 0.190697 0.000000 0.176586
O O15 0.087242 0.269792 0.000982
O O16 0.014019 0.000000 0.169713
#
# Coordination Sequence:
#
# PCOD9181779 Si02
#       6
#     8   8   8   8   8   8
#     4  11  22  36  56  81 111 145 181 223 268 318
#     4  11  23  39  59  82 110 143 180 224 272 321
#     4  10  19  32  54  80 106 138 176 219 266 319
#     4  10  21  37  56  79 109 143 179 223 273 323
#     4   9  17  32  55  79 103 137 181 222 264 319
#     4   9  18  33  53  79 108 139 179 224 266 312
#
# _framework density 23.656652999999999
#
# number of rings (size 3 to 8) (size 9 to 14) (size 15 to 20)
#    0.000    2.000    0.000    4.000    0.000    8.000 
#    0.000    0.833    0.000    5.000    0.000    0.000 
#    0.000    0.000    0.000    0.000    0.000    0.000 
#
# Total GULP energy -134212.483681 kJ/mol
# GULP energy per Si atom -5592.186820 kJ/mol
# Density = 2.360281 g / cm^3
# Si number density = 23.656653 Si / 1000 Ang^3
#
#
#
# Elastic Constant Matrix: (Units=GPa)
#
#
# Indices 1 2 3 4 5 6 
#
# 1 75.3849 7.0622 -23.6648 0.0000 -1.7997 0.0000
# 2 7.0622 59.2434 -10.1599 0.0000 -2.9411 0.0000
# 3 -23.6648 -10.1599 51.0579 0.0000 2.7180 0.0000
# 4 0.0000 0.0000 0.0000 21.2093 0.0000 -0.8703
# 5 -1.7997 -2.9411 2.7180 0.0000 46.8774 0.0000
# 6 0.0000 0.0000 0.0000 -0.8703 0.0000 8.2166
#
#
#
# Elastic Compliance Matrix: (Units=1/GPa)
#
#
# Indices 1 2 3 4 5 6 
#
# 1 0.015548 -0.000633 0.007073 0.000000 0.000147 0.000000
# 2 -0.000633 0.017539 0.003149 0.000000 0.000894 0.000000
# 3 0.007073 0.003149 0.023538 0.000000 -0.000896 0.000000
# 4 0.000000 0.000000 0.000000 0.047355 0.000000 0.005016
# 5 0.000147 0.000894 -0.000896 0.000000 0.021446 0.000000
# 6 0.000000 0.000000 0.000000 0.005016 0.000000 0.122237
#
#
# Mechanical properties :
#
#
# Convention : Reuss Voigt Hill
#
# Bulk Modulus (GPa) = 13.19215 14.68458 13.93837
# Shear Modulus (GPa) = 19.70413 29.42390 24.56402
#
# Velocity S-wave (km/s) = 2.88917 3.53057 3.22585
# Velocity P-wave (km/s) = 4.08881 4.77920 4.44742
#
# Compressibility (1/GPa) = 0.07580267
#
# Stress axis : x y z
#
# Youngs Moduli (GPa) = 64.31561 57.01448 42.48446
#
# Poissons Ratio (x) = 0.03610 -0.30048
# Poissons Ratio (y) = 0.04073 -0.13379
# Poissons Ratio (z) = -0.45488 -0.17954
#
# Static dielectric constant tensor:
#      x y z
#    x 1.900920 0.000000 -0.015320 
#    y 0.000000 1.908630 0.000000 
#    z -0.015320 0.000000 1.870340 
# 
# From -- ./inp_files/274111.got.cif
#   From: 2010.05.17/outbox.cif.g08.bks.cpg/sg12_138_cif.got.tgz:274111.got - 2010.06.03 13:09:07.
