data_PCOD9181475
_publ_section_title
;
Structure prediction by ZEFSAII (Michael W. Deem and Ramdas Pophale) SiO2 
 PCOD9181475
Probable space group: C 2/M
;
_chemical_formula_sum "Si O2"
_cell_formula_units_Z 56
_cell_length_a 31.025206
_cell_length_b 8.702811
_cell_length_c 17.268147
_cell_angle_alpha 90.000000
_cell_angle_beta 45.962571
_cell_angle_gamma 90.000000
_cell_volume 3351.813927
_symmetry_space_group_name_H-M "C 2/M"
_symmetry_group_IT_number 12
_symmetry_cell_setting 'monoclinic'
loop_
_space_group_symop_operation_xyz
x,y,z
-x,y,-z
-x,-y,-z
x,-y,z
1/2+x,1/2+y,z
1/2-x,1/2+y,-z
1/2-x,1/2-y,-z
1/2+x,1/2-y,z
loop_
_atom_site_type_symbol
_atom_site_label
_atom_site_fract_x
_atom_site_fract_y
_atom_site_fract_z
Si Si1 0.696660 0.185087 0.393267
Si Si2 0.910247 0.684624 0.582919
Si Si3 0.027652 0.815673 0.352027
Si Si4 0.055242 0.685602 0.986718
Si Si5 0.627728 0.185896 0.635465
Si Si6 0.826420 0.685235 0.253341
Si Si7 0.493271 0.683859 0.795912
O O1 0.652035 0.229765 0.379472
O O2 0.665347 0.233940 0.513154
O O3 0.762917 0.251439 0.305611
O O4 0.699979 0.000000 0.390149
O O5 0.914631 0.500000 0.578036
O O6 0.921973 0.748679 0.653940
O O7 0.964693 0.749724 0.462789
O O8 0.033075 0.773372 0.255296
O O9 0.026422 0.000000 0.360560
O O10 0.054447 0.500000 0.991563
O O11 0.043777 0.751252 0.085861
O O12 0.117662 0.734099 0.869760
O O13 0.000000 0.732104 0.000000
O O14 0.659500 0.233016 0.675750
O O15 0.560837 0.251725 0.716264
O O16 0.623314 0.000000 0.640500
O O17 0.824613 0.500000 0.254673
O O18 0.495486 0.500000 0.797601
#
# Coordination Sequence:
#
# PCOD9181475 Si02
#       7
#     8   8   8   8   8   8   8
#     4  10  21  34  52  78 109 142 173 215 262 308
#     4  10  19  32  53  78 104 138 176 210 258 316
#     4  10  20  33  50  77 109 137 169 215 267 309
#     4  10  20  37  57  75 102 140 180 220 261 309
#     4  10  19  35  53  74 108 145 177 210 254 313
#     4  10  21  35  54  76 102 143 182 213 258 312
#     4  11  22  33  52  81 109 138 173 218 268 307
#
# _framework density 16.707371999999999
#
# number of rings (size 3 to 8) (size 9 to 14) (size 15 to 20)
#    0.000    1.857    2.857    2.571    0.000    4.857 
#    0.000    0.000    0.000    0.857    0.000    0.000 
#    0.000    0.000    0.000    0.000    0.000    0.000 
#
# Total GULP energy -156306.382900 kJ/mol
# GULP energy per Si atom -5582.370818 kJ/mol
# Density = 1.666935 g / cm^3
# Si number density = 16.707372 Si / 1000 Ang^3
#
#
#
# Elastic Constant Matrix: (Units=GPa)
#
#
# Indices 1 2 3 4 5 6 
#
# 1 177.2869 41.3937 97.7195 -0.0002 7.1829 0.0000
# 2 41.3937 25.9491 27.8063 -0.0013 4.5072 -0.0001
# 3 97.7195 27.8063 105.2370 -0.0005 2.0766 0.0001
# 4 -0.0002 -0.0013 -0.0005 18.1738 0.0002 -3.8119
# 5 7.1829 4.5072 2.0766 0.0002 31.9031 0.0000
# 6 0.0000 -0.0001 0.0001 -3.8119 0.0000 29.1085
#
#
#
# Elastic Compliance Matrix: (Units=1/GPa)
#
#
# Indices 1 2 3 4 5 6 
#
# 1 0.013626 -0.011227 -0.009670 -0.000001 -0.000852 0.000000
# 2 -0.011227 0.064467 -0.006488 0.000005 -0.006158 0.000001
# 3 -0.009670 -0.006488 0.020160 0.000000 0.001781 0.000000
# 4 -0.000001 0.000005 0.000000 0.056578 -0.000001 0.007409
# 5 -0.000852 -0.006158 0.001781 -0.000001 0.032291 0.000000
# 6 0.000000 0.000001 0.000000 0.007409 0.000000 0.035324
#
#
# Mechanical properties :
#
#
# Convention : Reuss Voigt Hill
#
# Bulk Modulus (GPa) = 22.99600 71.36800 47.18200
# Shear Modulus (GPa) = 17.14026 25.27398 21.20712
#
# Velocity S-wave (km/s) = 3.20646 3.89362 3.56663
# Velocity P-wave (km/s) = 5.24427 7.93870 6.72775
#
# Compressibility (1/GPa) = 0.04348583
#
# Stress axis : x y z
#
# Youngs Moduli (GPa) = 73.38804 15.51174 49.60235
#
# Poissons Ratio (x) = 0.17414 0.47964
# Poissons Ratio (y) = 0.82390 0.32181
# Poissons Ratio (z) = 0.70964 0.10064
#
# Static dielectric constant tensor:
#      x y z
#    x 1.558530 0.000000 0.020110 
#    y 0.000000 1.566690 0.000000 
#    z 0.020110 0.000000 1.542280 
# 
# From -- ./inp_files/248868.got.cif
#   From: 2010.05.17/outbox.cif.g08.bks.cpg/sg12_125_cif.got.tgz:248868.got - 2010.06.03 13:09:07.
