data_PCOD9181896
_publ_section_title
;
Structure prediction by ZEFSAII (Michael W. Deem and Ramdas Pophale) SiO2 
 PCOD9181896
Probable space group: C 2/M
;
_chemical_formula_sum "Si O2"
_cell_formula_units_Z 56
_cell_length_a 23.744995
_cell_length_b 7.586900
_cell_length_c 15.768667
_cell_angle_alpha 90.000000
_cell_angle_beta 63.770406
_cell_angle_gamma 90.000000
_cell_volume 2548.229223
_symmetry_space_group_name_H-M "C 2/M"
_symmetry_group_IT_number 12
_symmetry_cell_setting 'monoclinic'
loop_
_space_group_symop_operation_xyz
x,y,z
-x,y,-z
-x,-y,-z
x,-y,z
1/2+x,1/2+y,z
1/2-x,1/2+y,-z
1/2-x,1/2-y,-z
1/2+x,1/2-y,z
loop_
_atom_site_type_symbol
_atom_site_label
_atom_site_fract_x
_atom_site_fract_y
_atom_site_fract_z
Si Si1 0.242553 0.707026 0.627059
Si Si2 0.179989 0.789115 0.018762
Si Si3 0.438922 0.716354 0.799735
Si Si4 0.994323 0.795001 0.409632
Si Si5 0.831861 0.787056 0.165605
Si Si6 0.530136 0.714853 0.890257
Si Si7 0.857087 0.702322 0.442291
O O1 0.247813 0.500000 0.604171
O O2 0.224578 0.730496 0.736421
O O3 0.184334 0.777498 0.608357
O O4 0.307514 0.789537 0.552840
O O5 0.128349 0.724886 0.120094
O O6 0.171472 0.000000 0.020186
O O7 0.250000 0.750000 0.000000
O O8 0.170275 0.722701 0.929540
O O9 0.439495 0.500000 0.797169
O O10 0.460735 0.780348 0.693350
O O11 0.489412 0.770591 0.837319
O O12 0.922843 0.788515 0.422950
O O13 0.000000 0.715922 0.500000
O O14 0.012709 0.000000 0.405678
O O15 0.897939 0.727615 0.161201
O O16 0.831731 0.000000 0.164170
O O17 0.529445 0.500000 0.891188
O O18 0.500000 0.769837 0.000000
O O19 0.871965 0.500000 0.412327
#
# Coordination Sequence:
#
# PCOD9181896 Si02
#       7
#     8   8   8   8   8   8   8
#     4  10  21  36  57  83 113 146 182 227 284 344
#     4  10  21  36  53  76 108 147 189 227 267 323
#     4   9  17  32  53  77 107 141 178 225 273 320
#     4  10  21  36  56  83 113 148 190 231 277 332
#     4  10  19  32  54  83 110 138 182 233 280 333
#     4   9  14  25  50  80 103 129 172 226 275 318
#     4  10  21  38  58  82 112 146 185 230 282 334
#
# _framework density 21.976046
#
# number of rings (size 3 to 8) (size 9 to 14) (size 15 to 20)
#    0.000    2.286    1.429    1.714    0.000    4.857 
#    0.000    2.143    0.000    1.286    0.000    0.000 
#    0.000    0.000    0.000    0.000    0.000    0.000 
#
# Total GULP energy -156402.229527 kJ/mol
# GULP energy per Si atom -5585.793912 kJ/mol
# Density = 2.192603 g / cm^3
# Si number density = 21.976046 Si / 1000 Ang^3
#
#
#
# Elastic Constant Matrix: (Units=GPa)
#
#
# Indices 1 2 3 4 5 6 
#
# 1 95.1425 -5.1386 65.3420 0.0000 -7.6041 0.0000
# 2 -5.1386 49.4246 0.5372 -0.0001 6.7236 -0.0002
# 3 65.3420 0.5372 206.9801 0.0000 -3.2475 0.0000
# 4 0.0000 -0.0001 0.0000 5.2809 0.0000 -4.0960
# 5 -7.6041 6.7236 -3.2475 0.0000 24.2945 0.0000
# 6 0.0000 -0.0002 0.0000 -4.0960 0.0000 16.9212
#
#
#
# Elastic Compliance Matrix: (Units=1/GPa)
#
#
# Indices 1 2 3 4 5 6 
#
# 1 0.013798 0.001010 -0.004304 0.000000 0.003464 0.000000
# 2 0.001010 0.021103 -0.000461 0.000001 -0.005586 0.000001
# 3 -0.004304 -0.000461 0.006185 0.000000 -0.000393 0.000000
# 4 0.000000 0.000001 0.000000 0.233135 0.000000 0.056433
# 5 0.003464 -0.005586 -0.000393 0.000000 0.043739 0.000000
# 6 0.000000 0.000001 0.000000 0.056433 0.000000 0.072758
#
#
# Mechanical properties :
#
#
# Convention : Reuss Voigt Hill
#
# Bulk Modulus (GPa) = 29.78384 52.55870 41.17127
# Shear Modulus (GPa) = 12.21240 28.68642 20.44941
#
# Velocity S-wave (km/s) = 2.35992 3.61688 3.05377
# Velocity P-wave (km/s) = 4.58344 6.43512 5.58653
#
# Compressibility (1/GPa) = 0.03357525
#
# Stress axis : x y z
#
# Youngs Moduli (GPa) = 72.47433 47.38715 161.67576
#
# Poissons Ratio (x) = -0.04787 0.69588
# Poissons Ratio (y) = -0.07321 0.07458
# Poissons Ratio (z) = 0.31194 0.02186
#
# Static dielectric constant tensor:
#      x y z
#    x 1.746280 0.000000 0.024900 
#    y 0.000000 1.839380 0.000000 
#    z 0.024900 0.000000 1.796020 
# 
# From -- ./inp_files/238281.got.cif
#   From: 2010.05.17/outbox.cif.g08.bks.cpg/sg12_120_cif.got.tgz:238281.got - 2010.06.03 13:09:07.
