data_PCOD9181035
_publ_section_title
;
Structure prediction by ZEFSAII (Michael W. Deem and Ramdas Pophale) SiO2 
 PCOD9181035
Probable space group: C 2/M
;
_chemical_formula_sum "Si O2"
_cell_formula_units_Z 64
_cell_length_a 20.854270
_cell_length_b 7.430118
_cell_length_c 24.207659
_cell_angle_alpha 90.000000
_cell_angle_beta 129.323555
_cell_angle_gamma 90.000000
_cell_volume 2901.673816
_symmetry_space_group_name_H-M "C 2/M"
_symmetry_group_IT_number 12
_symmetry_cell_setting 'monoclinic'
loop_
_space_group_symop_operation_xyz
x,y,z
-x,y,-z
-x,-y,-z
x,-y,z
1/2+x,1/2+y,z
1/2-x,1/2+y,-z
1/2-x,1/2-y,-z
1/2+x,1/2-y,z
loop_
_atom_site_type_symbol
_atom_site_label
_atom_site_fract_x
_atom_site_fract_y
_atom_site_fract_z
Si Si1 0.897916 0.217561 0.229182
Si Si2 0.052795 0.780791 0.948683
Si Si3 0.669597 0.714806 0.919321
Si Si4 0.081437 0.205302 0.323789
Si Si5 0.778306 0.288037 0.257462
Si Si6 0.756262 0.721122 0.369745
Si Si7 0.875468 0.780594 0.897216
Si Si8 0.340091 0.786984 0.522775
O O1 0.836467 0.281656 0.146672
O O2 0.862664 0.268597 0.269456
O O3 0.990403 0.284905 0.266257
O O4 0.900889 0.000000 0.230730
O O5 0.091758 0.719020 0.912869
O O6 0.959004 0.727232 0.910379
O O7 0.052966 0.000000 0.948597
O O8 0.110330 0.723602 0.031727
O O9 0.663085 0.500000 0.912088
O O10 0.750000 0.750000 0.000000
O O11 0.164447 0.281395 0.340183
O O12 0.097909 0.204847 0.398820
O O13 0.076861 0.000000 0.300806
O O14 0.761384 0.500000 0.253895
O O15 0.775110 0.218250 0.318074
O O16 0.705297 0.213859 0.178423
O O17 0.755469 0.500000 0.371821
O O18 0.826068 0.776792 0.452458
O O19 0.873342 0.000000 0.897209
O O20 0.250000 0.750000 0.500000
O O21 0.356206 0.000000 0.531119
#
# Coordination Sequence:
#
# PCOD9181035 Si02
#       8
#     8   8   8   8   8   8   8   8
#     4  10  22  36  50  73 107 141 169 208 263 314
#     4   8  14  25  42  69  95 117 156 206 250 289
#     4  10  20  33  51  72  99 135 172 210 256 307
#     4   9  18  34  54  76 104 136 173 215 256 305
#     4  10  19  32  52  74  99 132 169 211 257 304
#     4   8  16  30  52  79 101 126 167 214 256 294
#     4   8  14  24  43  70  96 118 152 207 253 286
#     4   9  16  30  52  79 108 135 168 212 260 309
#
# _framework density 22.056235000000001
#
# number of rings (size 3 to 8) (size 9 to 14) (size 15 to 20)
#    0.000    3.000    0.000    2.625    1.750    2.000 
#    0.000    3.750    0.000    4.500    0.000    3.500 
#    0.000    0.000    0.000    0.000    0.000    0.000 
#
# Total GULP energy -178465.407282 kJ/mol
# GULP energy per Si atom -5577.043978 kJ/mol
# Density = 2.200603 g / cm^3
# Si number density = 22.056235 Si / 1000 Ang^3
#
#
#
# Elastic Constant Matrix: (Units=GPa)
#
#
# Indices 1 2 3 4 5 6 
#
# 1 95.8395 -6.1597 42.0605 0.0000 -30.5891 0.0000
# 2 -6.1597 67.9838 -5.6630 0.0000 -3.6656 0.0000
# 3 42.0605 -5.6630 85.3198 0.0000 -15.9644 0.0000
# 4 0.0000 0.0000 0.0000 10.8846 0.0000 1.2106
# 5 -30.5891 -3.6656 -15.9644 0.0000 32.9123 0.0000
# 6 0.0000 0.0000 0.0000 1.2106 0.0000 7.9517
#
#
#
# Elastic Compliance Matrix: (Units=1/GPa)
#
#
# Indices 1 2 3 4 5 6 
#
# 1 0.017503 0.001821 -0.005968 0.000000 0.013576 0.000000
# 2 0.001821 0.015146 0.000814 0.000000 0.003774 0.000000
# 3 -0.005968 0.000814 0.015063 0.000000 0.001851 0.000000
# 4 0.000000 0.000000 0.000000 0.093456 0.000000 -0.014228
# 5 0.013576 0.003774 0.001851 0.000000 0.044319 0.000000
# 6 0.000000 0.000000 0.000000 -0.014228 0.000000 0.127925
#
#
# Mechanical properties :
#
#
# Convention : Reuss Voigt Hill
#
# Bulk Modulus (GPa) = 24.36320 34.40209 29.38264
# Shear Modulus (GPa) = 14.98089 24.94341 19.96215
#
# Velocity S-wave (km/s) = 2.60900 3.36654 3.01168
# Velocity P-wave (km/s) = 4.48840 5.54461 5.04423
#
# Compressibility (1/GPa) = 0.04104551
#
# Stress axis : x y z
#
# Youngs Moduli (GPa) = 57.13300 66.02564 66.38897
#
# Poissons Ratio (x) = -0.12022 0.39618
# Poissons Ratio (y) = -0.10403 -0.05403
# Poissons Ratio (z) = 0.34094 -0.05373
#
# Static dielectric constant tensor:
#      x y z
#    x 1.786840 0.000000 -0.011420 
#    y 0.000000 1.891780 0.000000 
#    z -0.011420 0.000000 1.834310 
# 
# From -- ./inp_files/346134.got.cif
#   From: 2010.05.17/outbox.cif.g08.bks.cpg/sg12_174_cif.got.tgz:346134.got - 2010.06.03 13:09:07.
