data_PCOD9181285
_publ_section_title
;
Structure prediction by ZEFSAII (Michael W. Deem and Ramdas Pophale) SiO2 
 PCOD9181285
Probable space group: C 2/M
;
_chemical_formula_sum "Si O2"
_cell_formula_units_Z 64
_cell_length_a 22.859301
_cell_length_b 15.069797
_cell_length_c 12.022007
_cell_angle_alpha 90.000000
_cell_angle_beta 49.291003
_cell_angle_gamma 90.000000
_cell_volume 3139.314487
_symmetry_space_group_name_H-M "C 2/M"
_symmetry_group_IT_number 12
_symmetry_cell_setting 'monoclinic'
loop_
_space_group_symop_operation_xyz
x,y,z
-x,y,-z
-x,-y,-z
x,-y,z
1/2+x,1/2+y,z
1/2-x,1/2+y,-z
1/2-x,1/2-y,-z
1/2+x,1/2-y,z
loop_
_atom_site_type_symbol
_atom_site_label
_atom_site_fract_x
_atom_site_fract_y
_atom_site_fract_z
Si Si1 0.523320 0.094631 0.187988
Si Si2 0.269873 0.398276 0.917707
Si Si3 0.661233 0.100904 0.851685
Si Si4 0.752825 0.396497 0.805796
Si Si5 0.870812 0.213254 0.167651
Si Si6 0.441593 0.348761 0.665203
Si Si7 0.580868 0.859941 0.347774
Si Si8 0.493749 0.709757 0.187014
O O1 0.580138 0.101987 0.223864
O O2 0.479343 0.187689 0.241329
O O3 0.480974 0.000000 0.246147
O O4 0.577363 0.093274 0.012914
O O5 0.244032 0.500000 0.961832
O O6 0.219371 0.365494 0.876912
O O7 0.359635 0.395349 0.776215
O O8 0.260119 0.357504 0.052625
O O9 0.653925 0.184557 0.779762
O O10 0.682576 0.000000 0.789028
O O11 0.729586 0.500000 0.833642
O O12 0.701721 0.343419 0.781862
O O13 0.844588 0.389049 0.677066
O O14 0.919404 0.177964 0.211760
O O15 0.932827 0.211458 0.988093
O O16 0.500000 0.383778 0.500000
O O17 0.421541 0.246522 0.658580
O O18 0.483119 0.344719 0.733148
O O19 0.500000 0.889199 0.500000
#
# Coordination Sequence:
#
# PCOD9181285 Si02
#       8
#     8   8   8   8   8   8   8   8
#     4   9  16  28  47  73 105 137 170 219 274 321
#     4  10  19  32  52  80 108 136 182 234 276 322
#     4   9  17  29  50  79 106 135 175 223 278 329
#     4  11  21  33  53  81 111 146 184 225 274 324
#     4  10  19  33  53  76 112 148 176 225 270 318
#     4  10  20  35  55  78 106 143 184 227 277 325
#     4  10  20  32  52  81 110 140 176 221 277 338
#     4   9  19  33  50  77 107 142 186 220 263 323
#
# _framework density 20.386617000000001
#
# number of rings (size 3 to 8) (size 9 to 14) (size 15 to 20)
#    0.000    2.250    2.500    1.125    0.000    2.750 
#    0.000    4.375    0.000   12.000    0.000    5.250 
#    0.000    0.000    0.000    0.000    0.000    0.000 
#
# Total GULP energy -178464.680303 kJ/mol
# GULP energy per Si atom -5577.021259 kJ/mol
# Density = 2.034022 g / cm^3
# Si number density = 20.386617 Si / 1000 Ang^3
#
#
#
# Elastic Constant Matrix: (Units=GPa)
#
#
# Indices 1 2 3 4 5 6 
#
# 1 117.2082 12.9553 19.5954 0.0000 -7.6519 0.0000
# 2 12.9553 41.6059 2.8527 0.0000 -3.3069 0.0000
# 3 19.5954 2.8527 45.9588 0.0000 -14.7379 0.0000
# 4 0.0000 0.0000 0.0000 28.7034 0.0000 16.0736
# 5 -7.6519 -3.3069 -14.7379 0.0000 20.4925 0.0000
# 6 0.0000 0.0000 0.0000 16.0736 0.0000 38.8694
#
#
#
# Elastic Compliance Matrix: (Units=1/GPa)
#
#
# Indices 1 2 3 4 5 6 
#
# 1 0.009479 -0.002662 -0.003742 0.000000 0.000419 0.000000
# 2 -0.002662 0.025099 0.000724 0.000000 0.003577 0.000000
# 3 -0.003742 0.000724 0.029763 0.000000 0.020124 0.000000
# 4 0.000000 0.000000 0.000000 0.045338 0.000000 -0.018749
# 5 0.000419 0.003577 0.020124 0.000000 0.064005 0.000000
# 6 0.000000 0.000000 0.000000 -0.018749 0.000000 0.033480
#
#
# Mechanical properties :
#
#
# Convention : Reuss Voigt Hill
#
# Bulk Modulus (GPa) = 18.87481 30.61994 24.74737
# Shear Modulus (GPa) = 21.17003 28.90435 25.03719
#
# Velocity S-wave (km/s) = 3.22596 3.76947 3.50825
# Velocity P-wave (km/s) = 4.81189 5.83073 5.34564
#
# Compressibility (1/GPa) = 0.05298068
#
# Stress axis : x y z
#
# Youngs Moduli (GPa) = 105.49651 39.84298 33.59926
#
# Poissons Ratio (x) = 0.10605 0.12573
# Poissons Ratio (y) = 0.28080 -0.02433
# Poissons Ratio (z) = 0.39478 -0.02885
#
# Static dielectric constant tensor:
#      x y z
#    x 1.732260 0.000000 0.014280 
#    y 0.000000 1.758080 0.000000 
#    z 0.014280 0.000000 1.743400 
# 
# From -- ./inp_files/168775.got.cif
#   From: 2010.05.17/outbox.cif.g08.bks.cpg/sg12_85_cif.got.tgz:168775.got - 2010.06.03 13:09:07.
