data_PCOD9181069
_publ_section_title
;
Structure prediction by ZEFSAII (Michael W. Deem and Ramdas Pophale) SiO2 
 PCOD9181069
Probable space group: C 2/M
;
_chemical_formula_sum "Si O2"
_cell_formula_units_Z 64
_cell_length_a 19.634303
_cell_length_b 9.082492
_cell_length_c 26.036496
_cell_angle_alpha 90.000000
_cell_angle_beta 124.621199
_cell_angle_gamma 90.000000
_cell_volume 3820.884820
_symmetry_space_group_name_H-M "C 2/M"
_symmetry_group_IT_number 12
_symmetry_cell_setting 'monoclinic'
loop_
_space_group_symop_operation_xyz
x,y,z
-x,y,-z
-x,-y,-z
x,-y,z
1/2+x,1/2+y,z
1/2-x,1/2+y,-z
1/2-x,1/2-y,-z
1/2+x,1/2-y,z
loop_
_atom_site_type_symbol
_atom_site_label
_atom_site_fract_x
_atom_site_fract_y
_atom_site_fract_z
Si Si1 0.589663 0.822882 0.559184
Si Si2 0.732111 0.823914 0.070489
Si Si3 0.336060 0.324880 0.689369
Si Si4 0.295755 0.823070 0.823137
Si Si5 0.947163 0.825021 0.827624
Si Si6 0.120171 0.675398 0.926943
Si Si7 0.186387 0.825497 0.685246
Si Si8 0.744330 0.824689 0.552452
O O1 0.500000 0.778092 0.500000
O O2 0.612153 0.754842 0.624089
O O3 0.662239 0.781015 0.549807
O O4 0.591611 0.000000 0.564371
O O5 0.713198 0.785650 0.121074
O O6 0.811351 0.739467 0.082497
O O7 0.747744 0.000000 0.074560
O O8 0.656186 0.792104 0.999318
O O9 0.316024 0.500000 0.687489
O O10 0.420392 0.298957 0.756503
O O11 0.267282 0.228510 0.688720
O O12 0.322604 0.293254 0.623569
O O13 0.372618 0.740061 0.830037
O O14 0.212355 0.789158 0.754808
O O15 0.309253 0.000000 0.824366
O O16 0.032415 0.748867 0.878810
O O17 0.952747 0.000000 0.837541
O O18 0.114027 0.500000 0.918969
O O19 0.175580 0.000000 0.676363
O O20 0.750000 0.750000 0.500000
O O21 0.740164 0.000000 0.543390
#
# Coordination Sequence:
#
# PCOD9181069 Si02
#       8
#     8   8   8   8   8   8   8   8
#     4   9  18  33  50  66  91 128 162 190 227 280
#     4   9  19  36  54  70  96 134 165 193 240 296
#     4   8  16  31  48  66  92 128 161 187 228 286
#     4   9  18  33  52  74  99 126 159 200 245 290
#     4  10  19  32  52  75  99 128 162 200 241 286
#     4  10  20  34  52  73  98 129 165 202 239 284
#     4   9  16  27  47  73  96 119 152 196 239 278
#     4   9  17  30  48  69  92 120 155 192 232 277
#
# _framework density 16.750046000000001
#
# number of rings (size 3 to 8) (size 9 to 14) (size 15 to 20)
#    0.000    2.875    0.000    1.875    0.000    4.750 
#    0.000    3.750    0.000    4.500    0.000    0.000 
#    0.000    0.000    0.000    0.000    0.000    0.000 
#
# Total GULP energy -178185.228497 kJ/mol
# GULP energy per Si atom -5568.288391 kJ/mol
# Density = 1.671192 g / cm^3
# Si number density = 16.750046 Si / 1000 Ang^3
#
#
#
# Elastic Constant Matrix: (Units=GPa)
#
#
# Indices 1 2 3 4 5 6 
#
# 1 58.6484 34.6054 86.5313 0.0000 2.1888 0.0000
# 2 34.6054 36.9673 66.1884 0.0000 2.6210 0.0000
# 3 86.5313 66.1884 190.8723 0.0000 2.8750 0.0000
# 4 0.0000 0.0000 0.0000 30.4782 0.0000 3.0254
# 5 2.1888 2.6210 2.8750 0.0000 32.1455 0.0000
# 6 0.0000 0.0000 0.0000 3.0254 0.0000 23.0618
#
#
#
# Elastic Compliance Matrix: (Units=1/GPa)
#
#
# Indices 1 2 3 4 5 6 
#
# 1 0.055845 -0.018254 -0.018978 0.000000 -0.000617 0.000000
# 2 -0.018254 0.077738 -0.018630 0.000000 -0.003429 0.000000
# 3 -0.018978 -0.018630 0.020288 0.000000 0.000997 0.000000
# 4 0.000000 0.000000 0.000000 0.033243 0.000000 -0.004361
# 5 -0.000617 -0.003429 0.000997 0.000000 0.031341 0.000000
# 6 0.000000 0.000000 0.000000 -0.004361 0.000000 0.043934
#
#
# Mechanical properties :
#
#
# Convention : Reuss Voigt Hill
#
# Bulk Modulus (GPa) = 23.72652 73.45980 48.59316
# Shear Modulus (GPa) = 12.88121 23.74796 18.31459
#
# Velocity S-wave (km/s) = 2.77614 3.76943 3.31026
# Velocity P-wave (km/s) = 4.94689 7.93073 6.60940
#
# Compressibility (1/GPa) = 0.04214694
#
# Stress axis : x y z
#
# Youngs Moduli (GPa) = 17.90662 12.86374 49.29042
#
# Poissons Ratio (x) = 0.23482 0.93543
# Poissons Ratio (y) = 0.32687 0.91827
# Poissons Ratio (z) = 0.33983 0.23965
#
# Static dielectric constant tensor:
#      x y z
#    x 1.530870 0.000000 0.002180 
#    y 0.000000 1.558910 0.000000 
#    z 0.002180 0.000000 1.603440 
# 
# From -- ./inp_files/346118.got.cif
#   From: 2010.05.17/outbox.cif.g08.bks.cpg/sg12_174_cif.got.tgz:346118.got - 2010.06.03 13:09:07.
