data_PCOD9181043
_publ_section_title
;
Structure prediction by ZEFSAII (Michael W. Deem and Ramdas Pophale) SiO2 
 PCOD9181043
Probable space group: C 2/M
;
_chemical_formula_sum "Si O2"
_cell_formula_units_Z 44
_cell_length_a 13.315899
_cell_length_b 13.656817
_cell_length_c 26.862192
_cell_angle_alpha 90.000000
_cell_angle_beta 152.352549
_cell_angle_gamma 90.000000
_cell_volume 2266.769244
_symmetry_space_group_name_H-M "C 2/M"
_symmetry_group_IT_number 12
_symmetry_cell_setting 'monoclinic'
loop_
_space_group_symop_operation_xyz
x,y,z
-x,y,-z
-x,-y,-z
x,-y,z
1/2+x,1/2+y,z
1/2-x,1/2+y,-z
1/2-x,1/2-y,-z
1/2+x,1/2-y,z
loop_
_atom_site_type_symbol
_atom_site_label
_atom_site_fract_x
_atom_site_fract_y
_atom_site_fract_z
Si Si1 0.883416 0.614937 0.552708
Si Si2 0.000000 0.292090 0.500000
Si Si3 0.421895 0.616157 0.316832
Si Si4 0.176582 0.796428 0.223457
Si Si5 0.542176 0.270492 0.270835
Si Si6 0.668682 0.385978 0.119079
O O1 0.894474 0.500000 0.566605
O O2 0.629516 0.643403 0.443272
O O3 0.949075 0.640295 0.524950
O O4 0.073084 0.664827 0.667520
O O5 0.783021 0.234060 0.391462
O O6 0.394867 0.500000 0.307187
O O7 0.212545 0.679521 0.238800
O O8 0.478389 0.651716 0.285580
O O9 0.065093 0.820153 0.226703
O O10 0.074107 0.841811 0.129231
O O11 0.371217 0.183370 0.195313
O O12 0.726548 0.500000 0.151824
O O13 0.500000 0.379689 0.000000
#
# Coordination Sequence:
#
# PCOD9181043 Si02
#       6
#     8   4   8   8   8   8
#     4   9  15  25  45  73 104 136 168 200 242 298
#     4   8  15  28  47  76 108 132 157 202 255 300
#     4   9  18  31  48  74 108 138 163 201 251 302
#     4  10  19  32  52  75 100 132 172 210 249 299
#     4   9  19  34  54  77 104 133 166 206 250 303
#     4  10  22  39  55  73 100 134 173 215 254 293
#
# _framework density 19.410886000000001
#
# number of rings (size 3 to 8) (size 9 to 14) (size 15 to 20)
#    0.000    2.727    0.000    1.364    0.000    8.000 
#    0.000    0.455    0.000    8.727    0.000    0.000 
#    0.000    0.000    0.000    0.000    0.000    0.000 
#
# Total GULP energy -122620.564891 kJ/mol
# GULP energy per Si atom -5573.662040 kJ/mol
# Density = 1.936671 g / cm^3
# Si number density = 19.410886 Si / 1000 Ang^3
#
#
#
# Elastic Constant Matrix: (Units=GPa)
#
#
# Indices 1 2 3 4 5 6 
#
# 1 36.5405 -14.3993 6.8149 -0.0004 -20.4866 -0.0001
# 2 -14.3993 75.8562 24.6606 0.0005 0.1526 0.0003
# 3 6.8149 24.6606 49.1391 0.0009 -22.3417 0.0001
# 4 -0.0004 0.0005 0.0009 27.4072 0.0004 -1.6067
# 5 -20.4866 0.1526 -22.3417 0.0004 28.3561 0.0000
# 6 -0.0001 0.0003 0.0001 -1.6067 0.0000 7.4013
#
#
#
# Elastic Compliance Matrix: (Units=1/GPa)
#
#
# Indices 1 2 3 4 5 6 
#
# 1 0.055182 0.006812 0.010966 0.000000 0.048471 0.000000
# 2 0.006812 0.018577 -0.012583 0.000000 -0.005092 0.000000
# 3 0.010966 -0.012583 0.044841 -0.000002 0.043321 0.000000
# 4 0.000000 0.000000 -0.000002 0.036957 -0.000002 0.008023
# 5 0.048471 -0.005092 0.043321 -0.000002 0.104444 0.000000
# 6 0.000000 0.000000 0.000000 0.008023 0.000000 0.136853
#
#
# Mechanical properties :
#
#
# Convention : Reuss Voigt Hill
#
# Bulk Modulus (GPa) = 7.75254 21.74314 14.74784
# Shear Modulus (GPa) = 11.64256 22.26356 16.95306
#
# Velocity S-wave (km/s) = 2.45173 3.39036 2.95850
# Velocity P-wave (km/s) = 3.46659 5.15285 4.39142
#
# Compressibility (1/GPa) = 0.12899005
#
# Stress axis : x y z
#
# Youngs Moduli (GPa) = 18.12201 53.83033 22.30124
#
# Poissons Ratio (x) = -0.36670 -0.24457
# Poissons Ratio (y) = -0.12345 0.28062
# Poissons Ratio (z) = -0.19873 0.67735
#
# Static dielectric constant tensor:
#      x y z
#    x 1.720470 0.000000 -0.003510 
#    y 0.000000 1.674020 0.000000 
#    z -0.003510 0.000000 1.707670 
# 
# From -- ./inp_files/176249.got.cif
#   From: 2010.05.17/outbox.cif.g08.bks.cpg/sg12_89_cif.got.tgz:176249.got - 2010.06.03 13:09:07.
