data_PCOD9181091
_publ_section_title
;
Structure prediction by ZEFSAII (Michael W. Deem and Ramdas Pophale) SiO2 
 PCOD9181091
Probable space group: C 2/M
;
_chemical_formula_sum "Si O2"
_cell_formula_units_Z 56
_cell_length_a 16.352738
_cell_length_b 7.821625
_cell_length_c 26.831007
_cell_angle_alpha 90.000000
_cell_angle_beta 140.700546
_cell_angle_gamma 90.000000
_cell_volume 2173.623542
_symmetry_space_group_name_H-M "C 2/M"
_symmetry_group_IT_number 12
_symmetry_cell_setting 'monoclinic'
loop_
_space_group_symop_operation_xyz
x,y,z
-x,y,-z
-x,-y,-z
x,-y,z
1/2+x,1/2+y,z
1/2-x,1/2+y,-z
1/2-x,1/2-y,-z
1/2+x,1/2-y,z
loop_
_atom_site_type_symbol
_atom_site_label
_atom_site_fract_x
_atom_site_fract_y
_atom_site_fract_z
Si Si1 0.749844 0.706518 0.163918
Si Si2 0.304200 0.701658 0.401798
Si Si3 0.471988 0.790836 0.689027
Si Si4 0.563990 0.301528 0.876038
Si Si5 0.288234 0.295387 0.741573
Si Si6 0.346353 0.798229 0.981272
Si Si7 0.106753 0.297142 0.452938
O O1 0.744656 0.500000 0.160435
O O2 0.897881 0.761278 0.221780
O O3 0.733193 0.767575 0.212643
O O4 0.649435 0.772729 0.075892
O O5 0.294976 0.500000 0.393496
O O6 0.315667 0.765255 0.350736
O O7 0.399059 0.734961 0.492918
O O8 0.163988 0.772811 0.353723
O O9 0.479581 0.737179 0.634305
O O10 0.467818 0.000000 0.687170
O O11 0.569335 0.500000 0.864144
O O12 0.430151 0.225027 0.793422
O O13 0.702094 0.225689 0.926195
O O14 0.561053 0.290821 0.935263
O O15 0.298467 0.500000 0.750599
O O16 0.353370 0.000000 0.995155
O O17 0.094645 0.500000 0.449697
O O18 0.250000 0.250000 0.500000
#
# Coordination Sequence:
#
# PCOD9181091 Si02
#       7
#     8   8   8   8   8   8   8
#     4  10  20  35  53  73 101 134 167 203 247 298
#     4  10  19  32  52  76 102 132 167 208 252 296
#     4   8  16  31  52  76  98 127 167 206 246 293
#     4   9  19  36  55  76 101 129 165 205 247 295
#     4  10  21  35  52  74 100 133 169 205 247 295
#     4  10  20  34  54  78 101 128 164 205 248 293
#     4   9  16  29  50  76 103 129 165 210 252 295
#
# _framework density 25.763431000000001
#
# number of rings (size 3 to 8) (size 9 to 14) (size 15 to 20)
#    0.000    2.571    0.000    3.000    0.000    2.286 
#    0.000    7.143    0.000    4.286    0.000    0.000 
#    0.000    0.000    0.000    0.000    0.000    0.000 
#
# Total GULP energy -156446.482416 kJ/mol
# GULP energy per Si atom -5587.374372 kJ/mol
# Density = 2.570479 g / cm^3
# Si number density = 25.763431 Si / 1000 Ang^3
#
#
#
# Elastic Constant Matrix: (Units=GPa)
#
#
# Indices 1 2 3 4 5 6 
#
# 1 73.4608 -4.0874 20.9797 0.0000 -23.8991 0.0000
# 2 -4.0874 49.3222 -11.0770 0.0000 -0.9850 -0.0001
# 3 20.9797 -11.0770 165.8584 0.0000 -20.5612 0.0000
# 4 0.0000 0.0000 0.0000 26.3758 0.0000 -14.2794
# 5 -23.8991 -0.9850 -20.5612 0.0000 51.1488 0.0000
# 6 0.0000 -0.0001 0.0000 -14.2794 0.0000 11.6461
#
#
#
# Elastic Compliance Matrix: (Units=1/GPa)
#
#
# Indices 1 2 3 4 5 6 
#
# 1 0.016343 0.001254 -0.001088 0.000000 0.007223 0.000000
# 2 0.001254 0.020728 0.001419 0.000000 0.001555 0.000001
# 3 -0.001088 0.001419 0.006527 0.000000 0.002143 0.000000
# 4 0.000000 0.000000 0.000000 0.112770 0.000000 0.138268
# 5 0.007223 0.001555 0.002143 0.000000 0.023817 0.000000
# 6 0.000000 0.000001 0.000000 0.138268 0.000000 0.255398
#
#
# Mechanical properties :
#
#
# Convention : Reuss Voigt Hill
#
# Bulk Modulus (GPa) = 21.38204 33.36356 27.37280
# Shear Modulus (GPa) = 11.16062 36.68923 23.92492
#
# Velocity S-wave (km/s) = 2.08359 3.77779 3.05066
# Velocity P-wave (km/s) = 3.75578 5.65748 4.80172
#
# Compressibility (1/GPa) = 0.04676823
#
# Stress axis : x y z
#
# Youngs Moduli (GPa) = 61.18788 48.24291 153.20395
#
# Poissons Ratio (x) = -0.06051 0.16670
# Poissons Ratio (y) = -0.07674 -0.21733
# Poissons Ratio (z) = 0.06658 -0.06843
#
# Static dielectric constant tensor:
#      x y z
#    x 2.180690 0.000000 -0.013120 
#    y 0.000000 1.911820 0.000000 
#    z -0.013120 0.000000 2.019230 
# 
# From -- ./inp_files/280307.got.cif
#   From: 2010.05.17/outbox.cif.g08.bks.cpg/sg12_141_cif.got.tgz:280307.got - 2010.06.03 13:09:07.
