data_PCOD9181126
_publ_section_title
;
Structure prediction by ZEFSAII (Michael W. Deem and Ramdas Pophale) SiO2 
 PCOD9181126
Probable space group: C 2/M
;
_chemical_formula_sum "Si O2"
_cell_formula_units_Z 56
_cell_length_a 9.549842
_cell_length_b 18.392232
_cell_length_c 22.888239
_cell_angle_alpha 90.000000
_cell_angle_beta 41.796825
_cell_angle_gamma 90.000000
_cell_volume 2679.399029
_symmetry_space_group_name_H-M "C 2/M"
_symmetry_group_IT_number 12
_symmetry_cell_setting 'monoclinic'
loop_
_space_group_symop_operation_xyz
x,y,z
-x,y,-z
-x,-y,-z
x,-y,z
1/2+x,1/2+y,z
1/2-x,1/2+y,-z
1/2-x,1/2-y,-z
1/2+x,1/2-y,z
loop_
_atom_site_type_symbol
_atom_site_label
_atom_site_fract_x
_atom_site_fract_y
_atom_site_fract_z
Si Si1 0.776337 0.138020 0.295766
Si Si2 0.825146 0.920181 0.160885
Si Si3 0.799168 0.647418 0.431440
Si Si4 0.744824 0.682021 0.573871
Si Si5 0.649820 0.789977 0.789801
Si Si6 0.679234 0.274363 0.902325
Si Si7 0.686803 0.081760 0.692866
O O1 0.882467 0.091877 0.211302
O O2 0.531270 0.116655 0.371824
O O3 0.843124 0.141316 0.342108
O O4 0.784916 0.220304 0.268790
O O5 0.900025 0.851043 0.100584
O O6 0.569623 0.916722 0.235665
O O7 0.893354 0.000000 0.119799
O O8 0.687938 0.648338 0.528918
O O9 0.814459 0.732762 0.408794
O O10 0.722198 0.606148 0.398123
O O11 0.000000 0.682012 0.500000
O O12 0.724633 0.776702 0.832410
O O13 0.395837 0.788670 0.868481
O O14 0.725633 0.860428 0.731679
O O15 0.500000 0.244421 0.000000
O O16 0.749722 0.000000 0.687663
#
# Coordination Sequence:
#
# PCOD9181126 Si02
#       7
#     8   8   8   8   8   8   8
#     4   9  16  27  46  69  95 125 163 204 239 282
#     4   8  16  29  46  70  97 125 158 197 240 289
#     4   9  16  27  42  69  96 125 164 202 246 277
#     4   9  16  25  42  68  94 124 161 204 245 281
#     4  10  19  32  52  76  98 126 165 199 245 285
#     4  10  20  33  52  77 102 125 155 201 247 292
#     4   9  16  29  48  68  94 126 166 203 234 282
#
# _framework density 20.900207000000002
#
# number of rings (size 3 to 8) (size 9 to 14) (size 15 to 20)
#    0.000    2.857    1.429    1.286    0.000    0.286 
#    0.000    0.714    0.000    8.571    0.000    0.000 
#    0.000    0.000    0.000    0.000    0.000    0.000 
#
# Total GULP energy -156199.506249 kJ/mol
# GULP energy per Si atom -5578.553795 kJ/mol
# Density = 2.085264 g / cm^3
# Si number density = 20.900207 Si / 1000 Ang^3
#
#
#
# Elastic Constant Matrix: (Units=GPa)
#
#
# Indices 1 2 3 4 5 6 
#
# 1 72.0966 4.8974 21.4687 0.0015 6.8240 -0.0055
# 2 4.8974 83.7125 9.2724 0.0010 17.1788 -0.0042
# 3 21.4687 9.2724 58.1140 0.0002 8.3453 -0.0100
# 4 0.0015 0.0010 0.0002 12.3280 0.0002 2.2294
# 5 6.8240 17.1788 8.3453 0.0002 27.7693 0.0048
# 6 -0.0055 -0.0042 -0.0100 2.2294 0.0048 15.8994
#
#
#
# Elastic Compliance Matrix: (Units=1/GPa)
#
#
# Indices 1 2 3 4 5 6 
#
# 1 0.015716 0.000164 -0.005500 -0.000002 -0.002310 0.000003
# 2 0.000164 0.013741 -0.001073 -0.000002 -0.008219 0.000006
# 3 -0.005500 -0.001073 0.019984 -0.000002 -0.003990 0.000012
# 4 -0.000002 -0.000002 -0.000002 0.083226 0.000004 -0.011670
# 5 -0.002310 -0.008219 -0.003990 0.000004 0.042862 -0.000019
# 6 0.000003 0.000006 0.000012 -0.011670 -0.000019 0.064532
#
#
# Mechanical properties :
#
#
# Convention : Reuss Voigt Hill
#
# Bulk Modulus (GPa) = 27.30551 31.68891 29.49721
# Shear Modulus (GPa) = 18.86175 23.08498 20.97337
#
# Velocity S-wave (km/s) = 3.00737 3.32706 3.17124
# Velocity P-wave (km/s) = 5.01519 5.47303 5.24910
#
# Compressibility (1/GPa) = 0.03662264
#
# Stress axis : x y z
#
# Youngs Moduli (GPa) = 63.63091 72.77247 50.04099
#
# Poissons Ratio (x) = -0.01193 0.27523
# Poissons Ratio (y) = -0.01043 0.05369
# Poissons Ratio (z) = 0.34998 0.07808
#
# Static dielectric constant tensor:
#      x y z
#    x 1.800520 0.000000 -0.026320 
#    y 0.000000 1.721320 0.000000 
#    z -0.026320 0.000000 1.760130 
# 
# From -- ./inp_files/305813.got.cif
#   From: 2010.05.17/outbox.cif.g08.bks.cpg/sg12_153_cif.got.tgz:305813.got - 2010.06.03 13:09:07.
