data_PCOD9181809
_publ_section_title
;
Structure prediction by ZEFSAII (Michael W. Deem and Ramdas Pophale) SiO2 
 PCOD9181809
Probable space group: C 2/M
;
_chemical_formula_sum "Si O2"
_cell_formula_units_Z 64
_cell_length_a 24.952672
_cell_length_b 7.859161
_cell_length_c 22.189687
_cell_angle_alpha 90.000000
_cell_angle_beta 133.820370
_cell_angle_gamma 90.000000
_cell_volume 3139.707916
_symmetry_space_group_name_H-M "C 2/M"
_symmetry_group_IT_number 12
_symmetry_cell_setting 'monoclinic'
loop_
_space_group_symop_operation_xyz
x,y,z
-x,y,-z
-x,-y,-z
x,-y,z
1/2+x,1/2+y,z
1/2-x,1/2+y,-z
1/2-x,1/2-y,-z
1/2+x,1/2-y,z
loop_
_atom_site_type_symbol
_atom_site_label
_atom_site_fract_x
_atom_site_fract_y
_atom_site_fract_z
Si Si1 0.447453 0.792380 0.904473
Si Si2 0.055756 0.293729 0.884459
Si Si3 0.129682 0.700206 0.421497
Si Si4 0.530614 0.201330 0.729238
Si Si5 0.325541 0.695228 0.228417
Si Si6 0.719781 0.301975 0.042048
Si Si7 0.217955 0.294469 0.244442
Si Si8 0.731401 0.295922 0.394244
O O1 0.486329 0.743815 0.871851
O O2 0.362581 0.733312 0.841333
O O3 0.446141 0.000000 0.905342
O O4 0.500000 0.735334 0.000000
O O5 0.059795 0.500000 0.887170
O O6 0.049077 0.230714 0.810537
O O7 0.132122 0.230804 0.973304
O O8 0.124288 0.500000 0.431543
O O9 0.191913 0.769846 0.515662
O O10 0.164606 0.721173 0.382174
O O11 0.046746 0.773258 0.356451
O O12 0.600259 0.222340 0.739761
O O13 0.518432 0.000000 0.728571
O O14 0.344784 0.500000 0.255944
O O15 0.263717 0.702849 0.127685
O O16 0.285266 0.771246 0.255641
O O17 0.735999 0.500000 0.064077
O O18 0.750000 0.250000 0.000000
O O19 0.217967 0.500000 0.238634
O O20 0.226200 0.250159 0.320633
O O21 0.728371 0.500000 0.398580
#
# Coordination Sequence:
#
# PCOD9181809 Si02
#       8
#     8   8   8   8   8   8   8   8
#     4   9  17  32  55  80 106 141 185 227 269 326
#     4  10  19  32  54  81 106 138 183 231 279 329
#     4   9  19  37  60  86 115 147 184 225 277 340
#     4  10  20  35  56  80 109 146 186 231 281 332
#     4  11  23  38  57  81 110 146 192 238 279 331
#     4  12  23  36  54  77 109 148 187 229 278 330
#     4  10  21  38  59  81 110 151 190 227 278 341
#     4  10  20  35  59  89 116 145 183 230 279 330
#
# _framework density 20.384060000000002
#
# number of rings (size 3 to 8) (size 9 to 14) (size 15 to 20)
#    0.000    1.875    1.250    3.375    0.000    6.000 
#    0.000    2.500    0.000    5.250    0.000    0.000 
#    0.000    0.000    0.000    0.000    0.000    0.000 
#
# Total GULP energy -178753.063002 kJ/mol
# GULP energy per Si atom -5586.033219 kJ/mol
# Density = 2.033767 g / cm^3
# Si number density = 20.384060 Si / 1000 Ang^3
#
#
#
# Elastic Constant Matrix: (Units=GPa)
#
#
# Indices 1 2 3 4 5 6 
#
# 1 111.2014 -11.9314 55.2999 0.0000 12.6066 0.0000
# 2 -11.9314 25.7588 -11.0388 0.0000 4.6485 0.0000
# 3 55.2999 -11.0388 96.8614 0.0000 9.6033 0.0000
# 4 0.0000 0.0000 0.0000 11.5041 0.0000 -2.9134
# 5 12.6066 4.6485 9.6033 0.0000 37.6366 0.0000
# 6 0.0000 0.0000 0.0000 -2.9134 0.0000 20.1986
#
#
#
# Elastic Compliance Matrix: (Units=1/GPa)
#
#
# Indices 1 2 3 4 5 6 
#
# 1 0.013103 0.003744 -0.006744 0.000000 -0.003131 0.000000
# 2 0.003744 0.043440 0.003559 0.000000 -0.007528 0.000000
# 3 -0.006744 0.003559 0.014773 0.000000 -0.001950 0.000000
# 4 0.000000 0.000000 0.000000 0.090221 0.000000 0.013013
# 5 -0.003131 -0.007528 -0.001950 0.000000 0.029046 0.000000
# 6 0.000000 0.000000 0.000000 0.013013 0.000000 0.051385
#
#
# Mechanical properties :
#
#
# Convention : Reuss Voigt Hill
#
# Bulk Modulus (GPa) = 13.80535 33.16455 23.48495
# Shear Modulus (GPa) = 18.86843 27.30068 23.08456
#
# Velocity S-wave (km/s) = 3.04574 3.66364 3.36889
# Velocity P-wave (km/s) = 4.37676 5.84820 5.16515
#
# Compressibility (1/GPa) = 0.07243569
#
# Stress axis : x y z
#
# Youngs Moduli (GPa) = 76.31911 23.02036 67.69088
#
# Poissons Ratio (x) = -0.08619 0.45648
# Poissons Ratio (y) = -0.28576 -0.24093
# Poissons Ratio (z) = 0.51466 -0.08194
#
# Static dielectric constant tensor:
#      x y z
#    x 1.715680 0.000000 0.016110 
#    y 0.000000 1.759230 0.000000 
#    z 0.016110 0.000000 1.728190 
# 
# From -- ./inp_files/324328.got.cif
#   From: 2010.05.17/outbox.cif.g08.bks.cpg/sg12_163_cif.got.tgz:324328.got - 2010.06.03 13:09:07.
