data_PCOD9181910
_publ_section_title
;
Structure prediction by ZEFSAII (Michael W. Deem and Ramdas Pophale) SiO2 
 PCOD9181910
Probable space group: C 2/M
;
_chemical_formula_sum "Si O2"
_cell_formula_units_Z 44
_cell_length_a 23.707357
_cell_length_b 7.725487
_cell_length_c 12.787003
_cell_angle_alpha 90.000000
_cell_angle_beta 134.850999
_cell_angle_gamma 90.000000
_cell_volume 1660.310257
_symmetry_space_group_name_H-M "C 2/M"
_symmetry_group_IT_number 12
_symmetry_cell_setting 'monoclinic'
loop_
_space_group_symop_operation_xyz
x,y,z
-x,y,-z
-x,-y,-z
x,-y,z
1/2+x,1/2+y,z
1/2-x,1/2+y,-z
1/2-x,1/2-y,-z
1/2+x,1/2-y,z
loop_
_atom_site_type_symbol
_atom_site_label
_atom_site_fract_x
_atom_site_fract_y
_atom_site_fract_z
Si Si1 0.352615 0.807342 0.214937
Si Si2 0.029848 0.792113 0.156073
Si Si3 0.864411 0.298436 0.003507
Si Si4 0.805433 0.199676 0.700481
Si Si5 0.640761 0.687215 0.550877
Si Si6 0.983596 0.500000 0.607750
O O1 0.334631 0.733291 0.076608
O O2 0.335173 0.699411 0.294643
O O3 0.315640 0.000000 0.178846
O O4 0.447051 0.854087 0.335809
O O5 0.121075 0.732840 0.273205
O O6 0.961265 0.706562 0.134822
O O7 0.027317 0.000000 0.165662
O O8 0.000000 0.753612 0.000000
O O9 0.842810 0.500000 0.967212
O O10 0.837006 0.206027 0.862635
O O11 0.722590 0.296941 0.593670
O O12 0.792260 0.000000 0.657188
O O13 0.603552 0.500000 0.481218
O O14 0.582740 0.847328 0.458292
#
# Coordination Sequence:
#
# PCOD9181910 Si02
#       6
#     8   8   8   8   8   4
#     4   9  20  38  55  77 115 153 177 235 289 328
#     4   8  16  31  51  76 109 151 191 228 277 333
#     4  10  19  32  54  83 114 151 188 229 282 341
#     4  10  20  35  54  81 120 155 183 235 291 336
#     4  12  22  35  61  88 110 149 196 235 285 339
#     4  10  21  44  60  80 118 146 194 244 275 328
#
# _framework density 26.501073999999999
#
# number of rings (size 3 to 8) (size 9 to 14) (size 15 to 20)
#    0.545    1.636    1.818    3.273    0.000    7.636 
#    0.000    0.000    0.000    1.091    0.000    0.000 
#    0.000    0.000    0.000    0.000    0.000    0.000 
#
# Total GULP energy -122611.200041 kJ/mol
# GULP energy per Si atom -5573.236366 kJ/mol
# Density = 2.644076 g / cm^3
# Si number density = 26.501074 Si / 1000 Ang^3
#
#
#
# Elastic Constant Matrix: (Units=GPa)
#
#
# Indices 1 2 3 4 5 6 
#
# 1 135.2182 29.2711 57.0723 0.0000 26.3487 0.0000
# 2 29.2711 127.1389 19.2778 0.0000 29.0113 0.0000
# 3 57.0723 19.2778 95.6177 0.0000 -2.0188 0.0000
# 4 0.0000 0.0000 0.0000 -81.5509 0.0000 44.2432
# 5 26.3487 29.0113 -2.0188 0.0000 63.5767 0.0000
# 6 0.0000 0.0000 0.0000 44.2432 0.0000 -67.9707
#
#
#
# Elastic Compliance Matrix: (Units=1/GPa)
#
#
# Indices 1 2 3 4 5 6 
#
# 1 0.011239 -0.000513 -0.006703 0.000000 -0.004637 0.000000
# 2 -0.000513 0.009145 -0.001622 0.000000 -0.004012 0.000000
# 3 -0.006703 -0.001622 0.014870 0.000000 0.003990 0.000000
# 4 0.000000 0.000000 0.000000 -0.018957 0.000000 -0.012339
# 5 -0.004637 -0.004012 0.003990 0.000000 0.019608 0.000000
# 6 0.000000 0.000000 0.000000 -0.012339 0.000000 -0.022744
#
#
# Mechanical properties :
#
#
# Convention : Reuss Voigt Hill
#
# Bulk Modulus (GPa) = 56.88884 63.24635 60.06759
# Shear Modulus (GPa) = 136.24785 -0.36542 67.94122
#
# Velocity S-wave (km/s) = 7.17801 -0.37173 5.06881
# Velocity P-wave (km/s) = 9.49798 4.87167 7.54801
#
# Compressibility (1/GPa) = 0.01757814
#
# Stress axis : x y z
#
# Youngs Moduli (GPa) = 88.97470 109.34968 67.24768
#
# Poissons Ratio (x) = 0.05612 0.45075
# Poissons Ratio (y) = 0.04567 0.10908
# Poissons Ratio (z) = 0.59638 0.17738
#
# Static dielectric constant tensor:
#      x y z
#    x 2.090190 0.000000 -0.072640 
#    y 0.000000 2.176940 0.000000 
#    z -0.072640 0.000000 2.231610 
# 
# From -- ./inp_files/292003.got.cif
#   From: 2010.05.17/outbox.cif.g08.bks.cpg/sg12_147_cif.got.tgz:292003.got - 2010.06.03 13:09:07.
