data_PCOD9181265
_publ_section_title
;
Structure prediction by ZEFSAII (Michael W. Deem and Ramdas Pophale) SiO2 
 PCOD9181265
Probable space group: C 2/M
;
_chemical_formula_sum "Si O2"
_cell_formula_units_Z 56
_cell_length_a 15.581363
_cell_length_b 7.375135
_cell_length_c 21.321632
_cell_angle_alpha 90.000000
_cell_angle_beta 64.030770
_cell_angle_gamma 90.000000
_cell_volume 2202.772915
_symmetry_space_group_name_H-M "C 2/M"
_symmetry_group_IT_number 12
_symmetry_cell_setting 'monoclinic'
loop_
_space_group_symop_operation_xyz
x,y,z
-x,y,-z
-x,-y,-z
x,-y,z
1/2+x,1/2+y,z
1/2-x,1/2+y,-z
1/2-x,1/2-y,-z
1/2+x,1/2-y,z
loop_
_atom_site_type_symbol
_atom_site_label
_atom_site_fract_x
_atom_site_fract_y
_atom_site_fract_z
Si Si1 0.078351 0.204626 0.391588
Si Si2 0.053955 0.211870 0.668057
Si Si3 0.048196 0.778330 0.804957
Si Si4 0.265796 0.714787 0.568034
Si Si5 0.089234 0.205621 0.047024
Si Si6 0.765700 0.718741 0.760779
Si Si7 0.256135 0.721203 0.090124
O O1 0.136815 0.287264 0.431305
O O2 0.157890 0.201625 0.311054
O O3 0.989443 0.290276 0.382447
O O4 0.049732 0.000000 0.419102
O O5 0.014985 0.285763 0.746682
O O6 0.168381 0.220179 0.631492
O O7 0.028101 0.000000 0.675125
O O8 0.158795 0.733395 0.775173
O O9 0.992597 0.709882 0.883806
O O10 0.040025 0.000000 0.807908
O O11 0.270017 0.500000 0.576233
O O12 0.250000 0.750000 0.500000
O O13 0.177705 0.205098 0.067525
O O14 0.059258 0.000000 0.042365
O O15 0.138844 0.279855 0.968225
O O16 0.775384 0.500000 0.754531
O O17 0.772090 0.774680 0.831088
O O18 0.255598 0.500000 0.087271
#
# Coordination Sequence:
#
# PCOD9181265 Si02
#       7
#     8   8   8   8   8   8   8
#     4  10  22  39  61  88 117 151 191 232 280 335
#     4  10  20  38  62  86 115 152 192 233 278 333
#     4   9  17  30  52  78 104 141 186 230 277 330
#     4  11  24  42  63  90 121 151 185 228 278 334
#     4   9  17  31  49  69 100 143 188 232 281 337
#     4  10  19  32  52  79 110 144 187 238 287 333
#     4   9  18  30  46  72 104 138 182 237 287 331
#
# _framework density 25.422504
#
# number of rings (size 3 to 8) (size 9 to 14) (size 15 to 20)
#    0.000    2.286    1.429    1.286    0.000    4.000 
#    0.000    7.143    0.000    0.000    0.000    5.000 
#    0.000    0.000    0.000    0.000    0.000    0.000 
#
# Total GULP energy -156449.382659 kJ/mol
# GULP energy per Si atom -5587.477952 kJ/mol
# Density = 2.536464 g / cm^3
# Si number density = 25.422504 Si / 1000 Ang^3
#
#
#
# Elastic Constant Matrix: (Units=GPa)
#
#
# Indices 1 2 3 4 5 6 
#
# 1 81.8963 3.1298 -6.9310 0.0001 29.6853 0.0001
# 2 3.1298 99.2476 -1.6303 0.0002 4.0046 0.0001
# 3 -6.9310 -1.6303 108.2552 0.0000 17.8909 0.0000
# 4 0.0001 0.0002 0.0000 4.3069 0.0000 -6.5884
# 5 29.6853 4.0046 17.8909 0.0000 48.2275 0.0000
# 6 0.0001 0.0001 0.0000 -6.5884 0.0000 7.2854
#
#
#
# Elastic Compliance Matrix: (Units=1/GPa)
#
#
# Indices 1 2 3 4 5 6 
#
# 1 0.016541 -0.000019 0.002920 0.000001 -0.011263 0.000001
# 2 -0.000019 0.010119 0.000307 0.000002 -0.000942 0.000001
# 3 0.002920 0.000307 0.010366 0.000000 -0.005668 0.000000
# 4 0.000001 0.000002 0.000000 -0.605622 -0.000001 -0.547684
# 5 -0.011263 -0.000942 -0.005668 -0.000001 0.029849 -0.000001
# 6 0.000001 0.000001 0.000000 -0.547684 -0.000001 -0.358028
#
#
# Mechanical properties :
#
#
# Convention : Reuss Voigt Hill
#
# Bulk Modulus (GPa) = 23.01917 30.94842 26.98380
# Shear Modulus (GPa) = -5.62613 31.61934 12.99661
#
# Velocity S-wave (km/s) = -1.48925 3.53052 2.26348
# Velocity P-wave (km/s) = 2.47329 5.36837 4.17951
#
# Compressibility (1/GPa) = 0.04344205
#
# Stress axis : x y z
#
# Youngs Moduli (GPa) = 60.45574 98.81933 96.47112
#
# Poissons Ratio (x) = 0.00190 -0.28171
# Poissons Ratio (y) = 0.00116 -0.02961
# Poissons Ratio (z) = -0.17654 -0.03033
#
# Static dielectric constant tensor:
#      x y z
#    x 2.003800 0.000000 0.039640 
#    y 0.000000 1.949700 0.000000 
#    z 0.039640 0.000000 2.002100 
# 
# From -- ./inp_files/337898.got.cif
#   From: 2010.05.17/outbox.cif.g08.bks.cpg/sg12_169_cif.got.tgz:337898.got - 2010.06.03 13:09:07.
