data_PCOD9181883
_publ_section_title
;
Structure prediction by ZEFSAII (Michael W. Deem and Ramdas Pophale) SiO2 
 PCOD9181883
Probable space group: C 2/M
;
_chemical_formula_sum "Si O2"
_cell_formula_units_Z 64
_cell_length_a 32.981570
_cell_length_b 13.010368
_cell_length_c 8.274441
_cell_angle_alpha 90.000000
_cell_angle_beta 52.726389
_cell_angle_gamma 90.000000
_cell_volume 2825.384648
_symmetry_space_group_name_H-M "C 2/M"
_symmetry_group_IT_number 12
_symmetry_cell_setting 'monoclinic'
loop_
_space_group_symop_operation_xyz
x,y,z
-x,y,-z
-x,-y,-z
x,-y,z
1/2+x,1/2+y,z
1/2-x,1/2+y,-z
1/2-x,1/2-y,-z
1/2+x,1/2-y,z
loop_
_atom_site_type_symbol
_atom_site_label
_atom_site_fract_x
_atom_site_fract_y
_atom_site_fract_z
Si Si1 0.025945 0.673456 0.264319
Si Si2 0.747543 0.160420 0.246470
Si Si3 0.376605 0.186546 0.808609
Si Si4 0.927101 0.385839 0.376935
Si Si5 0.762375 0.385855 0.097629
Si Si6 0.149513 0.826877 0.869307
Si Si7 0.961214 0.883784 0.941102
Si Si8 0.347308 0.886283 0.312776
O O1 0.082948 0.637157 0.162891
O O2 0.026748 0.792299 0.211023
O O3 0.000000 0.658818 0.500000
O O4 0.987735 0.621392 0.232680
O O5 0.756975 0.125429 0.039891
O O6 0.794822 0.124923 0.244114
O O7 0.695035 0.119023 0.443727
O O8 0.744097 0.285824 0.241834
O O9 0.402302 0.188509 0.570541
O O10 0.323298 0.129002 0.933082
O O11 0.367714 0.299758 0.905029
O O12 0.912296 0.500000 0.468598
O O13 0.902110 0.371092 0.264509
O O14 0.750141 0.500000 0.189774
O O15 0.161536 0.713844 0.770518
O O16 0.101060 0.872770 0.890417
O O17 0.970130 0.000000 0.861677
O O18 0.000000 0.869395 0.000000
O O19 0.343784 0.000000 0.248199
#
# Coordination Sequence:
#
# PCOD9181883 Si02
#       8
#     8   8   8   8   8   8   8   8
#     4   9  19  34  55  84 113 139 176 226 270 318
#     4  10  21  36  56  81 111 146 183 228 275 324
#     4   9  18  33  54  80 109 140 179 219 270 325
#     4  10  19  32  54  82 112 145 176 216 273 332
#     4  10  19  34  57  83 111 145 183 224 275 331
#     4  10  22  38  56  82 110 143 183 233 271 320
#     4  10  21  39  60  78 103 145 186 223 273 325
#     4  11  22  37  57  81 112 149 182 221 277 332
#
# _framework density 22.651782000000001
#
# number of rings (size 3 to 8) (size 9 to 14) (size 15 to 20)
#    0.000    2.125    1.250    1.875    0.000    6.500 
#    0.000    2.500    0.000    7.500    0.000    0.000 
#    0.000    0.000    0.000    0.000    0.000    0.000 
#
# Total GULP energy -178462.151763 kJ/mol
# GULP energy per Si atom -5576.942243 kJ/mol
# Density = 2.260023 g / cm^3
# Si number density = 22.651782 Si / 1000 Ang^3
#
#
#
# Elastic Constant Matrix: (Units=GPa)
#
#
# Indices 1 2 3 4 5 6 
#
# 1 172.2317 16.5585 3.5638 0.0000 -12.9757 0.0000
# 2 16.5585 98.5595 -3.0655 0.0000 0.9737 0.0000
# 3 3.5638 -3.0655 22.7137 0.0000 -0.6090 0.0000
# 4 0.0000 0.0000 0.0000 21.3407 0.0000 3.4724
# 5 -12.9757 0.9737 -0.6090 0.0000 23.5426 0.0000
# 6 0.0000 0.0000 0.0000 3.4724 0.0000 -36.9762
#
#
#
# Elastic Compliance Matrix: (Units=1/GPa)
#
#
# Indices 1 2 3 4 5 6 
#
# 1 0.006192 -0.001106 -0.001029 0.000000 0.003432 0.000000
# 2 -0.001106 0.010390 0.001549 0.000000 -0.000999 0.000000
# 3 -0.001029 0.001549 0.044411 0.000000 0.000518 0.000000
# 4 0.000000 0.000000 0.000000 0.046154 0.000000 0.004334
# 5 0.003432 -0.000999 0.000518 0.000000 0.044423 0.000000
# 6 0.000000 0.000000 0.000000 0.004334 0.000000 -0.026637
#
#
# Mechanical properties :
#
#
# Convention : Reuss Voigt Hill
#
# Bulk Modulus (GPa) = 16.71653 36.40205 26.55929
# Shear Modulus (GPa) = 34.23620 20.01131 27.12376
#
# Velocity S-wave (km/s) = 3.89191 2.97548 3.46413
# Velocity P-wave (km/s) = 5.25278 5.28298 5.26790
#
# Compressibility (1/GPa) = 0.05982103
#
# Stress axis : x y z
#
# Youngs Moduli (GPa) = 161.48966 96.24579 22.51708
#
# Poissons Ratio (x) = 0.10647 0.02317
# Poissons Ratio (y) = 0.17865 -0.03488
# Poissons Ratio (z) = 0.16615 -0.14909
#
# Static dielectric constant tensor:
#      x y z
#    x 1.916800 0.000000 -0.003640 
#    y 0.000000 1.853070 0.000000 
#    z -0.003640 0.000000 1.881190 
# 
# From -- ./inp_files/111637.got.cif
#   From: 2010.05.17/outbox.cif.g08.bks.cpg/sg12_56_cif.got.tgz:111637.got - 2010.06.03 13:09:07.
