data_PCOD9181818
_publ_section_title
;
Structure prediction by ZEFSAII (Michael W. Deem and Ramdas Pophale) SiO2 
 PCOD9181818
Probable space group: C 2/M
;
_chemical_formula_sum "Si O2"
_cell_formula_units_Z 64
_cell_length_a 20.709689
_cell_length_b 7.573576
_cell_length_c 22.564955
_cell_angle_alpha 90.000000
_cell_angle_beta 56.885338
_cell_angle_gamma 90.000000
_cell_volume 2964.386225
_symmetry_space_group_name_H-M "C 2/M"
_symmetry_group_IT_number 12
_symmetry_cell_setting 'monoclinic'
loop_
_space_group_symop_operation_xyz
x,y,z
-x,y,-z
-x,-y,-z
x,-y,z
1/2+x,1/2+y,z
1/2-x,1/2+y,-z
1/2-x,1/2-y,-z
1/2+x,1/2-y,z
loop_
_atom_site_type_symbol
_atom_site_label
_atom_site_fract_x
_atom_site_fract_y
_atom_site_fract_z
Si Si1 0.007728 0.703741 0.179532
Si Si2 0.817978 0.212703 0.589644
Si Si3 0.607757 0.715579 0.566802
Si Si4 0.364887 0.703925 0.792281
Si Si5 0.770992 0.712162 0.057484
Si Si6 0.143747 0.792069 0.681379
Si Si7 0.068781 0.783603 0.363977
Si Si8 0.945490 0.716262 0.974129
O O1 0.032506 0.500000 0.167649
O O2 0.060278 0.793445 0.202984
O O3 0.024547 0.773530 0.105470
O O4 0.918824 0.713604 0.242715
O O5 0.835984 0.275527 0.513962
O O6 0.732580 0.263167 0.652466
O O7 0.883962 0.272936 0.602016
O O8 0.821293 0.000000 0.587072
O O9 0.609908 0.500000 0.566830
O O10 0.629684 0.777200 0.621524
O O11 0.520548 0.768581 0.594239
O O12 0.344668 0.500000 0.790517
O O13 0.294051 0.782281 0.865110
O O14 0.388565 0.779935 0.717015
O O15 0.771244 0.500000 0.062851
O O16 0.750000 0.750000 0.000000
O O17 0.857431 0.774648 0.026448
O O18 0.127922 0.000000 0.688420
O O19 0.068246 0.000000 0.363957
O O20 0.946329 0.500000 0.973828
O O21 0.000000 0.774895 0.000000
#
# Coordination Sequence:
#
# PCOD9181818 Si02
#       8
#     8   8   8   8   8   8   8   8
#     4  11  21  35  58  83 107 140 184 231 270 318
#     4  10  20  34  56  84 110 139 186 235 270 316
#     4   9  17  32  56  82 107 143 186 228 270 319
#     4  10  19  33  56  82 110 145 182 221 273 330
#     4  10  19  32  54  81 107 140 177 217 262 312
#     4  11  22  37  56  78 113 150 180 219 277 337
#     4   9  17  32  55  83 110 141 182 227 272 318
#     4   9  19  35  55  82 113 141 176 223 271 314
#
# _framework density 21.58963
#
# number of rings (size 3 to 8) (size 9 to 14) (size 15 to 20)
#    0.000    2.125    2.500    1.500    0.000    2.500 
#    0.000    5.000    0.000    5.625    0.000    0.000 
#    0.000    0.000    0.000    0.000    0.000    0.000 
#
# Total GULP energy -178798.069697 kJ/mol
# GULP energy per Si atom -5587.439678 kJ/mol
# Density = 2.154049 g / cm^3
# Si number density = 21.589630 Si / 1000 Ang^3
#
#
#
# Elastic Constant Matrix: (Units=GPa)
#
#
# Indices 1 2 3 4 5 6 
#
# 1 68.1664 -5.9781 -9.5589 -0.0017 -14.7383 0.0068
# 2 -5.9781 50.6075 -1.3781 -0.0060 4.0415 0.0243
# 3 -9.5589 -1.3781 92.7056 -0.0010 -17.4750 0.0042
# 4 -0.0017 -0.0060 -0.0010 18.1789 0.0010 -30.6144
# 5 -14.7383 4.0415 -17.4750 0.0010 36.1537 -0.0043
# 6 0.0068 0.0243 0.0042 -30.6144 -0.0043 113.2247
#
#
#
# Elastic Compliance Matrix: (Units=1/GPa)
#
#
# Indices 1 2 3 4 5 6 
#
# 1 0.017094 0.001437 0.003375 0.000000 0.008439 -0.000001
# 2 0.001437 0.020060 0.000148 -0.000001 -0.001585 -0.000005
# 3 0.003375 0.000148 0.012535 0.000000 0.007418 0.000000
# 4 0.000000 -0.000001 0.000000 0.100998 0.000000 0.027309
# 5 0.008439 -0.001585 0.007418 0.000000 0.034863 0.000001
# 6 -0.000001 -0.000005 0.000000 0.027309 0.000001 0.016216
#
#
# Mechanical properties :
#
#
# Convention : Reuss Voigt Hill
#
# Bulk Modulus (GPa) = 16.77619 19.73882 18.25750
# Shear Modulus (GPa) = 23.61644 48.73776 36.17710
#
# Velocity S-wave (km/s) = 3.31097 4.75643 4.09794
# Velocity P-wave (km/s) = 4.73329 6.27116 5.55569
#
# Compressibility (1/GPa) = 0.05960829
#
# Stress axis : x y z
#
# Youngs Moduli (GPa) = 58.50068 49.84970 79.77462
#
# Poissons Ratio (x) = -0.07164 -0.26921
# Poissons Ratio (y) = -0.08408 -0.01177
# Poissons Ratio (z) = -0.19742 -0.00736
#
# Static dielectric constant tensor:
#      x y z
#    x 1.735530 0.000000 -0.004660 
#    y 0.000000 1.844740 0.000000 
#    z -0.004660 0.000000 1.774850 
# 
# From -- ./inp_files/345960.got.cif
#   From: 2010.05.17/outbox.cif.g08.bks.cpg/sg12_173_cif.got.tgz:345960.got - 2010.06.03 13:09:07.
