data_PCOD9181267
_publ_section_title
;
Structure prediction by ZEFSAII (Michael W. Deem and Ramdas Pophale) SiO2 
 PCOD9181267
Probable space group: C 2/M
;
_chemical_formula_sum "Si O2"
_cell_formula_units_Z 56
_cell_length_a 28.740363
_cell_length_b 8.806211
_cell_length_c 13.993586
_cell_angle_alpha 90.000000
_cell_angle_beta 122.897700
_cell_angle_gamma 90.000000
_cell_volume 2973.749214
_symmetry_space_group_name_H-M "C 2/M"
_symmetry_group_IT_number 12
_symmetry_cell_setting 'monoclinic'
loop_
_space_group_symop_operation_xyz
x,y,z
-x,y,-z
-x,-y,-z
x,-y,z
1/2+x,1/2+y,z
1/2-x,1/2+y,-z
1/2-x,1/2-y,-z
1/2+x,1/2-y,z
loop_
_atom_site_type_symbol
_atom_site_label
_atom_site_fract_x
_atom_site_fract_y
_atom_site_fract_z
Si Si1 0.037405 0.316971 0.759312
Si Si2 0.053664 0.682988 0.998544
Si Si3 0.128627 0.678903 0.706130
Si Si4 0.278808 0.318551 0.301422
Si Si5 0.309562 0.682009 0.541361
Si Si6 0.659314 0.317661 0.221110
Si Si7 0.952501 0.169980 0.527336
O O1 0.031178 0.500000 0.743727
O O2 0.045586 0.276409 0.878580
O O3 0.091546 0.274165 0.756335
O O4 0.983505 0.237963 0.653426
O O5 0.058387 0.500000 0.009051
O O6 0.108705 0.754430 0.104001
O O7 0.000000 0.729108 0.000000
O O8 0.138159 0.500000 0.722472
O O9 0.186567 0.761981 0.750943
O O10 0.090258 0.719973 0.572486
O O11 0.273015 0.500000 0.292539
O O12 0.315079 0.275595 0.436738
O O13 0.218223 0.245871 0.248611
O O14 0.307468 0.500000 0.541573
O O15 0.250000 0.750000 0.500000
O O16 0.347070 0.729054 0.673355
O O17 0.660803 0.500000 0.218120
O O18 0.000000 0.155132 0.500000
O O19 0.929456 0.000000 0.519925
#
# Coordination Sequence:
#
# PCOD9181267 Si02
#       7
#     8   8   8   8   8   8   8
#     4   9  19  36  55  76 106 142 179 221 266 312
#     4  10  22  40  59  78 101 134 178 224 269 315
#     4  10  19  32  52  79 111 144 177 214 261 316
#     4  10  19  33  54  81 112 143 176 214 260 314
#     4   8  16  30  49  74 104 136 168 206 252 303
#     4  10  20  36  56  79 108 140 176 218 265 314
#     4   9  17  30  50  76 105 137 173 213 258 307
#
# _framework density 18.831448000000002
#
# number of rings (size 3 to 8) (size 9 to 14) (size 15 to 20)
#    0.000    2.571    0.000    1.714    0.000    5.429 
#    0.000    3.571    0.000    0.000    0.000    0.000 
#    0.000    0.000    0.000    0.000    0.000    0.000 
#
# Total GULP energy -156034.669679 kJ/mol
# GULP energy per Si atom -5572.666774 kJ/mol
# Density = 1.878859 g / cm^3
# Si number density = 18.831448 Si / 1000 Ang^3
#
#
#
# Elastic Constant Matrix: (Units=GPa)
#
#
# Indices 1 2 3 4 5 6 
#
# 1 110.3449 28.2776 55.0003 0.0000 -13.0267 0.0000
# 2 28.2776 28.7448 31.8583 0.0000 -5.6110 0.0000
# 3 55.0003 31.8583 134.3808 0.0000 -10.0890 0.0000
# 4 0.0000 0.0000 0.0000 25.3533 0.0000 6.5670
# 5 -13.0267 -5.6110 -10.0890 0.0000 20.9200 0.0000
# 6 0.0000 0.0000 0.0000 6.5670 0.0000 24.7909
#
#
#
# Elastic Compliance Matrix: (Units=1/GPa)
#
#
# Indices 1 2 3 4 5 6 
#
# 1 0.013392 -0.008949 -0.003023 0.000000 0.004481 0.000000
# 2 -0.008949 0.054340 -0.008865 0.000000 0.004727 0.000000
# 3 -0.003023 -0.008865 0.010854 0.000000 0.000974 0.000000
# 4 0.000000 0.000000 0.000000 0.042348 0.000000 -0.011218
# 5 0.004481 0.004727 0.000974 0.000000 0.052329 0.000000
# 6 0.000000 0.000000 0.000000 -0.011218 0.000000 0.043309
#
#
# Mechanical properties :
#
#
# Convention : Reuss Voigt Hill
#
# Bulk Modulus (GPa) = 27.09178 55.97145 41.53162
# Shear Modulus (GPa) = 18.48088 24.76844 21.62466
#
# Velocity S-wave (km/s) = 3.13610 3.63060 3.39237
# Velocity P-wave (km/s) = 5.24702 6.88200 6.11936
#
# Compressibility (1/GPa) = 0.03691156
#
# Stress axis : x y z
#
# Youngs Moduli (GPa) = 74.67406 18.40250 92.13443
#
# Poissons Ratio (x) = 0.16468 0.27853
# Poissons Ratio (y) = 0.66824 0.81680
# Poissons Ratio (z) = 0.22574 0.16314
#
# Static dielectric constant tensor:
#      x y z
#    x 1.677130 0.000000 -0.022010 
#    y 0.000000 1.647680 0.000000 
#    z -0.022010 0.000000 1.643250 
# 
# From -- ./inp_files/244279.got.cif
#   From: 2010.05.17/outbox.cif.g08.bks.cpg/sg12_123_cif.got.tgz:244279.got - 2010.06.03 13:09:07.
