data_PCOD9181528
_publ_section_title
;
Structure prediction by ZEFSAII (Michael W. Deem and Ramdas Pophale) SiO2 
 PCOD9181528
Probable space group: C 2/M
;
_chemical_formula_sum "Si O2"
_cell_formula_units_Z 56
_cell_length_a 25.603749
_cell_length_b 8.835435
_cell_length_c 15.413067
_cell_angle_alpha 90.000000
_cell_angle_beta 74.711579
_cell_angle_gamma 90.000000
_cell_volume 3363.354541
_symmetry_space_group_name_H-M "C 2/M"
_symmetry_group_IT_number 12
_symmetry_cell_setting 'monoclinic'
loop_
_space_group_symop_operation_xyz
x,y,z
-x,y,-z
-x,-y,-z
x,-y,z
1/2+x,1/2+y,z
1/2-x,1/2+y,-z
1/2-x,1/2-y,-z
1/2+x,1/2-y,z
loop_
_atom_site_type_symbol
_atom_site_label
_atom_site_fract_x
_atom_site_fract_y
_atom_site_fract_z
Si Si1 0.173263 0.681557 0.088880
Si Si2 0.626841 0.318740 0.594356
Si Si3 0.682477 0.317619 0.390422
Si Si4 0.303890 0.181405 0.284088
Si Si5 0.487999 0.818020 0.404484
Si Si6 0.205757 0.180256 0.898209
Si Si7 0.103071 0.317444 0.280494
O O1 0.171619 0.500000 0.077012
O O2 0.231113 0.717544 0.108745
O O3 0.126520 0.726858 0.176485
O O4 0.173077 0.761703 0.996183
O O5 0.627807 0.500000 0.599812
O O6 0.662801 0.272308 0.494838
O O7 0.652502 0.247750 0.668897
O O8 0.566213 0.261873 0.603407
O O9 0.679976 0.500000 0.386239
O O10 0.743827 0.270567 0.342696
O O11 0.641751 0.249834 0.337515
O O12 0.310920 0.241451 0.183612
O O13 0.306141 0.000000 0.283874
O O14 0.500000 0.781439 0.500000
O O15 0.541263 0.774489 0.326707
O O16 0.480840 0.000000 0.402045
O O17 0.201413 0.000000 0.892023
O O18 0.106512 0.500000 0.284872
#
# Coordination Sequence:
#
# PCOD9181528 Si02
#       7
#     8   8   8   8   8   8   8
#     4   9  18  32  51  78 109 140 174 214 263 315
#     4  11  23  37  53  76 108 145 183 221 264 314
#     4  10  21  34  51  78 109 142 177 217 264 314
#     4  11  22  36  54  77 108 144 180 219 265 319
#     4  10  20  35  56  79 105 141 183 222 262 308
#     4  10  19  32  53  79 108 139 174 216 265 319
#     4  10  19  33  55  80 108 142 178 218 261 311
#
# _framework density 16.650043
#
# number of rings (size 3 to 8) (size 9 to 14) (size 15 to 20)
#    0.000    1.857    2.857    1.714    0.000    3.143 
#    0.000    0.000    0.000    0.857    0.000    6.000 
#    0.000    0.000    0.000    0.000    0.000    0.000 
#
# Total GULP energy -156335.164376 kJ/mol
# GULP energy per Si atom -5583.398728 kJ/mol
# Density = 1.661215 g / cm^3
# Si number density = 16.650043 Si / 1000 Ang^3
#
#
#
# Elastic Constant Matrix: (Units=GPa)
#
#
# Indices 1 2 3 4 5 6 
#
# 1 90.4707 37.4184 82.2890 0.0000 10.0220 0.0000
# 2 37.4184 33.7169 51.6557 0.0000 5.8102 0.0000
# 3 82.2890 51.6557 164.7302 0.0000 -0.6873 0.0000
# 4 0.0000 0.0000 0.0000 27.7167 0.0000 5.3448
# 5 10.0220 5.8102 -0.6873 0.0000 28.4054 0.0000
# 6 0.0000 0.0000 0.0000 5.3448 0.0000 23.8896
#
#
#
# Elastic Compliance Matrix: (Units=1/GPa)
#
#
# Indices 1 2 3 4 5 6 
#
# 1 0.024923 -0.014449 -0.007944 0.000000 -0.006030 0.000000
# 2 -0.014449 0.069952 -0.014757 0.000000 -0.009567 0.000000
# 3 -0.007944 -0.014757 0.014692 0.000000 0.006177 0.000000
# 4 0.000000 0.000000 0.000000 0.037706 0.000000 -0.008436
# 5 -0.006030 -0.009567 0.006177 0.000000 0.039439 0.000000
# 6 0.000000 0.000000 0.000000 -0.008436 0.000000 0.043746
#
#
# Mechanical properties :
#
#
# Convention : Reuss Voigt Hill
#
# Bulk Modulus (GPa) = 28.35618 70.18268 49.26943
# Shear Modulus (GPa) = 15.79698 23.83933 19.81816
#
# Velocity S-wave (km/s) = 3.08355 3.78800 3.45378
# Velocity P-wave (km/s) = 5.45393 7.83423 6.74983
#
# Compressibility (1/GPa) = 0.03526568
#
# Stress axis : x y z
#
# Youngs Moduli (GPa) = 40.12285 14.29553 68.06260
#
# Poissons Ratio (x) = 0.20656 0.54071
# Poissons Ratio (y) = 0.57975 1.00442
# Poissons Ratio (z) = 0.31875 0.21096
#
# Static dielectric constant tensor:
#      x y z
#    x 1.535430 0.000000 -0.024120 
#    y 0.000000 1.552840 0.000000 
#    z -0.024120 0.000000 1.549620 
# 
# From -- ./inp_files/230868.got.cif
#   From: 2010.05.17/outbox.cif.g08.bks.cpg/sg12_116_cif.got.tgz:230868.got - 2010.06.03 13:09:07.
