data_PCOD9181119
_publ_section_title
;
Structure prediction by ZEFSAII (Michael W. Deem and Ramdas Pophale) SiO2 
 PCOD9181119
Probable space group: C 2/M
;
_chemical_formula_sum "Si O2"
_cell_formula_units_Z 64
_cell_length_a 18.388179
_cell_length_b 24.802532
_cell_length_c 8.347310
_cell_angle_alpha 90.000000
_cell_angle_beta 79.832789
_cell_angle_gamma 90.000000
_cell_volume 3747.204128
_symmetry_space_group_name_H-M "C 2/M"
_symmetry_group_IT_number 12
_symmetry_cell_setting 'monoclinic'
loop_
_space_group_symop_operation_xyz
x,y,z
-x,y,-z
-x,-y,-z
x,-y,z
1/2+x,1/2+y,z
1/2-x,1/2+y,-z
1/2-x,1/2-y,-z
1/2+x,1/2-y,z
loop_
_atom_site_type_symbol
_atom_site_label
_atom_site_fract_x
_atom_site_fract_y
_atom_site_fract_z
Si Si1 0.217608 0.778037 0.859400
Si Si2 0.842998 0.618727 0.165395
Si Si3 0.541487 0.936470 0.651304
Si Si4 0.583305 0.744876 0.502020
Si Si5 0.886081 0.562163 0.831399
Si Si6 0.269456 0.318132 0.621255
Si Si7 0.825649 0.343766 0.654212
Si Si8 0.076425 0.269321 0.879041
O O1 0.235523 0.737922 0.703030
O O2 0.265574 0.830124 0.813544
O O3 0.130378 0.779261 0.910765
O O4 0.250000 0.750000 0.000000
O O5 0.889352 0.595892 0.301320
O O6 0.759197 0.636935 0.241266
O O7 0.884473 0.673917 0.097238
O O8 0.850908 0.578519 0.014242
O O9 0.500000 0.920549 0.500000
O O10 0.474719 0.930575 0.804646
O O11 0.560406 0.000000 0.628375
O O12 0.500000 0.726665 0.500000
O O13 0.646036 0.698632 0.449614
O O14 0.611852 0.796792 0.387302
O O15 0.575746 0.765105 0.687640
O O16 0.871910 0.500000 0.799255
O O17 0.858430 0.600028 0.697594
O O18 0.224001 0.337333 0.484459
O O19 0.000000 0.266510 0.000000
#
# Coordination Sequence:
#
# PCOD9181119 Si02
#       8
#     8   8   8   8   8   8   8   8
#     4  10  19  32  52  76 107 140 180 221 266 325
#     4  11  21  34  55  73 110 148 186 224 271 327
#     4  10  21  35  51  75 107 144 186 232 271 308
#     4  11  23  35  55  82 113 143 183 229 263 329
#     4  11  24  37  52  80 111 146 192 239 274 312
#     4  10  20  38  54  78 107 144 188 224 269 327
#     4  11  19  37  57  70 106 153 185 223 266 319
#     4  11  22  33  48  82 110 141 181 220 263 331
#
# _framework density 17.0794
#
# number of rings (size 3 to 8) (size 9 to 14) (size 15 to 20)
#    0.000    1.375    3.750    4.500    7.000    1.000 
#    0.000    0.625    0.000    0.000    0.000    0.000 
#    0.000    8.000    0.000    0.000    0.000    0.000 
#
# Total GULP energy -178290.371542 kJ/mol
# GULP energy per Si atom -5571.574111 kJ/mol
# Density = 1.704053 g / cm^3
# Si number density = 17.079400 Si / 1000 Ang^3
#
#
#
# Elastic Constant Matrix: (Units=GPa)
#
#
# Indices 1 2 3 4 5 6 
#
# 1 113.8070 49.7302 33.1808 0.0000 -17.9560 0.0000
# 2 49.7302 78.7482 28.2210 0.0000 -7.5748 0.0000
# 3 33.1808 28.2210 68.4220 0.0000 -7.5998 0.0000
# 4 0.0000 0.0000 0.0000 25.6970 0.0000 1.9073
# 5 -17.9560 -7.5748 -7.5998 0.0000 30.2497 0.0000
# 6 0.0000 0.0000 0.0000 1.9073 0.0000 20.1318
#
#
#
# Elastic Compliance Matrix: (Units=1/GPa)
#
#
# Indices 1 2 3 4 5 6 
#
# 1 0.013605 -0.006940 -0.003118 0.000000 0.005555 0.000000
# 2 -0.006940 0.018592 -0.004365 0.000000 -0.000561 0.000000
# 3 -0.003118 -0.004365 0.018106 0.000000 0.001605 0.000000
# 4 0.000000 0.000000 0.000000 0.039191 0.000000 -0.003713
# 5 0.005555 -0.000561 0.001605 0.000000 0.036618 0.000000
# 6 0.000000 0.000000 0.000000 -0.003713 0.000000 0.050024
#
#
# Mechanical properties :
#
#
# Convention : Reuss Voigt Hill
#
# Bulk Modulus (GPa) = 46.60654 53.69347 50.15000
# Shear Modulus (GPa) = 23.57003 25.20538 24.38770
#
# Velocity S-wave (km/s) = 3.71890 3.84575 3.78286
# Velocity P-wave (km/s) = 6.76666 7.15720 6.96467
#
# Compressibility (1/GPa) = 0.02145622
#
# Stress axis : x y z
#
# Youngs Moduli (GPa) = 73.50353 53.78766 55.23027
#
# Poissons Ratio (x) = 0.37327 0.17222
# Poissons Ratio (y) = 0.51010 0.24108
# Poissons Ratio (z) = 0.22920 0.23479
#
# Static dielectric constant tensor:
#      x y z
#    x 1.615370 0.000000 0.011740 
#    y 0.000000 1.539680 0.000000 
#    z 0.011740 0.000000 1.685260 
# 
# From -- ./inp_files/78747.got.cif
#   From: 2010.05.17/outbox.cif.g08.bks.cpg/sg12_40_cif.got.tgz:78747.got - 2010.06.03 13:09:07.
