data_PCOD9181580
_publ_section_title
;
Structure prediction by ZEFSAII (Michael W. Deem and Ramdas Pophale) SiO2 
 PCOD9181580
Probable space group: C 2/M
;
_chemical_formula_sum "Si O2"
_cell_formula_units_Z 48
_cell_length_a 14.953972
_cell_length_b 15.235842
_cell_length_c 10.300331
_cell_angle_alpha 90.000000
_cell_angle_beta 87.944545
_cell_angle_gamma 90.000000
_cell_volume 2345.279897
_symmetry_space_group_name_H-M "C 2/M"
_symmetry_group_IT_number 12
_symmetry_cell_setting 'monoclinic'
loop_
_space_group_symop_operation_xyz
x,y,z
-x,y,-z
-x,-y,-z
x,-y,z
1/2+x,1/2+y,z
1/2-x,1/2+y,-z
1/2-x,1/2-y,-z
1/2+x,1/2-y,z
loop_
_atom_site_type_symbol
_atom_site_label
_atom_site_fract_x
_atom_site_fract_y
_atom_site_fract_z
Si Si1 0.428356 0.602253 0.778183
Si Si2 0.879994 0.099372 0.294713
Si Si3 0.597082 0.730434 0.468323
Si Si4 0.792826 0.315362 0.728400
Si Si5 0.593638 0.101664 0.058772
Si Si6 0.745492 0.330769 0.099497
O O1 0.415447 0.500000 0.746130
O O2 0.534103 0.614280 0.802339
O O3 0.413529 0.663271 0.652846
O O4 0.352554 0.626286 0.886855
O O5 0.880749 0.170172 0.410018
O O6 0.782290 0.112203 0.240143
O O7 0.889174 0.000000 0.344587
O O8 0.500000 0.771080 0.500000
O O9 0.667394 0.802745 0.416626
O O10 0.874575 0.338970 0.821357
O O11 0.746243 0.222401 0.766542
O O12 0.584117 0.000000 0.099367
O O13 0.500000 0.130856 0.000000
O O14 0.672771 0.109087 0.947451
O O15 0.750000 0.250000 0.000000
#
# Coordination Sequence:
#
# PCOD9181580 Si02
#       6
#     8   8   8   8   8   8
#     4   9  17  31  51  75 102 132 169 212 259 310
#     4  10  19  32  53  80 111 141 169 209 260 314
#     4   9  18  32  52  77 105 139 174 211 255 308
#     4  10  20  34  53  78 106 138 174 214 261 308
#     4  10  21  37  55  73  99 138 180 219 258 303
#     4   9  19  33  51  75 100 131 171 217 260 305
#
# _framework density 20.466640000000002
#
# number of rings (size 3 to 8) (size 9 to 14) (size 15 to 20)
#    0.000    2.500    0.000    2.000    0.000    7.333 
#    0.000    2.500    0.000   15.000    0.000    0.000 
#    0.000    2.000    0.000    0.000    0.000    0.000 
#
# Total GULP energy -133616.315864 kJ/mol
# GULP energy per Si atom -5567.346494 kJ/mol
# Density = 2.042006 g / cm^3
# Si number density = 20.466640 Si / 1000 Ang^3
#
#
#
# Elastic Constant Matrix: (Units=GPa)
#
#
# Indices 1 2 3 4 5 6 
#
# 1 145.4701 30.5191 44.9089 0.0000 -28.0600 0.0000
# 2 30.5191 52.6961 5.7602 0.0000 -10.4206 0.0000
# 3 44.9089 5.7602 50.3446 0.0000 -22.7403 0.0000
# 4 0.0000 0.0000 0.0000 19.9614 0.0000 -7.4078
# 5 -28.0600 -10.4206 -22.7403 0.0000 39.4926 0.0000
# 6 0.0000 0.0000 0.0000 -7.4078 0.0000 28.6584
#
#
#
# Elastic Compliance Matrix: (Units=1/GPa)
#
#
# Indices 1 2 3 4 5 6 
#
# 1 0.010814 -0.005045 -0.008379 0.000000 0.001527 0.000000
# 2 -0.005045 0.022376 0.004038 0.000000 0.004645 0.000000
# 3 -0.008379 0.004038 0.033339 0.000000 0.014309 0.000000
# 4 0.000000 0.000000 0.000000 0.055412 0.000000 0.014323
# 5 0.001527 0.004645 0.014309 0.000000 0.035871 0.000000
# 6 0.000000 0.000000 0.000000 0.014323 0.000000 0.038596
#
#
# Mechanical properties :
#
#
# Convention : Reuss Voigt Hill
#
# Bulk Modulus (GPa) = 20.93963 45.65414 33.29689
# Shear Modulus (GPa) = 21.63570 28.77731 25.20650
#
# Velocity S-wave (km/s) = 3.25487 3.75381 3.51321
# Velocity P-wave (km/s) = 4.93749 6.41430 5.72372
#
# Compressibility (1/GPa) = 0.04775634
#
# Stress axis : x y z
#
# Youngs Moduli (GPa) = 92.47107 44.69138 29.99500
#
# Poissons Ratio (x) = 0.22547 0.25134
# Poissons Ratio (y) = 0.46652 -0.12113
# Poissons Ratio (z) = 0.77485 -0.18048
#
# Static dielectric constant tensor:
#      x y z
#    x 1.825020 0.000000 -0.004030 
#    y 0.000000 1.732740 0.000000 
#    z -0.004030 0.000000 1.784830 
# 
# From -- ./inp_files/131076.got.cif
#   From: 2010.05.17/outbox.cif.g08.bks.cpg/sg12_66_cif.got.tgz:131076.got - 2010.06.03 13:09:07.
