data_PCOD9181632
_publ_section_title
;
Structure prediction by ZEFSAII (Michael W. Deem and Ramdas Pophale) SiO2 
 PCOD9181632
Probable space group: C 2/M
;
_chemical_formula_sum "Si O2"
_cell_formula_units_Z 56
_cell_length_a 19.816057
_cell_length_b 9.124946
_cell_length_c 15.193885
_cell_angle_alpha 90.000000
_cell_angle_beta 115.766976
_cell_angle_gamma 90.000000
_cell_volume 2474.193179
_symmetry_space_group_name_H-M "C 2/M"
_symmetry_group_IT_number 12
_symmetry_cell_setting 'monoclinic'
loop_
_space_group_symop_operation_xyz
x,y,z
-x,y,-z
-x,-y,-z
x,-y,z
1/2+x,1/2+y,z
1/2-x,1/2+y,-z
1/2-x,1/2-y,-z
1/2+x,1/2-y,z
loop_
_atom_site_type_symbol
_atom_site_label
_atom_site_fract_x
_atom_site_fract_y
_atom_site_fract_z
Si Si1 0.626373 0.668448 0.281192
Si Si2 0.215510 0.171516 0.853007
Si Si3 0.713206 0.168735 0.561362
Si Si4 0.124420 0.823753 0.084624
Si Si5 0.094450 0.328449 0.898958
Si Si6 0.515611 0.169971 0.331310
Si Si7 0.602547 0.669338 0.621677
O O1 0.603148 0.500000 0.284387
O O2 0.716492 0.671511 0.330912
O O3 0.599198 0.714423 0.169251
O O4 0.593453 0.765450 0.340788
O O5 0.293947 0.250292 0.880579
O O6 0.169626 0.256341 0.901970
O O7 0.162718 0.176325 0.736272
O O8 0.225766 0.000000 0.881278
O O9 0.750000 0.250000 0.500000
O O10 0.641917 0.244628 0.564779
O O11 0.697306 0.000000 0.531501
O O12 0.128692 0.000000 0.081440
O O13 0.076357 0.758991 0.977472
O O14 0.104265 0.500000 0.923993
O O15 0.035478 0.316188 0.785966
O O16 0.472786 0.258942 0.382609
O O17 0.520257 0.000000 0.358001
O O18 0.591031 0.500000 0.592130
#
# Coordination Sequence:
#
# PCOD9181632 Si02
#       7
#     8   8   8   8   8   8   8
#     4  10  23  41  61  86 120 158 195 243 299 354
#     4  10  19  32  53  81 113 152 198 246 293 346
#     4  11  23  42  67  96 125 152 190 240 296 356
#     4  11  21  34  53  79 114 156 200 247 296 345
#     4  10  21  35  51  78 115 157 201 247 293 341
#     4  10  22  39  61  86 120 162 203 246 292 348
#     4  10  20  37  63  91 120 157 198 241 295 354
#
# _framework density 22.633641999999998
#
# number of rings (size 3 to 8) (size 9 to 14) (size 15 to 20)
#    0.000    1.714    1.429    3.000    0.000    5.714 
#    0.000    3.571    0.000    4.286    0.000    0.000 
#    0.000    0.000    0.000    0.000    0.000    0.000 
#
# Total GULP energy -156704.303684 kJ/mol
# GULP energy per Si atom -5596.582274 kJ/mol
# Density = 2.258213 g / cm^3
# Si number density = 22.633642 Si / 1000 Ang^3
#
#
#
# Elastic Constant Matrix: (Units=GPa)
#
#
# Indices 1 2 3 4 5 6 
#
# 1 121.4018 65.1867 27.2507 0.0000 -22.5626 0.0000
# 2 65.1867 155.5185 53.2861 0.0000 -42.3016 0.0000
# 3 27.2507 53.2861 93.5141 0.0000 -20.6543 0.0000
# 4 0.0000 0.0000 0.0000 32.0243 0.0000 -8.6128
# 5 -22.5626 -42.3016 -20.6543 0.0000 46.0065 0.0000
# 6 0.0000 0.0000 0.0000 -8.6128 0.0000 27.0651
#
#
#
# Elastic Compliance Matrix: (Units=1/GPa)
#
#
# Indices 1 2 3 4 5 6 
#
# 1 0.010732 -0.003917 -0.000587 0.000000 0.001398 0.000000
# 2 -0.003917 0.011170 -0.003751 0.000000 0.006666 0.000000
# 3 -0.000587 -0.003751 0.013517 0.000000 0.002331 0.000000
# 4 0.000000 0.000000 0.000000 0.034149 0.000000 0.010867
# 5 0.001398 0.006666 0.002331 0.000000 0.029597 0.000000
# 6 0.000000 0.000000 0.000000 0.010867 0.000000 0.040406
#
#
# Mechanical properties :
#
#
# Convention : Reuss Voigt Hill
#
# Bulk Modulus (GPa) = 52.88377 73.54238 63.21307
# Shear Modulus (GPa) = 30.79102 35.99989 33.39545
#
# Velocity S-wave (km/s) = 3.69237 3.99249 3.84536
# Velocity P-wave (km/s) = 6.44934 7.33597 6.90689
#
# Compressibility (1/GPa) = 0.01890939
#
# Stress axis : x y z
#
# Youngs Moduli (GPa) = 93.18011 89.52206 73.98057
#
# Poissons Ratio (x) = 0.35066 0.04339
# Poissons Ratio (y) = 0.36499 0.27753
# Poissons Ratio (z) = 0.05465 0.33583
#
# Static dielectric constant tensor:
#      x y z
#    x 1.833860 0.000000 0.076740 
#    y 0.000000 1.757020 0.000000 
#    z 0.076740 0.000000 1.882330 
# 
# From -- ./inp_files/231054.got.cif
#   From: 2010.05.17/outbox.cif.g08.bks.cpg/sg12_116_cif.got.tgz:231054.got - 2010.06.03 13:09:07.
