data_PCOD9181893
_publ_section_title
;
Structure prediction by ZEFSAII (Michael W. Deem and Ramdas Pophale) SiO2 
 PCOD9181893
Probable space group: C 2/M
;
_chemical_formula_sum "Si O2"
_cell_formula_units_Z 58
_cell_length_a 17.963526
_cell_length_b 27.473145
_cell_length_c 12.392871
_cell_angle_alpha 90.000000
_cell_angle_beta 149.520951
_cell_angle_gamma 90.000000
_cell_volume 3102.209027
_symmetry_space_group_name_H-M "C 2/M"
_symmetry_group_IT_number 12
_symmetry_cell_setting 'monoclinic'
loop_
_space_group_symop_operation_xyz
x,y,z
-x,y,-z
-x,-y,-z
x,-y,z
1/2+x,1/2+y,z
1/2-x,1/2+y,-z
1/2-x,1/2-y,-z
1/2+x,1/2-y,z
loop_
_atom_site_type_symbol
_atom_site_label
_atom_site_fract_x
_atom_site_fract_y
_atom_site_fract_z
Si Si1 0.837334 0.277941 0.426516
Si Si2 0.703494 0.335971 0.630209
Si Si3 0.840780 0.368863 0.584845
Si Si4 0.969480 0.915974 0.303308
Si Si5 0.686361 0.209168 0.842600
Si Si6 0.913809 0.942224 0.781994
Si Si7 0.500000 0.500000 0.500000
Si Si8 0.185868 0.373791 0.003557
O O1 0.807961 0.221155 0.411192
O O2 0.803097 0.318665 0.473314
O O3 0.763496 0.288850 0.218321
O O4 0.011748 0.283238 0.628108
O O5 0.804073 0.360159 0.664300
O O6 0.547790 0.364367 0.428127
O O7 0.769624 0.345233 0.831495
O O8 0.734965 0.411038 0.409616
O O9 0.012007 0.382023 0.786781
O O10 0.800179 0.917406 0.130525
O O11 0.992439 0.926911 0.206213
O O12 0.045572 0.957392 0.468913
O O13 0.750000 0.250000 0.000000
O O14 0.719908 0.158668 0.941344
O O15 0.885488 0.000000 0.741963
O O16 0.000000 0.931667 0.000000
#
# Coordination Sequence:
#
# PCOD9181893 Si02
#       8
#     8   8   8   8   8   8   2   8
#     4  10  21  35  55  84 121 159 209 247 290 366
#     4  11  20  38  60  85 124 168 200 245 306 362
#     4  10  24  40  57  91 123 159 200 254 307 365
#     4  11  23  38  67  91 121 157 209 254 300 365
#     4  10  19  32  54  82 116 158 203 247 297 342
#     4  10  23  46  67  86 118 161 204 252 309 368
#     4  12  20  40  62 102 118 148 212 268 292 356
#     4  11  21  37  59  89 123 157 195 253 309 359
#
# _framework density 18.696356000000002
#
# number of rings (size 3 to 8) (size 9 to 14) (size 15 to 20)
#    0.000    1.517    3.448    1.655    3.862    0.000 
#    1.241    1.379    0.000    4.966    0.000    0.000 
#    0.000    0.000    0.000    0.000    0.000    0.000 
#
# Total GULP energy -161485.253253 kJ/mol
# GULP energy per Si atom -5568.457009 kJ/mol
# Density = 1.865380 g / cm^3
# Si number density = 18.696356 Si / 1000 Ang^3
#
#
#
# Elastic Constant Matrix: (Units=GPa)
#
#
# Indices 1 2 3 4 5 6 
#
# 1 92.5071 31.5114 47.4885 0.0000 -11.7622 0.0000
# 2 31.5114 85.8398 49.9158 0.0000 2.0826 0.0000
# 3 47.4885 49.9158 95.6624 0.0000 -10.2109 0.0000
# 4 0.0000 0.0000 0.0000 6.1572 0.0000 -0.2155
# 5 -11.7622 2.0826 -10.2109 0.0000 34.1535 0.0000
# 6 0.0000 0.0000 0.0000 -0.2155 0.0000 25.4769
#
#
#
# Elastic Compliance Matrix: (Units=1/GPa)
#
#
# Indices 1 2 3 4 5 6 
#
# 1 0.015057 -0.002132 -0.005986 0.000000 0.003526 0.000000
# 2 -0.002132 0.017504 -0.008540 0.000000 -0.004355 0.000000
# 3 -0.005986 -0.008540 0.018300 0.000000 0.003931 0.000000
# 4 0.000000 0.000000 0.000000 0.162459 0.000000 0.001374
# 5 0.003526 -0.004355 0.003931 0.000000 0.031935 0.000000
# 6 0.000000 0.000000 0.000000 0.001374 0.000000 0.039263
#
#
# Mechanical properties :
#
#
# Convention : Reuss Voigt Hill
#
# Bulk Modulus (GPa) = 56.99271 59.09339 58.04305
# Shear Modulus (GPa) = 15.44726 22.83044 19.13885
#
# Velocity S-wave (km/s) = 2.87752 3.49824 3.20295
# Velocity P-wave (km/s) = 6.44900 6.92766 6.69261
#
# Compressibility (1/GPa) = 0.01754610
#
# Stress axis : x y z
#
# Youngs Moduli (GPa) = 66.41218 57.13033 54.64388
#
# Poissons Ratio (x) = 0.12182 0.32709
# Poissons Ratio (y) = 0.14161 0.46664
# Poissons Ratio (z) = 0.39753 0.48787
#
# Static dielectric constant tensor:
#      x y z
#    x 1.650450 0.000000 -0.013580 
#    y 0.000000 1.646510 0.000000 
#    z -0.013580 0.000000 1.672010 
# 
# From -- ./inp_files/160921.got.cif
#   From: 2010.05.17/outbox.cif.g08.bks.cpg/sg12_81_cif.got.tgz:160921.got - 2010.06.03 13:09:07.
