data_PCOD9181306
_publ_section_title
;
Structure prediction by ZEFSAII (Michael W. Deem and Ramdas Pophale) SiO2 
 PCOD9181306
Probable space group: C 2/M
;
_chemical_formula_sum "Si O2"
_cell_formula_units_Z 56
_cell_length_a 27.804237
_cell_length_b 7.759326
_cell_length_c 20.517654
_cell_angle_alpha 90.000000
_cell_angle_beta 35.320230
_cell_angle_gamma 90.000000
_cell_volume 2559.175208
_symmetry_space_group_name_H-M "C 2/M"
_symmetry_group_IT_number 12
_symmetry_cell_setting 'monoclinic'
loop_
_space_group_symop_operation_xyz
x,y,z
-x,y,-z
-x,-y,-z
x,-y,z
1/2+x,1/2+y,z
1/2-x,1/2+y,-z
1/2-x,1/2-y,-z
1/2+x,1/2-y,z
loop_
_atom_site_type_symbol
_atom_site_label
_atom_site_fract_x
_atom_site_fract_y
_atom_site_fract_z
Si Si1 0.510221 0.208457 0.804329
Si Si2 0.697210 0.792336 0.622070
Si Si3 0.242832 0.703464 0.712650
Si Si4 0.286010 0.706928 0.889350
Si Si5 0.426476 0.198765 0.536205
Si Si6 0.027673 0.205224 0.303302
Si Si7 0.647654 0.788346 0.939829
O O1 0.602544 0.270182 0.719155
O O2 0.486892 0.259903 0.756616
O O3 0.510553 0.000000 0.805793
O O4 0.439652 0.267738 0.932977
O O5 0.750000 0.750000 0.500000
O O6 0.736263 0.726075 0.646647
O O7 0.694739 0.000000 0.627754
O O8 0.227179 0.500000 0.725017
O O9 0.334976 0.722694 0.640317
O O10 0.173964 0.771771 0.839070
O O11 0.290002 0.500000 0.879685
O O12 0.380377 0.771134 0.779259
O O13 0.221335 0.768392 0.906916
O O14 0.250000 0.750000 0.000000
O O15 0.500000 0.276044 0.500000
O O16 0.459498 0.213183 0.425839
O O17 0.417313 0.000000 0.565357
O O18 0.023890 0.000000 0.317897
O O19 0.646923 0.000000 0.940521
#
# Coordination Sequence:
#
# PCOD9181306 Si02
#       7
#     8   8   8   8   8   8   8
#     4  10  20  36  58  84 115 150 190 235 285 339
#     4  10  22  38  59  85 111 147 192 240 289 338
#     4  10  21  39  61  85 115 150 190 237 288 341
#     4  10  19  32  52  80 113 149 185 224 275 333
#     4  11  24  40  58  83 114 150 191 234 285 343
#     4  11  22  35  56  86 116 150 193 238 284 336
#     4   9  18  34  57  83 114 149 186 230 283 340
#
# _framework density 21.88205
#
# number of rings (size 3 to 8) (size 9 to 14) (size 15 to 20)
#    0.000    1.857    1.429    2.571    0.000    6.857 
#    0.000    4.286    0.000    0.000    0.000    3.000 
#    0.000    0.000    0.000    0.000    0.000    0.000 
#
# Total GULP energy -156489.791998 kJ/mol
# GULP energy per Si atom -5588.921143 kJ/mol
# Density = 2.183225 g / cm^3
# Si number density = 21.882050 Si / 1000 Ang^3
#
#
#
# Elastic Constant Matrix: (Units=GPa)
#
#
# Indices 1 2 3 4 5 6 
#
# 1 127.8329 6.9524 72.2595 0.0058 2.7147 -0.0045
# 2 6.9524 32.0137 -0.7365 0.0070 -1.7114 -0.0105
# 3 72.2595 -0.7365 163.0319 0.0033 6.9729 -0.0060
# 4 0.0058 0.0070 0.0033 3.2784 -0.0062 1.3468
# 5 2.7147 -1.7114 6.9729 -0.0062 40.1412 0.0054
# 6 -0.0045 -0.0105 -0.0060 1.3468 0.0054 18.0756
#
#
#
# Elastic Compliance Matrix: (Units=1/GPa)
#
#
# Indices 1 2 3 4 5 6 
#
# 1 0.010621 -0.002415 -0.004718 -0.000009 -0.000002 0.000000
# 2 -0.002415 0.031858 0.001158 -0.000072 0.001320 0.000023
# 3 -0.004718 0.001158 0.008276 -0.000006 -0.001069 0.000003
# 4 -0.000009 -0.000072 -0.000006 0.314655 0.000050 -0.023444
# 5 -0.000002 0.001320 -0.001069 0.000050 0.025154 -0.000011
# 6 0.000000 0.000023 0.000003 -0.023444 -0.000011 0.057070
#
#
# Mechanical properties :
#
#
# Convention : Reuss Voigt Hill
#
# Bulk Modulus (GPa) = 25.77037 53.31437 39.54237
# Shear Modulus (GPa) = 10.58154 28.59260 19.58707
#
# Velocity S-wave (km/s) = 2.20141 3.61871 2.99510
# Velocity P-wave (km/s) = 4.27366 6.47128 5.48368
#
# Compressibility (1/GPa) = 0.03880426
#
# Stress axis : x y z
#
# Youngs Moduli (GPa) = 94.15063 31.38886 120.83063
#
# Poissons Ratio (x) = 0.07581 0.57013
# Poissons Ratio (y) = 0.22740 -0.13992
# Poissons Ratio (z) = 0.44424 -0.03635
#
# Static dielectric constant tensor:
#      x y z
#    x 1.795410 0.000000 0.001510 
#    y 0.000000 1.815940 0.000000 
#    z 0.001510 0.000000 1.780210 
# 
# From -- ./inp_files/329534.got.cif
#   From: 2010.05.17/outbox.cif.g08.bks.cpg/sg12_165_cif.got.tgz:329534.got - 2010.06.03 13:09:07.
