data_PCOD9181124
_publ_section_title
;
Structure prediction by ZEFSAII (Michael W. Deem and Ramdas Pophale) SiO2 
 PCOD9181124
Probable space group: C 2/M
;
_chemical_formula_sum "Si O2"
_cell_formula_units_Z 64
_cell_length_a 14.791610
_cell_length_b 28.284861
_cell_length_c 9.247138
_cell_angle_alpha 90.000000
_cell_angle_beta 63.233729
_cell_angle_gamma 90.000000
_cell_volume 3454.266710
_symmetry_space_group_name_H-M "C 2/M"
_symmetry_group_IT_number 12
_symmetry_cell_setting 'monoclinic'
loop_
_space_group_symop_operation_xyz
x,y,z
-x,y,-z
-x,-y,-z
x,-y,z
1/2+x,1/2+y,z
1/2-x,1/2+y,-z
1/2-x,1/2-y,-z
1/2+x,1/2-y,z
loop_
_atom_site_type_symbol
_atom_site_label
_atom_site_fract_x
_atom_site_fract_y
_atom_site_fract_z
Si Si1 0.048626 0.196468 0.634448
Si Si2 0.686763 0.613720 0.555458
Si Si3 0.497167 0.792308 0.829487
Si Si4 0.296173 0.753274 0.625065
Si Si5 0.368094 0.377163 0.743893
Si Si6 0.394200 0.151154 0.495195
Si Si7 0.993938 0.056494 0.174253
Si Si8 0.717432 0.798119 0.945425
O O1 0.139641 0.164770 0.635660
O O2 0.101813 0.222234 0.460533
O O3 0.008459 0.238831 0.762904
O O4 0.966302 0.156409 0.668850
O O5 0.671870 0.611828 0.390222
O O6 0.804015 0.614311 0.521859
O O7 0.611611 0.575788 0.681976
O O8 0.569832 0.825093 0.682378
O O9 0.500000 0.791582 0.000000
O O10 0.383687 0.811739 0.899356
O O11 0.250000 0.750000 0.500000
O O12 0.338206 0.805704 0.620549
O O13 0.219586 0.724789 0.782322
O O14 0.412028 0.421282 0.802800
O O15 0.287130 0.344177 0.884365
O O16 0.500000 0.137476 0.500000
O O17 0.996901 0.000000 0.181327
O O18 0.000000 0.070480 0.000000
O O19 0.750000 0.750000 0.000000
#
# Coordination Sequence:
#
# PCOD9181124 Si02
#       8
#     8   8   8   8   8   8   8   8
#     4  10  19  32  52  76 111 156 203 255 298 351
#     4  11  22  39  65  84 116 164 214 252 306 384
#     4  11  23  34  48  74 113 159 214 261 294 340
#     4  11  20  34  51  68 112 164 214 254 299 344
#     4  11  22  38  61  89 122 166 209 250 303 383
#     4  11  24  39  55  77 115 168 215 263 308 356
#     4  10  24  44  68 102 133 150 185 258 337 393
#     4  12  22  33  48  80 118 158 212 256 292 345
#
# _framework density 18.527812000000001
#
# number of rings (size 3 to 8) (size 9 to 14) (size 15 to 20)
#    0.000    1.125    3.750    4.500    1.750    5.000 
#    0.000    0.000    0.000    0.375    0.000    0.875 
#    0.000    5.000    0.000    0.000    0.000    0.000 
#
# Total GULP energy -178197.723068 kJ/mol
# GULP energy per Si atom -5568.678846 kJ/mol
# Density = 1.848564 g / cm^3
# Si number density = 18.527812 Si / 1000 Ang^3
#
#
#
# Elastic Constant Matrix: (Units=GPa)
#
#
# Indices 1 2 3 4 5 6 
#
# 1 120.1278 31.8519 45.7285 0.0000 5.4488 0.0000
# 2 31.8519 69.6207 34.3219 0.0000 3.7041 0.0000
# 3 45.7285 34.3219 106.3042 0.0000 7.2114 0.0000
# 4 0.0000 0.0000 0.0000 22.6247 0.0000 -3.0734
# 5 5.4488 3.7041 7.2114 0.0000 33.2846 0.0000
# 6 0.0000 0.0000 0.0000 -3.0734 0.0000 21.7751
#
#
#
# Elastic Compliance Matrix: (Units=1/GPa)
#
#
# Indices 1 2 3 4 5 6 
#
# 1 0.010487 -0.003047 -0.003485 0.000000 -0.000623 0.000000
# 2 -0.003047 0.017984 -0.004460 0.000000 -0.000536 0.000000
# 3 -0.003485 -0.004460 0.012457 0.000000 -0.001632 0.000000
# 4 0.000000 0.000000 0.000000 0.045063 0.000000 0.006360
# 5 -0.000623 -0.000536 -0.001632 0.000000 0.030559 0.000000
# 6 0.000000 0.000000 0.000000 0.006360 0.000000 0.046822
#
#
# Mechanical properties :
#
#
# Convention : Reuss Voigt Hill
#
# Bulk Modulus (GPa) = 52.78346 57.76190 55.27268
# Shear Modulus (GPa) = 26.08635 27.81359 26.94997
#
# Velocity S-wave (km/s) = 3.75634 3.87871 3.81802
# Velocity P-wave (km/s) = 6.88216 7.16259 7.02377
#
# Compressibility (1/GPa) = 0.01894533
#
# Stress axis : x y z
#
# Youngs Moduli (GPa) = 95.35351 55.60360 80.27732
#
# Poissons Ratio (x) = 0.16940 0.27980
# Poissons Ratio (y) = 0.29051 0.35800
# Poissons Ratio (z) = 0.33234 0.24797
#
# Static dielectric constant tensor:
#      x y z
#    x 1.937780 0.000000 -0.010630 
#    y 0.000000 1.606420 0.000000 
#    z -0.010630 0.000000 1.772310 
# 
# From -- ./inp_files/66910.got.cif
#   From: 2010.05.17/outbox.cif.g08.bks.cpg/sg12_34_cif.got.tgz:66910.got - 2010.06.03 13:09:07.
