data_PCOD9181048
_publ_section_title
;
Structure prediction by ZEFSAII (Michael W. Deem and Ramdas Pophale) SiO2 
 PCOD9181048
Probable space group: C 2/M
;
_chemical_formula_sum "Si O2"
_cell_formula_units_Z 64
_cell_length_a 19.911475
_cell_length_b 7.472266
_cell_length_c 21.496073
_cell_angle_alpha 90.000000
_cell_angle_beta 63.382676
_cell_angle_gamma 90.000000
_cell_volume 2859.311966
_symmetry_space_group_name_H-M "C 2/M"
_symmetry_group_IT_number 12
_symmetry_cell_setting 'monoclinic'
loop_
_space_group_symop_operation_xyz
x,y,z
-x,y,-z
-x,-y,-z
x,-y,z
1/2+x,1/2+y,z
1/2-x,1/2+y,-z
1/2-x,1/2-y,-z
1/2+x,1/2-y,z
loop_
_atom_site_type_symbol
_atom_site_label
_atom_site_fract_x
_atom_site_fract_y
_atom_site_fract_z
Si Si1 0.359328 0.281337 0.186989
Si Si2 0.606003 0.218746 0.345113
Si Si3 0.169390 0.790023 0.063985
Si Si4 0.678746 0.217887 0.446759
Si Si5 0.437474 0.788446 0.403118
Si Si6 0.835912 0.215005 0.337382
Si Si7 0.291356 0.786174 0.811200
Si Si8 0.983939 0.780869 0.935590
O O1 0.360203 0.500000 0.186382
O O2 0.336957 0.223270 0.265820
O O3 0.293993 0.223210 0.166309
O O4 0.443012 0.224726 0.134140
O O5 0.642661 0.265457 0.395494
O O6 0.520642 0.283549 0.378166
O O7 0.654936 0.281046 0.266252
O O8 0.605462 0.000000 0.342895
O O9 0.176464 0.748038 0.134007
O O10 0.095292 0.715024 0.060034
O O11 0.160075 0.000000 0.062505
O O12 0.250000 0.750000 0.000000
O O13 0.625935 0.285229 0.523961
O O14 0.764430 0.281707 0.406606
O O15 0.680780 0.000000 0.450119
O O16 0.409909 0.763119 0.344470
O O17 0.441960 0.000000 0.414329
O O18 0.830373 0.000000 0.337128
O O19 0.288245 0.000000 0.805825
O O20 0.982646 0.000000 0.936003
O O21 0.000000 0.726968 0.000000
#
# Coordination Sequence:
#
# PCOD9181048 Si02
#       8
#     8   8   8   8   8   8   8   8
#     4   9  17  32  55  78 102 139 183 222 256 304
#     4   9  17  31  52  78 104 139 183 223 266 318
#     4  11  23  38  59  86 114 141 173 213 260 311
#     4   9  16  31  52  75 100 137 188 230 263 313
#     4  10  20  31  49  76 108 139 175 227 279 322
#     4  10  19  32  52  75 102 139 184 225 264 317
#     4  10  19  35  59  81 106 140 181 224 264 310
#     4   9  18  33  55  82 106 133 174 214 249 297
#
# _framework density 22.383008
#
# number of rings (size 3 to 8) (size 9 to 14) (size 15 to 20)
#    0.000    2.375    1.250    1.875    1.750    3.500 
#    0.000    0.625    0.000    9.750    0.000    0.000 
#    0.000    0.000    0.000    0.000    0.000    0.000 
#
# Total GULP energy -178755.102988 kJ/mol
# GULP energy per Si atom -5586.096968 kJ/mol
# Density = 2.233206 g / cm^3
# Si number density = 22.383008 Si / 1000 Ang^3
#
#
#
# Elastic Constant Matrix: (Units=GPa)
#
#
# Indices 1 2 3 4 5 6 
#
# 1 153.0727 -6.1130 66.0810 0.0000 -10.7020 -0.0006
# 2 -6.1130 59.4083 3.9333 0.0003 -8.0118 -0.0002
# 3 66.0810 3.9333 112.7417 0.0000 -2.2166 0.0002
# 4 0.0000 0.0003 0.0000 0.0251 0.0001 10.6575
# 5 -10.7020 -8.0118 -2.2166 0.0001 33.7829 0.0000
# 6 -0.0006 -0.0002 0.0002 10.6575 0.0000 12.0944
#
#
#
# Elastic Compliance Matrix: (Units=1/GPa)
#
#
# Indices 1 2 3 4 5 6 
#
# 1 0.009111 0.001687 -0.005342 0.000001 0.002936 0.000000
# 2 0.001687 0.017732 -0.001516 0.000001 0.004640 -0.000001
# 3 -0.005342 -0.001516 0.012029 -0.000001 -0.001263 0.000000
# 4 0.000001 0.000001 -0.000001 -0.106767 0.000001 0.094082
# 5 0.002936 0.004640 -0.001263 0.000001 0.031549 -0.000001
# 6 0.000000 -0.000001 0.000000 0.094082 -0.000001 -0.000221
#
#
# Mechanical properties :
#
#
# Convention : Reuss Voigt Hill
#
# Bulk Modulus (GPa) = 35.04938 50.33615 42.69276
# Shear Modulus (GPa) = -299.13554 26.60189 -136.26682
#
# Velocity S-wave (km/s) = -11.57299 3.45118 -7.81100
# Velocity P-wave (km/s) = 12.76268 6.19825 7.88884
#
# Compressibility (1/GPa) = 0.02853118
#
# Stress axis : x y z
#
# Youngs Moduli (GPa) = 109.75205 56.39380 83.13398
#
# Poissons Ratio (x) = -0.09515 0.44407
# Poissons Ratio (y) = -0.18517 0.12606
# Poissons Ratio (z) = 0.58625 0.08551
#
# Static dielectric constant tensor:
#      x y z
#    x 1.802750 0.000000 -0.018180 
#    y 0.000000 1.831760 0.000000 
#    z -0.018180 0.000000 1.782140 
# 
# From -- ./inp_files/319972.got.cif
#   From: 2010.05.17/outbox.cif.g08.bks.cpg/sg12_160_cif.got.tgz:319972.got - 2010.06.03 13:09:07.
