data_PCOD9181435
_publ_section_title
;
Structure prediction by ZEFSAII (Michael W. Deem and Ramdas Pophale) SiO2 
 PCOD9181435
Probable space group: C 2/M
;
_chemical_formula_sum "Si O2"
_cell_formula_units_Z 64
_cell_length_a 20.438646
_cell_length_b 7.420696
_cell_length_c 16.179680
_cell_angle_alpha 90.000000
_cell_angle_beta 108.666013
_cell_angle_gamma 90.000000
_cell_volume 2324.878200
_symmetry_space_group_name_H-M "C 2/M"
_symmetry_group_IT_number 12
_symmetry_cell_setting 'monoclinic'
loop_
_space_group_symop_operation_xyz
x,y,z
-x,y,-z
-x,-y,-z
x,-y,z
1/2+x,1/2+y,z
1/2-x,1/2+y,-z
1/2-x,1/2-y,-z
1/2+x,1/2-y,z
loop_
_atom_site_type_symbol
_atom_site_label
_atom_site_fract_x
_atom_site_fract_y
_atom_site_fract_z
Si Si1 0.521622 0.710593 0.209247
Si Si2 0.824728 0.212078 0.566780
Si Si3 0.925380 0.778599 0.936733
Si Si4 0.130211 0.282591 0.836942
Si Si5 0.767947 0.712052 0.713466
Si Si6 0.781031 0.795372 0.908096
Si Si7 0.880685 0.207236 0.362096
Si Si8 0.970671 0.778429 0.598458
O O1 0.538241 0.500000 0.222811
O O2 0.570144 0.783694 0.156961
O O3 0.441060 0.725425 0.149264
O O4 0.525101 0.781412 0.303443
O O5 0.750000 0.250000 0.500000
O O6 0.821872 0.268376 0.661438
O O7 0.892577 0.279630 0.545623
O O8 0.832676 0.000000 0.570404
O O9 0.856256 0.710947 0.954004
O O10 0.922739 0.000000 0.937566
O O11 0.000000 0.725026 0.000000
O O12 0.131958 0.500000 0.833694
O O13 0.205397 0.219881 0.900018
O O14 0.122892 0.209655 0.740141
O O15 0.759261 0.500000 0.726566
O O16 0.780711 0.799717 0.807011
O O17 0.694443 0.784974 0.648410
O O18 0.781423 0.000000 0.937657
O O19 0.956819 0.282752 0.411647
O O20 0.880375 0.000000 0.391829
O O21 0.975000 0.000000 0.596098
#
# Coordination Sequence:
#
# PCOD9181435 Si02
#       8
#     8   8   8   8   8   8   8   8
#     4   9  16  29  50  72  93 120 159 203 241 280
#     4  11  22  36  52  71 100 133 165 201 240 284
#     4   9  17  30  49  71  94 127 173 212 236 273
#     4   9  16  26  44  71  99 123 150 192 246 295
#     4  10  19  32  53  78 100 124 158 200 245 292
#     4   9  17  31  51  73  97 126 161 201 243 286
#     4   8  15  30  51  73  95 120 157 200 236 278
#     4   8  15  30  52  72  90 121 162 199 234 277
#
# _framework density 27.528321999999999
#
# number of rings (size 3 to 8) (size 9 to 14) (size 15 to 20)
#    0.000    2.875    0.000    2.625    0.000    3.000 
#    0.000    9.375    0.000    5.250    0.000    0.000 
#    0.000    0.000    0.000    0.000    0.000    0.000 
#
# Total GULP energy -178897.420830 kJ/mol
# GULP energy per Si atom -5590.544401 kJ/mol
# Density = 2.746567 g / cm^3
# Si number density = 27.528322 Si / 1000 Ang^3
#
#
#
# Elastic Constant Matrix: (Units=GPa)
#
#
# Indices 1 2 3 4 5 6 
#
# 1 217.5169 -7.4508 36.7405 0.0000 16.8283 0.0000
# 2 -7.4508 111.7990 6.9736 0.0000 -5.3083 0.0000
# 3 36.7405 6.9736 102.9464 0.0000 20.8174 0.0000
# 4 0.0000 0.0000 0.0000 12.8785 0.0000 4.2330
# 5 16.8283 -5.3083 20.8174 0.0000 64.9269 0.0000
# 6 0.0000 0.0000 0.0000 4.2330 0.0000 10.5498
#
#
#
# Elastic Compliance Matrix: (Units=1/GPa)
#
#
# Indices 1 2 3 4 5 6 
#
# 1 0.004945 0.000398 -0.001646 0.000000 -0.000721 0.000000
# 2 0.000398 0.009075 -0.000947 0.000000 0.000943 0.000000
# 3 -0.001646 -0.000947 0.011008 0.000000 -0.003181 0.000000
# 4 0.000000 0.000000 0.000000 0.089446 0.000000 -0.035890
# 5 -0.000721 0.000943 -0.003181 0.000000 0.016686 0.000000
# 6 0.000000 0.000000 0.000000 -0.035890 0.000000 0.109190
#
#
# Mechanical properties :
#
#
# Convention : Reuss Voigt Hill
#
# Bulk Modulus (GPa) = 48.45482 56.08768 52.27125
# Shear Modulus (GPa) = 19.87132 44.07097 31.97114
#
# Velocity S-wave (km/s) = 2.68964 4.00551 3.41162
# Velocity P-wave (km/s) = 5.22356 6.46613 5.87777
#
# Compressibility (1/GPa) = 0.02063778
#
# Stress axis : x y z
#
# Youngs Moduli (GPa) = 202.23351 110.19296 90.83900
#
# Poissons Ratio (x) = -0.04385 0.14950
# Poissons Ratio (y) = -0.08048 0.08606
# Poissons Ratio (z) = 0.33284 0.10439
#
# Static dielectric constant tensor:
#      x y z
#    x 2.143870 0.000000 0.058360 
#    y 0.000000 2.095330 0.000000 
#    z 0.058360 0.000000 2.246500 
# 
# From -- ./inp_files/320147.got.cif
#   From: 2010.05.17/outbox.cif.g08.bks.cpg/sg12_161_cif.got.tgz:320147.got - 2010.06.03 13:09:07.
