data_PCOD9181925
_publ_section_title
;
Structure prediction by ZEFSAII (Michael W. Deem and Ramdas Pophale) SiO2 
 PCOD9181925
Probable space group: C 2/M
;
_chemical_formula_sum "Si O2"
_cell_formula_units_Z 44
_cell_length_a 18.407119
_cell_length_b 13.323402
_cell_length_c 11.896660
_cell_angle_alpha 90.000000
_cell_angle_beta 131.160020
_cell_angle_gamma 90.000000
_cell_volume 2196.587468
_symmetry_space_group_name_H-M "C 2/M"
_symmetry_group_IT_number 12
_symmetry_cell_setting 'monoclinic'
loop_
_space_group_symop_operation_xyz
x,y,z
-x,y,-z
-x,-y,-z
x,-y,z
1/2+x,1/2+y,z
1/2-x,1/2+y,-z
1/2-x,1/2-y,-z
1/2+x,1/2-y,z
loop_
_atom_site_type_symbol
_atom_site_label
_atom_site_fract_x
_atom_site_fract_y
_atom_site_fract_z
Si Si1 0.736180 0.610866 0.906877
Si Si2 0.269013 0.619150 0.619193
Si Si3 0.458758 0.112145 0.082519
Si Si4 0.000000 0.702092 0.500000
Si Si5 0.696679 0.824261 0.783450
Si Si6 0.588455 0.246982 0.363284
O O1 0.695591 0.500000 0.843423
O O2 0.682991 0.707291 0.803003
O O3 0.754648 0.625313 0.058988
O O4 0.843560 0.617039 0.964304
O O5 0.265519 0.500000 0.617706
O O6 0.261249 0.660717 0.738697
O O7 0.362519 0.660180 0.649513
O O8 0.174855 0.665318 0.462142
O O9 0.503539 0.197435 0.205351
O O10 0.484952 0.000000 0.151313
O O11 0.500000 0.122610 0.000000
O O12 0.911176 0.638690 0.357068
O O13 0.950932 0.763499 0.551329
#
# Coordination Sequence:
#
# PCOD9181925 Si02
#       6
#     8   8   8   4   8   8
#     4  10  20  35  57  85 117 157 197 241 296 348
#     4  10  21  37  58  83 115 155 194 238 297 354
#     4  10  19  32  54  84 113 146 192 243 295 341
#     4  10  20  38  60  86 114 158 190 240 296 334
#     4  10  20  37  59  85 120 154 194 248 289 352
#     4  10  20  37  57  84 117 148 195 243 293 344
#
# _framework density 20.03107
#
# number of rings (size 3 to 8) (size 9 to 14) (size 15 to 20)
#    0.000    2.000    1.818    2.182    0.000    0.000 
#    0.000   14.545    0.000    1.636    0.000    0.000 
#    0.000    0.000    0.000    0.000    0.000    0.000 
#
# Total GULP energy -122781.781115 kJ/mol
# GULP energy per Si atom -5580.990051 kJ/mol
# Density = 1.998548 g / cm^3
# Si number density = 20.031070 Si / 1000 Ang^3
#
#
#
# Elastic Constant Matrix: (Units=GPa)
#
#
# Indices 1 2 3 4 5 6 
#
# 1 95.2688 5.4986 9.9094 0.0000 -18.8202 0.0000
# 2 5.4986 108.7004 20.5873 0.0000 -4.1244 0.0000
# 3 9.9094 20.5873 46.4540 0.0000 -3.7680 0.0000
# 4 0.0000 0.0000 0.0000 7.8894 0.0000 4.1436
# 5 -18.8202 -4.1244 -3.7680 0.0000 25.5594 0.0000
# 6 0.0000 0.0000 0.0000 4.1436 0.0000 14.2096
#
#
#
# Elastic Compliance Matrix: (Units=1/GPa)
#
#
# Indices 1 2 3 4 5 6 
#
# 1 0.012454 0.000081 -0.001971 0.000000 0.008893 0.000000
# 2 0.000081 0.010067 -0.004395 0.000000 0.001036 0.000000
# 3 -0.001971 -0.004395 0.024007 0.000000 0.001379 0.000000
# 4 0.000000 0.000000 0.000000 0.149676 0.000000 -0.043647
# 5 0.008893 0.001036 0.001379 0.000000 0.046043 0.000000
# 6 0.000000 0.000000 0.000000 -0.043647 0.000000 0.083103
#
#
# Mechanical properties :
#
#
# Convention : Reuss Voigt Hill
#
# Bulk Modulus (GPa) = 29.44869 35.82378 32.63624
# Shear Modulus (GPa) = 14.31688 23.82687 19.07188
#
# Velocity S-wave (km/s) = 2.67635 3.45265 3.08898
# Velocity P-wave (km/s) = 4.92787 5.81526 5.38986
#
# Compressibility (1/GPa) = 0.03395736
#
# Stress axis : x y z
#
# Youngs Moduli (GPa) = 80.29756 99.33291 41.65525
#
# Poissons Ratio (x) = -0.00802 0.08211
# Poissons Ratio (y) = -0.00648 0.18306
# Poissons Ratio (z) = 0.15827 0.43654
#
# Static dielectric constant tensor:
#      x y z
#    x 1.717610 0.000000 0.000830 
#    y 0.000000 1.698770 0.000000 
#    z 0.000830 0.000000 1.721600 
# 
# From -- ./inp_files/164644.got.cif
#   From: 2010.05.17/outbox.cif.g08.bks.cpg/sg12_83_cif.got.tgz:164644.got - 2010.06.03 13:09:07.
