data_PCOD9181871
_publ_section_title
;
Structure prediction by ZEFSAII (Michael W. Deem and Ramdas Pophale) SiO2 
 PCOD9181871
Probable space group: C 2/M
;
_chemical_formula_sum "Si O2"
_cell_formula_units_Z 56
_cell_length_a 25.345050
_cell_length_b 8.795825
_cell_length_c 15.490501
_cell_angle_alpha 90.000000
_cell_angle_beta 74.014054
_cell_angle_gamma 90.000000
_cell_volume 3319.765182
_symmetry_space_group_name_H-M "C 2/M"
_symmetry_group_IT_number 12
_symmetry_cell_setting 'monoclinic'
loop_
_space_group_symop_operation_xyz
x,y,z
-x,y,-z
-x,-y,-z
x,-y,z
1/2+x,1/2+y,z
1/2-x,1/2+y,-z
1/2-x,1/2-y,-z
1/2+x,1/2-y,z
loop_
_atom_site_type_symbol
_atom_site_label
_atom_site_fract_x
_atom_site_fract_y
_atom_site_fract_z
Si Si1 0.369468 0.317231 0.415759
Si Si2 0.297232 0.818585 0.094439
Si Si3 0.098565 0.182902 0.288111
Si Si4 0.181634 0.317194 0.392098
Si Si5 0.304230 0.682482 0.275207
Si Si6 0.673998 0.682657 0.095340
Si Si7 0.512046 0.181954 0.595413
O O1 0.369134 0.500000 0.422837
O O2 0.331279 0.248495 0.507944
O O3 0.345586 0.274237 0.333042
O O4 0.430357 0.254568 0.403735
O O5 0.316198 0.755466 0.177534
O O6 0.233352 0.771421 0.108078
O O7 0.299182 0.000000 0.093839
O O8 0.329701 0.755462 0.997255
O O9 0.137198 0.249129 0.346127
O O10 0.126980 0.224410 0.184450
O O11 0.038314 0.250457 0.327773
O O12 0.097290 0.000000 0.295612
O O13 0.176703 0.500000 0.395817
O O14 0.242512 0.275671 0.332722
O O15 0.305589 0.500000 0.265637
O O16 0.674462 0.500000 0.086424
O O17 0.500000 0.216376 0.500000
O O18 0.514505 0.000000 0.603276
#
# Coordination Sequence:
#
# PCOD9181871 Si02
#       7
#     8   8   8   8   8   8   8
#     4  11  23  38  56  78 107 148 190 224 267 323
#     4  10  19  32  54  82 110 144 181 219 268 324
#     4  11  21  35  57  82 110 144 182 224 270 321
#     4  11  21  34  53  80 113 147 179 221 272 319
#     4  10  22  37  54  79 113 149 182 221 271 325
#     4   9  19  34  52  80 112 142 178 221 270 322
#     4  11  23  38  56  80 108 142 184 229 277 318
#
# _framework density 16.868662
#
# number of rings (size 3 to 8) (size 9 to 14) (size 15 to 20)
#    0.000    1.571    2.857    2.571    0.000    4.000 
#    0.000    0.000    0.000    0.857    0.000    6.000 
#    0.000    0.000    0.000    0.000    0.000    0.000 
#
# Total GULP energy -156414.500077 kJ/mol
# GULP energy per Si atom -5586.232146 kJ/mol
# Density = 1.683027 g / cm^3
# Si number density = 16.868662 Si / 1000 Ang^3
#
#
#
# Elastic Constant Matrix: (Units=GPa)
#
#
# Indices 1 2 3 4 5 6 
#
# 1 58.3859 22.6629 42.8075 0.0000 14.1827 0.0000
# 2 22.6629 37.7970 44.8599 0.0000 5.1836 0.0000
# 3 42.8075 44.8599 154.9045 0.0000 13.6425 0.0000
# 4 0.0000 0.0000 0.0000 30.9600 0.0000 1.6476
# 5 14.1827 5.1836 13.6425 0.0000 26.9626 0.0000
# 6 0.0000 0.0000 0.0000 1.6476 0.0000 21.6301
#
#
#
# Elastic Compliance Matrix: (Units=1/GPa)
#
#
# Indices 1 2 3 4 5 6 
#
# 1 0.025979 -0.010254 -0.003328 0.000000 -0.010010 0.000000
# 2 -0.010254 0.044457 -0.010219 0.000000 0.002017 0.000000
# 3 -0.003328 -0.010219 0.010474 0.000000 -0.001585 0.000000
# 4 0.000000 0.000000 0.000000 0.032431 0.000000 -0.002470
# 5 -0.010010 0.002017 -0.001585 0.000000 0.042768 0.000000
# 6 0.000000 0.000000 0.000000 -0.002470 0.000000 0.046420
#
#
# Mechanical properties :
#
#
# Convention : Reuss Voigt Hill
#
# Bulk Modulus (GPa) = 30.02227 52.41643 41.21935
# Shear Modulus (GPa) = 19.13991 25.29434 22.21713
#
# Velocity S-wave (km/s) = 3.37210 3.87652 3.63308
# Velocity P-wave (km/s) = 5.74436 7.15383 6.48749
#
# Compressibility (1/GPa) = 0.03330861
#
# Stress axis : x y z
#
# Youngs Moduli (GPa) = 38.49204 22.49368 95.47338
#
# Poissons Ratio (x) = 0.23066 0.31775
# Poissons Ratio (y) = 0.39471 0.97560
# Poissons Ratio (z) = 0.12811 0.22985
#
# Static dielectric constant tensor:
#      x y z
#    x 1.546530 0.000000 -0.002780 
#    y 0.000000 1.563240 0.000000 
#    z -0.002780 0.000000 1.556650 
# 
# From -- ./inp_files/237358.got.cif
#   From: 2010.05.17/outbox.cif.g08.bks.cpg/sg12_119_cif.got.tgz:237358.got - 2010.06.03 13:09:07.
