data_PCOD9181157
_publ_section_title
;
Structure prediction by ZEFSAII (Michael W. Deem and Ramdas Pophale) SiO2 
 PCOD9181157
Probable space group: C 2/M
;
_chemical_formula_sum "Si O2"
_cell_formula_units_Z 64
_cell_length_a 21.846005
_cell_length_b 9.223653
_cell_length_c 17.287701
_cell_angle_alpha 90.000000
_cell_angle_beta 86.417092
_cell_angle_gamma 90.000000
_cell_volume 3476.662485
_symmetry_space_group_name_H-M "C 2/M"
_symmetry_group_IT_number 12
_symmetry_cell_setting 'monoclinic'
loop_
_space_group_symop_operation_xyz
x,y,z
-x,y,-z
-x,-y,-z
x,-y,z
1/2+x,1/2+y,z
1/2-x,1/2+y,-z
1/2-x,1/2-y,-z
1/2+x,1/2-y,z
loop_
_atom_site_type_symbol
_atom_site_label
_atom_site_fract_x
_atom_site_fract_y
_atom_site_fract_z
Si Si1 0.608241 0.668168 0.241444
Si Si2 0.229096 0.167819 0.340700
Si Si3 0.657087 0.168692 0.473863
Si Si4 0.177697 0.174420 0.086118
Si Si5 0.157880 0.172173 0.747903
Si Si6 0.585705 0.328696 0.607082
Si Si7 0.191256 0.173664 0.911934
Si Si8 0.462871 0.167494 0.626685
O O1 0.587334 0.500000 0.242337
O O2 0.670834 0.672694 0.287099
O O3 0.627419 0.715496 0.153895
O O4 0.560466 0.767698 0.290238
O O5 0.208897 0.252416 0.419379
O O6 0.285267 0.242313 0.292946
O O7 0.241951 0.000000 0.356737
O O8 0.638509 0.251637 0.552963
O O9 0.595028 0.176124 0.426451
O O10 0.671453 0.000000 0.485593
O O11 0.242786 0.248918 0.099060
O O12 0.185079 0.000000 0.092124
O O13 0.163256 0.210808 0.997940
O O14 0.100574 0.197411 0.696296
O O15 0.152506 0.210351 0.838662
O O16 0.171431 0.000000 0.742290
O O17 0.586129 0.500000 0.591579
O O18 0.520261 0.260014 0.593476
O O19 0.201139 0.000000 0.911384
O O20 0.481143 0.000000 0.631383
#
# Coordination Sequence:
#
# PCOD9181157 Si02
#       8
#     8   8   8   8   8   8   8   8
#     4   9  17  30  50  77 106 131 162 206 252 297
#     4  10  19  32  52  77 104 135 168 205 252 300
#     4  10  21  37  56  77 101 127 163 213 261 304
#     4   9  16  28  48  77 106 132 165 204 247 295
#     4  10  21  35  50  72 105 141 172 204 245 300
#     4  11  23  37  53  73  99 134 174 210 250 300
#     4   9  17  29  48  73 105 138 166 201 245 294
#     4  10  21  36  55  77  99 126 166 213 258 301
#
# _framework density 18.408459000000001
#
# number of rings (size 3 to 8) (size 9 to 14) (size 15 to 20)
#    0.000    2.250    1.250    1.875    0.000    5.500 
#    0.000    0.000    0.000    0.750    0.000    5.250 
#    0.000    0.000    0.000    0.000    0.000    0.000 
#
# Total GULP energy -178598.365155 kJ/mol
# GULP energy per Si atom -5581.198911 kJ/mol
# Density = 1.836656 g / cm^3
# Si number density = 18.408459 Si / 1000 Ang^3
#
#
#
# Elastic Constant Matrix: (Units=GPa)
#
#
# Indices 1 2 3 4 5 6 
#
# 1 23.0335 12.5593 11.0427 0.0000 -0.6546 0.0000
# 2 12.5593 52.7092 36.3880 0.0000 4.0819 0.0000
# 3 11.0427 36.3880 124.3336 0.0000 -6.4773 0.0000
# 4 0.0000 0.0000 0.0000 23.9183 0.0000 -8.5736
# 5 -0.6546 4.0819 -6.4773 0.0000 19.0984 0.0000
# 6 0.0000 0.0000 0.0000 -8.5736 0.0000 19.6000
#
#
#
# Elastic Compliance Matrix: (Units=1/GPa)
#
#
# Indices 1 2 3 4 5 6 
#
# 1 0.050317 -0.011720 -0.000833 0.000000 0.003947 0.000000
# 2 -0.011720 0.027633 -0.007508 0.000000 -0.008854 0.000000
# 3 -0.000833 -0.007508 0.010583 0.000000 0.005165 0.000000
# 4 0.000000 0.000000 0.000000 0.049584 0.000000 0.021689
# 5 0.003947 -0.008854 0.005165 0.000000 0.056140 0.000000
# 6 0.000000 0.000000 0.000000 0.021689 0.000000 0.060508
#
#
# Mechanical properties :
#
#
# Convention : Reuss Voigt Hill
#
# Bulk Modulus (GPa) = 20.65602 35.56182 28.10892
# Shear Modulus (GPa) = 16.07597 21.86242 18.96920
#
# Velocity S-wave (km/s) = 2.95836 3.44994 3.21356
# Velocity P-wave (km/s) = 4.78691 5.93545 5.39185
#
# Compressibility (1/GPa) = 0.04841204
#
# Stress axis : x y z
#
# Youngs Moduli (GPa) = 19.87404 36.18850 94.48938
#
# Poissons Ratio (x) = 0.42411 0.07875
# Poissons Ratio (y) = 0.23292 0.70939
# Poissons Ratio (z) = 0.01656 0.27169
#
# Static dielectric constant tensor:
#      x y z
#    x 1.602390 0.000000 0.024290 
#    y 0.000000 1.613270 0.000000 
#    z 0.024290 0.000000 1.675260 
# 
# From -- ./inp_files/281303.got.cif
#   From: 2010.05.17/outbox.cif.g08.bks.cpg/sg12_141_cif.got.tgz:281303.got - 2010.06.03 13:09:07.
