data_PCOD9181074
_publ_section_title
;
Structure prediction by ZEFSAII (Michael W. Deem and Ramdas Pophale) SiO2 
 PCOD9181074
Probable space group: C 2/M
;
_chemical_formula_sum "Si O2"
_cell_formula_units_Z 64
_cell_length_a 8.636313
_cell_length_b 31.627695
_cell_length_c 24.770104
_cell_angle_alpha 90.000000
_cell_angle_beta 30.054460
_cell_angle_gamma 90.000000
_cell_volume 3388.503638
_symmetry_space_group_name_H-M "C 2/M"
_symmetry_group_IT_number 12
_symmetry_cell_setting 'monoclinic'
loop_
_space_group_symop_operation_xyz
x,y,z
-x,y,-z
-x,-y,-z
x,-y,z
1/2+x,1/2+y,z
1/2-x,1/2+y,-z
1/2-x,1/2-y,-z
1/2+x,1/2-y,z
loop_
_atom_site_type_symbol
_atom_site_label
_atom_site_fract_x
_atom_site_fract_y
_atom_site_fract_z
Si Si1 0.923846 0.711107 0.693160
Si Si2 0.231539 0.954054 0.380373
Si Si3 0.860505 0.047721 0.379671
Si Si4 0.790115 0.374650 0.009472
Si Si5 0.235128 0.872822 0.232325
Si Si6 0.815286 0.216797 0.935335
Si Si7 0.111509 0.622557 0.230801
Si Si8 0.264487 0.797208 0.619084
O O1 0.584045 0.727856 0.812959
O O2 0.936802 0.666543 0.721310
O O3 0.929203 0.702984 0.627710
O O4 0.150577 0.749021 0.641935
O O5 0.448635 0.913898 0.314434
O O6 0.000000 0.951937 0.500000
O O7 0.036324 0.952545 0.383942
O O8 0.391852 0.000000 0.333919
O O9 0.500000 0.055190 0.500000
O O10 0.011124 0.086232 0.301466
O O11 0.893251 0.000000 0.346321
O O12 0.639539 0.327847 0.050102
O O13 0.457413 0.396673 0.115791
O O14 0.000000 0.379655 0.000000
O O15 0.020873 0.378860 0.889851
O O16 0.431471 0.871449 0.228505
O O17 0.022188 0.830553 0.291645
O O18 0.500000 0.211148 0.000000
O O19 0.750000 0.250000 0.000000
O O20 0.500000 0.809415 0.500000
#
# Coordination Sequence:
#
# PCOD9181074 Si02
#       8
#     8   8   8   8   8   8   8   8
#     4  11  23  39  56  80 114 150 192 236 285 340
#     4   9  19  36  59  86 115 148 188 233 281 337
#     4   9  19  36  58  85 114 146 188 235 283 337
#     4  10  21  37  55  79 112 148 188 233 282 339
#     4  11  21  37  59  84 114 149 191 234 287 342
#     4  10  19  32  52  76 100 133 176 226 277 326
#     4  10  22  37  59  86 114 150 187 234 289 341
#     4  12  25  40  57  80 114 155 197 238 284 338
#
# _framework density 18.887394
#
# number of rings (size 3 to 8) (size 9 to 14) (size 15 to 20)
#    0.000    1.750    0.000    5.625    0.000    7.500 
#    0.000    0.625    0.000    3.750    0.000    0.000 
#    0.000    0.000    0.000    0.000    0.000    0.000 
#
# Total GULP energy -178295.925893 kJ/mol
# GULP energy per Si atom -5571.747684 kJ/mol
# Density = 1.884441 g / cm^3
# Si number density = 18.887394 Si / 1000 Ang^3
#
#
#
# Elastic Constant Matrix: (Units=GPa)
#
#
# Indices 1 2 3 4 5 6 
#
# 1 57.6505 37.4543 29.0702 0.0006 11.4615 -0.0001
# 2 37.4543 101.2241 52.7006 -0.0008 3.2659 0.0001
# 3 29.0702 52.7006 106.9299 -0.0053 11.0277 0.0005
# 4 0.0006 -0.0008 -0.0053 29.8012 0.0013 -2.5839
# 5 11.4615 3.2659 11.0277 0.0013 34.5936 -0.0001
# 6 -0.0001 0.0001 0.0005 -2.5839 -0.0001 19.4024
#
#
#
# Elastic Compliance Matrix: (Units=1/GPa)
#
#
# Indices 1 2 3 4 5 6 
#
# 1 0.024911 -0.007852 -0.002200 -0.000001 -0.006811 0.000000
# 2 -0.007852 0.015789 -0.005957 -0.000001 0.003010 0.000000
# 3 -0.002200 -0.005957 0.013186 0.000002 -0.002912 0.000000
# 4 -0.000001 -0.000001 0.000002 0.033948 -0.000002 0.004521
# 5 -0.006811 0.003010 -0.002912 -0.000002 0.031808 0.000000
# 6 0.000000 0.000000 0.000000 0.004521 0.000000 0.052142
#
#
# Mechanical properties :
#
#
# Convention : Reuss Voigt Hill
#
# Bulk Modulus (GPa) = 45.73067 56.02833 50.87950
# Shear Modulus (GPa) = 23.68642 26.53141 25.10892
#
# Velocity S-wave (km/s) = 3.54515 3.75202 3.65005
# Velocity P-wave (km/s) = 6.40486 6.96412 6.69034
#
# Compressibility (1/GPa) = 0.02186716
#
# Stress axis : x y z
#
# Youngs Moduli (GPa) = 40.14345 63.33545 75.83570
#
# Poissons Ratio (x) = 0.49732 0.16683
# Poissons Ratio (y) = 0.31521 0.45178
# Poissons Ratio (z) = 0.08831 0.37731
#
# Static dielectric constant tensor:
#      x y z
#    x 1.657450 -0.000010 -0.039080 
#    y -0.000010 2.952420 -0.000050 
#    z -0.039080 -0.000050 1.695270 
# 
# From -- ./inp_files/334349.got.cif
#   From: 2010.05.17/outbox.cif.g08.bks.cpg/sg12_168_cif.got.tgz:334349.got - 2010.06.03 13:09:07.
