data_PCOD9181941
_publ_section_title
;
Structure prediction by ZEFSAII (Michael W. Deem and Ramdas Pophale) SiO2 
 PCOD9181941
Probable space group: C 2/M
;
_chemical_formula_sum "Si O2"
_cell_formula_units_Z 64
_cell_length_a 30.943018
_cell_length_b 8.442803
_cell_length_c 15.343985
_cell_angle_alpha 90.000000
_cell_angle_beta 59.139021
_cell_angle_gamma 90.000000
_cell_volume 3440.998722
_symmetry_space_group_name_H-M "C 2/M"
_symmetry_group_IT_number 12
_symmetry_cell_setting 'monoclinic'
loop_
_space_group_symop_operation_xyz
x,y,z
-x,y,-z
-x,-y,-z
x,-y,z
1/2+x,1/2+y,z
1/2-x,1/2+y,-z
1/2-x,1/2-y,-z
1/2+x,1/2-y,z
loop_
_atom_site_type_symbol
_atom_site_label
_atom_site_fract_x
_atom_site_fract_y
_atom_site_fract_z
Si Si1 0.855773 0.308587 0.715209
Si Si2 0.949069 0.693259 0.103797
Si Si3 0.780103 0.310332 0.551618
Si Si4 0.386994 0.687730 0.495886
Si Si5 0.030160 0.308418 0.721191
Si Si6 0.636526 0.808992 0.940127
Si Si7 0.245386 0.809356 0.778752
Si Si8 0.585849 0.806468 0.173067
O O1 0.855486 0.500000 0.715738
O O2 0.882311 0.255760 0.598417
O O3 0.797254 0.256595 0.771600
O O4 0.884793 0.253249 0.771069
O O5 0.948952 0.500000 0.104250
O O6 0.951305 0.744552 0.202003
O O7 0.900150 0.745811 0.100284
O O8 0.000000 0.740482 0.000000
O O9 0.783668 0.500000 0.546231
O O10 0.750000 0.250000 0.500000
O O11 0.836192 0.241993 0.499313
O O12 0.752305 0.263905 0.670190
O O13 0.388291 0.500000 0.499675
O O14 0.434215 0.748919 0.392323
O O15 0.031150 0.500000 0.719924
O O16 0.972380 0.257723 0.768080
O O17 0.693732 0.756679 0.869130
O O18 0.635022 0.000000 0.941256
O O19 0.613227 0.755140 0.056117
O O20 0.243610 0.000000 0.785182
O O21 0.586236 0.000000 0.172756
#
# Coordination Sequence:
#
# PCOD9181941 Si02
#       8
#     8   8   8   8   8   8   8   8
#     4   9  19  39  60  77 104 145 189 235 282 329
#     4   9  16  30  53  80 110 140 175 224 273 322
#     4  10  21  38  58  81 111 147 188 231 275 327
#     4  11  23  38  55  80 113 146 184 231 279 333
#     4  10  19  34  57  83 110 144 185 227 278 335
#     4  10  19  32  54  85 112 140 182 227 271 329
#     4   9  20  36  52  75 110 145 178 221 274 328
#     4   9  18  34  59  84 106 139 190 239 275 327
#
# _framework density 18.599252
#
# number of rings (size 3 to 8) (size 9 to 14) (size 15 to 20)
#    0.000    2.375    1.250    2.250    1.750    3.500 
#    0.000    4.375    0.000    0.750    0.000    0.000 
#    0.000    0.000    0.000    0.000    0.000    0.000 
#
# Total GULP energy -178593.061127 kJ/mol
# GULP energy per Si atom -5581.033160 kJ/mol
# Density = 1.855692 g / cm^3
# Si number density = 18.599252 Si / 1000 Ang^3
#
#
#
# Elastic Constant Matrix: (Units=GPa)
#
#
# Indices 1 2 3 4 5 6 
#
# 1 181.6191 25.7552 133.5690 0.0000 12.5342 0.0000
# 2 25.7552 13.2135 19.6460 0.0000 -0.5731 -0.0001
# 3 133.5690 19.6460 144.3973 0.0000 -21.5057 0.0000
# 4 0.0000 0.0000 0.0000 18.8260 0.0000 -7.5185
# 5 12.5342 -0.5731 -21.5057 0.0000 35.1762 0.0000
# 6 0.0000 -0.0001 0.0000 -7.5185 0.0000 19.9705
#
#
#
# Elastic Compliance Matrix: (Units=1/GPa)
#
#
# Indices 1 2 3 4 5 6 
#
# 1 0.044298 -0.022203 -0.044404 0.000000 -0.043294 0.000000
# 2 -0.022203 0.107584 0.008075 0.000000 0.014601 0.000000
# 3 -0.044404 0.008075 0.054213 0.000000 0.049098 0.000000
# 4 0.000000 0.000000 0.000000 0.062518 0.000000 0.023537
# 5 -0.043294 0.014601 0.049098 0.000000 0.074110 0.000000
# 6 0.000000 0.000000 0.000000 0.023537 0.000000 0.058935
#
#
# Mechanical properties :
#
#
# Convention : Reuss Voigt Hill
#
# Bulk Modulus (GPa) = 11.23180 77.46336 44.34758
# Shear Modulus (GPa) = 9.11745 25.47851 17.29798
#
# Velocity S-wave (km/s) = 2.21646 3.70519 3.05296
# Velocity P-wave (km/s) = 3.54996 7.74878 6.02685
#
# Compressibility (1/GPa) = 0.08903293
#
# Stress axis : x y z
#
# Youngs Moduli (GPa) = 22.57422 9.29503 18.44581
#
# Poissons Ratio (x) = 0.20637 0.81906
# Poissons Ratio (y) = 0.50121 -0.14895
# Poissons Ratio (z) = 1.00238 -0.07506
#
# Static dielectric constant tensor:
#      x y z
#    x 1.632520 0.000000 0.008020 
#    y 0.000000 1.642600 0.000000 
#    z 0.008020 0.000000 1.618210 
# 
# From -- ./inp_files/249044.got.cif
#   From: 2010.05.17/outbox.cif.g08.bks.cpg/sg12_125_cif.got.tgz:249044.got - 2010.06.03 13:09:07.
