data_PCOD9181463
_publ_section_title
;
Structure prediction by ZEFSAII (Michael W. Deem and Ramdas Pophale) SiO2 
 PCOD9181463
Probable space group: C 2/M
;
_chemical_formula_sum "Si O2"
_cell_formula_units_Z 56
_cell_length_a 16.747110
_cell_length_b 14.900469
_cell_length_c 17.741795
_cell_angle_alpha 90.000000
_cell_angle_beta 137.305569
_cell_angle_gamma 90.000000
_cell_volume 3002.089097
_symmetry_space_group_name_H-M "C 2/M"
_symmetry_group_IT_number 12
_symmetry_cell_setting 'monoclinic'
loop_
_space_group_symop_operation_xyz
x,y,z
-x,y,-z
-x,-y,-z
x,-y,z
1/2+x,1/2+y,z
1/2-x,1/2+y,-z
1/2-x,1/2-y,-z
1/2+x,1/2-y,z
loop_
_atom_site_type_symbol
_atom_site_label
_atom_site_fract_x
_atom_site_fract_y
_atom_site_fract_z
Si Si1 0.083235 0.901366 0.797121
Si Si2 0.862021 0.107863 0.904031
Si Si3 0.973389 0.288780 0.758377
Si Si4 0.243940 0.779903 0.304799
Si Si5 0.709615 0.894347 0.946533
Si Si6 0.551411 0.350228 0.610118
Si Si7 0.859908 0.292187 0.532487
O O1 0.086546 0.902905 0.709134
O O2 0.004460 0.816119 0.764648
O O3 0.041640 0.000000 0.795935
O O4 0.209298 0.885243 0.923329
O O5 0.801618 0.154144 0.790900
O O6 0.791615 0.132544 0.931804
O O7 0.857372 0.000000 0.894799
O O8 0.000000 0.133965 0.000000
O O9 0.862907 0.281160 0.737413
O O10 0.933959 0.336127 0.651967
O O11 0.091057 0.336960 0.867850
O O12 0.340626 0.713525 0.337335
O O13 0.304034 0.832420 0.417547
O O14 0.681120 0.000000 0.917990
O O15 0.500000 0.397780 0.500000
O O16 0.445405 0.284968 0.561489
O O17 0.750000 0.250000 0.500000
#
# Coordination Sequence:
#
# PCOD9181463 Si02
#       7
#     8   8   8   8   8   8   8
#     4  10  20  34  54  78 103 135 176 216 255 306
#     4  10  20  33  50  75 106 136 172 221 267 306
#     4  10  19  34  56  76 104 141 175 211 257 310
#     4  10  19  32  53  78 103 135 172 213 261 309
#     4  10  21  37  54  74 104 141 178 213 254 310
#     4   9  18  33  53  77 104 131 166 213 261 307
#     4   8  16  31  52  76 101 134 172 210 254 307
#
# _framework density 18.653676999999998
#
# number of rings (size 3 to 8) (size 9 to 14) (size 15 to 20)
#    0.000    2.429    0.000    3.000    0.000    3.143 
#    0.000    1.429    0.000   29.571    0.000    0.000 
#    0.000    0.000    0.000    0.000    0.000    0.000 
#
# Total GULP energy -155916.943401 kJ/mol
# GULP energy per Si atom -5568.462264 kJ/mol
# Density = 1.861122 g / cm^3
# Si number density = 18.653677 Si / 1000 Ang^3
#
#
#
# Elastic Constant Matrix: (Units=GPa)
#
#
# Indices 1 2 3 4 5 6 
#
# 1 104.1868 33.1266 47.7178 0.0000 13.1930 0.0000
# 2 33.1266 38.0443 34.3931 0.0000 7.0616 0.0000
# 3 47.7178 34.3931 156.8941 0.0000 -12.4033 0.0000
# 4 0.0000 0.0000 0.0000 -51.7685 0.0000 -17.6503
# 5 13.1930 7.0616 -12.4033 0.0000 33.5678 0.0000
# 6 0.0000 0.0000 0.0000 -17.6503 0.0000 7.3325
#
#
#
# Elastic Compliance Matrix: (Units=1/GPa)
#
#
# Indices 1 2 3 4 5 6 
#
# 1 0.014360 -0.009154 -0.002735 0.000000 -0.004729 0.000000
# 2 -0.009154 0.042107 -0.007069 0.000000 -0.007872 0.000000
# 3 -0.002735 -0.007069 0.009227 0.000000 0.005971 0.000000
# 4 0.000000 0.000000 0.000000 -0.010610 0.000000 -0.025538
# 5 -0.004729 -0.007872 0.005971 0.000000 0.035511 0.000000
# 6 0.000000 0.000000 0.000000 -0.025538 0.000000 0.074905
#
#
# Mechanical properties :
#
#
# Convention : Reuss Voigt Hill
#
# Bulk Modulus (GPa) = 35.99727 58.84445 47.42086
# Shear Modulus (GPa) = 23.51008 10.08553 16.79781
#
# Velocity S-wave (km/s) = 3.55399 2.32776 3.00410
# Velocity P-wave (km/s) = 6.01504 6.23208 6.12452
#
# Compressibility (1/GPa) = 0.02777988
#
# Stress axis : x y z
#
# Youngs Moduli (GPa) = 69.63856 23.74888 108.37730
#
# Poissons Ratio (x) = 0.21739 0.29637
# Poissons Ratio (y) = 0.63746 0.76609
# Poissons Ratio (z) = 0.19043 0.16787
#
# Static dielectric constant tensor:
#      x y z
#    x 1.641720 0.000000 -0.039060 
#    y 0.000000 1.625570 0.000000 
#    z -0.039060 0.000000 1.699650 
# 
# From -- ./inp_files/277868.got.cif
#   From: 2010.05.17/outbox.cif.g08.bks.cpg/sg12_139_cif.got.tgz:277868.got - 2010.06.03 13:09:07.
