data_PCOD9181705
_publ_section_title
;
Structure prediction by ZEFSAII (Michael W. Deem and Ramdas Pophale) SiO2 
 PCOD9181705
Probable space group: C 2/M
;
_chemical_formula_sum "Si O2"
_cell_formula_units_Z 56
_cell_length_a 23.955171
_cell_length_b 12.702805
_cell_length_c 10.326271
_cell_angle_alpha 90.000000
_cell_angle_beta 113.731281
_cell_angle_gamma 90.000000
_cell_volume 2876.561996
_symmetry_space_group_name_H-M "C 2/M"
_symmetry_group_IT_number 12
_symmetry_cell_setting 'monoclinic'
loop_
_space_group_symop_operation_xyz
x,y,z
-x,y,-z
-x,-y,-z
x,-y,z
1/2+x,1/2+y,z
1/2-x,1/2+y,-z
1/2-x,1/2-y,-z
1/2+x,1/2-y,z
loop_
_atom_site_type_symbol
_atom_site_label
_atom_site_fract_x
_atom_site_fract_y
_atom_site_fract_z
Si Si1 0.683456 0.297106 0.465417
Si Si2 0.586847 0.876751 0.469539
Si Si3 0.159444 0.789001 0.166394
Si Si4 0.070546 0.612225 0.030622
Si Si5 0.232178 0.119602 0.765353
Si Si6 0.052382 0.676739 0.727269
Si Si7 0.376577 0.380024 0.137878
O O1 0.750000 0.250000 0.500000
O O2 0.637494 0.202963 0.462388
O O3 0.665773 0.345255 0.310170
O O4 0.693214 0.371844 0.596661
O O5 0.519809 0.844371 0.354016
O O6 0.582170 0.863457 0.621533
O O7 0.598141 0.000000 0.450117
O O8 0.104374 0.707064 0.128614
O O9 0.217042 0.711577 0.190175
O O10 0.142801 0.859433 0.028382
O O11 0.095158 0.500000 0.097966
O O12 0.076032 0.621886 0.880387
O O13 0.000000 0.616761 0.000000
O O14 0.184324 0.138750 0.835235
O O15 0.256769 0.000000 0.800719
O O16 0.072195 0.797611 0.768223
O O17 0.396171 0.500000 0.174796
#
# Coordination Sequence:
#
# PCOD9181705 Si02
#       7
#     8   8   8   8   8   8   8
#     4  10  22  38  57  86 123 159 197 247 297 353
#     4  11  21  37  62  91 122 158 198 248 304 354
#     4  10  21  35  58  83 115 149 199 244 296 347
#     4  10  19  32  53  85 121 154 190 238 302 362
#     4  10  20  38  59  80 112 154 199 243 293 353
#     4  10  20  36  59  89 123 154 198 249 300 358
#     4  10  21  39  61  83 117 157 194 243 300 354
#
# _framework density 19.467683999999998
#
# number of rings (size 3 to 8) (size 9 to 14) (size 15 to 20)
#    0.000    1.857    1.429    3.429    0.000    4.571 
#    0.000    4.286    0.000   14.571    0.000    0.000 
#    0.000    0.000    0.000    0.000    0.000    0.000 
#
# Total GULP energy -156208.625361 kJ/mol
# GULP energy per Si atom -5578.879477 kJ/mol
# Density = 1.942337 g / cm^3
# Si number density = 19.467684 Si / 1000 Ang^3
#
#
#
# Elastic Constant Matrix: (Units=GPa)
#
#
# Indices 1 2 3 4 5 6 
#
# 1 66.0062 17.0212 -1.9143 0.0000 -6.2788 0.0000
# 2 17.0212 70.7651 -17.3509 0.0000 3.6388 0.0000
# 3 -1.9143 -17.3509 70.8405 0.0000 -8.3564 0.0000
# 4 0.0000 0.0000 0.0000 -15.2035 0.0000 8.2702
# 5 -6.2788 3.6388 -8.3564 0.0000 24.9057 0.0000
# 6 0.0000 0.0000 0.0000 8.2702 0.0000 -2.1221
#
#
#
# Elastic Compliance Matrix: (Units=1/GPa)
#
#
# Indices 1 2 3 4 5 6 
#
# 1 0.016711 -0.004274 -0.000026 0.000000 0.004829 0.000000
# 2 -0.004274 0.016151 0.003577 0.000000 -0.002237 0.000000
# 3 -0.000026 0.003577 0.015544 0.000000 0.004686 0.000000
# 4 0.000000 0.000000 0.000000 0.058733 0.000000 0.228888
# 5 0.004829 -0.002237 0.004686 0.000000 0.043268 0.000000
# 6 0.000000 0.000000 0.000000 0.228888 0.000000 0.420777
#
#
# Mechanical properties :
#
#
# Convention : Reuss Voigt Hill
#
# Bulk Modulus (GPa) = 21.29472 22.56931 21.93201
# Shear Modulus (GPa) = 8.49930 15.50639 12.00284
#
# Velocity S-wave (km/s) = 2.09173 2.82533 2.48574
# Velocity P-wave (km/s) = 4.09829 4.71823 4.41915
#
# Compressibility (1/GPa) = 0.04696000
#
# Stress axis : x y z
#
# Youngs Moduli (GPa) = 59.84140 61.91458 64.33212
#
# Poissons Ratio (x) = 0.26463 0.00165
# Poissons Ratio (y) = 0.25577 -0.23009
# Poissons Ratio (z) = 0.00154 -0.22144
#
# Static dielectric constant tensor:
#      x y z
#    x 1.569750 0.000000 0.020700 
#    y 0.000000 1.659760 0.000000 
#    z 0.020700 0.000000 1.710800 
# 
# From -- ./inp_files/103258.got.cif
#   From: 2010.05.17/outbox.cif.g08.bks.cpg/sg12_52_cif.got.tgz:103258.got - 2010.06.03 13:09:07.
