data_PCOD9181507
_publ_section_title
;
Structure prediction by ZEFSAII (Michael W. Deem and Ramdas Pophale) SiO2 
 PCOD9181507
Probable space group: C 2/M
;
_chemical_formula_sum "Si O2"
_cell_formula_units_Z 56
_cell_length_a 14.971907
_cell_length_b 7.639811
_cell_length_c 30.244215
_cell_angle_alpha 90.000000
_cell_angle_beta 125.990777
_cell_angle_gamma 90.000000
_cell_volume 2799.048864
_symmetry_space_group_name_H-M "C 2/M"
_symmetry_group_IT_number 12
_symmetry_cell_setting 'monoclinic'
loop_
_space_group_symop_operation_xyz
x,y,z
-x,y,-z
-x,-y,-z
x,-y,z
1/2+x,1/2+y,z
1/2-x,1/2+y,-z
1/2-x,1/2-y,-z
1/2+x,1/2-y,z
loop_
_atom_site_type_symbol
_atom_site_label
_atom_site_fract_x
_atom_site_fract_y
_atom_site_fract_z
Si Si1 0.662629 0.785673 0.354466
Si Si2 0.791779 0.287975 0.732405
Si Si3 0.799139 0.710586 0.062454
Si Si4 0.598345 0.712125 0.061403
Si Si5 0.042140 0.706330 0.644915
Si Si6 0.408359 0.704854 0.440744
Si Si7 0.543939 0.205835 0.144788
O O1 0.663040 0.733639 0.302826
O O2 0.557973 0.727319 0.353252
O O3 0.782991 0.725046 0.406934
O O4 0.661721 0.000000 0.354535
O O5 0.790216 0.500000 0.732202
O O6 0.664354 0.232638 0.700667
O O7 0.871341 0.222276 0.794432
O O8 0.804567 0.500000 0.066522
O O9 0.711849 0.772159 0.072922
O O10 0.920671 0.782252 0.106931
O O11 0.750000 0.750000 0.000000
O O12 0.595413 0.500000 0.061618
O O13 0.586470 0.776975 0.107408
O O14 0.500000 0.768821 0.000000
O O15 0.024216 0.500000 0.634009
O O16 0.050696 0.783589 0.598031
O O17 0.500000 0.783115 0.500000
O O18 0.397821 0.500000 0.449158
O O19 0.533231 0.000000 0.152296
#
# Coordination Sequence:
#
# PCOD9181507 Si02
#       7
#     8   8   8   8   8   8   8
#     4   8  16  32  53  74 101 137 171 207 253 305
#     4   9  19  37  54  71 100 135 173 212 254 307
#     4  10  20  34  52  74 100 131 164 199 248 306
#     4  10  20  34  52  75 102 131 160 199 254 307
#     4  10  19  32  53  79 104 135 173 215 261 297
#     4   9  18  34  54  76 106 145 179 206 248 305
#     4  10  21  35  54  77  99 131 172 212 251 301
#
# _framework density 20.006796000000001
#
# number of rings (size 3 to 8) (size 9 to 14) (size 15 to 20)
#    0.000    2.571    1.429    1.286    0.000    3.429 
#    0.000    8.571    0.000    0.000    0.000    0.000 
#    0.000    0.000    0.000    0.000    0.000    0.000 
#
# Total GULP energy -156177.436136 kJ/mol
# GULP energy per Si atom -5577.765576 kJ/mol
# Density = 1.996126 g / cm^3
# Si number density = 20.006796 Si / 1000 Ang^3
#
#
#
# Elastic Constant Matrix: (Units=GPa)
#
#
# Indices 1 2 3 4 5 6 
#
# 1 182.7474 -9.1302 86.9561 0.0000 25.9027 0.0000
# 2 -9.1302 34.4606 -6.7337 0.0000 4.0691 0.0000
# 3 86.9561 -6.7337 182.6614 0.0000 23.7718 0.0000
# 4 0.0000 0.0000 0.0000 12.8035 0.0000 -1.6283
# 5 25.9027 4.0691 23.7718 0.0000 15.8279 0.0000
# 6 0.0000 0.0000 0.0000 -1.6283 0.0000 19.9411
#
#
#
# Elastic Compliance Matrix: (Units=1/GPa)
#
#
# Indices 1 2 3 4 5 6 
#
# 1 0.008300 0.002979 -0.002454 0.000000 -0.010664 0.000000
# 2 0.002979 0.032037 0.001826 0.000000 -0.015853 0.000000
# 3 -0.002454 0.001826 0.007767 0.000000 -0.008119 0.000000
# 4 0.000000 0.000000 0.000000 0.078924 0.000000 0.006445
# 5 -0.010664 -0.015853 -0.008119 0.000000 0.096899 0.000000
# 6 0.000000 0.000000 0.000000 0.006445 0.000000 0.050674
#
#
# Mechanical properties :
#
#
# Convention : Reuss Voigt Hill
#
# Bulk Modulus (GPa) = 18.93738 60.22820 39.58279
# Shear Modulus (GPa) = 17.39136 31.63298 24.51217
#
# Velocity S-wave (km/s) = 2.95154 3.98063 3.50407
# Velocity P-wave (km/s) = 4.59364 7.16216 6.01656
#
# Compressibility (1/GPa) = 0.05280561
#
# Stress axis : x y z
#
# Youngs Moduli (GPa) = 120.48540 31.21427 128.75794
#
# Poissons Ratio (x) = -0.09298 0.31591
# Poissons Ratio (y) = -0.35889 -0.23514
# Poissons Ratio (z) = 0.29561 -0.05700
#
# Static dielectric constant tensor:
#      x y z
#    x 1.685310 0.000000 0.027620 
#    y 0.000000 1.778870 0.000000 
#    z 0.027620 0.000000 1.698310 
# 
# From -- ./inp_files/359653.got.cif
#   From: 2010.05.17/outbox.cif.g08.bks.cpg/sg12_180_cif.got.tgz:359653.got - 2010.06.03 13:09:07.
