data_PCOD9181089
_publ_section_title
;
Structure prediction by ZEFSAII (Michael W. Deem and Ramdas Pophale) SiO2 
 PCOD9181089
Probable space group: C 2/M
;
_chemical_formula_sum "Si O2"
_cell_formula_units_Z 56
_cell_length_a 14.623602
_cell_length_b 7.661512
_cell_length_c 29.611491
_cell_angle_alpha 90.000000
_cell_angle_beta 125.217347
_cell_angle_gamma 90.000000
_cell_volume 2710.412613
_symmetry_space_group_name_H-M "C 2/M"
_symmetry_group_IT_number 12
_symmetry_cell_setting 'monoclinic'
loop_
_space_group_symop_operation_xyz
x,y,z
-x,y,-z
-x,-y,-z
x,-y,z
1/2+x,1/2+y,z
1/2-x,1/2+y,-z
1/2-x,1/2-y,-z
1/2+x,1/2-y,z
loop_
_atom_site_type_symbol
_atom_site_label
_atom_site_fract_x
_atom_site_fract_y
_atom_site_fract_z
Si Si1 0.031592 0.202405 0.557224
Si Si2 0.215785 0.205131 0.352311
Si Si3 0.487170 0.286424 0.642810
Si Si4 0.239363 0.288871 0.067972
Si Si5 0.182169 0.701770 0.146911
Si Si6 0.432652 0.293077 0.055173
Si Si7 0.741563 0.711351 0.735010
O O1 0.165357 0.208886 0.602081
O O2 0.000000 0.282828 0.500000
O O3 0.978814 0.275604 0.588445
O O4 0.995408 0.000000 0.545416
O O5 0.112781 0.271248 0.353111
O O6 0.198720 0.227177 0.293796
O O7 0.228930 0.000000 0.365490
O O8 0.486351 0.500000 0.642208
O O9 0.610937 0.235982 0.694950
O O10 0.242346 0.500000 0.069779
O O11 0.241864 0.220856 0.119706
O O12 0.342108 0.228921 0.066242
O O13 0.125704 0.238974 0.009598
O O14 0.218823 0.500000 0.160025
O O15 0.206523 0.776356 0.203234
O O16 0.051511 0.707714 0.097513
O O17 0.447712 0.500000 0.064894
O O18 0.746282 0.500000 0.734954
#
# Coordination Sequence:
#
# PCOD9181089 Si02
#       7
#     8   8   8   8   8   8   8
#     4   9  18  34  54  75 102 136 170 200 235 289
#     4  10  19  32  52  76 102 131 163 205 252 288
#     4   8  16  32  52  72  98 133 166 197 241 293
#     4   9  19  35  52  71  98 132 165 195 240 304
#     4  10  20  34  53  73  95 129 168 203 242 293
#     4  10  20  33  51  75 101 127 158 202 250 293
#     4   9  19  36  53  70  96 131 170 205 240 292
#
# _framework density 20.661062000000001
#
# number of rings (size 3 to 8) (size 9 to 14) (size 15 to 20)
#    0.000    2.714    0.000    2.143    0.000    5.429 
#    0.000    8.571    0.000    0.000    0.000    0.000 
#    0.000    0.000    0.000    0.000    0.000    0.000 
#
# Total GULP energy -156197.605439 kJ/mol
# GULP energy per Si atom -5578.485909 kJ/mol
# Density = 2.061404 g / cm^3
# Si number density = 20.661062 Si / 1000 Ang^3
#
#
#
# Elastic Constant Matrix: (Units=GPa)
#
#
# Indices 1 2 3 4 5 6 
#
# 1 119.9588 -5.9151 49.1307 0.0000 -38.5230 0.0000
# 2 -5.9151 40.1827 -3.4110 0.0000 -3.1163 0.0000
# 3 49.1307 -3.4110 128.1617 0.0000 -42.6950 0.0000
# 4 0.0000 0.0000 0.0000 12.4138 0.0000 -1.9332
# 5 -38.5230 -3.1163 -42.6950 0.0000 25.3132 0.0000
# 6 0.0000 0.0000 0.0000 -1.9332 0.0000 17.4610
#
#
#
# Elastic Compliance Matrix: (Units=1/GPa)
#
#
# Indices 1 2 3 4 5 6 
#
# 1 0.019085 0.006502 0.006389 0.000000 0.040622 0.000000
# 2 0.006502 0.028215 0.006190 0.000000 0.023810 0.000000
# 3 0.006389 0.006190 0.020568 0.000000 0.045177 0.000000
# 4 0.000000 0.000000 0.000000 0.081969 0.000000 0.009075
# 5 0.040622 0.023810 0.045177 0.000000 0.180455 0.000000
# 6 0.000000 0.000000 0.000000 0.009075 0.000000 0.058275
#
#
# Mechanical properties :
#
#
# Convention : Reuss Voigt Hill
#
# Bulk Modulus (GPa) = 9.43114 40.87915 25.15514
# Shear Modulus (GPa) = 12.96181 27.60418 20.28300
#
# Velocity S-wave (km/s) = 2.50742 3.65917 3.13661
# Velocity P-wave (km/s) = 3.59965 6.13850 5.03183
#
# Compressibility (1/GPa) = 0.10603177
#
# Stress axis : x y z
#
# Youngs Moduli (GPa) = 52.39711 35.44153 48.61892
#
# Poissons Ratio (x) = -0.23045 -0.31064
# Poissons Ratio (y) = -0.34069 -0.30096
# Poissons Ratio (z) = -0.33478 -0.21939
#
# Static dielectric constant tensor:
#      x y z
#    x 1.730240 0.000000 -0.039950 
#    y 0.000000 1.779990 0.000000 
#    z -0.039950 0.000000 1.735770 
# 
# From -- ./inp_files/359661.got.cif
#   From: 2010.05.17/outbox.cif.g08.bks.cpg/sg12_180_cif.got.tgz:359661.got - 2010.06.03 13:09:07.
