data_PCOD9181646
_publ_section_title
;
Structure prediction by ZEFSAII (Michael W. Deem and Ramdas Pophale) SiO2 
 PCOD9181646
Probable space group: C 2/M
;
_chemical_formula_sum "Si O2"
_cell_formula_units_Z 56
_cell_length_a 30.632580
_cell_length_b 8.859167
_cell_length_c 22.404140
_cell_angle_alpha 90.000000
_cell_angle_beta 146.450520
_cell_angle_gamma 90.000000
_cell_volume 3360.163038
_symmetry_space_group_name_H-M "C 2/M"
_symmetry_group_IT_number 12
_symmetry_cell_setting 'monoclinic'
loop_
_space_group_symop_operation_xyz
x,y,z
-x,y,-z
-x,-y,-z
x,-y,z
1/2+x,1/2+y,z
1/2-x,1/2+y,-z
1/2-x,1/2-y,-z
1/2+x,1/2-y,z
loop_
_atom_site_type_symbol
_atom_site_label
_atom_site_fract_x
_atom_site_fract_y
_atom_site_fract_z
Si Si1 0.846555 0.681039 0.396615
Si Si2 0.873619 0.680140 0.657865
Si Si3 0.677257 0.319234 0.758546
Si Si4 0.491265 0.681266 0.373080
Si Si5 0.759017 0.681351 0.417688
Si Si6 0.289139 0.681517 0.985166
Si Si7 0.029611 0.181232 0.789983
O O1 0.846003 0.500000 0.390533
O O2 0.819605 0.756364 0.304603
O O3 0.790804 0.724147 0.388940
O O4 0.934547 0.736545 0.513093
O O5 0.875528 0.500000 0.662799
O O6 0.824859 0.724887 0.542270
O O7 0.822450 0.744791 0.654050
O O8 0.961018 0.744753 0.750727
O O9 0.685852 0.500000 0.769161
O O10 0.590636 0.283489 0.687046
O O11 0.742249 0.244848 0.875198
O O12 0.503317 0.500000 0.390476
O O13 0.483044 0.723257 0.294024
O O14 0.751191 0.500000 0.411006
O O15 0.283548 0.500000 0.981236
O O16 0.250000 0.750000 0.000000
O O17 0.381719 0.722953 0.090255
O O18 0.022708 0.000000 0.785743
#
# Coordination Sequence:
#
# PCOD9181646 Si02
#       7
#     8   8   8   8   8   8   8
#     4  11  22  36  54  81 112 146 185 224 271 325
#     4  10  19  32  53  82 108 138 180 222 269 321
#     4  11  23  39  55  78 110 149 190 226 271 323
#     4  10  20  35  53  77 111 149 182 218 268 326
#     4   9  19  34  51  76 111 143 175 218 270 327
#     4  11  22  38  58  81 108 145 187 229 272 318
#     4  10  20  35  55  79 111 145 178 218 274 325
#
# _framework density 16.665859000000001
#
# number of rings (size 3 to 8) (size 9 to 14) (size 15 to 20)
#    0.000    1.714    2.857    2.143    0.000    5.714 
#    0.000    0.000    0.000    0.857    0.000    6.000 
#    0.000    0.000    0.000    0.000    0.000    0.000 
#
# Total GULP energy -156382.517461 kJ/mol
# GULP energy per Si atom -5585.089909 kJ/mol
# Density = 1.662793 g / cm^3
# Si number density = 16.665859 Si / 1000 Ang^3
#
#
#
# Elastic Constant Matrix: (Units=GPa)
#
#
# Indices 1 2 3 4 5 6 
#
# 1 115.6745 46.9455 86.7561 0.0000 15.8437 0.0000
# 2 46.9455 40.3107 52.1223 0.0000 6.8185 0.0000
# 3 86.7561 52.1223 136.5882 0.0000 4.3259 0.0000
# 4 0.0000 0.0000 0.0000 28.3975 0.0000 0.6827
# 5 15.8437 6.8185 4.3259 0.0000 29.6881 0.0000
# 6 0.0000 0.0000 0.0000 0.6827 0.0000 30.1682
#
#
#
# Elastic Compliance Matrix: (Units=1/GPa)
#
#
# Indices 1 2 3 4 5 6 
#
# 1 0.020863 -0.012345 -0.008316 0.000000 -0.007087 0.000000
# 2 -0.012345 0.058543 -0.014348 0.000000 -0.004766 0.000000
# 3 -0.008316 -0.014348 0.017916 0.000000 0.005123 0.000000
# 4 0.000000 0.000000 0.000000 0.035234 0.000000 -0.000797
# 5 -0.007087 -0.004766 0.005123 0.000000 0.037814 0.000000
# 6 0.000000 0.000000 0.000000 -0.000797 0.000000 0.033166
#
#
# Mechanical properties :
#
#
# Convention : Reuss Voigt Hill
#
# Bulk Modulus (GPa) = 36.62505 73.80235 55.21370
# Shear Modulus (GPa) = 17.68950 24.76739 21.22844
#
# Velocity S-wave (km/s) = 3.26148 3.85920 3.57286
# Velocity P-wave (km/s) = 6.01721 8.01484 7.08676
#
# Compressibility (1/GPa) = 0.02730372
#
# Stress axis : x y z
#
# Youngs Moduli (GPa) = 47.93222 17.08154 55.81580
#
# Poissons Ratio (x) = 0.21088 0.46416
# Poissons Ratio (y) = 0.59174 0.80083
# Poissons Ratio (z) = 0.39860 0.24508
#
# Static dielectric constant tensor:
#      x y z
#    x 1.548700 0.000000 0.001320 
#    y 0.000000 1.555530 0.000000 
#    z 0.001320 0.000000 1.536790 
# 
# From -- ./inp_files/238890.got.cif
#   From: 2010.05.17/outbox.cif.g08.bks.cpg/sg12_120_cif.got.tgz:238890.got - 2010.06.03 13:09:07.
