data_PCOD9181923
_publ_section_title
;
Structure prediction by ZEFSAII (Michael W. Deem and Ramdas Pophale) SiO2 
 PCOD9181923
Probable space group: C 2/M
;
_chemical_formula_sum "Si O2"
_cell_formula_units_Z 56
_cell_length_a 13.200056
_cell_length_b 19.013575
_cell_length_c 12.757748
_cell_angle_alpha 90.000000
_cell_angle_beta 111.506292
_cell_angle_gamma 90.000000
_cell_volume 2979.014984
_symmetry_space_group_name_H-M "C 2/M"
_symmetry_group_IT_number 12
_symmetry_cell_setting 'monoclinic'
loop_
_space_group_symop_operation_xyz
x,y,z
-x,y,-z
-x,-y,-z
x,-y,z
1/2+x,1/2+y,z
1/2-x,1/2+y,-z
1/2-x,1/2-y,-z
1/2+x,1/2-y,z
loop_
_atom_site_type_symbol
_atom_site_label
_atom_site_fract_x
_atom_site_fract_y
_atom_site_fract_z
Si Si1 0.576593 0.203479 0.287723
Si Si2 0.576526 0.921370 0.129842
Si Si3 0.990526 0.918216 0.113583
Si Si4 0.331565 0.356271 0.688133
Si Si5 0.184370 0.836765 0.558289
Si Si6 0.167510 0.917911 0.767410
Si Si7 0.593743 0.189841 0.602869
O O1 0.550029 0.144420 0.192648
O O2 0.618025 0.279397 0.264869
O O3 0.684578 0.173295 0.388094
O O4 0.469866 0.212153 0.317328
O O5 0.705116 0.913959 0.154511
O O6 0.563811 0.000000 0.173776
O O7 0.500000 0.919517 0.000000
O O8 0.104486 0.911081 0.217197
O O9 0.903995 0.887510 0.164385
O O10 0.959314 0.000000 0.088075
O O11 0.000000 0.887282 0.000000
O O12 0.347169 0.364976 0.568293
O O13 0.203175 0.353315 0.661392
O O14 0.152968 0.881259 0.649012
O O15 0.130845 0.760419 0.555732
O O16 0.138561 0.000000 0.743470
O O17 0.500000 0.152083 0.500000
#
# Coordination Sequence:
#
# PCOD9181923 Si02
#       7
#     8   8   8   8   8   8   8
#     4  10  19  33  53  82 114 140 177 224 268 321
#     4   9  19  36  57  80 107 143 185 227 273 320
#     4  10  23  41  56  75 109 148 186 228 271 321
#     4  11  21  34  57  84 109 147 185 222 270 328
#     4  10  19  32  54  84 111 141 176 220 278 327
#     4   9  19  35  57  80 106 140 182 232 275 319
#     4  11  18  32  54  82 111 146 173 213 271 335
#
# _framework density 18.798159999999999
#
# number of rings (size 3 to 8) (size 9 to 14) (size 15 to 20)
#    0.000    2.000    2.857    1.714    0.000    2.286 
#    0.000    3.571    0.000    7.714    0.000    0.000 
#    0.000    0.000    0.000    0.000    0.000    0.000 
#
# Total GULP energy -156047.551415 kJ/mol
# GULP energy per Si atom -5573.126836 kJ/mol
# Density = 1.875537 g / cm^3
# Si number density = 18.798160 Si / 1000 Ang^3
#
#
#
# Elastic Constant Matrix: (Units=GPa)
#
#
# Indices 1 2 3 4 5 6 
#
# 1 102.8413 7.3693 37.6656 0.0000 -16.0146 0.0000
# 2 7.3693 31.6932 28.3468 0.0000 -10.4054 0.0000
# 3 37.6656 28.3468 99.8597 0.0000 -10.3107 0.0000
# 4 0.0000 0.0000 0.0000 27.1225 0.0000 5.0784
# 5 -16.0146 -10.4054 -10.3107 0.0000 26.0683 0.0000
# 6 0.0000 0.0000 0.0000 5.0784 0.0000 17.8721
#
#
#
# Elastic Compliance Matrix: (Units=1/GPa)
#
#
# Indices 1 2 3 4 5 6 
#
# 1 0.012423 0.004032 -0.005084 0.000000 0.007230 0.000000
# 2 0.004032 0.048017 -0.013466 0.000000 0.016317 0.000000
# 3 -0.005084 -0.013466 0.015510 0.000000 -0.002364 0.000000
# 4 0.000000 0.000000 0.000000 0.038942 0.000000 -0.011065
# 5 0.007230 0.016317 -0.002364 0.000000 0.048381 0.000000
# 6 0.000000 0.000000 0.000000 -0.011065 0.000000 0.059097
#
#
# Mechanical properties :
#
#
# Convention : Reuss Voigt Hill
#
# Bulk Modulus (GPa) = 21.31579 42.35085 31.83332
# Shear Modulus (GPa) = 18.72360 24.94675 21.83518
#
# Velocity S-wave (km/s) = 3.15942 3.64687 3.41186
# Velocity P-wave (km/s) = 4.96721 6.34910 5.70019
#
# Compressibility (1/GPa) = 0.04691358
#
# Stress axis : x y z
#
# Youngs Moduli (GPa) = 80.49844 20.82615 64.47386
#
# Poissons Ratio (x) = -0.08398 0.32776
# Poissons Ratio (y) = -0.32459 0.86823
# Poissons Ratio (z) = 0.40923 0.28045
#
# Static dielectric constant tensor:
#      x y z
#    x 1.681580 0.000000 -0.015540 
#    y 0.000000 1.657620 0.000000 
#    z -0.015540 0.000000 1.671540 
# 
# From -- ./inp_files/133294.got.cif
#   From: 2010.05.17/outbox.cif.g08.bks.cpg/sg12_67_cif.got.tgz:133294.got - 2010.06.03 13:09:07.
