data_PCOD9181963
_publ_section_title
;
Structure prediction by ZEFSAII (Michael W. Deem and Ramdas Pophale) SiO2 
 PCOD9181963
Probable space group: C 2/M
;
_chemical_formula_sum "Si O2"
_cell_formula_units_Z 56
_cell_length_a 13.838883
_cell_length_b 27.869033
_cell_length_c 10.263725
_cell_angle_alpha 90.000000
_cell_angle_beta 31.387689
_cell_angle_gamma 90.000000
_cell_volume 2061.677751
_symmetry_space_group_name_H-M "C 2/M"
_symmetry_group_IT_number 12
_symmetry_cell_setting 'monoclinic'
loop_
_space_group_symop_operation_xyz
x,y,z
-x,y,-z
-x,-y,-z
x,-y,z
1/2+x,1/2+y,z
1/2-x,1/2+y,-z
1/2-x,1/2-y,-z
1/2+x,1/2-y,z
loop_
_atom_site_type_symbol
_atom_site_label
_atom_site_fract_x
_atom_site_fract_y
_atom_site_fract_z
Si Si1 0.300739 0.812369 0.163298
Si Si2 0.663001 0.705845 0.917951
Si Si3 0.703661 0.056345 0.791017
Si Si4 0.663590 0.946154 0.127978
Si Si5 0.531559 0.847085 0.292728
Si Si6 0.652903 0.661650 0.600542
Si Si7 0.432894 0.445107 0.262852
O O1 0.243786 0.757461 0.205195
O O2 0.194303 0.841859 0.397269
O O3 0.500000 0.805308 0.000000
O O4 0.337610 0.836980 0.984037
O O5 0.832743 0.669929 0.747299
O O6 0.500000 0.696568 0.000000
O O7 0.516990 0.699110 0.204117
O O8 0.846268 0.058160 0.508764
O O9 0.670509 0.000000 0.837938
O O10 0.500000 0.079679 0.000000
O O11 0.752049 0.066166 0.884433
O O12 0.515775 0.904716 0.323486
O O13 0.584184 0.000000 0.219403
O O14 0.844508 0.945956 0.008987
O O15 0.339856 0.822713 0.463807
O O16 0.609201 0.610844 0.721433
O O17 0.374027 0.500000 0.286410
#
# Coordination Sequence:
#
# PCOD9181963 Si02
#       7
#     8   8   8   8   8   8   8
#     4   9  22  41  65  98 130 165 217 268 330 400
#     4  11  25  46  66  93 132 171 223 279 327 385
#     4   9  16  25  41  73 119 163 203 247 302 377
#     4  10  19  32  54  87 129 171 213 263 319 390
#     4  11  22  40  66  98 131 171 222 263 330 397
#     4  11  23  42  69  98 134 174 214 273 327 391
#     4  10  19  33  56  89 128 173 212 255 326 394
#
# _framework density 27.162344999999998
#
# number of rings (size 3 to 8) (size 9 to 14) (size 15 to 20)
#    0.000    1.857    1.429    2.571    0.000   10.857 
#    0.000    4.286    0.000    1.714    0.000    2.000 
#    0.000    0.000    0.000    0.000    0.000    0.000 
#
# Total GULP energy -156015.614648 kJ/mol
# GULP energy per Si atom -5571.986237 kJ/mol
# Density = 2.710052 g / cm^3
# Si number density = 27.162345 Si / 1000 Ang^3
#
#
#
# Elastic Constant Matrix: (Units=GPa)
#
#
# Indices 1 2 3 4 5 6 
#
# 1 69.1012 21.3223 19.1621 0.0000 -14.9130 0.0000
# 2 21.3223 165.7385 12.8340 0.0000 -16.2114 0.0000
# 3 19.1621 12.8340 90.1394 0.0000 -24.8393 0.0000
# 4 0.0000 0.0000 0.0000 147.1347 0.0000 -12.3377
# 5 -14.9130 -16.2114 -24.8393 0.0000 28.2243 0.0000
# 6 0.0000 0.0000 0.0000 -12.3377 0.0000 23.1772
#
#
#
# Elastic Compliance Matrix: (Units=1/GPa)
#
#
# Indices 1 2 3 4 5 6 
#
# 1 0.016771 -0.001382 -0.001512 0.000000 0.006737 0.000000
# 2 -0.001382 0.006508 0.000259 0.000000 0.003236 0.000000
# 3 -0.001512 0.000259 0.014785 0.000000 0.012361 0.000000
# 4 0.000000 0.000000 0.000000 0.007114 0.000000 0.003787
# 5 0.006737 0.003236 0.012361 0.000000 0.051728 0.000000
# 6 0.000000 0.000000 0.000000 0.003787 0.000000 0.045162
#
#
# Mechanical properties :
#
#
# Convention : Reuss Voigt Hill
#
# Bulk Modulus (GPa) = 30.49317 47.95732 39.22524
# Shear Modulus (GPa) = 31.59196 57.81795 44.70495
#
# Velocity S-wave (km/s) = 3.41409 4.61869 4.06130
# Velocity P-wave (km/s) = 5.17610 6.79244 6.03859
#
# Compressibility (1/GPa) = 0.03279423
#
# Stress axis : x y z
#
# Youngs Moduli (GPa) = 59.62644 153.66196 67.63661
#
# Poissons Ratio (x) = 0.21229 0.10227
# Poissons Ratio (y) = 0.08238 -0.01750
# Poissons Ratio (z) = 0.09015 -0.03976
#
# Static dielectric constant tensor:
#      x y z
#    x 2.352610 0.000000 0.095680 
#    y 0.000000 2.134800 0.000000 
#    z 0.095680 0.000000 2.272310 
# 
# From -- ./inp_files/150433.got.cif
#   From: 2010.05.17/outbox.cif.g08.bks.cpg/sg12_76_cif.got.tgz:150433.got - 2010.06.03 13:09:07.
