data_PCOD9181599
_publ_section_title
;
Structure prediction by ZEFSAII (Michael W. Deem and Ramdas Pophale) SiO2 
 PCOD9181599
Probable space group: C 2/M
;
_chemical_formula_sum "Si O2"
_cell_formula_units_Z 56
_cell_length_a 16.932714
_cell_length_b 15.631193
_cell_length_c 22.924117
_cell_angle_alpha 90.000000
_cell_angle_beta 150.663920
_cell_angle_gamma 90.000000
_cell_volume 2972.669906
_symmetry_space_group_name_H-M "C 2/M"
_symmetry_group_IT_number 12
_symmetry_cell_setting 'monoclinic'
loop_
_space_group_symop_operation_xyz
x,y,z
-x,y,-z
-x,-y,-z
x,-y,z
1/2+x,1/2+y,z
1/2-x,1/2+y,-z
1/2-x,1/2-y,-z
1/2+x,1/2-y,z
loop_
_atom_site_type_symbol
_atom_site_label
_atom_site_fract_x
_atom_site_fract_y
_atom_site_fract_z
Si Si1 0.804747 0.594857 0.281469
Si Si2 0.732270 0.156231 0.873343
Si Si3 0.500145 0.776042 0.187820
Si Si4 0.116224 0.664400 0.007187
Si Si5 0.546622 0.591453 0.885236
Si Si6 0.743915 0.097973 0.196345
Si Si7 0.858576 0.223213 0.365699
O O1 0.876969 0.500000 0.337864
O O2 0.788918 0.613391 0.202504
O O3 0.625406 0.593265 0.192719
O O4 0.883903 0.678432 0.361668
O O5 0.562482 0.186045 0.792011
O O6 0.846571 0.240612 0.943823
O O7 0.821898 0.099184 0.978971
O O8 0.394001 0.821566 0.068594
O O9 0.456936 0.675776 0.156479
O O10 0.686253 0.784642 0.288465
O O11 0.939966 0.625313 0.906412
O O12 0.243334 0.609111 0.125879
O O13 0.565160 0.500000 0.866892
O O14 0.848563 0.163622 0.301762
O O15 0.773776 0.000000 0.231592
O O16 0.000000 0.197076 0.500000
#
# Coordination Sequence:
#
# PCOD9181599 Si02
#       7
#     8   8   8   8   8   8   8
#     4  10  20  34  56  82 109 142 184 227 269 325
#     4  11  18  30  50  81 117 146 171 212 276 333
#     4   9  20  33  51  79 112 144 175 219 274 323
#     4   9  16  29  50  76 111 141 165 207 261 321
#     4   9  17  29  49  79 112 146 180 211 258 324
#     4  10  19  32  53  81 106 139 185 222 256 310
#     4  10  21  40  60  77  99 143 190 237 274 311
#
# _framework density 18.838284000000002
#
# number of rings (size 3 to 8) (size 9 to 14) (size 15 to 20)
#    0.000    2.286    1.429    4.286    4.000    1.714 
#    0.000   13.571    0.000    0.000    0.000    0.000 
#    0.000    0.000    0.000    0.000    0.000    0.000 
#
# Total GULP energy -155976.816643 kJ/mol
# GULP energy per Si atom -5570.600594 kJ/mol
# Density = 1.879541 g / cm^3
# Si number density = 18.838284 Si / 1000 Ang^3
#
#
#
# Elastic Constant Matrix: (Units=GPa)
#
#
# Indices 1 2 3 4 5 6 
#
# 1 52.0648 16.4263 7.5550 0.0006 -1.6641 0.0002
# 2 16.4263 107.1783 23.5096 0.0012 -6.5024 0.0003
# 3 7.5550 23.5096 86.9419 0.0015 -6.0317 0.0005
# 4 0.0006 0.0012 0.0015 6.2525 0.0005 -1.2169
# 5 -1.6641 -6.5024 -6.0317 0.0005 15.8245 0.0002
# 6 0.0002 0.0003 0.0005 -1.2169 0.0002 7.0907
#
#
#
# Elastic Compliance Matrix: (Units=1/GPa)
#
#
# Indices 1 2 3 4 5 6 
#
# 1 0.020266 -0.002863 -0.000946 -0.000001 0.000594 0.000000
# 2 -0.002863 0.010477 -0.002369 -0.000001 0.003101 -0.000001
# 3 -0.000946 -0.002369 0.012480 -0.000003 0.003684 -0.000001
# 4 -0.000001 -0.000001 -0.000003 0.165464 -0.000007 0.028396
# 5 0.000594 0.003101 0.003684 -0.000007 0.065934 -0.000003
# 6 0.000000 -0.000001 -0.000001 0.028396 -0.000003 0.145903
#
#
# Mechanical properties :
#
#
# Convention : Reuss Voigt Hill
#
# Bulk Modulus (GPa) = 32.39550 37.90742 35.15146
# Shear Modulus (GPa) = 11.28238 19.07980 15.18109
#
# Velocity S-wave (km/s) = 2.44991 3.18594 2.84185
# Velocity P-wave (km/s) = 5.02362 5.80515 5.42847
#
# Compressibility (1/GPa) = 0.03086849
#
# Stress axis : x y z
#
# Youngs Moduli (GPa) = 49.34322 95.44943 80.12611
#
# Poissons Ratio (x) = 0.27322 0.07578
# Poissons Ratio (y) = 0.14125 0.18983
# Poissons Ratio (z) = 0.04667 0.22613
#
# Static dielectric constant tensor:
#      x y z
#    x 1.730120 0.000000 -0.006670 
#    y 0.000000 1.713090 0.000000 
#    z -0.006670 0.000000 1.615530 
# 
# From -- ./inp_files/316785.got.cif
#   From: 2010.05.17/outbox.cif.g08.bks.cpg/sg12_159_cif.got.tgz:316785.got - 2010.06.03 13:09:07.
