data_PCOD9181970
_publ_section_title
;
Structure prediction by ZEFSAII (Michael W. Deem and Ramdas Pophale) SiO2 
 PCOD9181970
Probable space group: C 2/M
;
_chemical_formula_sum "Si O2"
_cell_formula_units_Z 64
_cell_length_a 14.185206
_cell_length_b 17.039799
_cell_length_c 14.956491
_cell_angle_alpha 90.000000
_cell_angle_beta 85.538131
_cell_angle_gamma 90.000000
_cell_volume 3604.222771
_symmetry_space_group_name_H-M "C 2/M"
_symmetry_group_IT_number 12
_symmetry_cell_setting 'monoclinic'
loop_
_space_group_symop_operation_xyz
x,y,z
-x,y,-z
-x,-y,-z
x,-y,z
1/2+x,1/2+y,z
1/2-x,1/2+y,-z
1/2-x,1/2-y,-z
1/2+x,1/2-y,z
loop_
_atom_site_type_symbol
_atom_site_label
_atom_site_fract_x
_atom_site_fract_y
_atom_site_fract_z
Si Si1 0.786488 0.336857 0.023878
Si Si2 0.162767 0.588549 0.726974
Si Si3 0.503666 0.908295 0.603647
Si Si4 0.454605 0.190365 0.127391
Si Si5 0.233633 0.085228 0.846181
Si Si6 0.845158 0.135136 0.794574
Si Si7 0.882928 0.314554 0.756200
Si Si8 0.521824 0.378325 0.893660
O O1 0.896499 0.336460 0.044318
O O2 0.722485 0.357974 0.113550
O O3 0.750000 0.250000 0.000000
O O4 0.764096 0.393860 0.944605
O O5 0.138096 0.500000 0.762931
O O6 0.115017 0.657144 0.789839
O O7 0.275774 0.596241 0.727011
O O8 0.110049 0.596107 0.636124
O O9 0.500000 0.887271 0.500000
O O10 0.437026 0.853537 0.669428
O O11 0.474313 0.000000 0.615006
O O12 0.555504 0.163956 0.159273
O O13 0.464604 0.283817 0.115179
O O14 0.279880 0.149640 0.779032
O O15 0.121171 0.087246 0.856530
O O16 0.269920 0.000000 0.817283
O O17 0.874239 0.220925 0.756240
O O18 0.938931 0.098117 0.831235
O O19 0.500000 0.396058 0.000000
#
# Coordination Sequence:
#
# PCOD9181970 Si02
#       8
#     8   8   8   8   8   8   8   8
#     4  11  17  33  49  68  97 138 184 211 252 301
#     4   9  18  33  53  79 106 130 167 212 260 317
#     4   9  18  36  61  84 107 132 158 202 270 337
#     4   9  19  31  54  69  92 132 174 215 256 305
#     4  12  24  33  46  72 105 137 179 228 260 291
#     4  10  19  32  55  72 100 144 181 216 255 294
#     4  10  20  35  53  79 104 132 171 213 262 317
#     4  11  20  35  51  66  93 143 195 220 244 294
#
# _framework density 17.756948000000001
#
# number of rings (size 3 to 8) (size 9 to 14) (size 15 to 20)
#    0.000    1.875    3.750    1.125    1.750    3.250 
#    0.000    1.250    0.000    0.000    0.000    0.000 
#    0.000    4.500    0.000    0.000    0.000    0.000 
#
# Total GULP energy -178244.738247 kJ/mol
# GULP energy per Si atom -5570.148070 kJ/mol
# Density = 1.771653 g / cm^3
# Si number density = 17.756948 Si / 1000 Ang^3
#
#
#
# Elastic Constant Matrix: (Units=GPa)
#
#
# Indices 1 2 3 4 5 6 
#
# 1 113.6131 15.4399 36.0296 0.0000 16.3418 0.0000
# 2 15.4399 45.4115 22.7817 0.0000 -1.8162 0.0000
# 3 36.0296 22.7817 89.6049 0.0000 11.2855 0.0000
# 4 0.0000 0.0000 0.0000 -6.6206 0.0000 6.1948
# 5 16.3418 -1.8162 11.2855 0.0000 21.8845 0.0000
# 6 0.0000 0.0000 0.0000 6.1948 0.0000 15.8365
#
#
#
# Elastic Compliance Matrix: (Units=1/GPa)
#
#
# Indices 1 2 3 4 5 6 
#
# 1 0.011084 -0.002583 -0.002920 0.000000 -0.006985 0.000000
# 2 -0.002583 0.026545 -0.006663 0.000000 0.007568 0.000000
# 3 -0.002920 -0.006663 0.014784 0.000000 -0.005996 0.000000
# 4 0.000000 0.000000 0.000000 -0.110573 0.000000 0.043253
# 5 -0.006985 0.007568 -0.005996 0.000000 0.054630 0.000000
# 6 0.000000 0.000000 0.000000 0.043253 0.000000 0.046226
#
#
# Mechanical properties :
#
#
# Convention : Reuss Voigt Hill
#
# Bulk Modulus (GPa) = 35.61402 44.12574 39.86988
# Shear Modulus (GPa) = 65.45562 17.84531 41.65046
#
# Velocity S-wave (km/s) = 6.07799 3.17358 4.84838
# Velocity P-wave (km/s) = 8.32802 6.19133 7.33786
#
# Compressibility (1/GPa) = 0.02807883
#
# Stress axis : x y z
#
# Youngs Moduli (GPa) = 90.22371 37.67253 67.64216
#
# Poissons Ratio (x) = 0.09730 0.19753
# Poissons Ratio (y) = 0.23302 0.45073
# Poissons Ratio (z) = 0.26348 0.25103
#
# Static dielectric constant tensor:
#      x y z
#    x 1.670650 0.000000 0.029470 
#    y 0.000000 1.603530 0.000000 
#    z 0.029470 0.000000 1.601710 
# 
# From -- ./inp_files/215894.got.cif
#   From: 2010.05.17/outbox.cif.g08.bks.cpg/sg12_108_cif.got.tgz:215894.got - 2010.06.03 13:09:07.
