data_PCOD9181200
_publ_section_title
;
Structure prediction by ZEFSAII (Michael W. Deem and Ramdas Pophale) SiO2 
 PCOD9181200
Probable space group: C 2/M
;
_chemical_formula_sum "Si O2"
_cell_formula_units_Z 64
_cell_length_a 15.375204
_cell_length_b 13.787072
_cell_length_c 25.197050
_cell_angle_alpha 90.000000
_cell_angle_beta 34.382883
_cell_angle_gamma 90.000000
_cell_volume 3016.311320
_symmetry_space_group_name_H-M "C 2/M"
_symmetry_group_IT_number 12
_symmetry_cell_setting 'monoclinic'
loop_
_space_group_symop_operation_xyz
x,y,z
-x,y,-z
-x,-y,-z
x,-y,z
1/2+x,1/2+y,z
1/2-x,1/2+y,-z
1/2-x,1/2-y,-z
1/2+x,1/2-y,z
loop_
_atom_site_type_symbol
_atom_site_label
_atom_site_fract_x
_atom_site_fract_y
_atom_site_fract_z
Si Si1 0.662075 0.743339 0.304443
Si Si2 0.501832 0.384780 0.246018
Si Si3 0.796829 0.721212 0.590740
Si Si4 0.998603 0.210272 0.136969
Si Si5 0.662110 0.887239 0.934217
Si Si6 0.414467 0.892247 0.439677
Si Si7 0.405814 0.390930 0.461288
Si Si8 0.702240 0.887367 0.041872
O O1 0.687967 0.764863 0.354438
O O2 0.535738 0.821860 0.350701
O O3 0.563777 0.644115 0.353650
O O4 0.833952 0.758565 0.195894
O O5 0.480706 0.500000 0.268940
O O6 0.377342 0.312507 0.332668
O O7 0.479684 0.368635 0.193607
O O8 0.675998 0.351582 0.170303
O O9 0.891765 0.638929 0.511922
O O10 0.857066 0.817991 0.532320
O O11 0.074695 0.308524 0.123702
O O12 0.130093 0.161849 0.033682
O O13 0.656947 0.000000 0.919284
O O14 0.500000 0.841260 0.000000
O O15 0.678329 0.887728 0.989785
O O16 0.244099 0.885963 0.500800
O O17 0.473234 0.000000 0.405790
O O18 0.424402 0.500000 0.470694
O O19 0.690906 0.000000 0.065191
#
# Coordination Sequence:
#
# PCOD9181200 Si02
#       8
#     8   8   8   8   8   8   8   8
#     4  10  20  32  51  77  99 126 173 218 246 294
#     4   9  17  30  49  72 100 125 154 205 253 290
#     4  10  19  32  52  77  97 126 172 213 249 296
#     4   9  18  31  48  73 100 126 164 202 251 295
#     4   8  14  27  44  67  95 124 156 189 236 292
#     4  10  20  34  51  71 102 137 165 204 256 304
#     4  10  21  37  51  67 103 143 167 203 257 305
#     4   9  17  31  49  69 102 133 158 200 249 298
#
# _framework density 21.217969
#
# number of rings (size 3 to 8) (size 9 to 14) (size 15 to 20)
#    0.000    2.625    0.000    4.500    0.000    5.000 
#    4.500    1.875    0.000    0.000    0.000    0.000 
#    0.000    8.250    0.000    0.000    0.000    0.000 
#
# Total GULP energy -178249.301028 kJ/mol
# GULP energy per Si atom -5570.290657 kJ/mol
# Density = 2.116968 g / cm^3
# Si number density = 21.217969 Si / 1000 Ang^3
#
#
#
# Elastic Constant Matrix: (Units=GPa)
#
#
# Indices 1 2 3 4 5 6 
#
# 1 47.1720 15.7720 22.7838 -0.0001 -25.4023 0.0000
# 2 15.7720 116.8357 28.7152 -0.0001 -22.1107 0.0000
# 3 22.7838 28.7152 98.2092 -0.0008 -46.5311 0.0002
# 4 -0.0001 -0.0001 -0.0008 14.1512 0.0001 -1.3532
# 5 -25.4023 -22.1107 -46.5311 0.0001 40.5798 0.0000
# 6 0.0000 0.0000 0.0002 -1.3532 0.0000 4.8608
#
#
#
# Elastic Compliance Matrix: (Units=1/GPa)
#
#
# Indices 1 2 3 4 5 6 
#
# 1 0.032984 -0.000759 0.004722 0.000000 0.025648 0.000000
# 2 -0.000759 0.009584 -0.000826 0.000000 0.003800 0.000000
# 3 0.004722 -0.000826 0.023024 0.000001 0.028907 -0.000001
# 4 0.000000 0.000000 0.000001 0.072598 0.000001 0.020211
# 5 0.025648 0.003800 0.028907 0.000001 0.075914 -0.000001
# 6 0.000000 0.000000 -0.000001 0.020211 -0.000001 0.211353
#
#
# Mechanical properties :
#
#
# Convention : Reuss Voigt Hill
#
# Bulk Modulus (GPa) = 13.91493 44.08432 28.99963
# Shear Modulus (GPa) = 11.28315 24.91476 18.09895
#
# Velocity S-wave (km/s) = 2.30852 3.43042 2.92379
# Velocity P-wave (km/s) = 3.69838 6.04255 5.00951
#
# Compressibility (1/GPa) = 0.07186525
#
# Stress axis : x y z
#
# Youngs Moduli (GPa) = 30.31796 104.34564 43.43250
#
# Poissons Ratio (x) = 0.07923 -0.20508
# Poissons Ratio (y) = 0.02302 0.03586
# Poissons Ratio (z) = -0.14316 0.08616
#
# Static dielectric constant tensor:
#      x y z
#    x 1.830670 0.000000 -0.024580 
#    y 0.000000 1.766530 0.000000 
#    z -0.024580 0.000000 1.837810 
# 
# From -- ./inp_files/379340.got.cif
#   From: 2010.05.17/outbox.cif.g08.bks.cpg/sg12_190_cif.got.tgz:379340.got - 2010.06.03 13:09:07.
