data_PCOD9181713
_publ_section_title
;
Structure prediction by ZEFSAII (Michael W. Deem and Ramdas Pophale) SiO2 
 PCOD9181713
Probable space group: C 2/M
;
_chemical_formula_sum "Si O2"
_cell_formula_units_Z 48
_cell_length_a 20.713647
_cell_length_b 7.452304
_cell_length_c 29.994559
_cell_angle_alpha 90.000000
_cell_angle_beta 146.974938
_cell_angle_gamma 90.000000
_cell_volume 2523.427096
_symmetry_space_group_name_H-M "C 2/M"
_symmetry_group_IT_number 12
_symmetry_cell_setting 'monoclinic'
loop_
_space_group_symop_operation_xyz
x,y,z
-x,y,-z
-x,-y,-z
x,-y,z
1/2+x,1/2+y,z
1/2-x,1/2+y,-z
1/2-x,1/2-y,-z
1/2+x,1/2-y,z
loop_
_atom_site_type_symbol
_atom_site_label
_atom_site_fract_x
_atom_site_fract_y
_atom_site_fract_z
Si Si1 0.377253 0.705909 0.210305
Si Si2 0.821711 0.716009 0.763671
Si Si3 0.877903 0.717103 0.694377
Si Si4 0.443636 0.500000 0.895869
Si Si5 0.570176 0.717769 0.658060
Si Si6 0.311768 0.500000 0.914905
Si Si7 0.189902 0.785303 0.512908
O O1 0.338064 0.500000 0.191457
O O2 0.495563 0.716274 0.249469
O O3 0.411369 0.772472 0.279836
O O4 0.273660 0.828690 0.131309
O O5 0.833968 0.500000 0.776350
O O6 0.850914 0.763543 0.729688
O O7 0.904852 0.826540 0.845081
O O8 0.686328 0.765902 0.697458
O O9 0.881331 0.500000 0.693720
O O10 0.775170 0.782249 0.601388
O O11 0.371027 0.500000 0.900152
O O12 0.581487 0.500000 0.988316
O O13 0.564139 0.500000 0.654977
O O14 0.444719 0.783505 0.566707
O O15 0.250000 0.750000 0.500000
O O16 0.183024 0.000000 0.514619
#
# Coordination Sequence:
#
# PCOD9181713 Si02
#       7
#     8   8   8   4   8   4   8
#     4  11  21  37  63  89 120 161 199 246 301 362
#     4  10  22  41  62  87 123 165 197 246 307 365
#     4  10  21  36  60  88 123 166 205 244 299 355
#     4  11  24  42  68  92 119 151 196 259 310 368
#     4   9  18  34  57  85 118 159 204 241 293 352
#     4  11  24  42  66  97 116 145 205 257 305 369
#     4  10  19  32  53  86 121 159 204 252 288 339
#
# _framework density 19.021750000000001
#
# number of rings (size 3 to 8) (size 9 to 14) (size 15 to 20)
#    0.000    1.833    4.167    0.000    1.167    1.333 
#    1.500    5.833    0.000    1.000    0.000    0.000 
#    0.000    0.000    0.000    0.000    0.000    0.000 
#
# Total GULP energy -134072.658320 kJ/mol
# GULP energy per Si atom -5586.360763 kJ/mol
# Density = 1.897846 g / cm^3
# Si number density = 19.021750 Si / 1000 Ang^3
#
#
#
# Elastic Constant Matrix: (Units=GPa)
#
#
# Indices 1 2 3 4 5 6 
#
# 1 133.7335 23.1128 76.9305 -0.0003 6.6461 -0.0005
# 2 23.1128 85.0276 54.7757 -0.0004 3.7039 0.0003
# 3 76.9305 54.7757 193.1826 0.0000 17.0556 0.0000
# 4 -0.0003 -0.0004 0.0000 4.6520 0.0000 -12.9165
# 5 6.6461 3.7039 17.0556 0.0000 29.4367 0.0001
# 6 -0.0005 0.0003 0.0000 -12.9165 0.0001 14.1872
#
#
#
# Elastic Compliance Matrix: (Units=1/GPa)
#
#
# Indices 1 2 3 4 5 6 
#
# 1 0.009702 -0.000181 -0.003816 -0.000001 0.000043 -0.000001
# 2 -0.000181 0.014402 -0.004063 0.000000 0.000583 -0.000001
# 3 -0.003816 -0.004063 0.008144 0.000000 -0.003346 0.000000
# 4 -0.000001 0.000000 0.000000 -0.140695 0.000000 -0.128093
# 5 0.000043 0.000583 -0.003346 0.000000 0.035827 0.000000
# 6 -0.000001 -0.000001 0.000000 -0.128093 0.000000 -0.046134
#
#
# Mechanical properties :
#
#
# Convention : Reuss Voigt Hill
#
# Bulk Modulus (GPa) = 62.00539 80.17577 71.09058
# Shear Modulus (GPa) = -51.40942 26.79682 -12.30630
#
# Velocity S-wave (km/s) = -5.20436 3.75740 -2.54630
# Velocity P-wave (km/s) = 1.85631 7.81442 5.36746
#
# Compressibility (1/GPa) = 0.01612763
#
# Stress axis : x y z
#
# Youngs Moduli (GPa) = 103.07280 69.43418 122.79613
#
# Poissons Ratio (x) = 0.01255 0.46861
# Poissons Ratio (y) = 0.01863 0.49894
# Poissons Ratio (z) = 0.39334 0.28212
#
# Static dielectric constant tensor:
#      x y z
#    x 1.629890 0.000000 0.001420 
#    y 0.000000 1.699180 0.000000 
#    z 0.001420 0.000000 1.634800 
# 
# From -- ./inp_files/230471.got.cif
#   From: 2010.05.17/outbox.cif.g08.bks.cpg/sg12_116_cif.got.tgz:230471.got - 2010.06.03 13:09:07.
