data_PCOD9182995
_publ_section_title
;
Structure prediction by ZEFSAII (Michael W. Deem and Ramdas Pophale) SiO2 
 PCOD9182995
Probable space group: C 2/M
;
_chemical_formula_sum "Si O2"
_cell_formula_units_Z 64
_cell_length_a 11.462416
_cell_length_b 22.056122
_cell_length_c 22.515908
_cell_angle_alpha 90.000000
_cell_angle_beta 142.228682
_cell_angle_gamma 90.000000
_cell_volume 3486.655056
_symmetry_space_group_name_H-M "C 2/M"
_symmetry_group_IT_number 12
_symmetry_cell_setting 'monoclinic'
loop_
_space_group_symop_operation_xyz
x,y,z
-x,y,-z
-x,-y,-z
x,-y,z
1/2+x,1/2+y,z
1/2-x,1/2+y,-z
1/2-x,1/2-y,-z
1/2+x,1/2-y,z
loop_
_atom_site_type_symbol
_atom_site_label
_atom_site_fract_x
_atom_site_fract_y
_atom_site_fract_z
Si Si1 0.571824 0.573299 0.214190
Si Si2 0.930266 0.391731 0.701766
Si Si3 0.347259 0.572977 0.888659
Si Si4 0.005941 0.428741 0.595595
Si Si5 0.184208 0.155172 0.432950
Si Si6 0.680836 0.569181 0.707464
Si Si7 0.823606 0.426769 0.889783
Si Si8 0.222903 0.777841 0.575083
O O1 0.574127 0.500000 0.220391
O O2 0.572247 0.587003 0.144363
O O3 0.775904 0.593554 0.321514
O O4 0.381385 0.595550 0.169143
O O5 0.788736 0.427121 0.688405
O O6 0.842208 0.324534 0.662752
O O7 0.143392 0.395418 0.812852
O O8 0.947499 0.419303 0.641978
O O9 0.313635 0.500000 0.877569
O O10 0.500000 0.588621 0.000000
O O11 0.996322 0.500000 0.578574
O O12 0.858694 0.391126 0.497505
O O13 0.222736 0.189541 0.510824
O O14 0.186777 0.211129 0.388871
O O15 0.992870 0.116084 0.359632
O O16 0.610914 0.500000 0.688792
O O17 0.824717 0.583886 0.819640
O O18 0.823567 0.500000 0.897174
O O19 0.000000 0.403648 0.000000
O O20 0.000000 0.772632 0.500000
#
# Coordination Sequence:
#
# PCOD9182995 Si02
#       8
#     8   8   8   8   8   8   8   8
#     4   8  15  29  44  65 104 145 178 211 259 328
#     4  10  19  33  53  82 114 148 179 229 278 328
#     4   9  17  28  50  82 112 142 180 226 279 336
#     4   9  17  31  52  79 112 142 172 222 288 335
#     4  10  21  34  54  80 105 144 185 228 269 330
#     4  11  21  33  54  86 117 141 180 229 286 343
#     4   9  19  32  47  70 107 151 179 209 266 336
#     4  10  20  38  54  73 107 147 193 226 266 319
#
# _framework density 18.355702000000001
#
# number of rings (size 3 to 8) (size 9 to 14) (size 15 to 20)
#    0.000    2.500    1.250    2.250    1.750    1.000 
#    0.000    1.875    0.000    4.500    0.000    1.750 
#    0.000    0.000    0.000    0.000    0.000    0.000 
#
# Total GULP energy -178425.454759 kJ/mol
# GULP energy per Si atom -5575.795461 kJ/mol
# Density = 1.831392 g / cm^3
# Si number density = 18.355702 Si / 1000 Ang^3
#
#
#
# Elastic Constant Matrix: (Units=GPa)
#
#
# Indices 1 2 3 4 5 6 
#
# 1 60.3371 19.9874 31.8071 0.0001 11.7244 0.0000
# 2 19.9874 82.3156 39.4476 0.0001 2.4193 -0.0001
# 3 31.8071 39.4476 88.8300 0.0005 1.1075 -0.0001
# 4 0.0001 0.0001 0.0005 23.0190 0.0003 19.4276
# 5 11.7244 2.4193 1.1075 0.0003 25.1997 0.0000
# 6 0.0000 -0.0001 -0.0001 19.4276 0.0000 36.8860
#
#
#
# Elastic Compliance Matrix: (Units=1/GPa)
#
#
# Indices 1 2 3 4 5 6 
#
# 1 0.023006 -0.001778 -0.007321 0.000000 -0.010211 0.000000
# 2 -0.001778 0.015605 -0.006288 0.000000 -0.000395 0.000000
# 3 -0.007321 -0.006288 0.016631 -0.000001 0.003279 0.000000
# 4 0.000000 0.000000 -0.000001 0.078207 -0.000001 -0.041191
# 5 -0.010211 -0.000395 0.003279 -0.000001 0.044328 0.000000
# 6 0.000000 0.000000 0.000000 -0.041191 0.000000 0.048806
#
#
# Mechanical properties :
#
#
# Convention : Reuss Voigt Hill
#
# Bulk Modulus (GPa) = 40.87064 45.99633 43.43349
# Shear Modulus (GPa) = 18.83156 26.37032 22.60094
#
# Velocity S-wave (km/s) = 3.20648 3.79440 3.51276
# Velocity P-wave (km/s) = 6.00191 6.65653 6.33768
#
# Compressibility (1/GPa) = 0.02446744
#
# Stress axis : x y z
#
# Youngs Moduli (GPa) = 43.46713 64.08112 60.13034
#
# Poissons Ratio (x) = 0.11392 0.44021
# Poissons Ratio (y) = 0.07727 0.37813
# Poissons Ratio (z) = 0.31822 0.40297
#
# Static dielectric constant tensor:
#      x y z
#    x 1.682180 0.000000 -0.011910 
#    y 0.000000 1.620610 0.000000 
#    z -0.011910 0.000000 1.629050 
# 
# From -- ./inp_files/359143.got.cif
#   From: 2010.05.17/outbox.cif.g08.bks.cpg/sg12_180_cif.got.tgz:359143.got - 2010.06.03 13:09:07.
