data_PCOD9182039
_publ_section_title
;
Structure prediction by ZEFSAII (Michael W. Deem and Ramdas Pophale) SiO2 
 PCOD9182039
Probable space group: C 2/M
;
_chemical_formula_sum "Si O2"
_cell_formula_units_Z 64
_cell_length_a 25.862893
_cell_length_b 8.343672
_cell_length_c 14.846753
_cell_angle_alpha 90.000000
_cell_angle_beta 90.552734
_cell_angle_gamma 90.000000
_cell_volume 3203.653963
_symmetry_space_group_name_H-M "C 2/M"
_symmetry_group_IT_number 12
_symmetry_cell_setting 'monoclinic'
loop_
_space_group_symop_operation_xyz
x,y,z
-x,y,-z
-x,-y,-z
x,-y,z
1/2+x,1/2+y,z
1/2-x,1/2+y,-z
1/2-x,1/2-y,-z
1/2+x,1/2-y,z
loop_
_atom_site_type_symbol
_atom_site_label
_atom_site_fract_x
_atom_site_fract_y
_atom_site_fract_z
Si Si1 0.517685 0.803850 0.599581
Si Si2 0.547093 0.315409 0.928448
Si Si3 0.728845 0.305887 0.717851
Si Si4 0.731336 0.190287 0.095721
Si Si5 0.202333 0.693003 0.437547
Si Si6 0.383597 0.691245 0.912871
Si Si7 0.365588 0.806372 0.406254
Si Si8 0.472837 0.189290 0.784078
O O1 0.500000 0.753621 0.500000
O O2 0.576867 0.751541 0.614887
O O3 0.482426 0.751775 0.682766
O O4 0.516830 0.000000 0.600690
O O5 0.557270 0.500000 0.902107
O O6 0.524986 0.221108 0.843072
O O7 0.500000 0.318038 0.000000
O O8 0.594304 0.250750 0.989366
O O9 0.727588 0.500000 0.717171
O O10 0.735057 0.247293 0.819608
O O11 0.779902 0.254417 0.661262
O O12 0.677902 0.248403 0.664956
O O13 0.671761 0.236420 0.108615
O O14 0.735854 0.000000 0.096490
O O15 0.750000 0.250000 0.000000
O O16 0.200514 0.500000 0.435556
O O17 0.250000 0.750000 0.500000
O O18 0.152369 0.746697 0.493237
O O19 0.379602 0.500000 0.920057
O O20 0.425791 0.731138 0.837259
O O21 0.365793 0.000000 0.406126
O O22 0.462803 0.000000 0.782062
#
# Coordination Sequence:
#
# PCOD9182039 Si02
#       8
#     8   8   8   8   8   8   8   8
#     4   9  19  34  51  76 111 146 181 222 268 319
#     4   8  16  32  53  76 104 138 175 219 272 324
#     4   9  19  35  54  78 107 139 176 219 269 323
#     4  11  24  40  57  80 110 144 181 221 269 323
#     4   8  14  27  49  75 101 129 168 216 260 308
#     4  10  21  38  58  80 109 145 180 219 273 327
#     4   9  17  31  54  80 104 138 181 222 265 311
#     4  10  19  32  55  84 109 140 185 230 270 319
#
# _framework density 19.977188999999999
#
# number of rings (size 3 to 8) (size 9 to 14) (size 15 to 20)
#    0.000    2.750    0.000    1.875    0.000    5.750 
#    0.000    7.500    0.000    7.875    0.000    0.000 
#    0.000    0.000    0.000    0.000    0.000    0.000 
#
# Total GULP energy -178359.517249 kJ/mol
# GULP energy per Si atom -5573.734914 kJ/mol
# Density = 1.993172 g / cm^3
# Si number density = 19.977189 Si / 1000 Ang^3
#
#
#
# Elastic Constant Matrix: (Units=GPa)
#
#
# Indices 1 2 3 4 5 6 
#
# 1 73.5512 0.7566 46.3750 0.0000 -0.9152 0.0000
# 2 0.7566 11.1560 11.7195 0.0000 -2.3543 0.0000
# 3 46.3750 11.7195 146.3234 0.0000 -6.6254 0.0000
# 4 0.0000 0.0000 0.0000 13.5333 0.0000 3.8886
# 5 -0.9152 -2.3543 -6.6254 0.0000 23.8482 0.0000
# 6 0.0000 0.0000 0.0000 3.8886 0.0000 17.8873
#
#
#
# Elastic Compliance Matrix: (Units=1/GPa)
#
#
# Indices 1 2 3 4 5 6 
#
# 1 0.017248 0.004906 -0.005881 0.000000 -0.000488 0.000000
# 2 0.004906 0.100640 -0.009274 0.000000 0.007547 0.000000
# 3 -0.005881 -0.009274 0.009509 0.000000 0.001500 0.000000
# 4 0.000000 0.000000 0.000000 0.078815 0.000000 -0.017134
# 5 -0.000488 0.007547 0.001500 0.000000 0.043075 0.000000
# 6 0.000000 0.000000 0.000000 -0.017134 0.000000 0.059630
#
#
# Mechanical properties :
#
#
# Convention : Reuss Voigt Hill
#
# Bulk Modulus (GPa) = 9.35471 38.74809 24.05140
# Shear Modulus (GPa) = 13.69683 22.53240 18.11461
#
# Velocity S-wave (km/s) = 2.62128 3.36208 3.01452
# Velocity P-wave (km/s) = 3.72214 5.87449 4.91752
#
# Compressibility (1/GPa) = 0.10689802
#
# Stress axis : x y z
#
# Youngs Moduli (GPa) = 57.97859 9.93642 105.16463
#
# Poissons Ratio (x) = -0.04875 0.61852
# Poissons Ratio (y) = -0.28443 0.97526
# Poissons Ratio (z) = 0.34100 0.09215
#
# Static dielectric constant tensor:
#      x y z
#    x 1.709920 0.000000 -0.008480 
#    y 0.000000 1.741040 0.000000 
#    z -0.008480 0.000000 1.727690 
# 
# From -- ./inp_files/244034.got.cif
#   From: 2010.05.17/outbox.cif.g08.bks.cpg/sg12_123_cif.got.tgz:244034.got - 2010.06.03 13:09:07.
