data_PCOD9182209
_publ_section_title
;
Structure prediction by ZEFSAII (Michael W. Deem and Ramdas Pophale) SiO2 
 PCOD9182209
Probable space group: C 2/M
;
_chemical_formula_sum "Si O2"
_cell_formula_units_Z 56
_cell_length_a 9.068129
_cell_length_b 16.342967
_cell_length_c 21.319851
_cell_angle_alpha 90.000000
_cell_angle_beta 133.341489
_cell_angle_gamma 90.000000
_cell_volume 2297.904556
_symmetry_space_group_name_H-M "C 2/M"
_symmetry_group_IT_number 12
_symmetry_cell_setting 'monoclinic'
loop_
_space_group_symop_operation_xyz
x,y,z
-x,y,-z
-x,-y,-z
x,-y,z
1/2+x,1/2+y,z
1/2-x,1/2+y,-z
1/2-x,1/2-y,-z
1/2+x,1/2-y,z
loop_
_atom_site_type_symbol
_atom_site_label
_atom_site_fract_x
_atom_site_fract_y
_atom_site_fract_z
Si Si1 0.161240 0.264778 0.324538
Si Si2 0.749257 0.735883 0.133769
Si Si3 0.015306 0.086668 0.928216
Si Si4 0.759781 0.087004 0.268323
Si Si5 0.218275 0.090036 0.389515
Si Si6 0.786705 0.836627 0.477201
Si Si7 0.433586 0.859846 0.076109
O O1 0.948936 0.244990 0.230615
O O2 0.274645 0.179830 0.376939
O O3 0.267537 0.327081 0.307364
O O4 0.129160 0.325807 0.374349
O O5 0.625119 0.662186 0.130810
O O6 0.602525 0.811770 0.088213
O O7 0.812775 0.705443 0.084015
O O8 0.941066 0.000000 0.881159
O O9 0.255200 0.095612 0.987240
O O10 0.000000 0.083676 0.000000
O O11 0.981049 0.083784 0.302603
O O12 0.567584 0.090382 0.165873
O O13 0.742115 0.000000 0.299702
O O14 0.229562 0.101277 0.469189
O O15 0.308401 0.000000 0.399291
O O16 0.750000 0.750000 0.500000
O O17 0.000000 0.843430 0.500000
#
# Coordination Sequence:
#
# PCOD9182209 Si02
#       7
#     8   8   8   8   8   8   8
#     4  10  20  35  54  82 118 147 182 238 297 328
#     4  10  20  32  55  80 110 145 185 230 282 344
#     4   9  18  33  53  78 109 144 186 235 280 328
#     4  10  19  32  57  85 109 141 193 239 277 334
#     4  10  20  35  55  82 113 146 189 238 282 340
#     4  10  20  34  55  82 111 150 189 232 287 338
#     4  10  19  34  54  81 111 143 186 230 283 332
#
# _framework density 24.370028000000001
#
# number of rings (size 3 to 8) (size 9 to 14) (size 15 to 20)
#    0.000    2.143    2.857    0.857    0.000    4.286 
#    0.000    0.000    0.000   13.714    0.000    0.000 
#    0.000    0.000    0.000    0.000    0.000    0.000 
#
# Total GULP energy -156084.742825 kJ/mol
# GULP energy per Si atom -5574.455101 kJ/mol
# Density = 2.431456 g / cm^3
# Si number density = 24.370028 Si / 1000 Ang^3
#
#
#
# Elastic Constant Matrix: (Units=GPa)
#
#
# Indices 1 2 3 4 5 6 
#
# 1 49.1412 34.5673 14.8338 0.0000 10.9978 0.0000
# 2 34.5673 175.3399 18.5082 0.0000 -7.3070 0.0000
# 3 14.8338 18.5082 53.7401 0.0000 0.8821 0.0000
# 4 0.0000 0.0000 0.0000 18.9854 0.0000 -1.6028
# 5 10.9978 -7.3070 0.8821 0.0000 21.1870 0.0000
# 6 0.0000 0.0000 0.0000 -1.6028 0.0000 13.3268
#
#
#
# Elastic Compliance Matrix: (Units=1/GPa)
#
#
# Indices 1 2 3 4 5 6 
#
# 1 0.030392 -0.006093 -0.006001 0.000000 -0.017627 0.000000
# 2 -0.006093 0.007237 -0.000904 0.000000 0.005696 0.000000
# 3 -0.006001 -0.000904 0.020544 0.000000 0.001948 0.000000
# 4 0.000000 0.000000 0.000000 0.053212 0.000000 0.006400
# 5 -0.017627 0.005696 0.001948 0.000000 0.058232 0.000000
# 6 0.000000 0.000000 0.000000 0.006400 0.000000 0.075806
#
#
# Mechanical properties :
#
#
# Convention : Reuss Voigt Hill
#
# Bulk Modulus (GPa) = 31.07859 46.00445 38.54152
# Shear Modulus (GPa) = 17.72128 24.72062 21.22095
#
# Velocity S-wave (km/s) = 2.69954 3.18840 2.95410
# Velocity P-wave (km/s) = 4.74312 5.69851 5.24262
#
# Compressibility (1/GPa) = 0.03217650
#
# Stress axis : x y z
#
# Youngs Moduli (GPa) = 32.90351 138.17526 48.67585
#
# Poissons Ratio (x) = 0.84186 0.29212
# Poissons Ratio (y) = 0.20047 0.04401
# Poissons Ratio (z) = 0.19747 0.12494
#
# Static dielectric constant tensor:
#      x y z
#    x 2.066940 0.000000 -0.034920 
#    y 0.000000 1.987920 0.000000 
#    z -0.034920 0.000000 1.960270 
# 
# From -- ./inp_files/358225.got.cif
#   From: 2010.05.17/outbox.cif.g08.bks.cpg/sg12_180_cif.got.tgz:358225.got - 2010.06.03 13:09:07.
