data_PCOD9182243
_publ_section_title
;
Structure prediction by ZEFSAII (Michael W. Deem and Ramdas Pophale) SiO2 
 PCOD9182243
Probable space group: C 2/M
;
_chemical_formula_sum "Si O2"
_cell_formula_units_Z 56
_cell_length_a 19.200987
_cell_length_b 14.166919
_cell_length_c 21.957888
_cell_angle_alpha 90.000000
_cell_angle_beta 26.354524
_cell_angle_gamma 90.000000
_cell_volume 2651.540470
_symmetry_space_group_name_H-M "C 2/M"
_symmetry_group_IT_number 12
_symmetry_cell_setting 'monoclinic'
loop_
_space_group_symop_operation_xyz
x,y,z
-x,y,-z
-x,-y,-z
x,-y,z
1/2+x,1/2+y,z
1/2-x,1/2+y,-z
1/2-x,1/2-y,-z
1/2+x,1/2-y,z
loop_
_atom_site_type_symbol
_atom_site_label
_atom_site_fract_x
_atom_site_fract_y
_atom_site_fract_z
Si Si1 0.330242 0.889323 0.335014
Si Si2 0.228342 0.612822 0.476014
Si Si3 0.582344 0.612140 0.187703
Si Si4 0.841399 0.713034 0.585644
Si Si5 0.404045 0.309997 0.130164
Si Si6 0.326076 0.889305 0.895953
Si Si7 0.733312 0.239694 0.875474
O O1 0.299482 0.870530 0.431010
O O2 0.234270 0.815431 0.369854
O O3 0.518228 0.877902 0.185915
O O4 0.292624 0.000000 0.352287
O O5 0.215224 0.500000 0.477298
O O6 0.405792 0.647037 0.324739
O O7 0.127301 0.664785 0.504228
O O8 0.576983 0.500000 0.193324
O O9 0.676735 0.649465 0.171560
O O10 0.679463 0.640200 0.052181
O O11 0.704118 0.654756 0.730277
O O12 0.000000 0.716686 0.500000
O O13 0.282250 0.250820 0.184397
O O14 0.500000 0.367302 0.000000
O O15 0.549999 0.247648 0.038742
O O16 0.320764 0.826268 0.840116
O O17 0.314214 0.000000 0.889397
#
# Coordination Sequence:
#
# PCOD9182243 Si02
#       7
#     8   8   8   8   8   8   8
#     4  10  23  40  59  87 118 147 190 243 286 333
#     4  10  23  40  59  87 118 147 190 243 286 333
#     4  10  19  32  58  84 103 141 193 233 280 333
#     4  12  24  38  62  85 114 158 195 228 285 348
#     4   8  22  37  54  81 116 152 185 227 287 335
#     4  10  19  32  58  84 103 141 193 233 280 333
#     4   9  18  35  56  73 116 143 177 232 283 328
#
# _framework density 21.119799
#
# number of rings (size 3 to 8) (size 9 to 14) (size 15 to 20)
#    0.857    1.143    0.000    3.429    4.000    0.571 
#    0.000    4.286    0.000    0.000    0.000    0.000 
#    0.000    0.000    0.000    0.000    0.000    0.000 
#
# Total GULP energy -156057.140406 kJ/mol
# GULP energy per Si atom -5573.469300 kJ/mol
# Density = 2.107173 g / cm^3
# Si number density = 21.119799 Si / 1000 Ang^3
#
#
#
# Elastic Constant Matrix: (Units=GPa)
#
#
# Indices 1 2 3 4 5 6 
#
# 1 78.7819 9.8045 1.0453 0.0004 -19.8203 -0.0007
# 2 9.8045 46.3295 0.8208 0.0025 -3.9305 0.0000
# 3 1.0453 0.8208 69.4723 0.0043 0.7824 -0.0002
# 4 0.0004 0.0025 0.0043 13.9272 -0.0010 1.7864
# 5 -19.8203 -3.9305 0.7824 -0.0010 32.3966 0.0002
# 6 -0.0007 0.0000 -0.0002 1.7864 0.0002 -0.5678
#
#
#
# Elastic Compliance Matrix: (Units=1/GPa)
#
#
# Indices 1 2 3 4 5 6 
#
# 1 0.015283 -0.002460 -0.000303 0.000002 0.009059 -0.000009
# 2 -0.002460 0.022211 -0.000239 -0.000003 0.001195 -0.000005
# 3 -0.000303 -0.000239 0.014408 -0.000003 -0.000562 -0.000013
# 4 0.000002 -0.000003 -0.000003 0.051158 0.000001 0.160944
# 5 0.009059 0.001195 -0.000562 0.000001 0.036568 0.000007
# 6 -0.000009 -0.000005 -0.000013 0.160944 0.000007 -1.254768
#
#
# Mechanical properties :
#
#
# Convention : Reuss Voigt Hill
#
# Bulk Modulus (GPa) = 21.78782 24.21386 23.00084
# Shear Modulus (GPa) = -4.57106 21.34540 8.38717
#
# Velocity S-wave (km/s) = -1.47277 3.18257 1.99496
# Velocity P-wave (km/s) = 2.72885 4.99949 4.02750
#
# Compressibility (1/GPa) = 0.04589720
#
# Stress axis : x y z
#
# Youngs Moduli (GPa) = 65.43427 45.02312 69.40622
#
# Poissons Ratio (x) = 0.11077 0.02102
# Poissons Ratio (y) = 0.16099 0.01658
# Poissons Ratio (z) = 0.01982 0.01075
#
# Static dielectric constant tensor:
#      x y z
#    x 1.769200 0.000000 0.048280 
#    y 0.000000 1.756300 0.000000 
#    z 0.048280 0.000000 1.867090 
# 
# From -- ./inp_files/316697.got.cif
#   From: 2010.05.17/outbox.cif.g08.bks.cpg/sg12_159_cif.got.tgz:316697.got - 2010.06.03 13:09:07.
