data_PCOD9182158
_publ_section_title
;
Structure prediction by ZEFSAII (Michael W. Deem and Ramdas Pophale) SiO2 
 PCOD9182158
Probable space group: C 2/M
;
_chemical_formula_sum "Si O2"
_cell_formula_units_Z 64
_cell_length_a 18.394187
_cell_length_b 8.931644
_cell_length_c 23.364419
_cell_angle_alpha 90.000000
_cell_angle_beta 113.690925
_cell_angle_gamma 90.000000
_cell_volume 3515.059247
_symmetry_space_group_name_H-M "C 2/M"
_symmetry_group_IT_number 12
_symmetry_cell_setting 'monoclinic'
loop_
_space_group_symop_operation_xyz
x,y,z
-x,y,-z
-x,-y,-z
x,-y,z
1/2+x,1/2+y,z
1/2-x,1/2+y,-z
1/2-x,1/2-y,-z
1/2+x,1/2-y,z
loop_
_atom_site_type_symbol
_atom_site_label
_atom_site_fract_x
_atom_site_fract_y
_atom_site_fract_z
Si Si1 0.860368 0.822526 0.821362
Si Si2 0.871712 0.172707 0.314371
Si Si3 0.920359 0.676771 0.439347
Si Si4 0.178468 0.678582 0.941101
Si Si5 0.264082 0.679673 0.442911
Si Si6 0.702741 0.319448 0.824894
Si Si7 0.978731 0.822155 0.059337
Si Si8 0.690418 0.826838 0.305362
O O1 0.788948 0.737353 0.831074
O O2 0.858749 0.770783 0.754804
O O3 0.943881 0.790481 0.877900
O O4 0.845319 0.000000 0.820327
O O5 0.923131 0.269632 0.374323
O O6 0.860190 0.221526 0.245155
O O7 0.781283 0.176340 0.310372
O O8 0.898051 0.000000 0.324415
O O9 0.903404 0.500000 0.435466
O O10 0.848630 0.764586 0.446460
O O11 0.000000 0.705207 0.500000
O O12 0.186594 0.500000 0.942260
O O13 0.182292 0.745548 0.878501
O O14 0.096165 0.727787 0.944006
O O15 0.250000 0.750000 0.000000
O O16 0.263272 0.500000 0.445381
O O17 0.250000 0.750000 0.500000
O O18 0.199222 0.723765 0.373832
O O19 0.703932 0.500000 0.829259
O O20 0.960118 0.000000 0.058862
O O21 0.000000 0.793339 0.000000
O O22 0.664262 0.000000 0.295074
#
# Coordination Sequence:
#
# PCOD9182158 Si02
#       8
#     8   8   8   8   8   8   8   8
#     4  10  19  32  56  86 111 140 179 220 264 316
#     4   8  16  31  52  77 104 139 179 220 266 315
#     4  10  20  33  51  77 108 141 179 224 270 319
#     4  12  25  40  60  84 111 144 181 220 265 316
#     4  10  20  34  53  76 103 138 179 223 271 321
#     4  10  20  36  58  83 112 142 177 222 268 317
#     4  10  22  40  59  81 112 145 178 219 263 310
#     4   8  16  31  50  74 105 139 175 218 267 318
#
# _framework density 18.207374999999999
#
# number of rings (size 3 to 8) (size 9 to 14) (size 15 to 20)
#    0.000    2.250    0.000    4.875    0.000    8.750 
#    0.000    1.250    0.000    0.000    0.000    0.000 
#    0.000    0.000    0.000    0.000    0.000    0.000 
#
# Total GULP energy -178557.048178 kJ/mol
# GULP energy per Si atom -5579.907756 kJ/mol
# Density = 1.816593 g / cm^3
# Si number density = 18.207375 Si / 1000 Ang^3
#
#
#
# Elastic Constant Matrix: (Units=GPa)
#
#
# Indices 1 2 3 4 5 6 
#
# 1 52.0430 46.8437 57.4311 0.0000 -7.0545 0.0000
# 2 46.8437 91.3655 86.0783 0.0000 2.9946 0.0000
# 3 57.4311 86.0783 188.5206 0.0000 -11.3107 0.0000
# 4 0.0000 0.0000 0.0000 32.7938 0.0000 -1.9566
# 5 -7.0545 2.9946 -11.3107 0.0000 26.3967 0.0000
# 6 0.0000 0.0000 0.0000 -1.9566 0.0000 28.0681
#
#
#
# Elastic Compliance Matrix: (Units=1/GPa)
#
#
# Indices 1 2 3 4 5 6 
#
# 1 0.040874 -0.017982 -0.003555 0.000000 0.011440 0.000000
# 2 -0.017982 0.028124 -0.008050 0.000000 -0.011446 0.000000
# 3 -0.003555 -0.008050 0.010326 0.000000 0.004388 0.000000
# 4 0.000000 0.000000 0.000000 0.030621 0.000000 0.002135
# 5 0.011440 -0.011446 0.004388 0.000000 0.044120 0.000000
# 6 0.000000 0.000000 0.000000 0.002135 0.000000 0.035776
#
#
# Mechanical properties :
#
#
# Convention : Reuss Voigt Hill
#
# Bulk Modulus (GPa) = 49.62708 79.18170 64.40439
# Shear Modulus (GPa) = 19.55166 26.89012 23.22089
#
# Velocity S-wave (km/s) = 3.28049 3.84719 3.57509
# Velocity P-wave (km/s) = 6.45481 7.95724 7.24508
#
# Compressibility (1/GPa) = 0.02015029
#
# Stress axis : x y z
#
# Youngs Moduli (GPa) = 24.46516 35.55688 96.84038
#
# Poissons Ratio (x) = 0.63940 0.34426
# Poissons Ratio (y) = 0.43994 0.77956
# Poissons Ratio (z) = 0.08697 0.28623
#
# Static dielectric constant tensor:
#      x y z
#    x 1.600460 0.000000 -0.013960 
#    y 0.000000 1.608370 0.000000 
#    z -0.013960 0.000000 1.649440 
# 
# From -- ./inp_files/345577.got.cif
#   From: 2010.05.17/outbox.cif.g08.bks.cpg/sg12_173_cif.got.tgz:345577.got - 2010.06.03 13:09:07.
