data_PCOD9182413
_publ_section_title
;
Structure prediction by ZEFSAII (Michael W. Deem and Ramdas Pophale) SiO2 
 PCOD9182413
Probable space group: C 2/M
;
_chemical_formula_sum "Si O2"
_cell_formula_units_Z 56
_cell_length_a 19.660766
_cell_length_b 8.906316
_cell_length_c 18.760741
_cell_angle_alpha 90.000000
_cell_angle_beta 84.061780
_cell_angle_gamma 90.000000
_cell_volume 3267.471699
_symmetry_space_group_name_H-M "C 2/M"
_symmetry_group_IT_number 12
_symmetry_cell_setting 'monoclinic'
loop_
_space_group_symop_operation_xyz
x,y,z
-x,y,-z
-x,-y,-z
x,-y,z
1/2+x,1/2+y,z
1/2-x,1/2+y,-z
1/2-x,1/2-y,-z
1/2+x,1/2-y,z
loop_
_atom_site_type_symbol
_atom_site_label
_atom_site_fract_x
_atom_site_fract_y
_atom_site_fract_z
Si Si1 0.494380 0.177432 0.418251
Si Si2 0.162123 0.323562 0.559540
Si Si3 0.551500 0.325853 0.926383
Si Si4 0.673969 0.317380 0.007254
Si Si5 0.395321 0.679099 0.696287
Si Si6 0.292760 0.822534 0.603916
Si Si7 0.572687 0.683422 0.147283
O O1 0.500000 0.225945 0.500000
O O2 0.415151 0.194060 0.407254
O O3 0.543303 0.265380 0.360534
O O4 0.512890 0.000000 0.414398
O O5 0.180893 0.500000 0.561929
O O6 0.215548 0.227915 0.598300
O O7 0.169011 0.282252 0.474905
O O8 0.564753 0.500000 0.906418
O O9 0.502437 0.260584 0.870180
O O10 0.500000 0.325843 0.000000
O O11 0.624110 0.265499 0.947237
O O12 0.677934 0.500000 0.004152
O O13 0.630793 0.276634 0.083116
O O14 0.750000 0.250000 0.000000
O O15 0.392751 0.500000 0.697169
O O16 0.327559 0.742022 0.666346
O O17 0.407491 0.732042 0.775756
O O18 0.298318 0.000000 0.612335
O O19 0.569241 0.500000 0.146592
#
# Coordination Sequence:
#
# PCOD9182413 Si02
#       7
#     8   8   8   8   8   8   8
#     4  10  19  35  53  71  97 128 163 208 260 302
#     4   9  18  33  52  71  93 124 164 209 257 306
#     4   7  11  24  48  71  90 122 165 196 225 274
#     4   9  16  29  52  78 101 128 162 202 243 287
#     4  11  21  32  50  75 102 133 170 209 252 303
#     4  10  19  33  51  71  97 129 165 207 254 303
#     4   8  16  31  49  71 100 132 165 202 243 290
#
# _framework density 17.138634
#
# number of rings (size 3 to 8) (size 9 to 14) (size 15 to 20)
#    0.000    2.857    1.429    2.571    0.000    1.429 
#    0.000    2.857    0.000    9.000    0.000    0.000 
#    0.000    0.000    0.000    0.000    0.000    0.000 
#
# Total GULP energy -155916.538611 kJ/mol
# GULP energy per Si atom -5568.447808 kJ/mol
# Density = 1.709963 g / cm^3
# Si number density = 17.138634 Si / 1000 Ang^3
#
#
#
# Elastic Constant Matrix: (Units=GPa)
#
#
# Indices 1 2 3 4 5 6 
#
# 1 123.7135 32.8303 60.6604 0.0000 23.3456 0.0000
# 2 32.8303 21.4359 27.5101 0.0000 9.3863 0.0000
# 3 60.6604 27.5101 99.6406 0.0000 30.2676 0.0000
# 4 0.0000 0.0000 0.0000 11.4631 0.0000 0.3540
# 5 23.3456 9.3863 30.2676 0.0000 26.3790 0.0000
# 6 0.0000 0.0000 0.0000 0.3540 0.0000 31.0769
#
#
#
# Elastic Compliance Matrix: (Units=1/GPa)
#
#
# Indices 1 2 3 4 5 6 
#
# 1 0.014862 -0.017029 -0.003364 0.000000 -0.003234 0.000000
# 2 -0.017029 0.092086 -0.014862 0.000000 -0.000643 0.000000
# 3 -0.003364 -0.014862 0.020994 0.000000 -0.015823 0.000000
# 4 0.000000 0.000000 0.000000 0.087267 0.000000 -0.000994
# 5 -0.003234 -0.000643 -0.015823 0.000000 0.059156 0.000000
# 6 0.000000 0.000000 0.000000 -0.000994 0.000000 0.032190
#
#
# Mechanical properties :
#
#
# Convention : Reuss Voigt Hill
#
# Bulk Modulus (GPa) = 17.41174 54.08794 35.74984
# Shear Modulus (GPa) = 12.61965 22.03641 17.32803
#
# Velocity S-wave (km/s) = 2.71648 3.58966 3.18315
# Velocity P-wave (km/s) = 4.47442 6.98631 5.86638
#
# Compressibility (1/GPa) = 0.05743253
#
# Stress axis : x y z
#
# Youngs Moduli (GPa) = 67.28656 10.85942 47.63271
#
# Poissons Ratio (x) = 0.18492 0.16024
# Poissons Ratio (y) = 1.14579 0.70792
# Poissons Ratio (z) = 0.22635 0.16139
#
# Static dielectric constant tensor:
#      x y z
#    x 1.601520 0.000000 0.025010 
#    y 0.000000 1.582480 0.000000 
#    z 0.025010 0.000000 1.578970 
# 
# From -- ./inp_files/280150.got.cif
#   From: 2010.05.17/outbox.cif.g08.bks.cpg/sg12_141_cif.got.tgz:280150.got - 2010.06.03 13:09:07.
