data_PCOD9182728
_publ_section_title
;
Structure prediction by ZEFSAII (Michael W. Deem and Ramdas Pophale) SiO2 
 PCOD9182728
Probable space group: C 2/M
;
_chemical_formula_sum "Si O2"
_cell_formula_units_Z 56
_cell_length_a 24.718277
_cell_length_b 7.363817
_cell_length_c 21.177361
_cell_angle_alpha 90.000000
_cell_angle_beta 40.222067
_cell_angle_gamma 90.000000
_cell_volume 2489.193474
_symmetry_space_group_name_H-M "C 2/M"
_symmetry_group_IT_number 12
_symmetry_cell_setting 'monoclinic'
loop_
_space_group_symop_operation_xyz
x,y,z
-x,y,-z
-x,-y,-z
x,-y,z
1/2+x,1/2+y,z
1/2-x,1/2+y,-z
1/2-x,1/2-y,-z
1/2+x,1/2-y,z
loop_
_atom_site_type_symbol
_atom_site_label
_atom_site_fract_x
_atom_site_fract_y
_atom_site_fract_z
Si Si1 0.965402 0.279644 0.356111
Si Si2 0.916453 0.209481 0.541789
Si Si3 0.594258 0.777781 0.930206
Si Si4 0.771116 0.722618 0.294516
Si Si5 0.673690 0.783965 0.615775
Si Si6 0.852571 0.719994 0.846441
Si Si7 0.666905 0.790425 0.993997
O O1 0.962946 0.500000 0.359278
O O2 0.929092 0.215795 0.455051
O O3 0.909139 0.217465 0.346947
O O4 0.061604 0.223036 0.262428
O O5 0.823479 0.285623 0.636536
O O6 0.000000 0.289986 0.500000
O O7 0.913211 0.000000 0.566197
O O8 0.661616 0.722642 0.817765
O O9 0.620097 0.711174 0.976206
O O10 0.596355 0.000000 0.928801
O O11 0.500000 0.722821 0.000000
O O12 0.768124 0.500000 0.298820
O O13 0.801774 0.783999 0.336655
O O14 0.750000 0.750000 0.500000
O O15 0.662696 0.000000 0.632586
O O16 0.850097 0.500000 0.848764
O O17 0.766206 0.782907 0.892793
O O18 0.849582 0.786254 0.921797
O O19 0.640427 0.000000 0.022173
#
# Coordination Sequence:
#
# PCOD9182728 Si02
#       7
#     8   8   8   8   8   8   8
#     4  10  21  34  52  77 105 137 172 210 256 312
#     4  10  21  35  53  77 107 138 172 214 258 306
#     4   9  18  30  50  79 105 130 167 214 259 302
#     4   9  18  32  49  73 103 135 167 209 261 301
#     4  10  19  33  53  74 101 133 169 210 252 301
#     4   9  19  34  51  75 105 135 167 210 260 301
#     4   9  18  33  54  77 101 131 172 213 253 305
#
# _framework density 22.497244999999999
#
# number of rings (size 3 to 8) (size 9 to 14) (size 15 to 20)
#    0.000    2.571    1.429    0.000    4.000    0.857 
#    0.000    0.000    0.000    1.286    0.000    0.000 
#    0.000    0.000    0.000    0.000    0.000    0.000 
#
# Total GULP energy -156400.336207 kJ/mol
# GULP energy per Si atom -5585.726293 kJ/mol
# Density = 2.244604 g / cm^3
# Si number density = 22.497245 Si / 1000 Ang^3
#
#
#
# Elastic Constant Matrix: (Units=GPa)
#
#
# Indices 1 2 3 4 5 6 
#
# 1 165.9415 0.8580 44.4635 0.0025 -16.4059 -0.0027
# 2 0.8580 81.6814 -6.9528 -0.0036 2.8605 0.0324
# 3 44.4635 -6.9528 108.9659 0.0128 -27.6784 -0.0100
# 4 0.0025 -0.0036 0.0128 1.0784 -0.0022 19.2192
# 5 -16.4059 2.8605 -27.6784 -0.0022 25.6589 0.0006
# 6 -0.0027 0.0324 -0.0100 19.2192 0.0006 -31.8681
#
#
#
# Elastic Compliance Matrix: (Units=1/GPa)
#
#
# Indices 1 2 3 4 5 6 
#
# 1 0.006840 -0.000337 -0.002331 0.000001 0.001897 0.000001
# 2 -0.000337 0.012336 0.000717 -0.000016 -0.000817 0.000003
# 3 -0.002331 0.000717 0.013464 -0.000006 0.012954 -0.000007
# 4 0.000001 -0.000016 -0.000006 0.078932 0.000002 0.047603
# 5 0.001897 -0.000817 0.012954 0.000002 0.054250 -0.000003
# 6 0.000001 0.000003 -0.000007 0.047603 -0.000003 -0.002671
#
#
# Mechanical properties :
#
#
# Convention : Reuss Voigt Hill
#
# Bulk Modulus (GPa) = 34.79554 48.14735 41.47145
# Shear Modulus (GPa) = 28.30742 20.18852 24.24797
#
# Velocity S-wave (km/s) = 3.55105 2.99888 3.28658
# Velocity P-wave (km/s) = 5.68449 5.78264 5.73377
#
# Compressibility (1/GPa) = 0.02873931
#
# Stress axis : x y z
#
# Youngs Moduli (GPa) = 146.19881 81.06445 74.26985
#
# Poissons Ratio (x) = 0.02729 0.17310
# Poissons Ratio (y) = 0.04922 -0.05325
# Poissons Ratio (z) = 0.34075 -0.05812
#
# Static dielectric constant tensor:
#      x y z
#    x 1.813670 -0.000010 -0.012200 
#    y -0.000010 1.885540 0.000010 
#    z -0.012200 0.000010 1.768900 
# 
# From -- ./inp_files/324729.got.cif
#   From: 2010.05.17/outbox.cif.g08.bks.cpg/sg12_163_cif.got.tgz:324729.got - 2010.06.03 13:09:07.
