data_PCOD9182667
_publ_section_title
;
Structure prediction by ZEFSAII (Michael W. Deem and Ramdas Pophale) SiO2 
 PCOD9182667
Probable space group: C 2/M
;
_chemical_formula_sum "Si O2"
_cell_formula_units_Z 44
_cell_length_a 8.612387
_cell_length_b 18.619169
_cell_length_c 14.347569
_cell_angle_alpha 90.000000
_cell_angle_beta 99.550749
_cell_angle_gamma 90.000000
_cell_volume 2268.821342
_symmetry_space_group_name_H-M "C 2/M"
_symmetry_group_IT_number 12
_symmetry_cell_setting 'monoclinic'
loop_
_space_group_symop_operation_xyz
x,y,z
-x,y,-z
-x,-y,-z
x,-y,z
1/2+x,1/2+y,z
1/2-x,1/2+y,-z
1/2-x,1/2-y,-z
1/2+x,1/2-y,z
loop_
_atom_site_type_symbol
_atom_site_label
_atom_site_fract_x
_atom_site_fract_y
_atom_site_fract_z
Si Si1 0.649673 0.797497 0.918077
Si Si2 0.900687 0.083711 0.245527
Si Si3 0.259001 0.179203 0.622902
Si Si4 0.000000 0.279498 0.500000
Si Si5 0.387586 0.715079 0.788357
Si Si6 0.674488 0.416726 0.976669
O O1 0.492004 0.755272 0.877687
O O2 0.728597 0.803543 0.825037
O O3 0.750000 0.750000 0.000000
O O4 0.677919 0.875121 0.965230
O O5 0.799048 0.110516 0.323755
O O6 0.820528 0.090530 0.134953
O O7 0.035761 0.143806 0.246652
O O8 0.947481 0.000000 0.259743
O O9 0.110718 0.226021 0.571496
O O10 0.380742 0.172577 0.549589
O O11 0.350443 0.228415 0.705581
O O12 0.682739 0.500000 0.002207
O O13 0.500000 0.392277 0.000000
#
# Coordination Sequence:
#
# PCOD9182667 Si02
#       6
#     8   8   8   4   8   8
#     4  12  20  32  54  87 117 162 211 250 278 341
#     4  11  22  37  59  88 126 162 196 247 301 355
#     4  11  21  42  62  97 113 155 193 255 303 375
#     4  10  22  38  74  88 118 140 206 248 314 368
#     4  12  21  35  60  87 123 157 206 246 297 351
#     4  10  19  33  52  80 120 163 206 247 286 335
#
# _framework density 19.393329999999999
#
# number of rings (size 3 to 8) (size 9 to 14) (size 15 to 20)
#    0.000    0.909    7.273    0.545    0.000    0.000 
#    0.000    1.818    0.000    6.545    0.000    0.000 
#    0.000    0.000    0.000    0.000    0.000    0.000 
#
# Total GULP energy -122629.837259 kJ/mol
# GULP energy per Si atom -5574.083512 kJ/mol
# Density = 1.934919 g / cm^3
# Si number density = 19.393330 Si / 1000 Ang^3
#
#
#
# Elastic Constant Matrix: (Units=GPa)
#
#
# Indices 1 2 3 4 5 6 
#
# 1 72.2293 26.6724 29.4574 0.0000 -14.7417 0.0000
# 2 26.6724 98.4516 20.2399 0.0000 -3.1254 0.0000
# 3 29.4574 20.2399 76.3820 0.0000 -9.4180 0.0000
# 4 0.0000 0.0000 0.0000 31.8790 0.0000 -11.0627
# 5 -14.7417 -3.1254 -9.4180 0.0000 45.2336 0.0000
# 6 0.0000 0.0000 0.0000 -11.0627 0.0000 20.9109
#
#
#
# Elastic Compliance Matrix: (Units=1/GPa)
#
#
# Indices 1 2 3 4 5 6 
#
# 1 0.018413 -0.003701 -0.005555 0.000000 0.004589 0.000000
# 2 -0.003701 0.011487 -0.001711 0.000000 -0.000769 0.000000
# 3 -0.005555 -0.001711 0.015857 0.000000 0.001373 0.000000
# 4 0.000000 0.000000 0.000000 0.038422 0.000000 0.020327
# 5 0.004589 -0.000769 0.001373 0.000000 0.023836 0.000000
# 6 0.000000 0.000000 0.000000 0.020327 0.000000 0.058576
#
#
# Mechanical properties :
#
#
# Convention : Reuss Voigt Hill
#
# Bulk Modulus (GPa) = 41.97525 44.42249 43.19887
# Shear Modulus (GPa) = 25.44953 30.98425 28.21689
#
# Velocity S-wave (km/s) = 3.62647 4.00143 3.81856
# Velocity P-wave (km/s) = 6.26309 6.65615 6.46261
#
# Compressibility (1/GPa) = 0.02382356
#
# Stress axis : x y z
#
# Youngs Moduli (GPa) = 54.30827 87.05223 63.06301
#
# Poissons Ratio (x) = 0.32217 0.35030
# Poissons Ratio (y) = 0.20099 0.10793
# Poissons Ratio (z) = 0.30167 0.14899
#
# Static dielectric constant tensor:
#      x y z
#    x 1.728510 0.000000 0.017320 
#    y 0.000000 1.719270 0.000000 
#    z 0.017320 0.000000 1.625800 
# 
# From -- ./inp_files/195524.got.cif
#   From: 2010.05.17/outbox.cif.g08.bks.cpg/sg12_98_cif.got.tgz:195524.got - 2010.06.03 13:09:07.
