data_PCOD9182306
_publ_section_title
;
Structure prediction by ZEFSAII (Michael W. Deem and Ramdas Pophale) SiO2 
 PCOD9182306
Probable space group: C 2/M
;
_chemical_formula_sum "Si O2"
_cell_formula_units_Z 64
_cell_length_a 21.813474
_cell_length_b 26.359547
_cell_length_c 19.400618
_cell_angle_alpha 90.000000
_cell_angle_beta 160.200281
_cell_angle_gamma 90.000000
_cell_volume 3778.646320
_symmetry_space_group_name_H-M "C 2/M"
_symmetry_group_IT_number 12
_symmetry_cell_setting 'monoclinic'
loop_
_space_group_symop_operation_xyz
x,y,z
-x,y,-z
-x,-y,-z
x,-y,z
1/2+x,1/2+y,z
1/2-x,1/2+y,-z
1/2-x,1/2-y,-z
1/2+x,1/2-y,z
loop_
_atom_site_type_symbol
_atom_site_label
_atom_site_fract_x
_atom_site_fract_y
_atom_site_fract_z
Si Si1 0.295793 0.583525 0.274415
Si Si2 0.323095 0.732719 0.406346
Si Si3 0.912644 0.152958 0.611821
Si Si4 0.725098 0.298325 0.787819
Si Si5 0.811379 0.298038 0.518444
Si Si6 0.718521 0.443123 0.590204
Si Si7 0.176536 0.331249 0.964891
Si Si8 0.604444 0.944615 0.932945
O O1 0.500000 0.564681 0.500000
O O2 0.306743 0.643212 0.268271
O O3 0.212752 0.573928 0.261570
O O4 0.199081 0.558108 0.107995
O O5 0.303966 0.684914 0.438282
O O6 0.218030 0.727920 0.223277
O O7 0.536191 0.727340 0.611576
O O8 0.280917 0.781647 0.407671
O O9 0.803917 0.157232 0.568055
O O10 0.922077 0.097283 0.588669
O O11 0.113224 0.175798 0.832496
O O12 0.846383 0.304275 0.984237
O O13 0.750000 0.250000 0.500000
O O14 0.023199 0.308972 0.753834
O O15 0.646268 0.500000 0.518219
O O16 0.890756 0.442547 0.722559
O O17 0.151081 0.391973 0.944917
O O18 0.647363 0.000000 0.946846
#
# Coordination Sequence:
#
# PCOD9182306 Si02
#       8
#     8   8   8   8   8   8   8   8
#     4  11  18  29  44  64  95 129 169 210 250 286
#     4   9  16  31  49  67  94 122 167 212 249 296
#     4  10  19  33  48  68  93 123 168 203 251 296
#     4   9  16  29  49  70  92 127 165 209 254 288
#     4  10  21  34  50  70  93 126 169 210 256 306
#     4  11  20  31  45  64  96 131 169 210 250 295
#     4  10  20  34  53  69  98 132 164 215 254 291
#     4  10  21  32  45  67  94 130 174 211 248 295
#
# _framework density 16.937283000000001
#
# number of rings (size 3 to 8) (size 9 to 14) (size 15 to 20)
#    0.000    2.000    3.750    2.250    0.000    8.000 
#    0.000    2.500    0.000    1.500    0.000    0.000 
#    0.000    0.000    0.000    9.000    0.000   50.500 
#
# Total GULP energy -178353.761139 kJ/mol
# GULP energy per Si atom -5573.555036 kJ/mol
# Density = 1.689873 g / cm^3
# Si number density = 16.937283 Si / 1000 Ang^3
#
#
#
# Elastic Constant Matrix: (Units=GPa)
#
#
# Indices 1 2 3 4 5 6 
#
# 1 62.8817 20.8893 6.5877 -0.0002 -6.8632 0.0000
# 2 20.8893 50.1670 6.9170 0.0000 -7.6811 0.0000
# 3 6.5877 6.9170 51.5119 -0.0005 4.1621 -0.0002
# 4 -0.0002 0.0000 -0.0005 13.0345 -0.0003 1.8320
# 5 -6.8632 -7.6811 4.1621 -0.0003 15.9075 -0.0001
# 6 0.0000 0.0000 -0.0002 1.8320 -0.0001 15.4140
#
#
#
# Elastic Compliance Matrix: (Units=1/GPa)
#
#
# Indices 1 2 3 4 5 6 
#
# 1 0.018955 -0.006796 -0.001948 0.000000 0.005406 0.000000
# 2 -0.006796 0.024720 -0.003246 0.000000 0.009853 0.000000
# 3 -0.001948 -0.003246 0.020731 0.000001 -0.007832 0.000000
# 4 0.000000 0.000000 0.000001 0.078023 0.000001 -0.009273
# 5 0.005406 0.009853 -0.007832 0.000001 0.072003 0.000000
# 6 0.000000 0.000000 0.000000 -0.009273 0.000000 0.065978
#
#
# Mechanical properties :
#
#
# Convention : Reuss Voigt Hill
#
# Bulk Modulus (GPa) = 24.73810 25.92762 25.33286
# Shear Modulus (GPa) = 15.72992 17.54896 16.63944
#
# Velocity S-wave (km/s) = 3.05079 3.22236 3.13775
# Velocity P-wave (km/s) = 5.20069 5.40242 5.30251
#
# Compressibility (1/GPa) = 0.04042347
#
# Stress axis : x y z
#
# Youngs Moduli (GPa) = 52.75716 40.45369 48.23723
#
# Poissons Ratio (x) = 0.27494 0.09398
# Poissons Ratio (y) = 0.35856 0.15659
# Poissons Ratio (z) = 0.10278 0.13133
#
# Static dielectric constant tensor:
#      x y z
#    x 1.635710 0.000000 0.059390 
#    y 0.000000 1.614920 0.000000 
#    z 0.059390 0.000000 1.637590 
# 
# From -- ./inp_files/286696.got.cif
#   From: 2010.05.17/outbox.cif.g08.bks.cpg/sg12_144_cif.got.tgz:286696.got - 2010.06.03 13:09:07.
