data_PCOD9182969
_publ_section_title
;
Structure prediction by ZEFSAII (Michael W. Deem and Ramdas Pophale) SiO2 
 PCOD9182969
Probable space group: C 2/M
;
_chemical_formula_sum "Si O2"
_cell_formula_units_Z 56
_cell_length_a 8.679450
_cell_length_b 17.049377
_cell_length_c 20.225646
_cell_angle_alpha 90.000000
_cell_angle_beta 60.533411
_cell_angle_gamma 90.000000
_cell_volume 2605.812016
_symmetry_space_group_name_H-M "C 2/M"
_symmetry_group_IT_number 12
_symmetry_cell_setting 'monoclinic'
loop_
_space_group_symop_operation_xyz
x,y,z
-x,y,-z
-x,-y,-z
x,-y,z
1/2+x,1/2+y,z
1/2-x,1/2+y,-z
1/2-x,1/2-y,-z
1/2+x,1/2-y,z
loop_
_atom_site_type_symbol
_atom_site_label
_atom_site_fract_x
_atom_site_fract_y
_atom_site_fract_z
Si Si1 0.929008 0.298025 0.446722
Si Si2 0.079164 0.589438 0.105938
Si Si3 0.884114 0.910266 0.213705
Si Si4 0.124656 0.295828 0.220188
Si Si5 0.762274 0.318720 0.350878
Si Si6 0.611609 0.593550 0.042746
Si Si7 0.791253 0.123220 0.775519
O O1 0.750000 0.250000 0.500000
O O2 0.851123 0.346958 0.400967
O O3 0.000000 0.336656 0.500000
O O4 0.087634 0.235654 0.395542
O O5 0.143640 0.500000 0.108202
O O6 0.119564 0.652651 0.154697
O O7 0.868001 0.584367 0.150442
O O8 0.187036 0.614831 0.018040
O O9 0.715366 0.855141 0.252573
O O10 0.005887 0.875389 0.127991
O O11 0.017909 0.908261 0.245921
O O12 0.831650 0.000000 0.211544
O O13 0.223679 0.214044 0.199026
O O14 0.928756 0.272258 0.284723
O O15 0.731083 0.381164 0.298955
O O16 0.611648 0.500000 0.053685
O O17 0.500000 0.610631 0.000000
#
# Coordination Sequence:
#
# PCOD9182969 Si02
#       7
#     8   8   8   8   8   8   8
#     4   9  18  32  55  86 120 151 189 221 265 333
#     4  10  20  37  57  76 104 147 203 251 293 344
#     4  11  22  37  58  81 110 153 209 250 286 350
#     4  11  21  35  56  82 114 158 185 228 305 350
#     4  10  19  33  53  80 122 160 170 222 289 343
#     4   9  17  34  56  75 100 145 202 260 301 332
#     4  11  23  35  52  84 120 154 180 233 312 346
#
# _framework density 21.490421999999999
#
# number of rings (size 3 to 8) (size 9 to 14) (size 15 to 20)
#    0.000    1.857    2.857    2.571    0.000    0.571 
#    0.000    6.429    0.000    0.000    0.000    0.000 
#    0.000  258.286    0.000    0.000    0.000    0.000 
#
# Total GULP energy -155914.601431 kJ/mol
# GULP energy per Si atom -5568.378623 kJ/mol
# Density = 2.144151 g / cm^3
# Si number density = 21.490422 Si / 1000 Ang^3
#
#
#
# Elastic Constant Matrix: (Units=GPa)
#
#
# Indices 1 2 3 4 5 6 
#
# 1 116.2747 15.0080 35.1416 0.0000 -10.2819 0.0000
# 2 15.0080 73.3471 6.3683 0.0000 -11.2415 0.0000
# 3 35.1416 6.3683 80.6467 0.0000 -12.4689 0.0000
# 4 0.0000 0.0000 0.0000 19.9284 0.0000 -8.0679
# 5 -10.2819 -11.2415 -12.4689 0.0000 48.4107 0.0000
# 6 0.0000 0.0000 0.0000 -8.0679 0.0000 25.0009
#
#
#
# Elastic Compliance Matrix: (Units=1/GPa)
#
#
# Indices 1 2 3 4 5 6 
#
# 1 0.010133 -0.001603 -0.004180 0.000000 0.000703 0.000000
# 2 -0.001603 0.014422 0.000026 0.000000 0.003015 0.000000
# 3 -0.004180 0.000026 0.014667 0.000000 0.002896 0.000000
# 4 0.000000 0.000000 0.000000 0.057720 0.000000 0.018627
# 5 0.000703 0.003015 0.002896 0.000000 0.022252 0.000000
# 6 0.000000 0.000000 0.000000 0.018627 0.000000 0.046009
#
#
# Mechanical properties :
#
#
# Convention : Reuss Voigt Hill
#
# Bulk Modulus (GPa) = 36.09151 42.58940 39.34046
# Shear Modulus (GPa) = 26.88856 32.91805 29.90330
#
# Velocity S-wave (km/s) = 3.54105 3.91801 3.73429
# Velocity P-wave (km/s) = 5.79219 6.35048 6.07775
#
# Compressibility (1/GPa) = 0.02770735
#
# Stress axis : x y z
#
# Youngs Moduli (GPa) = 98.69049 69.34044 68.18073
#
# Poissons Ratio (x) = 0.11112 0.28500
# Poissons Ratio (y) = 0.15816 -0.00175
# Poissons Ratio (z) = 0.41253 -0.00178
#
# Static dielectric constant tensor:
#      x y z
#    x 1.880790 0.000000 0.044830 
#    y 0.000000 1.774490 0.000000 
#    z 0.044830 0.000000 1.857200 
# 
# From -- ./inp_files/300690.got.cif
#   From: 2010.05.17/outbox.cif.g08.bks.cpg/sg12_151_cif.got.tgz:300690.got - 2010.06.03 13:09:07.
