data_PCOD9182200
_publ_section_title
;
Structure prediction by ZEFSAII (Michael W. Deem and Ramdas Pophale) SiO2 
 PCOD9182200
Probable space group: C 2/M
;
_chemical_formula_sum "Si O2"
_cell_formula_units_Z 52
_cell_length_a 12.208513
_cell_length_b 25.377016
_cell_length_c 9.686572
_cell_angle_alpha 90.000000
_cell_angle_beta 55.907215
_cell_angle_gamma 90.000000
_cell_volume 2485.263481
_symmetry_space_group_name_H-M "C 2/M"
_symmetry_group_IT_number 12
_symmetry_cell_setting 'monoclinic'
loop_
_space_group_symop_operation_xyz
x,y,z
-x,y,-z
-x,-y,-z
x,-y,z
1/2+x,1/2+y,z
1/2-x,1/2+y,-z
1/2-x,1/2-y,-z
1/2+x,1/2-y,z
loop_
_atom_site_type_symbol
_atom_site_label
_atom_site_fract_x
_atom_site_fract_y
_atom_site_fract_z
Si Si1 0.731451 0.328341 0.286414
Si Si2 0.524589 0.939101 0.260458
Si Si3 0.737918 0.883199 0.454242
Si Si4 0.823491 0.061563 0.142410
Si Si5 0.000000 0.619855 0.000000
Si Si6 0.592766 0.337861 0.096598
Si Si7 0.300802 0.291138 0.235520
O O1 0.701388 0.361940 0.444973
O O2 0.876748 0.345859 0.134121
O O3 0.634529 0.338224 0.226105
O O4 0.750016 0.266645 0.304593
O O5 0.400629 0.910211 0.414684
O O6 0.665593 0.934010 0.232759
O O7 0.543664 0.916203 0.095191
O O8 0.489230 0.000000 0.280306
O O9 0.834410 0.920126 0.294614
O O10 0.710653 0.832890 0.377383
O O11 0.858046 0.000000 0.095373
O O12 0.888740 0.104382 0.991182
O O13 0.449281 0.309630 0.179580
O O14 0.692353 0.302212 0.933170
#
# Coordination Sequence:
#
# PCOD9182200 Si02
#       7
#     8   8   8   8   4   8   8
#     4  11  21  38  60  87 122 158 196 249 298 344
#     4  10  19  34  57  85 118 156 195 247 302 349
#     4  10  22  36  54  85 122 153 196 242 289 360
#     4  10  20  39  62  87 119 160 201 247 299 354
#     4  10  19  32  56  92 116 144 199 250 298 350
#     4  10  21  40  62  88 117 159 203 249 292 354
#     4  10  22  40  59  86 120 157 206 240 293 358
#
# _framework density 20.923334000000001
#
# number of rings (size 3 to 8) (size 9 to 14) (size 15 to 20)
#    0.000    1.846    1.538    3.000    0.000    1.846 
#    5.538    7.692    0.000    0.000    0.000   19.385 
#    0.000    0.000    0.000    0.000    0.000    0.000 
#
# Total GULP energy -145136.515376 kJ/mol
# GULP energy per Si atom -5582.173668 kJ/mol
# Density = 2.087571 g / cm^3
# Si number density = 20.923334 Si / 1000 Ang^3
#
#
#
# Elastic Constant Matrix: (Units=GPa)
#
#
# Indices 1 2 3 4 5 6 
#
# 1 123.5903 73.3159 110.5293 0.0000 25.2579 0.0000
# 2 73.3159 157.2776 74.7095 0.0000 7.7880 0.0000
# 3 110.5293 74.7095 175.4484 0.0000 16.2404 0.0000
# 4 0.0000 0.0000 0.0000 13.9960 0.0000 3.9204
# 5 25.2579 7.7880 16.2404 0.0000 25.9274 0.0000
# 6 0.0000 0.0000 0.0000 3.9204 0.0000 23.4062
#
#
#
# Elastic Compliance Matrix: (Units=1/GPa)
#
#
# Indices 1 2 3 4 5 6 
#
# 1 0.025353 -0.005197 -0.012332 0.000000 -0.015413 0.000000
# 2 -0.005197 0.009038 -0.000840 0.000000 0.002875 0.000000
# 3 -0.012332 -0.000840 0.013472 0.000000 0.003827 0.000000
# 4 0.000000 0.000000 0.000000 0.074966 0.000000 -0.012556
# 5 -0.015413 0.002875 0.003827 0.000000 0.050323 0.000000
# 6 0.000000 0.000000 0.000000 -0.012556 0.000000 0.044827
#
#
# Mechanical properties :
#
#
# Convention : Reuss Voigt Hill
#
# Bulk Modulus (GPa) = 89.90017 108.15840 99.02928
# Shear Modulus (GPa) = 19.34783 25.85004 22.59894
#
# Velocity S-wave (km/s) = 3.04419 3.51873 3.29003
# Velocity P-wave (km/s) = 7.44418 8.26520 7.86541
#
# Compressibility (1/GPa) = 0.01112345
#
# Stress axis : x y z
#
# Youngs Moduli (GPa) = 39.44270 110.64659 74.22616
#
# Poissons Ratio (x) = 0.57507 0.91538
# Poissons Ratio (y) = 0.20500 0.06238
# Poissons Ratio (z) = 0.48642 0.09298
#
# Static dielectric constant tensor:
#      x y z
#    x 1.766680 0.000000 0.026600 
#    y 0.000000 1.756820 0.000000 
#    z 0.026600 0.000000 1.766290 
# 
# From -- ./inp_files/53106.got.cif
#   From: 2010.05.17/outbox.cif.g08.bks.cpg/sg12_27_cif.got.tgz:53106.got - 2010.06.03 13:09:07.
