data_PCOD9182233
_publ_section_title
;
Structure prediction by ZEFSAII (Michael W. Deem and Ramdas Pophale) SiO2 
 PCOD9182233
Probable space group: C 2/M
;
_chemical_formula_sum "Si O2"
_cell_formula_units_Z 64
_cell_length_a 11.571592
_cell_length_b 27.443369
_cell_length_c 19.133052
_cell_angle_alpha 90.000000
_cell_angle_beta 150.824901
_cell_angle_gamma 90.000000
_cell_volume 2961.909627
_symmetry_space_group_name_H-M "C 2/M"
_symmetry_group_IT_number 12
_symmetry_cell_setting 'monoclinic'
loop_
_space_group_symop_operation_xyz
x,y,z
-x,y,-z
-x,-y,-z
x,-y,z
1/2+x,1/2+y,z
1/2-x,1/2+y,-z
1/2-x,1/2-y,-z
1/2+x,1/2-y,z
loop_
_atom_site_type_symbol
_atom_site_label
_atom_site_fract_x
_atom_site_fract_y
_atom_site_fract_z
Si Si1 0.690091 0.304063 0.656679
Si Si2 0.345883 0.054486 0.356516
Si Si3 0.754497 0.556454 0.547925
Si Si4 0.841248 0.170285 0.862703
Si Si5 0.960066 0.383245 0.193432
Si Si6 0.434747 0.213049 0.561401
Si Si7 0.384026 0.383544 0.105025
Si Si8 0.474892 0.639813 0.668168
O O1 0.500000 0.323283 0.500000
O O2 0.634603 0.246394 0.628174
O O3 0.625497 0.324967 0.698011
O O4 0.932627 0.329278 0.763444
O O5 0.500000 0.078408 0.500000
O O6 0.510002 0.053903 0.375686
O O7 0.096557 0.078186 0.211058
O O8 0.294984 0.000000 0.354433
O O9 0.671831 0.500000 0.513128
O O10 0.589033 0.592624 0.413967
O O11 0.841994 0.582355 0.666010
O O12 0.754346 0.124614 0.864868
O O13 0.593152 0.188982 0.704226
O O14 0.005503 0.160254 0.882695
O O15 0.000000 0.201504 0.000000
O O16 0.849120 0.399581 0.060703
O O17 0.250000 0.250000 0.500000
O O18 0.267873 0.170262 0.442346
O O19 0.381971 0.372040 0.185952
#
# Coordination Sequence:
#
# PCOD9182233 Si02
#       8
#     8   8   8   8   8   8   8   8
#     4  11  23  41  67  88 120 168 217 263 309 375
#     4  10  19  32  57  92 123 155 204 259 314 376
#     4  11  21  37  66  95 124 167 214 256 311 380
#     4  10  21  40  59  85 125 167 198 252 324 376
#     4  11  22  43  60  89 131 165 209 261 315 376
#     4  10  21  39  63  88 118 158 213 259 311 368
#     4  11  23  36  62  90 128 166 195 261 333 371
#     4  11  22  41  63  92 128 161 213 265 312 373
#
# _framework density 21.607679999999998
#
# number of rings (size 3 to 8) (size 9 to 14) (size 15 to 20)
#    0.000    1.375    5.000    0.750    1.750    1.000 
#    4.500    3.750    0.000    0.000    0.000    2.625 
#    0.000    0.000    0.000    0.000    0.000    0.000 
#
# Total GULP energy -178226.372317 kJ/mol
# GULP energy per Si atom -5569.574135 kJ/mol
# Density = 2.155850 g / cm^3
# Si number density = 21.607680 Si / 1000 Ang^3
#
#
#
# Elastic Constant Matrix: (Units=GPa)
#
#
# Indices 1 2 3 4 5 6 
#
# 1 57.5516 16.6560 19.0001 0.0106 -21.7457 0.0051
# 2 16.6560 79.1946 23.7213 0.0087 -14.8860 0.0025
# 3 19.0001 23.7213 129.1962 0.0245 -46.2061 0.0130
# 4 0.0106 0.0087 0.0245 -36.3832 -0.0007 -19.1924
# 5 -21.7457 -14.8860 -46.2061 -0.0007 38.5955 0.0003
# 6 0.0051 0.0025 0.0130 -19.1924 0.0003 16.2921
#
#
#
# Elastic Compliance Matrix: (Units=1/GPa)
#
#
# Indices 1 2 3 4 5 6 
#
# 1 0.022956 -0.002778 0.002407 0.000007 0.014745 0.000000
# 2 -0.002778 0.014038 -0.001386 0.000001 0.002191 0.000001
# 3 0.002407 -0.001386 0.013876 0.000010 0.017434 0.000000
# 4 0.000007 0.000001 0.000010 -0.016951 0.000016 -0.019969
# 5 0.014745 0.002191 0.017434 0.000016 0.055934 -0.000001
# 6 0.000000 0.000001 0.000000 -0.019969 -0.000001 0.037855
#
#
# Mechanical properties :
#
#
# Convention : Reuss Voigt Hill
#
# Bulk Modulus (GPa) = 21.11567 42.74410 31.92989
# Shear Modulus (GPa) = 34.01244 17.47188 25.74216
#
# Velocity S-wave (km/s) = 3.97178 2.84667 3.45533
# Velocity P-wave (km/s) = 5.55220 5.53440 5.54331
#
# Compressibility (1/GPa) = 0.04735819
#
# Stress axis : x y z
#
# Youngs Moduli (GPa) = 43.56148 71.23478 72.06923
#
# Poissons Ratio (x) = 0.19786 -0.17350
# Poissons Ratio (y) = 0.12100 0.09985
# Poissons Ratio (z) = -0.10487 0.09870
#
# Static dielectric constant tensor:
#      x y z
#    x 1.869590 0.000000 -0.072750 
#    y 0.000000 1.840560 0.000000 
#    z -0.072750 0.000000 1.891620 
# 
# From -- ./inp_files/266314.got.cif
#   From: 2010.05.17/outbox.cif.g08.bks.cpg/sg12_134_cif.got.tgz:266314.got - 2010.06.03 13:09:07.
