data_PCOD9182448
_publ_section_title
;
Structure prediction by ZEFSAII (Michael W. Deem and Ramdas Pophale) SiO2 
 PCOD9182448
Probable space group: C 2/M
;
_chemical_formula_sum "Si O2"
_cell_formula_units_Z 64
_cell_length_a 24.127062
_cell_length_b 28.576568
_cell_length_c 17.191783
_cell_angle_alpha 90.000000
_cell_angle_beta 162.302428
_cell_angle_gamma 90.000000
_cell_volume 3603.284645
_symmetry_space_group_name_H-M "C 2/M"
_symmetry_group_IT_number 12
_symmetry_cell_setting 'monoclinic'
loop_
_space_group_symop_operation_xyz
x,y,z
-x,y,-z
-x,-y,-z
x,-y,z
1/2+x,1/2+y,z
1/2-x,1/2+y,-z
1/2-x,1/2-y,-z
1/2+x,1/2-y,z
loop_
_atom_site_type_symbol
_atom_site_label
_atom_site_fract_x
_atom_site_fract_y
_atom_site_fract_z
Si Si1 0.796166 0.052894 0.193650
Si Si2 0.342460 0.292507 0.486682
Si Si3 0.746096 0.769002 0.183426
Si Si4 0.244102 0.704793 0.936854
Si Si5 0.406119 0.285802 0.792041
Si Si6 0.550109 0.053855 0.154182
Si Si7 0.350112 0.147515 0.054080
Si Si8 0.210027 0.641380 0.430417
O O1 0.000000 0.057607 0.500000
O O2 0.782611 0.000000 0.141729
O O3 0.638478 0.055899 0.048866
O O4 0.751067 0.097719 0.080579
O O5 0.329303 0.284158 0.376995
O O6 0.543470 0.309368 0.778143
O O7 0.279975 0.242959 0.440237
O O8 0.205420 0.329592 0.343103
O O9 0.815320 0.724567 0.225772
O O10 0.542907 0.750569 0.933020
O O11 0.755191 0.813588 0.138651
O O12 0.250000 0.750000 0.000000
O O13 0.129414 0.667107 0.831278
O O14 0.364534 0.331736 0.686448
O O15 0.500000 0.296812 0.000000
O O16 0.702731 0.087465 0.395075
O O17 0.610315 0.000000 0.232723
O O18 0.500000 0.068867 0.000000
O O19 0.536787 0.144430 0.255830
#
# Coordination Sequence:
#
# PCOD9182448 Si02
#       8
#     8   8   8   8   8   8   8   8
#     4   9  19  34  50  71 105 140 174 213 257 313
#     4  11  21  31  54  70 100 138 175 212 254 300
#     4  10  20  33  47  72  99 133 175 213 251 297
#     4  10  21  34  45  68 103 132 169 216 252 300
#     4  10  19  33  51  75 100 133 175 219 250 305
#     4   9  20  35  52  79 109 134 169 218 265 308
#     4  10  21  31  50  72 104 133 178 213 258 308
#     4  11  20  33  55  76  99 138 178 212 258 316
#
# _framework density 17.761572000000001
#
# number of rings (size 3 to 8) (size 9 to 14) (size 15 to 20)
#    0.000    2.000    2.500    1.875    5.250    1.500 
#    0.000    0.000    0.000    0.375    0.000    0.000 
#    0.000    0.000    0.000   24.250    0.000    0.000 
#
# Total GULP energy -178171.167750 kJ/mol
# GULP energy per Si atom -5567.848992 kJ/mol
# Density = 1.772115 g / cm^3
# Si number density = 17.761572 Si / 1000 Ang^3
#
#
#
# Elastic Constant Matrix: (Units=GPa)
#
#
# Indices 1 2 3 4 5 6 
#
# 1 92.5193 33.2709 18.0009 0.0000 -9.3797 0.0000
# 2 33.2709 106.5253 25.5233 0.0000 -6.8185 0.0000
# 3 18.0009 25.5233 52.0369 0.0001 -2.4888 0.0001
# 4 0.0000 0.0000 0.0001 23.3366 0.0000 -2.9090
# 5 -9.3797 -6.8185 -2.4888 0.0000 23.0541 0.0000
# 6 0.0000 0.0000 0.0001 -2.9090 0.0000 21.7097
#
#
#
# Elastic Compliance Matrix: (Units=1/GPa)
#
#
# Indices 1 2 3 4 5 6 
#
# 1 0.012865 -0.003105 -0.002735 0.000000 0.004021 0.000000
# 2 -0.003105 0.011544 -0.004508 0.000000 0.001664 0.000000
# 3 -0.002735 -0.004508 0.022373 0.000000 -0.000031 0.000000
# 4 0.000000 0.000000 0.000000 0.043579 0.000000 0.005839
# 5 0.004021 0.001664 -0.000031 0.000000 0.045501 0.000000
# 6 0.000000 0.000000 0.000000 0.005839 0.000000 0.046845
#
#
# Mechanical properties :
#
#
# Convention : Reuss Voigt Hill
#
# Bulk Modulus (GPa) = 38.33664 44.96353 41.65008
# Shear Modulus (GPa) = 23.57387 25.23916 24.40652
#
# Velocity S-wave (km/s) = 3.64708 3.77370 3.71093
# Velocity P-wave (km/s) = 6.27422 6.66016 6.47007
#
# Compressibility (1/GPa) = 0.02608471
#
# Stress axis : x y z
#
# Youngs Moduli (GPa) = 77.73007 86.62449 44.69680
#
# Poissons Ratio (x) = 0.26901 0.12224
# Poissons Ratio (y) = 0.24139 0.20151
# Poissons Ratio (z) = 0.21258 0.39053
#
# Static dielectric constant tensor:
#      x y z
#    x 1.676940 0.000000 0.050180 
#    y 0.000000 1.621650 0.000000 
#    z 0.050180 0.000000 1.695920 
# 
# From -- ./inp_files/291218.got.cif
#   From: 2010.05.17/outbox.cif.g08.bks.cpg/sg12_146_cif.got.tgz:291218.got - 2010.06.03 13:09:07.
