data_PCOD9182960
_publ_section_title
;
Structure prediction by ZEFSAII (Michael W. Deem and Ramdas Pophale) SiO2 
 PCOD9182960
Probable space group: C 2/M
;
_chemical_formula_sum "Si O2"
_cell_formula_units_Z 64
_cell_length_a 16.012005
_cell_length_b 7.895936
_cell_length_c 24.629244
_cell_angle_alpha 90.000000
_cell_angle_beta 89.970100
_cell_angle_gamma 90.000000
_cell_volume 3113.869149
_symmetry_space_group_name_H-M "C 2/M"
_symmetry_group_IT_number 12
_symmetry_cell_setting 'monoclinic'
loop_
_space_group_symop_operation_xyz
x,y,z
-x,y,-z
-x,-y,-z
x,-y,z
1/2+x,1/2+y,z
1/2-x,1/2+y,-z
1/2-x,1/2-y,-z
1/2+x,1/2-y,z
loop_
_atom_site_type_symbol
_atom_site_label
_atom_site_fract_x
_atom_site_fract_y
_atom_site_fract_z
Si Si1 0.472030 0.796326 0.940320
Si Si2 0.779599 0.201818 0.939506
Si Si3 0.625445 0.204315 0.866937
Si Si4 0.966997 0.796615 0.673395
Si Si5 0.125959 0.795611 0.741142
Si Si6 0.785319 0.703963 0.673158
Si Si7 0.279318 0.296723 0.440064
Si Si8 0.029365 0.206940 0.559029
O O1 0.375082 0.756668 0.929517
O O2 0.540893 0.734638 0.897013
O O3 0.478027 0.000000 0.941495
O O4 0.500000 0.733649 0.000000
O O5 0.708816 0.267422 0.897879
O O6 0.778985 0.000000 0.935944
O O7 0.750000 0.250000 0.000000
O O8 0.626126 0.249927 0.804004
O O9 0.625748 0.000000 0.871118
O O10 0.875889 0.751920 0.694517
O O11 0.043094 0.733288 0.710185
O O12 0.977616 0.734469 0.611256
O O13 0.973580 0.000000 0.671548
O O14 0.208684 0.734369 0.709844
O O15 0.125879 0.000000 0.737069
O O16 0.780834 0.500000 0.671846
O O17 0.773572 0.767724 0.611136
O O18 0.278286 0.500000 0.437590
O O19 0.250000 0.250000 0.500000
O O20 0.374904 0.242732 0.432278
O O21 0.000000 0.266541 0.500000
O O22 0.025968 0.000000 0.557959
#
# Coordination Sequence:
#
# PCOD9182960 Si02
#       8
#     8   8   8   8   8   8   8   8
#     4  10  20  39  62  87 123 161 194 239 296 349
#     4  11  22  38  61  91 124 159 199 243 293 349
#     4  10  23  41  61  87 122 158 195 241 292 344
#     4  10  20  37  60  84 109 147 197 239 280 343
#     4  10  22  41  61  82 115 156 199 240 283 343
#     4  10  21  38  58  82 115 152 188 238 297 345
#     4  10  19  33  53  80 113 146 185 235 288 346
#     4   9  16  29  52  79 107 141 183 228 278 338
#
# _framework density 20.553207
#
# number of rings (size 3 to 8) (size 9 to 14) (size 15 to 20)
#    0.000    2.000    2.500    1.125    0.000    5.250 
#    0.000    5.625    0.000    2.250    0.000    0.000 
#    0.000    0.000    0.000    0.000    0.000    0.000 
#
# Total GULP energy -178691.044048 kJ/mol
# GULP energy per Si atom -5584.095127 kJ/mol
# Density = 2.050643 g / cm^3
# Si number density = 20.553207 Si / 1000 Ang^3
#
#
#
# Elastic Constant Matrix: (Units=GPa)
#
#
# Indices 1 2 3 4 5 6 
#
# 1 210.8920 9.4879 102.9589 0.0000 -0.4432 0.0000
# 2 9.4879 18.8007 7.3711 0.0000 -0.2241 0.0000
# 3 102.9589 7.3711 166.3565 0.0000 0.6875 0.0000
# 4 0.0000 0.0000 0.0000 24.5437 0.0000 -0.6765
# 5 -0.4432 -0.2241 0.6875 0.0000 31.1187 0.0000
# 6 0.0000 0.0000 0.0000 -0.6765 0.0000 24.5146
#
#
#
# Elastic Compliance Matrix: (Units=1/GPa)
#
#
# Indices 1 2 3 4 5 6 
#
# 1 0.006857 -0.001826 -0.004164 0.000000 0.000177 0.000000
# 2 -0.001826 0.054622 -0.001292 0.000000 0.000396 0.000000
# 3 -0.004164 -0.001292 0.008646 0.000000 -0.000260 0.000000
# 4 0.000000 0.000000 0.000000 0.040775 0.000000 0.001125
# 5 0.000177 0.000396 -0.000260 0.000000 0.032146 0.000000
# 6 0.000000 0.000000 0.000000 0.001125 0.000000 0.040823
#
#
# Mechanical properties :
#
#
# Convention : Reuss Voigt Hill
#
# Bulk Modulus (GPa) = 17.99763 70.63165 44.31464
# Shear Modulus (GPa) = 23.04645 34.45084 28.74864
#
# Velocity S-wave (km/s) = 3.35222 4.09856 3.74403
# Velocity P-wave (km/s) = 4.87430 7.53906 6.34808
#
# Compressibility (1/GPa) = 0.05556288
#
# Stress axis : x y z
#
# Youngs Moduli (GPa) = 145.83620 18.30756 115.65490
#
# Poissons Ratio (x) = 0.03343 0.48155
# Poissons Ratio (y) = 0.26628 0.14941
# Poissons Ratio (z) = 0.60721 0.02365
#
# Static dielectric constant tensor:
#      x y z
#    x 1.728590 0.000000 0.009520 
#    y 0.000000 1.753710 0.000000 
#    z 0.009520 0.000000 1.712600 
# 
# From -- ./inp_files/338910.got.cif
#   From: 2010.05.17/outbox.cif.g08.bks.cpg/sg12_170_cif.got.tgz:338910.got - 2010.06.03 13:09:07.
