data_PCOD9182859
_publ_section_title
;
Structure prediction by ZEFSAII (Michael W. Deem and Ramdas Pophale) SiO2 
 PCOD9182859
Probable space group: C 2/M
;
_chemical_formula_sum "Si O2"
_cell_formula_units_Z 56
_cell_length_a 34.483066
_cell_length_b 8.948072
_cell_length_c 15.416271
_cell_angle_alpha 90.000000
_cell_angle_beta 45.743191
_cell_angle_gamma 90.000000
_cell_volume 3406.908936
_symmetry_space_group_name_H-M "C 2/M"
_symmetry_group_IT_number 12
_symmetry_cell_setting 'monoclinic'
loop_
_space_group_symop_operation_xyz
x,y,z
-x,y,-z
-x,-y,-z
x,-y,z
1/2+x,1/2+y,z
1/2-x,1/2+y,-z
1/2-x,1/2-y,-z
1/2+x,1/2-y,z
loop_
_atom_site_type_symbol
_atom_site_label
_atom_site_fract_x
_atom_site_fract_y
_atom_site_fract_z
Si Si1 0.619124 0.179163 0.850177
Si Si2 0.932133 0.820451 0.239745
Si Si3 0.851403 0.820440 0.523069
Si Si4 0.259223 0.819932 0.391280
Si Si5 0.578351 0.179430 0.441928
Si Si6 0.956943 0.319882 0.691516
Si Si7 0.945315 0.821325 0.893404
O O1 0.585331 0.240420 0.821075
O O2 0.681835 0.221366 0.736568
O O3 0.615299 0.000000 0.859449
O O4 0.595300 0.249327 0.974490
O O5 0.890985 0.778099 0.381293
O O6 0.993278 0.784212 0.172167
O O7 0.928459 0.000000 0.233133
O O8 0.790655 0.774922 0.592444
O O9 0.874957 0.750905 0.573637
O O10 0.853261 0.000000 0.527194
O O11 0.250000 0.750000 0.500000
O O12 0.257446 0.000000 0.402481
O O13 0.575408 0.222565 0.345304
O O14 0.519884 0.219893 0.574630
O O15 0.582245 0.000000 0.439287
O O16 0.954374 0.500000 0.704380
O O17 0.937851 0.242264 0.808683
O O18 0.940181 0.000000 0.901605
#
# Coordination Sequence:
#
# PCOD9182859 Si02
#       7
#     8   8   8   8   8   8   8
#     4  11  23  36  52  75 102 139 180 215 253 302
#     4  10  20  34  51  75 107 140 170 207 257 307
#     4  10  19  33  53  77 107 137 167 212 260 303
#     4  10  21  36  54  75 101 135 176 216 257 299
#     4   9  18  32  52  79 107 136 168 207 258 308
#     4   9  18  33  52  76 108 138 167 208 255 306
#     4  11  22  35  52  76 106 141 174 208 255 310
#
# _framework density 16.437187000000002
#
# number of rings (size 3 to 8) (size 9 to 14) (size 15 to 20)
#    0.000    2.000    2.857    2.143    0.000    5.143 
#    0.000    1.429    0.000    0.857    0.000    0.000 
#    0.000    0.000    0.000    0.000    0.000    0.000 
#
# Total GULP energy -156290.086240 kJ/mol
# GULP energy per Si atom -5581.788794 kJ/mol
# Density = 1.639978 g / cm^3
# Si number density = 16.437187 Si / 1000 Ang^3
#
#
#
# Elastic Constant Matrix: (Units=GPa)
#
#
# Indices 1 2 3 4 5 6 
#
# 1 142.8404 41.4157 74.9851 0.0000 23.4268 0.0000
# 2 41.4157 24.0534 43.7126 -0.0002 7.3212 -0.0004
# 3 74.9851 43.7126 129.2389 0.0000 16.2983 0.0000
# 4 0.0000 -0.0002 0.0000 21.4974 0.0000 7.0397
# 5 23.4268 7.3212 16.2983 0.0000 23.5667 0.0000
# 6 0.0000 -0.0004 0.0000 7.0397 0.0000 31.1174
#
#
#
# Elastic Compliance Matrix: (Units=1/GPa)
#
#
# Indices 1 2 3 4 5 6 
#
# 1 0.015157 -0.024738 0.000552 0.000000 -0.007764 0.000000
# 2 -0.024738 0.150067 -0.036839 0.000001 0.003449 0.000002
# 3 0.000552 -0.036839 0.020271 0.000000 -0.003124 0.000000
# 4 0.000000 0.000001 0.000000 0.050239 0.000000 -0.011366
# 5 -0.007764 0.003449 -0.003124 0.000000 0.051239 0.000000
# 6 0.000000 0.000002 0.000000 -0.011366 0.000000 0.034708
#
#
# Mechanical properties :
#
#
# Convention : Reuss Voigt Hill
#
# Bulk Modulus (GPa) = 15.76153 68.48437 42.12295
# Shear Modulus (GPa) = 10.75546 24.30424 17.52985
#
# Velocity S-wave (km/s) = 2.56078 3.84945 3.26924
# Velocity P-wave (km/s) = 4.28406 7.84298 6.31924
#
# Compressibility (1/GPa) = 0.06344562
#
# Stress axis : x y z
#
# Youngs Moduli (GPa) = 65.97675 6.66368 49.33047
#
# Poissons Ratio (x) = 0.16484 -0.02723
# Poissons Ratio (y) = 1.63210 1.81730
# Poissons Ratio (z) = -0.03642 0.24549
#
# Static dielectric constant tensor:
#      x y z
#    x 1.540270 0.000000 -0.007700 
#    y 0.000000 1.550090 0.000000 
#    z -0.007700 0.000000 1.533520 
# 
# From -- ./inp_files/237389.got.cif
#   From: 2010.05.17/outbox.cif.g08.bks.cpg/sg12_119_cif.got.tgz:237389.got - 2010.06.03 13:09:07.
