data_PCOD9182249
_publ_section_title
;
Structure prediction by ZEFSAII (Michael W. Deem and Ramdas Pophale) SiO2 
 PCOD9182249
Probable space group: C 2/M
;
_chemical_formula_sum "Si O2"
_cell_formula_units_Z 36
_cell_length_a 9.550900
_cell_length_b 20.052201
_cell_length_c 15.848784
_cell_angle_alpha 90.000000
_cell_angle_beta 35.288024
_cell_angle_gamma 90.000000
_cell_volume 1753.456131
_symmetry_space_group_name_H-M "C 2/M"
_symmetry_group_IT_number 12
_symmetry_cell_setting 'monoclinic'
loop_
_space_group_symop_operation_xyz
x,y,z
-x,y,-z
-x,-y,-z
x,-y,z
1/2+x,1/2+y,z
1/2-x,1/2+y,-z
1/2-x,1/2-y,-z
1/2+x,1/2-y,z
loop_
_atom_site_type_symbol
_atom_site_label
_atom_site_fract_x
_atom_site_fract_y
_atom_site_fract_z
Si Si1 0.372602 0.707993 0.865965
Si Si2 0.887267 0.386398 0.431291
Si Si3 0.387664 0.575941 0.259837
Si Si4 0.370025 0.254090 0.682752
Si Si5 0.000000 0.127010 0.500000
O O1 0.396824 0.628421 0.864073
O O2 0.277923 0.730399 0.821890
O O3 0.655563 0.727618 0.729572
O O4 0.250000 0.750000 0.000000
O O5 0.732609 0.407708 0.589483
O O6 0.738409 0.407847 0.420939
O O7 0.158794 0.415421 0.308673
O O8 0.938483 0.306364 0.407301
O O9 0.470115 0.500000 0.218248
O O10 0.439981 0.323660 0.606736
#
# Coordination Sequence:
#
# PCOD9182249 Si02
#       5
#     8   8   8   8   4
#     4  11  22  37  60  86 117 159 206 250 286 344
#     4  10  19  32  58  88 121 154 186 245 305 356
#     4  10  21  39  59  84 119 162 200 236 301 368
#     4  11  20  34  55  91 121 147 195 254 305 340
#     4  12  18  30  55  90 127 144 182 258 310 336
#
# _framework density 20.530881999999998
#
# number of rings (size 3 to 8) (size 9 to 14) (size 15 to 20)
#    0.000    1.333    4.444    5.333    0.000    0.000 
#    0.000    2.222    0.000   14.667    0.000    0.000 
#    0.000    0.000    0.000    0.000    0.000    0.000 
#
# Total GULP energy -100383.534779 kJ/mol
# GULP energy per Si atom -5576.863043 kJ/mol
# Density = 2.048415 g / cm^3
# Si number density = 20.530882 Si / 1000 Ang^3
#
#
#
# Elastic Constant Matrix: (Units=GPa)
#
#
# Indices 1 2 3 4 5 6 
#
# 1 109.3478 5.8051 2.8440 -0.0011 5.2274 0.0014
# 2 5.8051 132.0239 28.2152 0.0054 8.4986 -0.0017
# 3 2.8440 28.2152 47.0025 0.0132 22.2301 -0.0069
# 4 -0.0011 0.0054 0.0132 14.0724 -0.0044 -5.8303
# 5 5.2274 8.4986 22.2301 -0.0044 31.1137 0.0006
# 6 0.0014 -0.0017 -0.0069 -5.8303 0.0006 12.9058
#
#
#
# Elastic Compliance Matrix: (Units=1/GPa)
#
#
# Indices 1 2 3 4 5 6 
#
# 1 0.009240 -0.000406 0.000554 -0.000001 -0.001837 -0.000001
# 2 -0.000406 0.008794 -0.006269 0.000003 0.002145 -0.000001
# 3 0.000554 -0.006269 0.036611 -0.000039 -0.024538 0.000002
# 4 -0.000001 0.000003 -0.000039 0.087424 0.000039 0.039494
# 5 -0.001837 0.002145 -0.024538 0.000039 0.049395 0.000002
# 6 -0.000001 -0.000001 0.000002 0.039494 0.000002 0.095326
#
#
# Mechanical properties :
#
#
# Convention : Reuss Voigt Hill
#
# Bulk Modulus (GPa) = 23.58416 40.23363 31.90889
# Shear Modulus (GPa) = 15.96595 28.38573 22.17584
#
# Velocity S-wave (km/s) = 2.79167 3.72235 3.29009
# Velocity P-wave (km/s) = 4.68010 6.17363 5.47800
#
# Compressibility (1/GPa) = 0.04240133
#
# Stress axis : x y z
#
# Youngs Moduli (GPa) = 108.22369 113.71509 27.31455
#
# Poissons Ratio (x) = 0.04621 -0.01512
# Poissons Ratio (y) = 0.04398 0.17123
# Poissons Ratio (z) = -0.05992 0.71287
#
# Static dielectric constant tensor:
#      x y z
#    x 1.777120 0.000000 -0.043660 
#    y 0.000000 1.785020 0.000000 
#    z -0.043660 0.000000 1.742880 
# 
# From -- ./inp_files/77890.got.cif
#   From: 2010.05.17/outbox.cif.g08.bks.cpg/sg12_39_cif.got.tgz:77890.got - 2010.06.03 13:09:07.
