data_PCOD9182405
_publ_section_title
;
Structure prediction by ZEFSAII (Michael W. Deem and Ramdas Pophale) SiO2 
 PCOD9182405
Probable space group: C 2/M
;
_chemical_formula_sum "Si O2"
_cell_formula_units_Z 56
_cell_length_a 30.873796
_cell_length_b 13.349000
_cell_length_c 8.460647
_cell_angle_alpha 90.000000
_cell_angle_beta 72.972595
_cell_angle_gamma 90.000000
_cell_volume 3334.072902
_symmetry_space_group_name_H-M "C 2/M"
_symmetry_group_IT_number 12
_symmetry_cell_setting 'monoclinic'
loop_
_space_group_symop_operation_xyz
x,y,z
-x,y,-z
-x,-y,-z
x,-y,z
1/2+x,1/2+y,z
1/2-x,1/2+y,-z
1/2-x,1/2-y,-z
1/2+x,1/2-y,z
loop_
_atom_site_type_symbol
_atom_site_label
_atom_site_fract_x
_atom_site_fract_y
_atom_site_fract_z
Si Si1 0.552772 0.378734 0.258901
Si Si2 0.143689 0.210499 0.032302
Si Si3 0.771121 0.888626 0.900912
Si Si4 0.712163 0.268869 0.410227
Si Si5 0.451723 0.379522 0.366937
Si Si6 0.358185 0.620848 0.303129
Si Si7 0.181311 0.615858 0.199964
O O1 0.556735 0.500000 0.239510
O O2 0.593307 0.327192 0.123467
O O3 0.502046 0.347122 0.262125
O O4 0.556491 0.351925 0.441125
O O5 0.180470 0.141051 0.081299
O O6 0.152475 0.318601 0.104354
O O7 0.152288 0.188380 0.838941
O O8 0.762038 0.815408 0.766944
O O9 0.772682 0.000000 0.835554
O O10 0.732027 0.883613 0.072521
O O11 0.750000 0.250000 0.500000
O O12 0.676013 0.346413 0.521769
O O13 0.685607 0.173964 0.362588
O O14 0.453918 0.500000 0.365885
O O15 0.409119 0.353891 0.305163
O O16 0.354998 0.500000 0.275383
O O17 0.166973 0.500000 0.229556
#
# Coordination Sequence:
#
# PCOD9182405 Si02
#       7
#     8   8   8   8   8   8   8
#     4   9  16  29  49  73 102 135 166 199 244 305
#     4  11  20  32  50  73  99 134 170 202 242 298
#     4  10  19  33  51  70  95 128 163 204 253 302
#     4  11  21  33  50  75 101 130 167 207 249 299
#     4   8  16  29  46  72 105 134 161 196 246 308
#     4  11  21  32  49  78 111 135 159 199 251 310
#     4  10  22  38  53  69  96 134 177 218 250 285
#
# _framework density 16.796272999999999
#
# number of rings (size 3 to 8) (size 9 to 14) (size 15 to 20)
#    0.000    2.000    0.000    7.714    0.000    4.000 
#    0.000    2.857    0.000    0.000    0.000   10.000 
#    0.000    0.000    0.000    0.000    0.000    0.000 
#
# Total GULP energy -156037.741375 kJ/mol
# GULP energy per Si atom -5572.776478 kJ/mol
# Density = 1.675804 g / cm^3
# Si number density = 16.796273 Si / 1000 Ang^3
#
#
#
# Elastic Constant Matrix: (Units=GPa)
#
#
# Indices 1 2 3 4 5 6 
#
# 1 71.9634 21.3436 15.0292 0.0000 7.0976 0.0000
# 2 21.3436 92.0506 19.2629 0.0000 11.6506 0.0000
# 3 15.0292 19.2629 43.4874 0.0000 4.0224 0.0000
# 4 0.0000 0.0000 0.0000 15.0757 0.0000 -1.2035
# 5 7.0976 11.6506 4.0224 0.0000 31.9057 0.0000
# 6 0.0000 0.0000 0.0000 -1.2035 0.0000 15.4916
#
#
#
# Elastic Compliance Matrix: (Units=1/GPa)
#
#
# Indices 1 2 3 4 5 6 
#
# 1 0.015707 -0.002519 -0.004122 0.000000 -0.002054 0.000000
# 2 -0.002519 0.012837 -0.004486 0.000000 -0.003562 0.000000
# 3 -0.004122 -0.004486 0.026479 0.000000 -0.000783 0.000000
# 4 0.000000 0.000000 0.000000 0.066746 0.000000 0.005185
# 5 -0.002054 -0.003562 -0.000783 0.000000 0.033199 0.000000
# 6 0.000000 0.000000 0.000000 0.005185 0.000000 0.064954
#
#
# Mechanical properties :
#
#
# Convention : Reuss Voigt Hill
#
# Bulk Modulus (GPa) = 30.51766 35.41921 32.96844
# Shear Modulus (GPa) = 19.75501 22.61897 21.18699
#
# Velocity S-wave (km/s) = 3.43323 3.67368 3.55549
# Velocity P-wave (km/s) = 5.82450 6.25523 6.04370
#
# Compressibility (1/GPa) = 0.03276791
#
# Stress axis : x y z
#
# Youngs Moduli (GPa) = 63.66725 77.89794 37.76515
#
# Poissons Ratio (x) = 0.19624 0.15568
# Poissons Ratio (y) = 0.16039 0.16942
# Poissons Ratio (z) = 0.26245 0.34947
#
# Static dielectric constant tensor:
#      x y z
#    x 1.580590 0.000000 0.014430 
#    y 0.000000 1.579100 0.000000 
#    z 0.014430 0.000000 1.598960 
# 
# From -- ./inp_files/103965.got.cif
#   From: 2010.05.17/outbox.cif.g08.bks.cpg/sg12_52_cif.got.tgz:103965.got - 2010.06.03 13:09:07.
