data_PCOD9182042
_publ_section_title
;
Structure prediction by ZEFSAII (Michael W. Deem and Ramdas Pophale) SiO2 
 PCOD9182042
Probable space group: C 2/M
;
_chemical_formula_sum "Si O2"
_cell_formula_units_Z 56
_cell_length_a 25.020683
_cell_length_b 18.796791
_cell_length_c 7.303227
_cell_angle_alpha 90.000000
_cell_angle_beta 134.649386
_cell_angle_gamma 90.000000
_cell_volume 2443.566070
_symmetry_space_group_name_H-M "C 2/M"
_symmetry_group_IT_number 12
_symmetry_cell_setting 'monoclinic'
loop_
_space_group_symop_operation_xyz
x,y,z
-x,y,-z
-x,-y,-z
x,-y,z
1/2+x,1/2+y,z
1/2-x,1/2+y,-z
1/2-x,1/2-y,-z
1/2+x,1/2-y,z
loop_
_atom_site_type_symbol
_atom_site_label
_atom_site_fract_x
_atom_site_fract_y
_atom_site_fract_z
Si Si1 0.284589 0.665851 0.906294
Si Si2 0.362713 0.080949 0.410539
Si Si3 0.350346 0.082816 0.935683
Si Si4 0.504313 0.175595 0.731285
Si Si5 0.912328 0.920969 0.327527
Si Si6 0.226196 0.189665 0.676045
Si Si7 0.438360 0.677920 0.725740
O O1 0.212276 0.617382 0.695115
O O2 0.276020 0.739442 0.780543
O O3 0.362741 0.625184 0.068627
O O4 0.280577 0.681283 0.117146
O O5 0.357058 0.081317 0.174551
O O6 0.436168 0.125894 0.632653
O O7 0.369627 0.000000 0.486807
O O8 0.418173 0.134839 0.035898
O O9 0.355421 0.000000 0.888657
O O10 0.271207 0.121992 0.708746
O O11 0.500000 0.180880 0.500000
O O12 0.483991 0.254026 0.755668
O O13 0.912469 0.880108 0.517938
O O14 0.000000 0.924877 0.500000
O O15 0.879431 0.000000 0.259104
O O16 0.142935 0.202193 0.397228
O O17 0.500000 0.641973 0.000000
#
# Coordination Sequence:
#
# PCOD9182042 Si02
#       7
#     8   8   8   8   8   8   8
#     4   9  16  29  52  81 111 139 177 237 289 336
#     4   9  15  26  48  80 111 137 175 231 290 344
#     4   9  18  30  51  82 112 141 180 237 292 334
#     4  10  19  32  55  84 112 143 184 240 287 333
#     4  10  22  37  58  86 112 143 189 242 293 333
#     4   9  18  31  51  80 109 145 188 226 280 335
#     4  11  23  38  56  82 115 158 194 227 273 345
#
# _framework density 22.917325000000002
#
# number of rings (size 3 to 8) (size 9 to 14) (size 15 to 20)
#    0.000    2.429    1.429    1.286    8.000    5.429 
#    0.000    0.714    0.000    1.714    0.000    0.000 
#    0.000    0.000    0.000    0.000    0.000    0.000 
#
# Total GULP energy -156351.311089 kJ/mol
# GULP energy per Si atom -5583.975396 kJ/mol
# Density = 2.286516 g / cm^3
# Si number density = 22.917325 Si / 1000 Ang^3
#
#
#
# Elastic Constant Matrix: (Units=GPa)
#
#
# Indices 1 2 3 4 5 6 
#
# 1 59.5294 10.9839 38.5534 0.0000 10.3470 0.0000
# 2 10.9839 84.0363 26.1308 0.0000 17.3707 0.0000
# 3 38.5534 26.1308 73.9934 0.0000 29.5670 0.0000
# 4 0.0000 0.0000 0.0000 20.7229 0.0000 12.8630
# 5 10.3470 17.3707 29.5670 0.0000 40.9947 0.0000
# 6 0.0000 0.0000 0.0000 12.8630 0.0000 39.5996
#
#
#
# Elastic Compliance Matrix: (Units=1/GPa)
#
#
# Indices 1 2 3 4 5 6 
#
# 1 0.025949 0.000507 -0.015449 0.000000 0.004378 0.000000
# 2 0.000507 0.013678 -0.003832 0.000000 -0.003160 0.000000
# 3 -0.015449 -0.003832 0.029096 0.000000 -0.015462 0.000000
# 4 0.000000 0.000000 0.000000 0.060443 0.000000 -0.019633
# 5 0.004378 -0.003160 -0.015462 0.000000 0.035779 0.000000
# 6 0.000000 0.000000 0.000000 -0.019633 0.000000 0.031630
#
#
# Mechanical properties :
#
#
# Convention : Reuss Voigt Hill
#
# Bulk Modulus (GPa) = 32.07620 40.98835 36.53228
# Shear Modulus (GPa) = 20.44865 29.72283 25.08574
#
# Velocity S-wave (km/s) = 2.99034 3.60524 3.31209
# Velocity P-wave (km/s) = 5.09409 5.93755 5.53192
#
# Compressibility (1/GPa) = 0.03117576
#
# Stress axis : x y z
#
# Youngs Moduli (GPa) = 38.53676 73.10970 34.36897
#
# Poissons Ratio (x) = -0.03708 0.53097
# Poissons Ratio (y) = -0.01955 0.13170
# Poissons Ratio (z) = 0.59536 0.28015
#
# Static dielectric constant tensor:
#      x y z
#    x 1.959060 0.000000 0.048240 
#    y 0.000000 1.864320 0.000000 
#    z 0.048240 0.000000 2.347830 
# 
# From -- ./inp_files/112646.got.cif
#   From: 2010.05.17/outbox.cif.g08.bks.cpg/sg12_57_cif.got.tgz:112646.got - 2010.06.03 13:09:07.
