data_PCOD9182279
_publ_section_title
;
Structure prediction by ZEFSAII (Michael W. Deem and Ramdas Pophale) SiO2 
 PCOD9182279
Probable space group: C 2/M
;
_chemical_formula_sum "Si O2"
_cell_formula_units_Z 42
_cell_length_a 10.106518
_cell_length_b 24.266941
_cell_length_c 7.375088
_cell_angle_alpha 90.000000
_cell_angle_beta 61.644134
_cell_angle_gamma 90.000000
_cell_volume 1591.745792
_symmetry_space_group_name_H-M "C 2/M"
_symmetry_group_IT_number 12
_symmetry_cell_setting 'monoclinic'
loop_
_space_group_symop_operation_xyz
x,y,z
-x,y,-z
-x,-y,-z
x,-y,z
1/2+x,1/2+y,z
1/2-x,1/2+y,-z
1/2-x,1/2-y,-z
1/2+x,1/2-y,z
loop_
_atom_site_type_symbol
_atom_site_label
_atom_site_fract_x
_atom_site_fract_y
_atom_site_fract_z
Si Si1 0.173155 0.382223 0.388988
Si Si2 0.281434 0.500000 0.324261
Si Si3 0.250443 0.788829 0.180765
Si Si4 0.819903 0.595993 0.021224
Si Si5 0.118246 0.000000 0.170921
Si Si6 0.931839 0.804234 0.245006
Si Si7 0.500000 0.000000 0.000000
O O1 0.191461 0.445511 0.431977
O O2 0.223927 0.382044 0.146073
O O3 0.302585 0.345933 0.395337
O O4 0.000000 0.362941 0.500000
O O5 0.443282 0.500000 0.314348
O O6 0.334352 0.500000 0.075789
O O7 0.341403 0.752329 0.265605
O O8 0.072670 0.801225 0.288174
O O9 0.250000 0.750000 0.000000
O O10 0.334775 0.847663 0.119202
O O11 0.699101 0.554781 0.189996
O O12 0.949712 0.550775 0.897746
O O13 0.000000 0.819315 0.000000
#
# Coordination Sequence:
#
# PCOD9182279 Si02
#       7
#     8   4   8   8   4   8   2
#     4  11  21  34  53  82 123 151 187 242 305 374
#     4   9  17  27  50  73 103 139 179 222 296 329
#     4  10  19  32  60  83 116 148 202 258 290 347
#     4  10  19  35  52  85 116 144 202 241 306 336
#     4   8  16  28  50  77 102 134 178 251 264 338
#     4  10  20  35  56  87 109 157 201 249 298 345
#     4  10  24  32  58  86 116 154 192 262 286 354
#
# _framework density 26.386123000000001
#
# number of rings (size 3 to 8) (size 9 to 14) (size 15 to 20)
#    0.000    2.095    3.810    2.000    6.667    0.000 
#    0.000    0.952    0.000    0.000    0.000   25.333 
#    0.000    0.000    0.000    0.000    0.000    0.000 
#
# Total GULP energy -116993.913919 kJ/mol
# GULP energy per Si atom -5571.138758 kJ/mol
# Density = 2.632607 g / cm^3
# Si number density = 26.386123 Si / 1000 Ang^3
#
#
#
# Elastic Constant Matrix: (Units=GPa)
#
#
# Indices 1 2 3 4 5 6 
#
# 1 115.8872 50.3376 44.3415 0.0000 -57.6504 0.0000
# 2 50.3376 225.9948 40.9700 0.0000 -34.6899 0.0000
# 3 44.3415 40.9700 105.1231 0.0000 -24.6048 0.0000
# 4 0.0000 0.0000 0.0000 69.8395 0.0000 -89.5069
# 5 -57.6504 -34.6899 -24.6048 0.0000 43.7383 0.0000
# 6 0.0000 0.0000 0.0000 -89.5069 0.0000 64.3584
#
#
#
# Elastic Compliance Matrix: (Units=1/GPa)
#
#
# Indices 1 2 3 4 5 6 
#
# 1 0.026090 -0.000245 -0.003347 0.000000 0.032312 0.000000
# 2 -0.000245 0.005172 -0.001184 0.000000 0.003114 0.000000
# 3 -0.003347 -0.001184 0.011670 0.000000 0.001215 0.000000
# 4 0.000000 0.000000 0.000000 -0.018301 0.000000 -0.025452
# 5 0.032312 0.003114 0.001215 0.000000 0.068606 0.000000
# 6 0.000000 0.000000 0.000000 -0.025452 0.000000 -0.019859
#
#
# Mechanical properties :
#
#
# Convention : Reuss Voigt Hill
#
# Bulk Modulus (GPa) = 29.95633 79.81147 54.88390
# Shear Modulus (GPa) = 53.15985 56.34432 54.75209
#
# Velocity S-wave (km/s) = 4.49340 4.62603 4.56020
# Velocity P-wave (km/s) = 6.18858 7.67116 6.96941
#
# Compressibility (1/GPa) = 0.03338192
#
# Stress axis : x y z
#
# Youngs Moduli (GPa) = 38.32840 193.35262 85.68981
#
# Poissons Ratio (x) = 0.04731 0.28678
# Poissons Ratio (y) = 0.00938 0.10143
# Poissons Ratio (z) = 0.12828 0.22887
#
# Static dielectric constant tensor:
#      x y z
#    x 2.317320 0.000000 0.012400 
#    y 0.000000 2.013350 0.000000 
#    z 0.012400 0.000000 2.210480 
# 
# From -- ./inp_files/134696.got.cif
#   From: 2010.05.17/outbox.cif.g08.bks.cpg/sg12_68_cif.got.tgz:134696.got - 2010.06.03 13:09:07.
