data_PCOD9182188
_publ_section_title
;
Structure prediction by ZEFSAII (Michael W. Deem and Ramdas Pophale) SiO2 
 PCOD9182188
Probable space group: C 2/M
;
_chemical_formula_sum "Si O2"
_cell_formula_units_Z 60
_cell_length_a 27.967557
_cell_length_b 13.140074
_cell_length_c 14.040625
_cell_angle_alpha 90.000000
_cell_angle_beta 151.308617
_cell_angle_gamma 90.000000
_cell_volume 2477.210240
_symmetry_space_group_name_H-M "C 2/M"
_symmetry_group_IT_number 12
_symmetry_cell_setting 'monoclinic'
loop_
_space_group_symop_operation_xyz
x,y,z
-x,y,-z
-x,-y,-z
x,-y,z
1/2+x,1/2+y,z
1/2-x,1/2+y,-z
1/2-x,1/2-y,-z
1/2+x,1/2-y,z
loop_
_atom_site_type_symbol
_atom_site_label
_atom_site_fract_x
_atom_site_fract_y
_atom_site_fract_z
Si Si1 0.356542 0.614770 0.117316
Si Si2 0.200135 0.176991 0.275314
Si Si3 0.832345 0.112714 0.294477
Si Si4 0.500000 0.140345 0.500000
Si Si5 0.407042 0.118794 0.143116
Si Si6 0.987105 0.190087 0.182574
Si Si7 0.825009 0.331902 0.317121
Si Si8 0.204646 0.882835 0.499717
O O1 0.319135 0.500000 0.038964
O O2 0.372444 0.624724 0.256866
O O3 0.449220 0.631116 0.210411
O O4 0.266969 0.678869 0.916447
O O5 0.279294 0.134420 0.336768
O O6 0.211787 0.126835 0.398075
O O7 0.222040 0.298017 0.327655
O O8 0.092732 0.164151 0.039878
O O9 0.864987 0.216779 0.400977
O O10 0.862801 0.000000 0.381260
O O11 0.711557 0.114185 0.083064
O O12 0.427405 0.168825 0.283083
O O13 0.589416 0.106782 0.585833
O O14 0.466537 0.190967 0.173695
O O15 0.437812 0.000000 0.197745
O O16 0.094207 0.154742 0.334843
O O17 0.222463 0.000000 0.559818
#
# Coordination Sequence:
#
# PCOD9182188 Si02
#       8
#     8   8   8   4   8   8   8   8
#     4  10  19  32  56  89 124 163 209 257 309 371
#     4  10  24  43  66  98 132 170 216 274 339 402
#     4  10  19  35  58  83 118 167 210 246 301 375
#     4  12  23  34  59  90 134 172 215 260 315 366
#     4  11  22  37  59  89 129 171 212 256 310 381
#     4  11  22  42  69  98 131 170 225 273 332 392
#     4  11  21  38  57  87 122 166 208 260 310 383
#     4  11  25  47  72  99 131 168 218 281 344 404
#
# _framework density 24.220796
#
# number of rings (size 3 to 8) (size 9 to 14) (size 15 to 20)
#    0.000    1.333    4.000    3.000    0.000    4.800 
#    0.000    5.667    0.000    4.000    0.000    0.000 
#    0.000    0.000    0.000    0.000    0.000    0.000 
#
# Total GULP energy -167518.449433 kJ/mol
# GULP energy per Si atom -5583.948314 kJ/mol
# Density = 2.416567 g / cm^3
# Si number density = 24.220796 Si / 1000 Ang^3
#
#
#
# Elastic Constant Matrix: (Units=GPa)
#
#
# Indices 1 2 3 4 5 6 
#
# 1 148.6520 3.6665 15.4942 0.0000 -3.1064 0.0000
# 2 3.6665 119.0858 -6.7163 0.0000 11.6148 0.0000
# 3 15.4942 -6.7163 71.5750 0.0000 10.2991 0.0000
# 4 0.0000 0.0000 0.0000 10.5465 0.0000 -2.1488
# 5 -3.1064 11.6148 10.2991 0.0000 36.3571 0.0000
# 6 0.0000 0.0000 0.0000 -2.1488 0.0000 6.8951
#
#
#
# Elastic Compliance Matrix: (Units=1/GPa)
#
#
# Indices 1 2 3 4 5 6 
#
# 1 0.006942 -0.000429 -0.001718 0.000000 0.001217 0.000000
# 2 -0.000429 0.008805 0.001386 0.000000 -0.003242 0.000000
# 3 -0.001718 0.001386 0.015177 0.000000 -0.004889 0.000000
# 4 0.000000 0.000000 0.000000 0.101247 0.000000 0.031553
# 5 0.001217 -0.003242 -0.004889 0.000000 0.030030 0.000000
# 6 0.000000 0.000000 0.000000 0.031553 0.000000 0.154864
#
#
# Mechanical properties :
#
#
# Convention : Reuss Voigt Hill
#
# Bulk Modulus (GPa) = 34.01356 40.46687 37.24021
# Shear Modulus (GPa) = 15.22588 32.55097 23.88842
#
# Velocity S-wave (km/s) = 2.50997 3.66994 3.14391
# Velocity P-wave (km/s) = 4.74062 5.89081 5.34674
#
# Compressibility (1/GPa) = 0.02940004
#
# Stress axis : x y z
#
# Youngs Moduli (GPa) = 144.04581 113.57337 65.89013
#
# Poissons Ratio (x) = 0.04876 0.11321
# Poissons Ratio (y) = 0.06185 -0.09130
# Poissons Ratio (z) = 0.24750 -0.15737
#
# Static dielectric constant tensor:
#      x y z
#    x 1.900180 0.000000 -0.035000 
#    y 0.000000 1.982830 0.000000 
#    z -0.035000 0.000000 1.971670 
# 
# From -- ./inp_files/246757.got.cif
#   From: 2010.05.17/outbox.cif.g08.bks.cpg/sg12_124_cif.got.tgz:246757.got - 2010.06.03 13:09:07.
