data_PCOD9182881
_publ_section_title
;
Structure prediction by ZEFSAII (Michael W. Deem and Ramdas Pophale) SiO2 
 PCOD9182881
Probable space group: C 2/M
;
_chemical_formula_sum "Si O2"
_cell_formula_units_Z 64
_cell_length_a 23.136167
_cell_length_b 7.598243
_cell_length_c 21.840855
_cell_angle_alpha 90.000000
_cell_angle_beta 126.623596
_cell_angle_gamma 90.000000
_cell_volume 3081.471503
_symmetry_space_group_name_H-M "C 2/M"
_symmetry_group_IT_number 12
_symmetry_cell_setting 'monoclinic'
loop_
_space_group_symop_operation_xyz
x,y,z
-x,y,-z
-x,-y,-z
x,-y,z
1/2+x,1/2+y,z
1/2-x,1/2+y,-z
1/2-x,1/2-y,-z
1/2+x,1/2-y,z
loop_
_atom_site_type_symbol
_atom_site_label
_atom_site_fract_x
_atom_site_fract_y
_atom_site_fract_z
Si Si1 0.349775 0.788206 0.265509
Si Si2 0.169726 0.287458 0.882116
Si Si3 0.364181 0.789932 0.549647
Si Si4 0.008650 0.284201 0.575675
Si Si5 0.664074 0.705121 0.010913
Si Si6 0.197737 0.288624 0.233421
Si Si7 0.278913 0.787530 0.613682
Si Si8 0.074743 0.700189 0.067806
O O1 0.359566 0.726923 0.201697
O O2 0.415150 0.725136 0.348854
O O3 0.271185 0.745473 0.242451
O O4 0.353507 0.000000 0.266311
O O5 0.167907 0.500000 0.882675
O O6 0.135441 0.224102 0.923726
O O7 0.253442 0.231000 0.936634
O O8 0.440572 0.724182 0.573153
O O9 0.333612 0.722176 0.595340
O O10 0.301176 0.757634 0.460276
O O11 0.371462 0.000000 0.560981
O O12 0.008230 0.500000 0.575898
O O13 0.000000 0.229395 0.500000
O O14 0.664438 0.500000 0.028158
O O15 0.620593 0.804543 0.034738
O O16 0.190325 0.500000 0.231275
O O17 0.205648 0.222883 0.308036
O O18 0.127790 0.220571 0.152535
O O19 0.283485 0.000000 0.617649
O O20 0.057421 0.500000 0.077298
O O21 0.000000 0.787403 0.000000
#
# Coordination Sequence:
#
# PCOD9182881 Si02
#       8
#     8   8   8   8   8   8   8   8
#     4  10  19  33  53  78 104 133 172 213 251 301
#     4   9  18  32  51  77 103 133 169 208 253 303
#     4   9  17  32  52  74 101 135 170 207 249 295
#     4   9  17  29  48  77 107 132 164 206 251 296
#     4  10  19  33  54  77 102 132 168 211 258 305
#     4  10  20  34  52  75 102 131 168 213 257 306
#     4   9  18  32  51  75 100 131 170 208 250 298
#     4  10  21  37  54  75 103 136 172 213 262 313
#
# _framework density 20.769297999999999
#
# number of rings (size 3 to 8) (size 9 to 14) (size 15 to 20)
#    0.000    2.500    1.250    1.125    0.000    2.750 
#    2.250    0.625    0.000    2.250    0.000    0.000 
#    0.000    0.000    0.000    0.000    0.000    0.000 
#
# Total GULP energy -178536.968933 kJ/mol
# GULP energy per Si atom -5579.280279 kJ/mol
# Density = 2.072203 g / cm^3
# Si number density = 20.769298 Si / 1000 Ang^3
#
#
#
# Elastic Constant Matrix: (Units=GPa)
#
#
# Indices 1 2 3 4 5 6 
#
# 1 52.6705 -4.7629 43.3726 0.0000 5.8197 0.0000
# 2 -4.7629 44.2669 -1.7570 0.0000 -0.0765 0.0001
# 3 43.3726 -1.7570 165.0569 0.0000 -5.9075 0.0000
# 4 0.0000 0.0000 0.0000 11.3049 0.0000 -2.4697
# 5 5.8197 -0.0765 -5.9075 0.0000 34.7403 0.0000
# 6 0.0000 0.0001 0.0000 -2.4697 0.0000 21.9921
#
#
#
# Elastic Compliance Matrix: (Units=1/GPa)
#
#
# Indices 1 2 3 4 5 6 
#
# 1 0.025454 0.002457 -0.006857 0.000000 -0.005425 0.000000
# 2 0.002457 0.022837 -0.000418 0.000000 -0.000432 0.000000
# 3 -0.006857 -0.000418 0.007945 0.000000 0.002499 0.000000
# 4 0.000000 0.000000 0.000000 0.090682 0.000000 0.010183
# 5 -0.005425 -0.000432 0.002499 0.000000 0.030118 0.000000
# 6 0.000000 0.000000 0.000000 0.010183 0.000000 0.046614
#
#
# Mechanical properties :
#
#
# Convention : Reuss Voigt Hill
#
# Bulk Modulus (GPa) = 21.45860 37.29996 29.37928
# Shear Modulus (GPa) = 20.09494 28.61690 24.35592
#
# Velocity S-wave (km/s) = 3.11389 3.71596 3.42817
# Velocity P-wave (km/s) = 4.82522 6.03401 5.46315
#
# Compressibility (1/GPa) = 0.04660137
#
# Stress axis : x y z
#
# Youngs Moduli (GPa) = 39.28702 43.78806 125.86193
#
# Poissons Ratio (x) = -0.10760 0.86298
# Poissons Ratio (y) = -0.09654 0.05262
# Poissons Ratio (z) = 0.26937 0.01831
#
# Static dielectric constant tensor:
#      x y z
#    x 1.719620 0.000000 -0.009950 
#    y 0.000000 1.758340 0.000000 
#    z -0.009950 0.000000 1.753590 
# 
# From -- ./inp_files/324302.got.cif
#   From: 2010.05.17/outbox.cif.g08.bks.cpg/sg12_163_cif.got.tgz:324302.got - 2010.06.03 13:09:07.
