data_PCOD9182758
_publ_section_title
;
Structure prediction by ZEFSAII (Michael W. Deem and Ramdas Pophale) SiO2 
 PCOD9182758
Probable space group: C 2/M
;
_chemical_formula_sum "Si O2"
_cell_formula_units_Z 56
_cell_length_a 23.844363
_cell_length_b 19.142392
_cell_length_c 18.995101
_cell_angle_alpha 90.000000
_cell_angle_beta 19.936438
_cell_angle_gamma 90.000000
_cell_volume 2956.304887
_symmetry_space_group_name_H-M "C 2/M"
_symmetry_group_IT_number 12
_symmetry_cell_setting 'monoclinic'
loop_
_space_group_symop_operation_xyz
x,y,z
-x,y,-z
-x,-y,-z
x,-y,z
1/2+x,1/2+y,z
1/2-x,1/2+y,-z
1/2-x,1/2-y,-z
1/2+x,1/2-y,z
loop_
_atom_site_type_symbol
_atom_site_label
_atom_site_fract_x
_atom_site_fract_y
_atom_site_fract_z
Si Si1 0.876854 0.787617 0.478589
Si Si2 0.885026 0.286312 0.699968
Si Si3 0.238561 0.919578 0.021249
Si Si4 0.140728 0.161467 0.776281
Si Si5 0.471857 0.080907 0.410684
Si Si6 0.540651 0.321202 0.147436
Si Si7 0.513281 0.582394 0.567398
O O1 0.721920 0.738687 0.677682
O O2 0.874526 0.863237 0.520317
O O3 0.035422 0.749769 0.326085
O O4 0.913534 0.787117 0.352198
O O5 0.000000 0.260890 0.500000
O O6 0.925692 0.368778 0.658622
O O7 0.688682 0.277472 0.935020
O O8 0.137549 0.872399 0.086147
O O9 0.165807 0.908024 0.184404
O O10 0.203140 0.000000 0.045379
O O11 0.430623 0.909625 0.778701
O O12 0.289426 0.110145 0.620227
O O13 0.061326 0.144538 0.794771
O O14 0.000000 0.158331 0.000000
O O15 0.476272 0.000000 0.425056
O O16 0.500000 0.597151 0.500000
O O17 0.559458 0.500000 0.520977
#
# Coordination Sequence:
#
# PCOD9182758 Si02
#       7
#     8   8   8   8   8   8   8
#     4  10  20  35  53  76 103 135 170 210 261 311
#     4  10  19  33  54  79 104 132 171 217 259 299
#     4   8  16  32  54  79 106 135 171 214 256 302
#     4  11  23  37  51  74 107 139 175 216 256 299
#     4   9  19  35  52  74 106 141 175 211 254 304
#     4  10  19  33  53  75 101 137 177 212 251 307
#     4   9  17  31  55  85 108 128 164 215 264 307
#
# _framework density 18.942564999999998
#
# number of rings (size 3 to 8) (size 9 to 14) (size 15 to 20)
#    0.000    2.429    0.000    3.000    0.000    2.286 
#    0.000    4.286    0.000    0.429    0.000    1.000 
#    0.000    0.000    0.000    0.000    0.000    0.000 
#
# Total GULP energy -155883.937453 kJ/mol
# GULP energy per Si atom -5567.283480 kJ/mol
# Density = 1.889945 g / cm^3
# Si number density = 18.942565 Si / 1000 Ang^3
#
#
#
# Elastic Constant Matrix: (Units=GPa)
#
#
# Indices 1 2 3 4 5 6 
#
# 1 38.7437 11.2681 13.6357 0.0012 14.0124 0.0028
# 2 11.2681 88.7702 33.2394 0.0052 8.6878 -0.0026
# 3 13.6357 33.2394 91.2374 -0.0026 12.1549 0.0088
# 4 0.0012 0.0052 -0.0026 14.2832 -0.0046 2.1924
# 5 14.0124 8.6878 12.1549 -0.0046 31.7620 0.0032
# 6 0.0028 -0.0026 0.0088 2.1924 0.0032 8.8348
#
#
#
# Elastic Compliance Matrix: (Units=1/GPa)
#
#
# Indices 1 2 3 4 5 6 
#
# 1 0.031750 -0.001911 -0.002374 -0.000006 -0.012576 -0.000002
# 2 -0.001911 0.013263 -0.004400 -0.000008 -0.001101 0.000011
# 3 -0.002374 -0.004400 0.013296 0.000006 -0.002838 -0.000014
# 4 -0.000006 -0.000008 0.000006 0.072785 0.000015 -0.018062
# 5 -0.012576 -0.001101 -0.002838 0.000015 0.038420 -0.000011
# 6 -0.000002 0.000011 -0.000014 -0.018062 -0.000011 0.117671
#
#
# Mechanical properties :
#
#
# Convention : Reuss Voigt Hill
#
# Bulk Modulus (GPa) = 24.42525 37.22642 30.82583
# Shear Modulus (GPa) = 15.71343 21.68320 18.69831
#
# Velocity S-wave (km/s) = 2.88328 3.38698 3.14523
# Velocity P-wave (km/s) = 4.89967 5.91527 5.43126
#
# Compressibility (1/GPa) = 0.04094125
#
# Stress axis : x y z
#
# Youngs Moduli (GPa) = 31.49588 75.39920 75.21022
#
# Poissons Ratio (x) = 0.14406 0.17852
# Poissons Ratio (y) = 0.06018 0.33090
# Poissons Ratio (z) = 0.07476 0.33173
#
# Static dielectric constant tensor:
#      x y z
#    x 1.650040 0.000000 0.057610 
#    y 0.000000 1.708070 0.000010 
#    z 0.057610 0.000010 1.725980 
# 
# From -- ./inp_files/290793.got.cif
#   From: 2010.05.17/outbox.cif.g08.bks.cpg/sg12_146_cif.got.tgz:290793.got - 2010.06.03 13:09:07.
