data_PCOD9182755
_publ_section_title
;
Structure prediction by ZEFSAII (Michael W. Deem and Ramdas Pophale) SiO2 
 PCOD9182755
Probable space group: C 2/M
;
_chemical_formula_sum "Si O2"
_cell_formula_units_Z 56
_cell_length_a 28.169240
_cell_length_b 7.587545
_cell_length_c 14.019898
_cell_angle_alpha 90.000000
_cell_angle_beta 60.367728
_cell_angle_gamma 90.000000
_cell_volume 2604.649347
_symmetry_space_group_name_H-M "C 2/M"
_symmetry_group_IT_number 12
_symmetry_cell_setting 'monoclinic'
loop_
_space_group_symop_operation_xyz
x,y,z
-x,y,-z
-x,-y,-z
x,-y,z
1/2+x,1/2+y,z
1/2-x,1/2+y,-z
1/2-x,1/2-y,-z
1/2+x,1/2-y,z
loop_
_atom_site_type_symbol
_atom_site_label
_atom_site_fract_x
_atom_site_fract_y
_atom_site_fract_z
Si Si1 0.382681 0.216192 0.191101
Si Si2 0.811130 0.209420 0.905552
Si Si3 0.477774 0.786673 0.241384
Si Si4 0.331679 0.283533 0.669163
Si Si5 0.236123 0.711271 0.623115
Si Si6 0.549590 0.291320 0.513732
Si Si7 0.592467 0.207160 0.046284
O O1 0.431067 0.270294 0.213866
O O2 0.323720 0.276362 0.287234
O O3 0.381882 0.000000 0.191573
O O4 0.393991 0.277971 0.072174
O O5 0.821281 0.274393 0.787931
O O6 0.856215 0.276659 0.934648
O O7 0.817462 0.000000 0.896935
O O8 0.750000 0.250000 0.000000
O O9 0.463225 0.731726 0.362615
O O10 0.537238 0.720894 0.148851
O O11 0.478448 0.000000 0.240583
O O12 0.331018 0.500000 0.668843
O O13 0.283597 0.223824 0.646468
O O14 0.390787 0.222408 0.573924
O O15 0.234771 0.500000 0.634646
O O16 0.250000 0.750000 0.500000
O O17 0.500000 0.216698 0.500000
O O18 0.552028 0.500000 0.490950
O O19 0.581901 0.000000 0.042192
#
# Coordination Sequence:
#
# PCOD9182755 Si02
#       7
#     8   8   8   8   8   8   8
#     4   9  18  34  55  77 105 143 180 216 267 328
#     4  11  22  38  59  82 109 141 180 222 266 318
#     4  10  20  34  55  82 108 138 180 228 272 315
#     4   9  19  35  54  75 103 142 179 212 260 324
#     4  10  19  33  53  75 101 134 173 216 263 314
#     4  10  20  35  54  75 104 144 183 218 267 330
#     4  10  20  36  57  80 108 142 180 221 267 321
#
# _framework density 21.500015000000001
#
# number of rings (size 3 to 8) (size 9 to 14) (size 15 to 20)
#    0.000    2.143    0.000    3.429    0.000    6.000 
#    0.000    5.714    0.000    1.714    0.000    0.000 
#    0.000    0.000    0.000    0.000    0.000    0.000 
#
# Total GULP energy -156516.505172 kJ/mol
# GULP energy per Si atom -5589.875185 kJ/mol
# Density = 2.145108 g / cm^3
# Si number density = 21.500015 Si / 1000 Ang^3
#
#
#
# Elastic Constant Matrix: (Units=GPa)
#
#
# Indices 1 2 3 4 5 6 
#
# 1 209.6747 -14.8422 117.7186 0.0000 -11.5902 0.0000
# 2 -14.8422 40.1198 -19.3397 0.0000 -5.6353 0.0002
# 3 117.7186 -19.3397 208.9408 0.0000 -11.2185 0.0000
# 4 0.0000 0.0000 0.0000 24.8439 0.0000 2.5780
# 5 -11.5902 -5.6353 -11.2185 0.0000 49.3470 0.0000
# 6 0.0000 0.0002 0.0000 2.5780 0.0000 -2.5429
#
#
#
# Elastic Compliance Matrix: (Units=1/GPa)
#
#
# Indices 1 2 3 4 5 6 
#
# 1 0.007032 0.000877 -0.003834 0.000000 0.000880 0.000000
# 2 0.000877 0.026836 0.002192 0.000000 0.003769 0.000001
# 3 -0.003834 0.002192 0.007202 0.000000 0.000987 0.000000
# 4 0.000000 0.000000 0.000000 0.036420 0.000000 0.036923
# 5 0.000880 0.003769 0.000987 0.000000 0.021126 0.000000
# 6 0.000000 0.000001 0.000000 0.036923 0.000000 -0.355826
#
#
# Mechanical properties :
#
#
# Convention : Reuss Voigt Hill
#
# Bulk Modulus (GPa) = 25.28984 69.53430 47.41207
# Shear Modulus (GPa) = -20.61853 39.34286 9.36216
#
# Velocity S-wave (km/s) = -3.10013 4.28237 2.08901
# Velocity P-wave (km/s) = 1.01301 7.54078 5.28380
#
# Compressibility (1/GPa) = 0.03954157
#
# Stress axis : x y z
#
# Youngs Moduli (GPa) = 142.19933 37.26345 138.85360
#
# Poissons Ratio (x) = -0.03269 0.53231
# Poissons Ratio (y) = -0.12475 -0.30437
# Poissons Ratio (z) = 0.54514 -0.08168
#
# Static dielectric constant tensor:
#      x y z
#    x 1.730750 0.000000 -0.011640 
#    y 0.000000 1.837790 0.000000 
#    z -0.011640 0.000000 1.728590 
# 
# From -- ./inp_files/180706.got.cif
#   From: 2010.05.17/outbox.cif.g08.bks.cpg/sg12_91_cif.got.tgz:180706.got - 2010.06.03 13:09:07.
