data_PCOD9182493
_publ_section_title
;
Structure prediction by ZEFSAII (Michael W. Deem and Ramdas Pophale) SiO2 
 PCOD9182493
Probable space group: C 2/M
;
_chemical_formula_sum "Si O2"
_cell_formula_units_Z 40
_cell_length_a 33.477803
_cell_length_b 8.442330
_cell_length_c 23.860334
_cell_angle_alpha 90.000000
_cell_angle_beta 19.439210
_cell_angle_gamma 90.000000
_cell_volume 2244.334821
_symmetry_space_group_name_H-M "C 2/M"
_symmetry_group_IT_number 12
_symmetry_cell_setting 'monoclinic'
loop_
_space_group_symop_operation_xyz
x,y,z
-x,y,-z
-x,-y,-z
x,-y,z
1/2+x,1/2+y,z
1/2-x,1/2+y,-z
1/2-x,1/2-y,-z
1/2+x,1/2-y,z
loop_
_atom_site_type_symbol
_atom_site_label
_atom_site_fract_x
_atom_site_fract_y
_atom_site_fract_z
Si Si1 0.315729 0.309794 0.261743
Si Si2 0.968762 0.309698 0.954586
Si Si3 0.884132 0.306979 0.944702
Si Si4 0.959100 0.690903 0.369989
Si Si5 0.668995 0.689634 0.158947
O O1 0.318112 0.500000 0.259551
O O2 0.377894 0.251813 0.122311
O O3 0.178237 0.255206 0.447299
O O4 0.399743 0.247582 0.200651
O O5 0.967354 0.500000 0.957377
O O6 0.928956 0.253243 0.945852
O O7 0.886791 0.500000 0.941464
O O8 0.972032 0.255583 0.777776
O O9 0.747761 0.260793 0.108622
O O10 0.960139 0.500000 0.368105
O O11 0.037423 0.745484 0.319670
O O12 0.664340 0.500000 0.164071
O O13 0.750000 0.750000 0.000000
#
# Coordination Sequence:
#
# PCOD9182493 Si02
#       5
#     8   8   8   8   8
#     4  10  20  34  50  69  97 128 157 196 243 283
#     4  10  19  33  52  70  93 126 162 196 233 286
#     4   8  16  31  50  72  96 123 156 196 237 275
#     4   9  18  33  51  71  97 127 159 196 236 279
#     4   9  16  29  49  72  99 127 156 192 236 283
#
# _framework density 17.822652000000001
#
# number of rings (size 3 to 8) (size 9 to 14) (size 15 to 20)
#    0.000    2.800    0.000    4.200    0.000    2.400 
#    0.000   11.000    0.000    6.000    0.000    0.000 
#    0.000    0.000    0.000    0.000    0.000    0.000 
#
# Total GULP energy -111419.636825 kJ/mol
# GULP energy per Si atom -5570.981841 kJ/mol
# Density = 1.778209 g / cm^3
# Si number density = 17.822652 Si / 1000 Ang^3
#
#
#
# Elastic Constant Matrix: (Units=GPa)
#
#
# Indices 1 2 3 4 5 6 
#
# 1 185.3821 1.0691 7.6248 -0.0011 -35.6089 -0.0009
# 2 1.0691 34.5259 50.6266 0.0028 -10.0237 0.0009
# 3 7.6248 50.6266 272.6689 0.0054 -56.8216 0.0026
# 4 -0.0011 0.0028 0.0054 25.2334 -0.0002 -7.1417
# 5 -35.6089 -10.0237 -56.8216 -0.0002 27.2802 -0.0001
# 6 -0.0009 0.0009 0.0026 -7.1417 -0.0001 18.6798
#
#
#
# Elastic Compliance Matrix: (Units=1/GPa)
#
#
# Indices 1 2 3 4 5 6 
#
# 1 0.009076 -0.000294 0.003970 0.000000 0.020009 0.000000
# 2 -0.000294 0.039837 -0.007806 -0.000003 -0.002006 -0.000002
# 3 0.003970 -0.007806 0.009697 -0.000001 0.022513 -0.000001
# 4 0.000000 -0.000003 -0.000001 0.044439 -0.000004 0.016990
# 5 0.020009 -0.002006 0.022513 -0.000004 0.108928 -0.000003
# 6 0.000000 -0.000002 -0.000001 0.016990 -0.000003 0.060029
#
#
# Mechanical properties :
#
#
# Convention : Reuss Voigt Hill
#
# Bulk Modulus (GPa) = 19.86071 67.91312 43.88691
# Shear Modulus (GPa) = 16.83216 43.12244 29.97730
#
# Velocity S-wave (km/s) = 3.07648 4.92421 4.10564
# Velocity P-wave (km/s) = 4.87723 8.39751 6.86679
#
# Compressibility (1/GPa) = 0.05035067
#
# Stress axis : x y z
#
# Youngs Moduli (GPa) = 110.18013 25.10204 103.12204
#
# Poissons Ratio (x) = 0.00738 -0.40944
# Poissons Ratio (y) = 0.03239 0.80502
# Poissons Ratio (z) = -0.43747 0.19596
#
# Static dielectric constant tensor:
#      x y z
#    x 1.614620 0.000000 -0.030120 
#    y 0.000000 1.613820 0.000000 
#    z -0.030120 0.000000 1.612820 
# 
# From -- ./inp_files/220278.got.cif
#   From: 2010.05.17/outbox.cif.g08.bks.cpg/sg12_111_cif.got.tgz:220278.got - 2010.06.03 13:09:07.
