data_PCOD9182331
_publ_section_title
;
Structure prediction by ZEFSAII (Michael W. Deem and Ramdas Pophale) SiO2 
 PCOD9182331
Probable space group: C 2/M
;
_chemical_formula_sum "Si O2"
_cell_formula_units_Z 52
_cell_length_a 23.573443
_cell_length_b 7.831242
_cell_length_c 12.705363
_cell_angle_alpha 90.000000
_cell_angle_beta 59.120364
_cell_angle_gamma 90.000000
_cell_volume 2013.043794
_symmetry_space_group_name_H-M "C 2/M"
_symmetry_group_IT_number 12
_symmetry_cell_setting 'monoclinic'
loop_
_space_group_symop_operation_xyz
x,y,z
-x,y,-z
-x,-y,-z
x,-y,z
1/2+x,1/2+y,z
1/2-x,1/2+y,-z
1/2-x,1/2-y,-z
1/2+x,1/2-y,z
loop_
_atom_site_type_symbol
_atom_site_label
_atom_site_fract_x
_atom_site_fract_y
_atom_site_fract_z
Si Si1 0.401169 0.500000 0.891024
Si Si2 0.908957 0.307545 0.047798
Si Si3 0.940379 0.810631 0.230876
Si Si4 0.671242 0.803811 0.521274
Si Si5 0.030463 0.698589 0.576727
Si Si6 0.256435 0.198500 0.259380
Si Si7 0.184505 0.303126 0.128357
O O1 0.423333 0.652974 0.955570
O O2 0.367559 0.654428 0.848618
O O3 0.912896 0.500000 0.000897
O O4 0.946796 0.306613 0.124166
O O5 0.832231 0.272218 0.155368
O O6 0.866186 0.789658 0.348717
O O7 0.982791 0.784171 0.297420
O O8 0.946905 0.000000 0.186756
O O9 0.609931 0.796701 0.495595
O O10 0.734335 0.736794 0.399909
O O11 0.679670 0.000000 0.543369
O O12 0.009899 0.500000 0.604738
O O13 0.000000 0.773552 0.500000
O O14 0.210103 0.299952 0.223562
O O15 0.243613 0.000000 0.253437
O O16 0.165658 0.500000 0.121506
O O17 0.250000 0.250000 0.000000
#
# Coordination Sequence:
#
# PCOD9182331 Si02
#       7
#     4   8   8   8   8   8   8
#     4  12  22  34  50  72  93 131 178 217 259 296
#     4  11  22  35  50  70 100 139 174 210 250 291
#     4  10  19  33  49  73 103 132 169 206 243 298
#     4   9  19  32  49  72  99 135 167 204 245 298
#     4   8  16  33  53  72  97 130 162 202 251 297
#     4  11  21  33  48  70 100 137 173 210 249 292
#     4  12  20  33  50  69  95 129 173 219 257 292
#
# _framework density 25.831529
#
# number of rings (size 3 to 8) (size 9 to 14) (size 15 to 20)
#    0.923    0.769    3.846    2.308    1.077    0.923 
#    0.000    0.000    0.000    0.000    0.000    0.000 
#    0.000    2.462    0.000    8.923    0.308    0.154 
#
# Total GULP energy -144846.362993 kJ/mol
# GULP energy per Si atom -5571.013961 kJ/mol
# Density = 2.577273 g / cm^3
# Si number density = 25.831529 Si / 1000 Ang^3
#
#
#
# Elastic Constant Matrix: (Units=GPa)
#
#
# Indices 1 2 3 4 5 6 
#
# 1 100.2242 51.0324 35.4202 0.0000 15.5206 0.0000
# 2 51.0324 156.5052 25.3630 0.0000 5.3719 0.0000
# 3 35.4202 25.3630 114.6532 0.0000 0.9327 0.0000
# 4 0.0000 0.0000 0.0000 25.4087 0.0000 12.3310
# 5 15.5206 5.3719 0.9327 0.0000 59.2565 0.0000
# 6 0.0000 0.0000 0.0000 12.3310 0.0000 24.6869
#
#
#
# Elastic Compliance Matrix: (Units=1/GPa)
#
#
# Indices 1 2 3 4 5 6 
#
# 1 0.013566 -0.003775 -0.003330 0.000000 -0.003159 0.000000
# 2 -0.003775 0.007698 -0.000539 0.000000 0.000300 0.000000
# 3 -0.003330 -0.000539 0.009864 0.000000 0.000766 0.000000
# 4 0.000000 0.000000 0.000000 0.051950 0.000000 -0.025949
# 5 -0.003159 0.000300 0.000766 0.000000 0.017664 0.000000
# 6 0.000000 0.000000 0.000000 -0.025949 0.000000 0.053468
#
#
# Mechanical properties :
#
#
# Convention : Reuss Voigt Hill
#
# Bulk Modulus (GPa) = 63.13736 66.11264 64.62500
# Shear Modulus (GPa) = 28.60772 39.17491 33.89131
#
# Velocity S-wave (km/s) = 3.33148 3.89852 3.62610
# Velocity P-wave (km/s) = 6.26844 6.77598 6.52715
#
# Compressibility (1/GPa) = 0.01583848
#
# Stress axis : x y z
#
# Youngs Moduli (GPa) = 73.71342 129.90892 101.38153
#
# Poissons Ratio (x) = 0.49047 0.33761
# Poissons Ratio (y) = 0.27830 0.05464
# Poissons Ratio (z) = 0.24548 0.07001
#
# Static dielectric constant tensor:
#      x y z
#    x 2.240630 0.000000 -0.056130 
#    y 0.000000 1.964700 0.000000 
#    z -0.056130 0.000000 2.159880 
# 
# From -- ./inp_files/242638.got.cif
#   From: 2010.05.17/outbox.cif.g08.bks.cpg/sg12_122_cif.got.tgz:242638.got - 2010.06.03 13:09:07.
