data_PCOD9182172
_publ_section_title
;
Structure prediction by ZEFSAII (Michael W. Deem and Ramdas Pophale) SiO2 
 PCOD9182172
Probable space group: C 2/M
;
_chemical_formula_sum "Si O2"
_cell_formula_units_Z 56
_cell_length_a 9.553184
_cell_length_b 16.409586
_cell_length_c 32.075249
_cell_angle_alpha 90.000000
_cell_angle_beta 144.449316
_cell_angle_gamma 90.000000
_cell_volume 2923.532555
_symmetry_space_group_name_H-M "C 2/M"
_symmetry_group_IT_number 12
_symmetry_cell_setting 'monoclinic'
loop_
_space_group_symop_operation_xyz
x,y,z
-x,y,-z
-x,-y,-z
x,-y,z
1/2+x,1/2+y,z
1/2-x,1/2+y,-z
1/2-x,1/2-y,-z
1/2+x,1/2-y,z
loop_
_atom_site_type_symbol
_atom_site_label
_atom_site_fract_x
_atom_site_fract_y
_atom_site_fract_z
Si Si1 0.749803 0.165557 0.691368
Si Si2 0.722595 0.412194 0.219960
Si Si3 0.900740 0.173731 0.932681
Si Si4 0.762655 0.244092 0.552127
Si Si5 0.740849 0.345433 0.934576
Si Si6 0.434920 0.597168 0.647973
Si Si7 0.035670 0.665872 0.231353
O O1 0.760084 0.093299 0.726669
O O2 0.482721 0.201185 0.621281
O O3 0.849428 0.136188 0.671191
O O4 0.897030 0.238719 0.749724
O O5 0.797604 0.500000 0.222022
O O6 0.455823 0.393551 0.139345
O O7 0.903691 0.348908 0.243186
O O8 0.810675 0.262638 0.926680
O O9 0.660763 0.141811 0.851328
O O10 0.109046 0.173086 0.947289
O O11 0.000000 0.134625 0.000000
O O12 0.500000 0.274656 0.500000
O O13 0.750000 0.250000 0.500000
O O14 0.808986 0.153472 0.582027
O O15 0.000000 0.388691 0.000000
O O16 0.387031 0.500000 0.633818
O O17 0.720260 0.615194 0.713547
#
# Coordination Sequence:
#
# PCOD9182172 Si02
#       7
#     8   8   8   8   8   8   8
#     4  11  22  40  65  89 119 158 203 240 289 357
#     4  11  23  38  58  88 123 157 195 247 303 355
#     4  10  19  32  56  87 112 150 206 259 291 343
#     4  11  23  44  67  93 121 157 198 241 289 353
#     4  10  20  34  54  82 116 153 198 248 301 348
#     4  11  24  40  64  94 125 157 195 247 297 350
#     4  10  21  38  62  86 120 159 206 246 297 356
#
# _framework density 19.154909
#
# number of rings (size 3 to 8) (size 9 to 14) (size 15 to 20)
#    0.000    1.429    2.857    4.286    4.000    1.714 
#    0.000    0.000    0.000   12.857    0.000    0.000 
#    0.000    0.571    0.000    0.000    0.000    0.000 
#
# Total GULP energy -156026.016619 kJ/mol
# GULP energy per Si atom -5572.357736 kJ/mol
# Density = 1.911131 g / cm^3
# Si number density = 19.154909 Si / 1000 Ang^3
#
#
#
# Elastic Constant Matrix: (Units=GPa)
#
#
# Indices 1 2 3 4 5 6 
#
# 1 119.8128 19.9138 66.4648 0.0000 1.5411 -0.0001
# 2 19.9138 59.8199 20.8204 -0.0001 -3.0182 -0.0001
# 3 66.4648 20.8204 125.2662 -0.0002 -3.8515 -0.0003
# 4 0.0000 -0.0001 -0.0002 18.4459 -0.0001 9.6125
# 5 1.5411 -3.0182 -3.8515 -0.0001 44.0954 -0.0001
# 6 -0.0001 -0.0001 -0.0003 9.6125 -0.0001 26.6167
#
#
#
# Elastic Compliance Matrix: (Units=1/GPa)
#
#
# Indices 1 2 3 4 5 6 
#
# 1 0.012078 -0.001946 -0.006118 0.000000 -0.001090 0.000000
# 2 -0.001946 0.018097 -0.001940 0.000000 0.001137 0.000000
# 3 -0.006118 -0.001940 0.011586 0.000000 0.001093 0.000000
# 4 0.000000 0.000000 0.000000 0.066781 0.000000 -0.024117
# 5 -0.001090 0.001137 0.001093 0.000000 0.022890 0.000000
# 6 0.000000 0.000000 0.000000 -0.024117 0.000000 0.046280
#
#
# Mechanical properties :
#
#
# Convention : Reuss Voigt Hill
#
# Bulk Modulus (GPa) = 45.97512 57.69967 51.83740
# Shear Modulus (GPa) = 24.39360 31.01159 27.70259
#
# Velocity S-wave (km/s) = 3.57247 4.02803 3.80707
# Velocity P-wave (km/s) = 6.40863 7.19871 6.81513
#
# Compressibility (1/GPa) = 0.02175090
#
# Stress axis : x y z
#
# Youngs Moduli (GPa) = 82.79515 55.25642 86.31472
#
# Poissons Ratio (x) = 0.10754 0.52812
# Poissons Ratio (y) = 0.16113 0.16748
# Poissons Ratio (z) = 0.50658 0.10722
#
# Static dielectric constant tensor:
#      x y z
#    x 1.640360 0.000000 -0.020500 
#    y 0.000000 1.619490 0.000000 
#    z -0.020500 0.000000 1.709950 
# 
# From -- ./inp_files/372794.got.cif
#   From: 2010.05.17/outbox.cif.g08.bks.cpg/sg12_187_cif.got.tgz:372794.got - 2010.06.03 13:09:07.
