data_PCOD9182313
_publ_section_title
;
Structure prediction by ZEFSAII (Michael W. Deem and Ramdas Pophale) SiO2 
 PCOD9182313
Probable space group: C 2/M
;
_chemical_formula_sum "Si O2"
_cell_formula_units_Z 52
_cell_length_a 5.213017
_cell_length_b 14.425940
_cell_length_c 34.020303
_cell_angle_alpha 90.000000
_cell_angle_beta 76.993220
_cell_angle_gamma 90.000000
_cell_volume 2492.777437
_symmetry_space_group_name_H-M "C 2/M"
_symmetry_group_IT_number 12
_symmetry_cell_setting 'monoclinic'
loop_
_space_group_symop_operation_xyz
x,y,z
-x,y,-z
-x,-y,-z
x,-y,z
1/2+x,1/2+y,z
1/2-x,1/2+y,-z
1/2-x,1/2-y,-z
1/2+x,1/2-y,z
loop_
_atom_site_type_symbol
_atom_site_label
_atom_site_fract_x
_atom_site_fract_y
_atom_site_fract_z
Si Si1 0.205635 0.686912 0.828680
Si Si2 0.946688 0.809773 0.743632
Si Si3 0.946505 0.110935 0.657034
Si Si4 0.000000 0.684124 0.000000
Si Si5 0.276832 0.853519 0.481782
Si Si6 0.484126 0.112738 0.389439
Si Si7 0.189523 0.686193 0.913773
O O1 0.418823 0.770452 0.828815
O O2 0.822774 0.861418 0.785858
O O3 0.198816 0.636607 0.871119
O O4 0.238836 0.774604 0.744086
O O5 0.948599 0.861291 0.702303
O O6 0.214915 0.142428 0.626680
O O7 0.690076 0.142252 0.641960
O O8 0.947192 0.000000 0.655196
O O9 0.920422 0.634956 0.043592
O O10 0.750000 0.750000 0.000000
O O11 0.500000 0.899327 0.500000
O O12 0.250000 0.750000 0.500000
O O13 0.356303 0.851434 0.433835
O O14 0.000000 0.898920 0.500000
O O15 0.478850 0.000000 0.391769
O O16 0.474968 0.730821 0.913565
#
# Coordination Sequence:
#
# PCOD9182313 Si02
#       7
#     8   8   8   4   8   8   8
#     4   8  14  23  37  52  81 108 141 180 226 268
#     4  10  19  33  48  75  97 123 160 197 232 281
#     4  10  21  38  55  76 103 130 159 193 234 274
#     4   8  12  16  24  38  62  88 137 172 207 260
#     4  10  21  38  53  77 104 126 153 189 225 262
#     4  10  21  38  58  76  99 131 160 185 223 276
#     4   8  12  18  27  43  63 100 132 174 216 259
#
# _framework density 20.860265999999999
#
# number of rings (size 3 to 8) (size 9 to 14) (size 15 to 20)
#    0.000    2.769    0.000    1.846    0.000    0.615 
#   16.615    0.000    0.000    0.000    0.000    0.000 
#    0.000    0.000    0.000    0.692    0.000    1.538 
#
# Total GULP energy -144856.892620 kJ/mol
# GULP energy per Si atom -5571.418947 kJ/mol
# Density = 2.081279 g / cm^3
# Si number density = 20.860266 Si / 1000 Ang^3
#
#
#
# Elastic Constant Matrix: (Units=GPa)
#
#
# Indices 1 2 3 4 5 6 
#
# 1 123.1299 -3.3650 -8.0510 0.0000 2.0263 0.0000
# 2 -3.3650 42.9020 -3.1866 0.0000 -1.5894 0.0000
# 3 -8.0510 -3.1866 144.0482 0.0000 -6.5127 0.0000
# 4 0.0000 0.0000 0.0000 9.8956 0.0000 7.5243
# 5 2.0263 -1.5894 -6.5127 0.0000 35.6282 0.0000
# 6 0.0000 0.0000 0.0000 7.5243 0.0000 -8.8286
#
#
#
# Elastic Compliance Matrix: (Units=1/GPa)
#
#
# Indices 1 2 3 4 5 6 
#
# 1 0.008175 0.000662 0.000456 0.000000 -0.000352 0.000000
# 2 0.000662 0.023447 0.000606 0.000000 0.001119 0.000000
# 3 0.000456 0.000606 0.007039 0.000000 0.001288 0.000000
# 4 0.000000 0.000000 0.000000 0.061319 0.000000 0.052260
# 5 -0.000352 0.001119 0.001288 0.000000 0.028373 0.000000
# 6 0.000000 0.000000 0.000000 0.052260 0.000000 -0.068729
#
#
# Mechanical properties :
#
#
# Convention : Reuss Voigt Hill
#
# Bulk Modulus (GPa) = 23.74751 31.20832 27.47792
# Shear Modulus (GPa) = 71.21175 28.98454 50.09815
#
# Velocity S-wave (km/s) = 5.84907 3.73159 4.90594
# Velocity P-wave (km/s) = 7.55144 5.79306 6.72993
#
# Compressibility (1/GPa) = 0.04210967
#
# Stress axis : x y z
#
# Youngs Moduli (GPa) = 122.32140 42.64876 142.06103
#
# Poissons Ratio (x) = -0.02823 -0.06473
# Poissons Ratio (y) = -0.08098 -0.08613
# Poissons Ratio (z) = -0.05573 -0.02586
#
# Static dielectric constant tensor:
#      x y z
#    x 1.749190 0.000000 0.002500 
#    y 0.000000 1.720170 0.000000 
#    z 0.002500 0.000000 1.821800 
# 
# From -- ./inp_files/371519.got.cif
#   From: 2010.05.17/outbox.cif.g08.bks.cpg/sg12_186_cif.got.tgz:371519.got - 2010.06.03 13:09:07.
