data_PCOD9182822
_publ_section_title
;
Structure prediction by ZEFSAII (Michael W. Deem and Ramdas Pophale) SiO2 
 PCOD9182822
Probable space group: C 2/M
;
_chemical_formula_sum "Si O2"
_cell_formula_units_Z 64
_cell_length_a 30.003822
_cell_length_b 12.636721
_cell_length_c 19.296348
_cell_angle_alpha 90.000000
_cell_angle_beta 26.822283
_cell_angle_gamma 90.000000
_cell_volume 3301.253775
_symmetry_space_group_name_H-M "C 2/M"
_symmetry_group_IT_number 12
_symmetry_cell_setting 'monoclinic'
loop_
_space_group_symop_operation_xyz
x,y,z
-x,y,-z
-x,-y,-z
x,-y,z
1/2+x,1/2+y,z
1/2-x,1/2+y,-z
1/2-x,1/2-y,-z
1/2+x,1/2-y,z
loop_
_atom_site_type_symbol
_atom_site_label
_atom_site_fract_x
_atom_site_fract_y
_atom_site_fract_z
Si Si1 0.980911 0.319210 0.916373
Si Si2 0.002229 0.378409 0.264811
Si Si3 0.158932 0.378179 0.766499
Si Si4 0.779041 0.620064 0.877369
Si Si5 0.650410 0.619954 0.916761
Si Si6 0.184680 0.724603 0.399948
Si Si7 0.615668 0.287838 0.194402
Si Si8 0.559719 0.619107 0.488841
O O1 0.996800 0.370171 0.819443
O O2 0.081224 0.327551 0.820861
O O3 0.896446 0.372620 0.081790
O O4 0.939390 0.201414 0.962803
O O5 0.019980 0.500000 0.260727
O O6 0.900496 0.336870 0.440647
O O7 0.084323 0.297911 0.180229
O O8 0.175369 0.500000 0.725624
O O9 0.258934 0.311723 0.632253
O O10 0.818462 0.500000 0.823579
O O11 0.710523 0.631250 0.905187
O O12 0.858559 0.713358 0.775502
O O13 0.707521 0.643129 0.041920
O O14 0.616392 0.500000 0.957766
O O15 0.730580 0.648153 0.746710
O O16 0.137554 0.790348 0.400889
O O17 0.524745 0.363869 0.336196
O O18 0.500000 0.629922 0.500000
O O19 0.602051 0.500000 0.432583
#
# Coordination Sequence:
#
# PCOD9182822 Si02
#       8
#     8   8   8   8   8   8   8   8
#     4  10  20  37  58  84 106 140 182 232 274 329
#     4  11  21  36  55  81 113 145 179 225 277 325
#     4  10  20  38  61  82 108 142 182 230 278 327
#     4  10  19  33  53  76 107 144 182 225 269 315
#     4  10  20  37  57  80 110 148 184 224 272 325
#     4  10  22  36  55  82 113 146 183 225 268 335
#     4  10  20  33  51  79 109 142 183 228 267 325
#     4  10  20  35  54  77 110 149 185 226 271 318
#
# _framework density 19.386572999999999
#
# number of rings (size 3 to 8) (size 9 to 14) (size 15 to 20)
#    0.000    1.875    1.250    3.750    0.000    0.500 
#    0.000    6.250    0.000    6.000    0.000    0.000 
#    0.000    0.000    0.000    0.000    0.000    0.000 
#
# Total GULP energy -178528.665930 kJ/mol
# GULP energy per Si atom -5579.020810 kJ/mol
# Density = 1.934245 g / cm^3
# Si number density = 19.386573 Si / 1000 Ang^3
#
#
#
# Elastic Constant Matrix: (Units=GPa)
#
#
# Indices 1 2 3 4 5 6 
#
# 1 69.2635 28.0111 0.7138 0.0000 8.0550 0.0000
# 2 28.0111 102.4893 9.9377 0.0000 3.4996 0.0000
# 3 0.7138 9.9377 28.0413 0.0000 3.7186 0.0000
# 4 0.0000 0.0000 0.0000 6.0839 0.0000 -3.1728
# 5 8.0550 3.4996 3.7186 0.0000 21.5226 0.0000
# 6 0.0000 0.0000 0.0000 -3.1728 0.0000 21.8873
#
#
#
# Elastic Compliance Matrix: (Units=1/GPa)
#
#
# Indices 1 2 3 4 5 6 
#
# 1 0.016982 -0.004632 0.001998 0.000000 -0.005948 0.000000
# 2 -0.004632 0.011391 -0.003995 0.000000 0.000572 0.000000
# 3 0.001998 -0.003995 0.037908 0.000000 -0.006648 0.000000
# 4 0.000000 0.000000 0.000000 0.177809 0.000000 0.025775
# 5 -0.005948 0.000572 -0.006648 0.000000 0.049744 0.000000
# 6 0.000000 0.000000 0.000000 0.025775 0.000000 0.049425
#
#
# Mechanical properties :
#
#
# Convention : Reuss Voigt Hill
#
# Bulk Modulus (GPa) = 18.85953 30.79101 24.82527
# Shear Modulus (GPa) = 13.36215 20.64088 17.00151
#
# Velocity S-wave (km/s) = 2.62820 3.26651 2.96459
# Velocity P-wave (km/s) = 4.35421 5.49035 4.95495
#
# Compressibility (1/GPa) = 0.05302358
#
# Stress axis : x y z
#
# Youngs Moduli (GPa) = 58.88620 87.78956 26.37954
#
# Poissons Ratio (x) = 0.40663 -0.05271
# Poissons Ratio (y) = 0.27276 0.10538
# Poissons Ratio (z) = -0.11765 0.35070
#
# Static dielectric constant tensor:
#      x y z
#    x 1.693780 0.000000 0.007430 
#    y 0.000000 1.662460 0.000000 
#    z 0.007430 0.000000 1.656660 
# 
# From -- ./inp_files/296443.got.cif
#   From: 2010.05.17/outbox.cif.g08.bks.cpg/sg12_149_cif.got.tgz:296443.got - 2010.06.03 13:09:07.
