data_PCOD9182115
_publ_section_title
;
Structure prediction by ZEFSAII (Michael W. Deem and Ramdas Pophale) SiO2 
 PCOD9182115
Probable space group: C 2/M
;
_chemical_formula_sum "Si O2"
_cell_formula_units_Z 56
_cell_length_a 15.027539
_cell_length_b 23.055561
_cell_length_c 15.104496
_cell_angle_alpha 90.000000
_cell_angle_beta 149.126045
_cell_angle_gamma 90.000000
_cell_volume 2685.437820
_symmetry_space_group_name_H-M "C 2/M"
_symmetry_group_IT_number 12
_symmetry_cell_setting 'monoclinic'
loop_
_space_group_symop_operation_xyz
x,y,z
-x,y,-z
-x,-y,-z
x,-y,z
1/2+x,1/2+y,z
1/2-x,1/2+y,-z
1/2-x,1/2-y,-z
1/2+x,1/2-y,z
loop_
_atom_site_type_symbol
_atom_site_label
_atom_site_fract_x
_atom_site_fract_y
_atom_site_fract_z
Si Si1 0.034372 0.381227 0.830472
Si Si2 0.363893 0.164584 0.259148
Si Si3 0.104309 0.791746 0.675887
Si Si4 0.502530 0.000000 0.108431
Si Si5 0.582091 0.781175 0.156602
Si Si6 0.764248 0.837196 0.662415
Si Si7 0.096559 0.000000 0.489457
Si Si8 0.128461 0.116333 0.421397
O O1 0.073785 0.440234 0.916492
O O2 0.042783 0.323727 0.897823
O O3 0.830079 0.380475 0.626034
O O4 0.151011 0.371327 0.843396
O O5 0.343435 0.233769 0.227182
O O6 0.246339 0.147320 0.242697
O O7 0.565325 0.159062 0.460275
O O8 0.268074 0.819516 0.764215
O O9 0.000000 0.770050 0.500000
O O10 0.985841 0.833374 0.631667
O O11 0.700654 0.000000 0.311977
O O12 0.500000 0.000000 0.000000
O O13 0.663623 0.728966 0.282614
O O14 0.500000 0.752357 0.000000
O O15 0.869429 0.875654 0.682470
O O16 0.057456 0.943607 0.398268
O O17 0.000000 0.000000 0.500000
#
# Coordination Sequence:
#
# PCOD9182115 Si02
#       8
#     8   8   8   4   8   8   4   8
#     4  10  19  33  53  77 105 142 176 213 258 305
#     4   9  16  31  54  78 102 133 183 215 249 311
#     4  11  17  31  52  79 102 140 175 207 261 312
#     4  10  22  38  55  77 109 140 171 210 264 315
#     4  11  21  32  50  80 113 137 168 215 269 318
#     4   9  17  33  51  77 106 138 169 217 262 306
#     4  10  22  36  57  81 104 133 176 223 254 300
#     4  10  19  32  56  78 103 136 180 217 257 304
#
# _framework density 20.853210000000001
#
# number of rings (size 3 to 8) (size 9 to 14) (size 15 to 20)
#    0.000    2.000    4.286    1.714    2.000    2.286 
#    0.000    7.143    0.000    4.286    0.000    0.500 
#    0.000    0.000    0.000    0.000    0.000    0.000 
#
# Total GULP energy -156091.072276 kJ/mol
# GULP energy per Si atom -5574.681153 kJ/mol
# Density = 2.080575 g / cm^3
# Si number density = 20.853210 Si / 1000 Ang^3
#
#
#
# Elastic Constant Matrix: (Units=GPa)
#
#
# Indices 1 2 3 4 5 6 
#
# 1 181.4583 97.3847 13.1264 0.0000 -40.6753 0.0000
# 2 97.3847 110.1122 16.1504 0.0000 -33.4917 0.0000
# 3 13.1264 16.1504 24.4709 0.0000 -14.4095 0.0000
# 4 0.0000 0.0000 0.0000 11.6879 0.0000 -8.3096
# 5 -40.6753 -33.4917 -14.4095 0.0000 29.2496 0.0000
# 6 0.0000 0.0000 0.0000 -8.3096 0.0000 28.9023
#
#
#
# Elastic Compliance Matrix: (Units=1/GPa)
#
#
# Indices 1 2 3 4 5 6 
#
# 1 0.011579 -0.008177 0.004443 0.000000 0.008928 0.000000
# 2 -0.008177 0.019710 -0.002857 0.000000 0.009790 0.000000
# 3 0.004443 -0.002857 0.059274 0.000000 0.032107 0.000000
# 4 0.000000 0.000000 0.000000 0.107540 0.000000 0.030919
# 5 0.008928 0.009790 0.032107 0.000000 0.073632 0.000000
# 6 0.000000 0.000000 0.000000 0.030919 0.000000 0.043489
#
#
# Mechanical properties :
#
#
# Convention : Reuss Voigt Hill
#
# Bulk Modulus (GPa) = 12.92321 63.26270 38.09295
# Shear Modulus (GPa) = 14.11632 26.59330 20.35481
#
# Velocity S-wave (km/s) = 2.60463 3.57495 3.12765
# Velocity P-wave (km/s) = 3.90591 6.88792 5.59909
#
# Compressibility (1/GPa) = 0.07738017
#
# Stress axis : x y z
#
# Youngs Moduli (GPa) = 86.36187 50.73515 16.87094
#
# Poissons Ratio (x) = 0.41485 -0.07495
# Poissons Ratio (y) = 0.70616 0.04821
# Poissons Ratio (z) = -0.38369 0.14497
#
# Static dielectric constant tensor:
#      x y z
#    x 1.769450 0.000000 0.036850 
#    y 0.000000 1.731160 0.000000 
#    z 0.036850 0.000000 1.882940 
# 
# From -- ./inp_files/218308.got.cif
#   From: 2010.05.17/outbox.cif.g08.bks.cpg/sg12_110_cif.got.tgz:218308.got - 2010.06.03 13:09:07.
