data_PCOD9182103
_publ_section_title
;
Structure prediction by ZEFSAII (Michael W. Deem and Ramdas Pophale) SiO2 
 PCOD9182103
Probable space group: C 2/M
;
_chemical_formula_sum "Si O2"
_cell_formula_units_Z 40
_cell_length_a 27.114525
_cell_length_b 7.845436
_cell_length_c 12.921763
_cell_angle_alpha 90.000000
_cell_angle_beta 58.386790
_cell_angle_gamma 90.000000
_cell_volume 2340.882532
_symmetry_space_group_name_H-M "C 2/M"
_symmetry_group_IT_number 12
_symmetry_cell_setting 'monoclinic'
loop_
_space_group_symop_operation_xyz
x,y,z
-x,y,-z
-x,-y,-z
x,-y,z
1/2+x,1/2+y,z
1/2-x,1/2+y,-z
1/2-x,1/2-y,-z
1/2+x,1/2-y,z
loop_
_atom_site_type_symbol
_atom_site_label
_atom_site_fract_x
_atom_site_fract_y
_atom_site_fract_z
Si Si1 0.976874 0.500000 0.356839
Si Si2 0.172337 0.196100 0.191286
Si Si3 0.905179 0.500000 0.642204
Si Si4 0.519709 0.692366 0.805866
Si Si5 0.698831 0.296409 0.924330
Si Si6 0.914860 0.702253 0.064360
O O1 0.929397 0.500000 0.499390
O O2 0.972178 0.334047 0.289937
O O3 0.039453 0.500000 0.342901
O O4 0.132514 0.332449 0.292076
O O5 0.238618 0.211649 0.157010
O O6 0.152692 0.000000 0.222074
O O7 0.175847 0.243663 0.065411
O O8 0.522832 0.500000 0.762693
O O9 0.565944 0.720177 0.847332
O O10 0.457839 0.721480 0.930348
O O11 0.706686 0.500000 0.911096
O O12 0.650522 0.239476 0.896520
O O13 0.925240 0.500000 0.056836
#
# Coordination Sequence:
#
# PCOD9182103 Si02
#       6
#     4   8   4   8   8   8
#     4  11  24  41  58  82 106 157 196 229 283 319
#     4  10  21  36  55  84 117 148 185 229 281 334
#     4  11  24  40  60  78 114 149 194 239 271 330
#     4  11  21  37  56  84 118 148 185 232 281 334
#     4  10  19  32  55  89 118 148 180 222 286 345
#     4  11  19  32  56  88 121 146 180 228 285 344
#
# _framework density 17.087571000000001
#
# number of rings (size 3 to 8) (size 9 to 14) (size 15 to 20)
#    0.000    1.400    3.000    4.800    2.800    3.200 
#    0.000    2.000    0.000    1.200    0.000    0.000 
#    0.000    0.000    0.000    0.000    0.000    0.000 
#
# Total GULP energy -111751.872845 kJ/mol
# GULP energy per Si atom -5587.593642 kJ/mol
# Density = 1.704868 g / cm^3
# Si number density = 17.087571 Si / 1000 Ang^3
#
#
#
# Elastic Constant Matrix: (Units=GPa)
#
#
# Indices 1 2 3 4 5 6 
#
# 1 89.0520 27.5975 45.2827 0.0000 -2.5120 0.0000
# 2 27.5975 146.0286 72.3908 0.0000 -0.6029 0.0000
# 3 45.2827 72.3908 108.0637 0.0000 -1.2035 0.0000
# 4 0.0000 0.0000 0.0000 -4.1836 0.0000 1.6097
# 5 -2.5120 -0.6029 -1.2035 0.0000 15.7339 0.0000
# 6 0.0000 0.0000 0.0000 1.6097 0.0000 27.2462
#
#
#
# Elastic Compliance Matrix: (Units=1/GPa)
#
#
# Indices 1 2 3 4 5 6 
#
# 1 0.014338 0.000399 -0.006255 0.000000 0.001826 0.000000
# 2 0.000399 0.010264 -0.007044 0.000000 -0.000082 0.000000
# 3 -0.006255 -0.007044 0.016593 0.000000 0.000001 0.000000
# 4 0.000000 0.000000 0.000000 -0.233713 0.000000 0.013808
# 5 0.001826 -0.000082 0.000001 0.000000 0.063845 0.000000
# 6 0.000000 0.000000 0.000000 0.013808 0.000000 0.035887
#
#
# Mechanical properties :
#
#
# Convention : Reuss Voigt Hill
#
# Bulk Modulus (GPa) = 64.95440 70.40960 67.68200
# Shear Modulus (GPa) = -80.83529 20.95084 -29.94223
#
# Velocity S-wave (km/s) = -6.88543 3.50535 -4.19057
# Velocity P-wave (km/s) = 5.01169 7.59460 4.03490
#
# Compressibility (1/GPa) = 0.01539542
#
# Stress axis : x y z
#
# Youngs Moduli (GPa) = 69.74512 97.42678 60.26518
#
# Poissons Ratio (x) = -0.03883 0.37694
# Poissons Ratio (y) = -0.02780 0.42449
# Poissons Ratio (z) = 0.43624 0.68625
#
# Static dielectric constant tensor:
#      x y z
#    x 1.582020 0.000000 0.002350 
#    y 0.000000 1.591300 0.000000 
#    z 0.002350 0.000000 1.537820 
# 
# From -- ./inp_files/179078.got.cif
#   From: 2010.05.17/outbox.cif.g08.bks.cpg/sg12_90_cif.got.tgz:179078.got - 2010.06.03 13:09:07.
