data_PCOD9182546
_publ_section_title
;
Structure prediction by ZEFSAII (Michael W. Deem and Ramdas Pophale) SiO2 
 PCOD9182546
Probable space group: C 2/M
;
_chemical_formula_sum "Si O2"
_cell_formula_units_Z 56
_cell_length_a 14.993911
_cell_length_b 8.927931
_cell_length_c 20.891816
_cell_angle_alpha 90.000000
_cell_angle_beta 66.388053
_cell_angle_gamma 90.000000
_cell_volume 2562.534899
_symmetry_space_group_name_H-M "C 2/M"
_symmetry_group_IT_number 12
_symmetry_cell_setting 'monoclinic'
loop_
_space_group_symop_operation_xyz
x,y,z
-x,y,-z
-x,-y,-z
x,-y,z
1/2+x,1/2+y,z
1/2-x,1/2+y,-z
1/2-x,1/2-y,-z
1/2+x,1/2-y,z
loop_
_atom_site_type_symbol
_atom_site_label
_atom_site_fract_x
_atom_site_fract_y
_atom_site_fract_z
Si Si1 0.489090 0.820413 0.221107
Si Si2 0.203917 0.823046 0.781066
Si Si3 0.112082 0.671275 0.495468
Si Si4 0.149084 0.677923 0.919592
Si Si5 0.043328 0.833571 0.634819
Si Si6 0.329125 0.333641 0.642542
Si Si7 0.427154 0.822074 0.929358
O O1 0.386909 0.769591 0.220426
O O2 0.485881 0.749159 0.291714
O O3 0.567497 0.765275 0.145121
O O4 0.496373 0.000000 0.223303
O O5 0.215330 0.767236 0.850687
O O6 0.288115 0.776627 0.708242
O O7 0.186623 0.000000 0.785110
O O8 0.144357 0.500000 0.488405
O O9 0.109972 0.742731 0.566451
O O10 0.175152 0.764723 0.426708
O O11 0.000000 0.670349 0.500000
O O12 0.171750 0.500000 0.911873
O O13 0.037656 0.692908 0.925158
O O14 0.143107 0.736600 0.994365
O O15 0.942422 0.849719 0.625936
O O16 0.082352 0.000000 0.637973
O O17 0.283792 0.500000 0.659502
O O18 0.408372 0.000000 0.931519
#
# Coordination Sequence:
#
# PCOD9182546 Si02
#       7
#     8   8   8   8   8   8   8
#     4  10  19  33  52  74 102 134 166 201 247 297
#     4  11  21  32  48  74 105 132 164 206 249 292
#     4   9  17  31  52  76  99 126 163 203 241 287
#     4   8  13  26  46  67  93 126 164 201 242 291
#     4  10  20  34  53  77 102 129 164 204 245 291
#     4  10  20  35  54  74  99 132 167 203 245 292
#     4   7  12  24  45  69  92 124 164 201 238 288
#
# _framework density 21.853361
#
# number of rings (size 3 to 8) (size 9 to 14) (size 15 to 20)
#    0.000    2.714    0.000    4.714    0.000    3.429 
#    0.000    7.143    0.000    0.857    0.000    0.000 
#    0.000    0.000    0.000    0.000    0.000    0.000 
#
# Total GULP energy -156126.699759 kJ/mol
# GULP energy per Si atom -5575.953563 kJ/mol
# Density = 2.180362 g / cm^3
# Si number density = 21.853361 Si / 1000 Ang^3
#
#
#
# Elastic Constant Matrix: (Units=GPa)
#
#
# Indices 1 2 3 4 5 6 
#
# 1 32.9425 -2.1856 5.4232 0.0000 8.2458 0.0000
# 2 -2.1856 81.6301 63.6368 0.0000 25.8385 0.0000
# 3 5.4232 63.6368 217.1193 0.0000 33.8517 0.0000
# 4 0.0000 0.0000 0.0000 24.9290 0.0000 -0.5772
# 5 8.2458 25.8385 33.8517 0.0000 18.3802 0.0000
# 6 0.0000 0.0000 0.0000 -0.5772 0.0000 7.5985
#
#
#
# Elastic Compliance Matrix: (Units=1/GPa)
#
#
# Indices 1 2 3 4 5 6 
#
# 1 0.040171 0.011750 0.001316 0.000000 -0.036962 0.000000
# 2 0.011750 0.026350 -0.001991 0.000000 -0.038646 0.000000
# 3 0.001316 -0.001991 0.006751 0.000000 -0.010224 0.000000
# 4 0.000000 0.000000 0.000000 0.040185 0.000000 0.003053
# 5 -0.036962 -0.038646 -0.010224 0.000000 0.144146 0.000000
# 6 0.000000 0.000000 0.000000 0.003053 0.000000 0.131836
#
#
# Mechanical properties :
#
#
# Convention : Reuss Voigt Hill
#
# Bulk Modulus (GPa) = 10.48002 51.71564 31.09783
# Shear Modulus (GPa) = 12.52830 27.83605 20.18217
#
# Velocity S-wave (km/s) = 2.39694 3.57286 3.04226
# Velocity P-wave (km/s) = 3.53079 6.38252 5.15767
#
# Compressibility (1/GPa) = 0.09541964
#
# Stress axis : x y z
#
# Youngs Moduli (GPa) = 24.89367 37.95073 148.13653
#
# Poissons Ratio (x) = -0.44590 -0.19491
# Poissons Ratio (y) = -0.29249 0.29496
# Poissons Ratio (z) = -0.03275 0.07556
#
# Static dielectric constant tensor:
#      x y z
#    x 1.848720 0.000000 0.001380 
#    y 0.000000 1.762420 0.000000 
#    z 0.001380 0.000000 1.853840 
# 
# From -- ./inp_files/313704.got.cif
#   From: 2010.05.17/outbox.cif.g08.bks.cpg/sg12_157_cif.got.tgz:313704.got - 2010.06.03 13:09:07.
