data_PCOD9182694
_publ_section_title
;
Structure prediction by ZEFSAII (Michael W. Deem and Ramdas Pophale) SiO2 
 PCOD9182694
Probable space group: C 2/M
;
_chemical_formula_sum "Si O2"
_cell_formula_units_Z 56
_cell_length_a 13.046423
_cell_length_b 26.501763
_cell_length_c 15.657484
_cell_angle_alpha 90.000000
_cell_angle_beta 31.354832
_cell_angle_gamma 90.000000
_cell_volume 2816.907359
_symmetry_space_group_name_H-M "C 2/M"
_symmetry_group_IT_number 12
_symmetry_cell_setting 'monoclinic'
loop_
_space_group_symop_operation_xyz
x,y,z
-x,y,-z
-x,-y,-z
x,-y,z
1/2+x,1/2+y,z
1/2-x,1/2+y,-z
1/2-x,1/2-y,-z
1/2+x,1/2-y,z
loop_
_atom_site_type_symbol
_atom_site_label
_atom_site_fract_x
_atom_site_fract_y
_atom_site_fract_z
Si Si1 0.727781 0.189905 0.842033
Si Si2 0.999579 0.058383 0.896904
Si Si3 0.203441 0.134169 0.378544
Si Si4 0.755579 0.809122 0.481239
Si Si5 0.827386 0.625649 0.956992
Si Si6 0.236455 0.349676 0.319125
Si Si7 0.812979 0.301147 0.817443
O O1 0.783797 0.176027 0.705501
O O2 0.827001 0.240815 0.805462
O O3 0.500000 0.204786 0.000000
O O4 0.732205 0.142750 0.904629
O O5 0.179104 0.094135 0.741548
O O6 0.022692 0.000000 0.856962
O O7 0.803199 0.081386 0.992159
O O8 0.000000 0.061662 0.000000
O O9 0.157577 0.159477 0.502576
O O10 0.433497 0.114821 0.215386
O O11 0.000000 0.103931 0.500000
O O12 0.750000 0.750000 0.500000
O O13 0.828105 0.822163 0.335983
O O14 0.527900 0.824144 0.648197
O O15 0.768425 0.673964 0.939810
O O16 0.297599 0.321084 0.188480
O O17 0.000000 0.348729 0.500000
#
# Coordination Sequence:
#
# PCOD9182694 Si02
#       7
#     8   8   8   8   8   8   8
#     4  10  21  33  54  86 123 166 208 243 291 365
#     4  11  24  43  68  92 119 158 203 265 323 364
#     4  10  21  37  55  81 118 165 201 247 292 354
#     4  10  20  32  53  84 122 165 204 239 291 359
#     4  10  22  38  57  88 117 158 206 254 307 361
#     4  10  22  38  59  88 126 162 199 251 303 371
#     4  10  19  33  52  86 124 162 198 242 297 366
#
# _framework density 19.879957999999998
#
# number of rings (size 3 to 8) (size 9 to 14) (size 15 to 20)
#    0.000    1.857    1.429    2.143    6.000    1.429 
#    0.000    0.000    0.000    4.286    0.000    0.000 
#    0.000    0.000    0.000    0.000    0.000    0.000 
#
# Total GULP energy -155894.687346 kJ/mol
# GULP energy per Si atom -5567.667405 kJ/mol
# Density = 1.983471 g / cm^3
# Si number density = 19.879958 Si / 1000 Ang^3
#
#
#
# Elastic Constant Matrix: (Units=GPa)
#
#
# Indices 1 2 3 4 5 6 
#
# 1 119.4075 28.1000 40.2251 -0.0041 0.3138 0.0011
# 2 28.1000 74.9864 3.0923 0.0003 6.2154 -0.0005
# 3 40.2251 3.0923 61.5454 -0.0053 -8.3831 0.0001
# 4 -0.0041 0.0003 -0.0053 11.5563 0.0043 6.8143
# 5 0.3138 6.2154 -8.3831 0.0043 34.5891 -0.0001
# 6 0.0011 -0.0005 0.0001 6.8143 -0.0001 18.3460
#
#
#
# Elastic Compliance Matrix: (Units=1/GPa)
#
#
# Indices 1 2 3 4 5 6 
#
# 1 0.011953 -0.004053 -0.007781 0.000002 -0.001266 -0.000002
# 2 -0.004053 0.014977 0.001588 -0.000001 -0.002270 0.000001
# 3 -0.007781 0.001588 0.021949 0.000007 0.005105 -0.000002
# 4 0.000002 -0.000001 0.000007 0.110800 -0.000012 -0.041155
# 5 -0.001266 -0.002270 0.005105 -0.000012 0.030567 0.000005
# 6 -0.000002 0.000001 -0.000002 -0.041155 0.000005 0.069794
#
#
# Mechanical properties :
#
#
# Convention : Reuss Voigt Hill
#
# Bulk Modulus (GPa) = 35.22879 44.30824 39.76851
# Shear Modulus (GPa) = 17.24152 25.19974 21.22063
#
# Velocity S-wave (km/s) = 2.94816 3.56419 3.27071
# Velocity P-wave (km/s) = 5.41739 6.26692 5.85757
#
# Compressibility (1/GPa) = 0.02838587
#
# Stress axis : x y z
#
# Youngs Moduli (GPa) = 83.65984 66.76728 45.55930
#
# Poissons Ratio (x) = 0.27064 0.35450
# Poissons Ratio (y) = 0.33911 -0.07233
# Poissons Ratio (z) = 0.65097 -0.10600
#
# Static dielectric constant tensor:
#      x y z
#    x 1.878280 0.000010 -0.114740 
#    y 0.000010 1.629430 -0.000010 
#    z -0.114740 -0.000010 1.839040 
# 
# From -- ./inp_files/209085.got.cif
#   From: 2010.05.17/outbox.cif.g08.bks.cpg/sg12_105_cif.got.tgz:209085.got - 2010.06.03 13:09:07.
