data_PCOD9182802
_publ_section_title
;
Structure prediction by ZEFSAII (Michael W. Deem and Ramdas Pophale) SiO2 
 PCOD9182802
Probable space group: C 2/M
;
_chemical_formula_sum "Si O2"
_cell_formula_units_Z 48
_cell_length_a 15.011299
_cell_length_b 9.666351
_cell_length_c 16.529452
_cell_angle_alpha 90.000000
_cell_angle_beta 117.323945
_cell_angle_gamma 90.000000
_cell_volume 2130.886393
_symmetry_space_group_name_H-M "C 2/M"
_symmetry_group_IT_number 12
_symmetry_cell_setting 'monoclinic'
loop_
_space_group_symop_operation_xyz
x,y,z
-x,y,-z
-x,-y,-z
x,-y,z
1/2+x,1/2+y,z
1/2-x,1/2+y,-z
1/2-x,1/2-y,-z
1/2+x,1/2-y,z
loop_
_atom_site_type_symbol
_atom_site_label
_atom_site_fract_x
_atom_site_fract_y
_atom_site_fract_z
Si Si1 0.609479 0.163481 0.381477
Si Si2 0.193283 0.346594 0.167826
Si Si3 0.345307 0.152781 0.033534
Si Si4 0.579940 0.338524 0.704442
Si Si5 0.834865 0.161518 0.438471
Si Si6 0.478566 0.655066 0.893492
O O1 0.511667 0.242173 0.308689
O O2 0.714834 0.181103 0.377786
O O3 0.630666 0.235200 0.477253
O O4 0.590893 0.000000 0.381125
O O5 0.184051 0.500000 0.204016
O O6 0.145498 0.363675 0.059222
O O7 0.311209 0.316047 0.209681
O O8 0.129569 0.217813 0.172810
O O9 0.332022 0.000000 0.063910
O O10 0.250000 0.250000 0.000000
O O11 0.440841 0.235145 0.103927
O O12 0.553808 0.500000 0.703864
O O13 0.606146 0.316559 0.620141
O O14 0.849691 0.000000 0.469319
O O15 0.492766 0.500000 0.868057
O O16 0.500000 0.645890 0.000000
#
# Coordination Sequence:
#
# PCOD9182802 Si02
#       6
#     8   8   8   8   8   8
#     4  10  20  34  54  81 110 138 178 226 263 307
#     4   9  19  35  53  74 103 136 173 214 262 318
#     4  10  19  33  53  76 102 134 174 217 261 312
#     4  10  20  36  56  77 108 146 179 214 268 326
#     4   9  19  36  56  77 105 143 182 216 262 322
#     4   9  17  31  52  74  98 129 168 210 254 306
#
# _framework density 22.525836000000002
#
# number of rings (size 3 to 8) (size 9 to 14) (size 15 to 20)
#    0.000    2.500    0.000    2.000    0.000    6.667 
#    3.000    0.000    0.000    0.000    0.000    0.000 
#    0.000    0.000    0.000    0.000    0.000    0.000 
#
# Total GULP energy -134040.683874 kJ/mol
# GULP energy per Si atom -5585.028495 kJ/mol
# Density = 2.247457 g / cm^3
# Si number density = 22.525836 Si / 1000 Ang^3
#
#
#
# Elastic Constant Matrix: (Units=GPa)
#
#
# Indices 1 2 3 4 5 6 
#
# 1 77.2318 61.0908 27.5114 0.0000 21.6020 0.0000
# 2 61.0908 170.5092 47.3384 0.0000 38.4068 0.0000
# 3 27.5114 47.3384 97.7178 0.0000 20.0934 0.0000
# 4 0.0000 0.0000 0.0000 25.2565 0.0000 16.3706
# 5 21.6020 38.4068 20.0934 0.0000 45.9330 0.0000
# 6 0.0000 0.0000 0.0000 16.3706 0.0000 26.1926
#
#
#
# Elastic Compliance Matrix: (Units=1/GPa)
#
#
# Indices 1 2 3 4 5 6 
#
# 1 0.018939 -0.005453 -0.001974 0.000000 -0.003484 0.000000
# 2 -0.005453 0.009388 -0.002116 0.000000 -0.004360 0.000000
# 3 -0.001974 -0.002116 0.012373 0.000000 -0.002714 0.000000
# 4 0.000000 0.000000 0.000000 0.066557 0.000000 -0.041599
# 5 -0.003484 -0.004360 -0.002714 0.000000 0.028242 0.000000
# 6 0.000000 0.000000 0.000000 -0.041599 0.000000 0.064178
#
#
# Mechanical properties :
#
#
# Convention : Reuss Voigt Hill
#
# Bulk Modulus (GPa) = 46.26778 68.59334 57.43056
# Shear Modulus (GPa) = 22.12707 33.44428 27.78567
#
# Velocity S-wave (km/s) = 3.13756 3.85737 3.51594
# Velocity P-wave (km/s) = 5.80605 7.09621 6.48330
#
# Compressibility (1/GPa) = 0.02161331
#
# Stress axis : x y z
#
# Youngs Moduli (GPa) = 52.80157 106.51985 80.82282
#
# Poissons Ratio (x) = 0.58082 0.15955
# Poissons Ratio (y) = 0.28791 0.17105
# Poissons Ratio (z) = 0.10424 0.22543
#
# Static dielectric constant tensor:
#      x y z
#    x 1.906160 0.000000 -0.050530 
#    y 0.000000 1.813760 0.000000 
#    z -0.050530 0.000000 1.876810 
# 
# From -- ./inp_files/342059.got.cif
#   From: 2010.05.17/outbox.cif.g08.bks.cpg/sg12_172_cif.got.tgz:342059.got - 2010.06.03 13:09:07.
