data_PCOD9182578
_publ_section_title
;
Structure prediction by ZEFSAII (Michael W. Deem and Ramdas Pophale) SiO2 
 PCOD9182578
Probable space group: C 2/M
;
_chemical_formula_sum "Si O2"
_cell_formula_units_Z 64
_cell_length_a 5.536268
_cell_length_b 26.625982
_cell_length_c 21.388694
_cell_angle_alpha 90.000000
_cell_angle_beta 106.849544
_cell_angle_gamma 90.000000
_cell_volume 3017.521355
_symmetry_space_group_name_H-M "C 2/M"
_symmetry_group_IT_number 12
_symmetry_cell_setting 'monoclinic'
loop_
_space_group_symop_operation_xyz
x,y,z
-x,y,-z
-x,-y,-z
x,-y,z
1/2+x,1/2+y,z
1/2-x,1/2+y,-z
1/2-x,1/2-y,-z
1/2+x,1/2-y,z
loop_
_atom_site_type_symbol
_atom_site_label
_atom_site_fract_x
_atom_site_fract_y
_atom_site_fract_z
Si Si1 0.645551 0.439412 0.147869
Si Si2 0.450806 0.237379 0.198649
Si Si3 0.757536 0.443784 0.557179
Si Si4 0.087466 0.775319 0.348444
Si Si5 0.348337 0.124145 0.373213
Si Si6 0.433380 0.939239 0.925400
Si Si7 0.997999 0.372486 0.248945
Si Si8 0.086114 0.055510 0.688830
O O1 0.659040 0.500000 0.158696
O O2 0.354336 0.425162 0.113808
O O3 0.841354 0.426749 0.105976
O O4 0.763877 0.407672 0.213147
O O5 0.155585 0.243893 0.165146
O O6 0.506226 0.267916 0.268736
O O7 0.498551 0.178684 0.211822
O O8 0.500000 0.436321 0.500000
O O9 0.853725 0.500000 0.548540
O O10 0.698258 0.445152 0.626897
O O11 0.947541 0.397418 0.564017
O O12 0.356019 0.746591 0.370833
O O13 0.149996 0.832225 0.373523
O O14 0.479931 0.143806 0.319976
O O15 0.194270 0.074665 0.342148
O O16 0.429690 0.000000 0.926989
O O17 0.500000 0.921092 0.000000
O O18 0.246623 0.405772 0.259964
O O19 0.101176 0.000000 0.717207
#
# Coordination Sequence:
#
# PCOD9182578 Si02
#       8
#     8   8   8   8   8   8   8   8
#     4  10  21  33  50  80 114 150 184 227 273 320
#     4  10  19  33  52  75 104 145 182 224 267 329
#     4   9  20  38  55  77 106 137 186 238 274 324
#     4  10  19  34  55  80 104 141 181 225 271 331
#     4  11  21  33  57  78 106 147 182 224 284 343
#     4   9  18  35  55  74 104 151 199 232 263 307
#     4  11  22  33  51  78 117 145 176 221 286 341
#     4  10  21  34  52  78 108 146 182 217 274 343
#
# _framework density 21.209461999999998
#
# number of rings (size 3 to 8) (size 9 to 14) (size 15 to 20)
#    0.000    2.000    2.500    2.625    3.500    3.500 
#    0.000    1.875    0.000    0.750    0.000    0.000 
#    0.000   10.000    0.000    0.000    0.000    0.000 
#
# Total GULP energy -178626.827557 kJ/mol
# GULP energy per Si atom -5582.088361 kJ/mol
# Density = 2.116119 g / cm^3
# Si number density = 21.209462 Si / 1000 Ang^3
#
#
#
# Elastic Constant Matrix: (Units=GPa)
#
#
# Indices 1 2 3 4 5 6 
#
# 1 129.9277 20.3170 28.7633 0.0000 6.8390 0.0000
# 2 20.3170 65.4962 13.0623 0.0000 10.7051 0.0000
# 3 28.7633 13.0623 61.7668 0.0000 3.7580 0.0000
# 4 0.0000 0.0000 0.0000 3.9691 0.0000 -1.4975
# 5 6.8390 10.7051 3.7580 0.0000 29.7400 0.0000
# 6 0.0000 0.0000 0.0000 -1.4975 0.0000 6.6903
#
#
#
# Elastic Compliance Matrix: (Units=1/GPa)
#
#
# Indices 1 2 3 4 5 6 
#
# 1 0.008848 -0.001866 -0.003671 0.000000 -0.000899 0.000000
# 2 -0.001866 0.017227 -0.002442 0.000000 -0.005463 0.000000
# 3 -0.003671 -0.002442 0.018453 0.000000 -0.000609 0.000000
# 4 0.000000 0.000000 0.000000 0.275181 0.000000 0.061592
# 5 -0.000899 -0.005463 -0.000609 0.000000 0.035875 0.000000
# 6 0.000000 0.000000 0.000000 0.061592 0.000000 0.163256
#
#
# Mechanical properties :
#
#
# Convention : Reuss Voigt Hill
#
# Bulk Modulus (GPa) = 35.00103 42.38622 38.69362
# Shear Modulus (GPa) = 9.18576 21.08309 15.13443
#
# Velocity S-wave (km/s) = 2.08336 3.15626 2.67417
# Velocity P-wave (km/s) = 4.72499 5.77154 5.27429
#
# Compressibility (1/GPa) = 0.02857059
#
# Stress axis : x y z
#
# Youngs Moduli (GPa) = 113.01486 58.04935 54.19179
#
# Poissons Ratio (x) = 0.10830 0.19895
# Poissons Ratio (y) = 0.21084 0.13233
# Poissons Ratio (z) = 0.41490 0.14175
#
# Static dielectric constant tensor:
#      x y z
#    x 1.848080 0.000000 -0.020550 
#    y 0.000000 1.764330 0.000000 
#    z -0.020550 0.000000 1.777530 
# 
# From -- ./inp_files/298304.got.cif
#   From: 2010.05.17/outbox.cif.g08.bks.cpg/sg12_150_cif.got.tgz:298304.got - 2010.06.03 13:09:07.
