data_PCOD9182086
_publ_section_title
;
Structure prediction by ZEFSAII (Michael W. Deem and Ramdas Pophale) SiO2 
 PCOD9182086
Probable space group: C 2/M
;
_chemical_formula_sum "Si O2"
_cell_formula_units_Z 56
_cell_length_a 13.572664
_cell_length_b 22.104767
_cell_length_c 17.873478
_cell_angle_alpha 90.000000
_cell_angle_beta 146.655687
_cell_angle_gamma 90.000000
_cell_volume 2947.551570
_symmetry_space_group_name_H-M "C 2/M"
_symmetry_group_IT_number 12
_symmetry_cell_setting 'monoclinic'
loop_
_space_group_symop_operation_xyz
x,y,z
-x,y,-z
-x,-y,-z
x,-y,z
1/2+x,1/2+y,z
1/2-x,1/2+y,-z
1/2-x,1/2-y,-z
1/2+x,1/2-y,z
loop_
_atom_site_type_symbol
_atom_site_label
_atom_site_fract_x
_atom_site_fract_y
_atom_site_fract_z
Si Si1 0.052736 0.218543 0.187052
Si Si2 0.081800 0.569718 0.238917
Si Si3 0.196246 0.930405 0.468035
Si Si4 0.685638 0.172688 0.934873
Si Si5 0.142964 0.327393 0.524173
Si Si6 0.670732 0.227602 0.761479
Si Si7 0.108627 0.145432 0.644610
O O1 0.196576 0.215377 0.345100
O O2 0.169758 0.201368 0.189145
O O3 0.961268 0.284000 0.118995
O O4 0.883162 0.175603 0.094741
O O5 0.065741 0.500000 0.205223
O O6 0.161425 0.570603 0.373383
O O7 0.224871 0.606043 0.279122
O O8 0.897765 0.606797 0.122199
O O9 0.272521 0.889743 0.449848
O O10 0.022449 0.897829 0.392012
O O11 0.162393 0.000000 0.426540
O O12 0.705254 0.206259 0.867142
O O13 0.000000 0.335724 0.500000
O O14 0.024213 0.298296 0.383826
O O15 0.661629 0.297586 0.729683
O O16 0.000000 0.166474 0.500000
#
# Coordination Sequence:
#
# PCOD9182086 Si02
#       7
#     8   8   8   8   8   8   8
#     4  10  22  36  53  86 115 144 185 235 292 333
#     4  10  20  36  57  83 116 153 191 228 278 342
#     4  10  20  34  54  82 114 149 191 234 281 336
#     4  11  21  36  57  82 116 152 184 233 284 339
#     4  10  21  35  56  83 110 145 186 238 282 332
#     4  11  20  34  59  85 114 142 186 237 285 334
#     4  10  19  32  55  87 116 146 183 238 290 336
#
# _framework density 18.998819999999998
#
# number of rings (size 3 to 8) (size 9 to 14) (size 15 to 20)
#    0.000    1.714    2.857    3.000    2.000    3.143 
#    0.000    0.714    0.000    2.571    0.000    4.000 
#    0.000    0.000    0.000    0.000    0.000    0.000 
#
# Total GULP energy -156268.150496 kJ/mol
# GULP energy per Si atom -5581.005375 kJ/mol
# Density = 1.895558 g / cm^3
# Si number density = 18.998820 Si / 1000 Ang^3
#
#
#
# Elastic Constant Matrix: (Units=GPa)
#
#
# Indices 1 2 3 4 5 6 
#
# 1 52.7151 15.0712 23.8171 0.0000 10.2969 0.0000
# 2 15.0712 97.3208 19.4422 0.0005 18.9796 0.0001
# 3 23.8171 19.4422 68.0957 0.0030 26.9481 0.0009
# 4 0.0000 0.0005 0.0030 18.1867 0.0010 -1.4226
# 5 10.2969 18.9796 26.9481 0.0010 23.2223 0.0003
# 6 0.0000 0.0001 0.0009 -1.4226 0.0003 24.6308
#
#
#
# Elastic Compliance Matrix: (Units=1/GPa)
#
#
# Indices 1 2 3 4 5 6 
#
# 1 0.022916 -0.002102 -0.007533 0.000001 0.000299 0.000000
# 2 -0.002102 0.012444 0.001550 0.000000 -0.011037 0.000000
# 3 -0.007533 0.001550 0.029693 -0.000003 -0.032384 -0.000001
# 4 0.000001 0.000000 -0.000003 0.055235 0.000001 0.003190
# 5 0.000299 -0.011037 -0.032384 0.000001 0.089529 0.000000
# 6 0.000000 0.000000 -0.000001 0.003190 0.000000 0.040784
#
#
# Mechanical properties :
#
#
# Convention : Reuss Voigt Hill
#
# Bulk Modulus (GPa) = 20.45727 37.19918 28.82822
# Shear Modulus (GPa) = 17.66380 23.86136 20.76258
#
# Velocity S-wave (km/s) = 3.05246 3.54777 3.30939
# Velocity P-wave (km/s) = 4.81813 6.03361 5.45980
#
# Compressibility (1/GPa) = 0.04888239
#
# Stress axis : x y z
#
# Youngs Moduli (GPa) = 43.63752 80.36262 33.67819
#
# Poissons Ratio (x) = 0.16893 0.25370
# Poissons Ratio (y) = 0.09173 -0.05221
# Poissons Ratio (z) = 0.32873 -0.12458
#
# Static dielectric constant tensor:
#      x y z
#    x 1.671510 0.000000 -0.008190 
#    y 0.000000 1.645160 0.000000 
#    z -0.008190 0.000000 1.676450 
# 
# From -- ./inp_files/217649.got.cif
#   From: 2010.05.17/outbox.cif.g08.bks.cpg/sg12_109_cif.got.tgz:217649.got - 2010.06.03 13:09:07.
