data_PCOD9182212
_publ_section_title
;
Structure prediction by ZEFSAII (Michael W. Deem and Ramdas Pophale) SiO2 
 PCOD9182212
Probable space group: C 2/M
;
_chemical_formula_sum "Si O2"
_cell_formula_units_Z 56
_cell_length_a 12.827234
_cell_length_b 20.233736
_cell_length_c 12.529058
_cell_angle_alpha 90.000000
_cell_angle_beta 114.105743
_cell_angle_gamma 90.000000
_cell_volume 2968.246288
_symmetry_space_group_name_H-M "C 2/M"
_symmetry_group_IT_number 12
_symmetry_cell_setting 'monoclinic'
loop_
_space_group_symop_operation_xyz
x,y,z
-x,y,-z
-x,-y,-z
x,-y,z
1/2+x,1/2+y,z
1/2-x,1/2+y,-z
1/2-x,1/2-y,-z
1/2+x,1/2-y,z
loop_
_atom_site_type_symbol
_atom_site_label
_atom_site_fract_x
_atom_site_fract_y
_atom_site_fract_z
Si Si1 0.267369 0.336287 0.741770
Si Si2 0.451582 0.236138 0.284094
Si Si3 0.808905 0.137626 0.162670
Si Si4 0.163592 0.810944 0.458942
Si Si5 0.867285 0.078531 0.960958
Si Si6 0.914279 0.292298 0.865107
Si Si7 0.371394 0.426555 0.401105
O O1 0.137267 0.310604 0.691879
O O2 0.310043 0.348755 0.640194
O O3 0.293272 0.396063 0.830927
O O4 0.344748 0.275608 0.817627
O O5 0.376906 0.293226 0.196290
O O6 0.540012 0.276395 0.395214
O O7 0.519285 0.198089 0.218836
O O8 0.679916 0.152835 0.145577
O O9 0.865319 0.088998 0.273146
O O10 0.819379 0.109942 0.049005
O O11 0.250000 0.750000 0.500000
O O12 0.180186 0.862274 0.561580
O O13 0.864116 0.000000 0.967839
O O14 0.000000 0.098628 0.000000
O O15 0.000000 0.286148 0.000000
O O16 0.500000 0.427658 0.500000
O O17 0.322211 0.500000 0.401459
#
# Coordination Sequence:
#
# PCOD9182212 Si02
#       7
#     8   8   8   8   8   8   8
#     4  10  21  35  56  84 118 151 186 245 296 351
#     4  10  19  34  56  85 117 145 191 241 297 355
#     4  11  21  38  58  84 119 150 194 243 295 356
#     4  11  22  37  60  89 120 156 201 245 298 358
#     4  11  23  37  57  83 115 152 193 240 297 361
#     4  10  19  32  57  86 113 150 189 237 294 349
#     4  11  23  38  60  87 119 155 194 246 305 360
#
# _framework density 18.866361000000001
#
# number of rings (size 3 to 8) (size 9 to 14) (size 15 to 20)
#    0.000    1.429    1.429    6.857    0.000    2.857 
#    0.000    0.000    0.000   12.000    0.000    5.000 
#    0.000    0.000    0.000    0.000    0.000    0.000 
#
# Total GULP energy -156409.998896 kJ/mol
# GULP energy per Si atom -5586.071389 kJ/mol
# Density = 1.882342 g / cm^3
# Si number density = 18.866361 Si / 1000 Ang^3
#
#
#
# Elastic Constant Matrix: (Units=GPa)
#
#
# Indices 1 2 3 4 5 6 
#
# 1 89.7846 11.5284 13.8442 0.0000 -5.1561 0.0000
# 2 11.5284 46.9325 -4.3844 0.0000 -9.4175 0.0000
# 3 13.8442 -4.3844 70.4451 0.0000 -18.2703 0.0000
# 4 0.0000 0.0000 0.0000 13.8856 0.0000 -0.9630
# 5 -5.1561 -9.4175 -18.2703 0.0000 26.7514 0.0000
# 6 0.0000 0.0000 0.0000 -0.9630 0.0000 22.1241
#
#
#
# Elastic Compliance Matrix: (Units=1/GPa)
#
#
# Indices 1 2 3 4 5 6 
#
# 1 0.011948 -0.003343 -0.002751 0.000000 -0.000753 0.000000
# 2 -0.003343 0.024974 0.005255 0.000000 0.011737 0.000000
# 3 -0.002751 0.005255 0.018722 0.000000 0.014106 0.000000
# 4 0.000000 0.000000 0.000000 0.072235 0.000000 0.003144
# 5 -0.000753 0.011737 0.014106 0.000000 0.051002 0.000000
# 6 0.000000 0.000000 0.000000 0.003144 0.000000 0.045336
#
#
# Mechanical properties :
#
#
# Convention : Reuss Voigt Hill
#
# Bulk Modulus (GPa) = 18.53018 27.68206 23.10612
# Shear Modulus (GPa) = 20.50149 24.96383 22.73266
#
# Velocity S-wave (km/s) = 3.30004 3.64152 3.47498
# Velocity P-wave (km/s) = 4.93594 5.69082 5.32677
#
# Compressibility (1/GPa) = 0.05396600
#
# Stress axis : x y z
#
# Youngs Moduli (GPa) = 83.69585 40.04090 53.41367
#
# Poissons Ratio (x) = 0.13386 0.14697
# Poissons Ratio (y) = 0.27980 -0.28071
# Poissons Ratio (z) = 0.23029 -0.21043
#
# Static dielectric constant tensor:
#      x y z
#    x 1.688990 0.000000 0.000340 
#    y 0.000000 1.639230 0.000000 
#    z 0.000340 0.000000 1.663460 
# 
# From -- ./inp_files/133302.got.cif
#   From: 2010.05.17/outbox.cif.g08.bks.cpg/sg12_67_cif.got.tgz:133302.got - 2010.06.03 13:09:07.
