data_PCOD9182371
_publ_section_title
;
Structure prediction by ZEFSAII (Michael W. Deem and Ramdas Pophale) SiO2 
 PCOD9182371
Probable space group: C 2/M
;
_chemical_formula_sum "Si O2"
_cell_formula_units_Z 64
_cell_length_a 31.192141
_cell_length_b 9.166670
_cell_length_c 16.780255
_cell_angle_alpha 90.000000
_cell_angle_beta 49.124494
_cell_angle_gamma 90.000000
_cell_volume 3627.886611
_symmetry_space_group_name_H-M "C 2/M"
_symmetry_group_IT_number 12
_symmetry_cell_setting 'monoclinic'
loop_
_space_group_symop_operation_xyz
x,y,z
-x,y,-z
-x,-y,-z
x,-y,z
1/2+x,1/2+y,z
1/2-x,1/2+y,-z
1/2-x,1/2-y,-z
1/2+x,1/2-y,z
loop_
_atom_site_type_symbol
_atom_site_label
_atom_site_fract_x
_atom_site_fract_y
_atom_site_fract_z
Si Si1 0.764374 0.326820 0.399342
Si Si2 0.231540 0.327968 0.146771
Si Si3 0.037086 0.671028 0.207366
Si Si4 0.176264 0.824374 0.365713
Si Si5 0.023217 0.337920 0.883347
Si Si6 0.166421 0.673110 0.058397
Si Si7 0.075748 0.824786 0.597715
Si Si8 0.126011 0.830370 0.708466
O O1 0.763372 0.500000 0.411079
O O2 0.750000 0.250000 0.500000
O O3 0.720762 0.290543 0.382349
O O4 0.826867 0.267289 0.307150
O O5 0.238475 0.500000 0.153173
O O6 0.198324 0.253239 0.259762
O O7 0.194782 0.309575 0.110750
O O8 0.292422 0.254757 0.053710
O O9 0.035483 0.500000 0.231955
O O10 0.022589 0.680524 0.130912
O O11 0.101248 0.725101 0.141222
O O12 0.985513 0.751387 0.315567
O O13 0.114010 0.782092 0.475171
O O14 0.176245 0.000000 0.354539
O O15 0.049566 0.500000 0.835906
O O16 0.067176 0.207825 0.821187
O O17 0.000000 0.339269 0.000000
O O18 0.165822 0.500000 0.039759
O O19 0.113543 0.791524 0.630860
O O20 0.068713 0.000000 0.605173
O O21 0.141317 0.000000 0.693205
#
# Coordination Sequence:
#
# PCOD9182371 Si02
#       8
#     8   8   8   8   8   8   8   8
#     4  11  21  34  52  75 104 140 179 216 259 312
#     4  10  21  36  57  84 107 136 179 226 271 320
#     4   9  18  33  55  78 100 138 181 216 263 318
#     4  10  21  37  54  76 110 146 178 217 273 326
#     4   9  18  32  49  73 104 137 177 219 259 312
#     4   9  19  38  59  79 109 142 176 220 275 330
#     4   9  18  34  52  74 106 141 175 214 262 317
#     4  10  19  33  50  72 103 138 178 218 261 310
#
# _framework density 17.641124999999999
#
# number of rings (size 3 to 8) (size 9 to 14) (size 15 to 20)
#    0.000    2.375    1.250    1.125    0.000    4.250 
#    0.000    3.125    0.000    3.750    0.000    0.000 
#    0.000    0.000    0.000    0.000    0.000    0.000 
#
# Total GULP energy -178343.279936 kJ/mol
# GULP energy per Si atom -5573.227498 kJ/mol
# Density = 1.760097 g / cm^3
# Si number density = 17.641125 Si / 1000 Ang^3
#
#
#
# Elastic Constant Matrix: (Units=GPa)
#
#
# Indices 1 2 3 4 5 6 
#
# 1 64.3764 34.8656 49.1390 0.0000 -28.0557 0.0000
# 2 34.8656 45.4352 55.0305 0.0000 -4.3485 0.0001
# 3 49.1390 55.0305 139.7723 0.0000 -10.0369 0.0000
# 4 0.0000 0.0000 0.0000 32.7716 0.0000 -3.1293
# 5 -28.0557 -4.3485 -10.0369 0.0000 27.1566 0.0000
# 6 0.0000 0.0001 0.0000 -3.1293 0.0000 23.1320
#
#
#
# Elastic Compliance Matrix: (Units=1/GPa)
#
#
# Indices 1 2 3 4 5 6 
#
# 1 0.068096 -0.043416 -0.002357 0.000000 0.062527 0.000000
# 2 -0.043416 0.069763 -0.015021 0.000000 -0.039234 0.000000
# 3 -0.002357 -0.015021 0.013919 0.000000 0.000304 0.000000
# 4 0.000000 0.000000 0.000000 0.030914 0.000000 0.004182
# 5 0.062527 -0.039234 0.000304 0.000000 0.095251 0.000000
# 6 0.000000 0.000000 0.000000 0.004182 0.000000 0.043796
#
#
# Mechanical properties :
#
#
# Convention : Reuss Voigt Hill
#
# Bulk Modulus (GPa) = 33.12207 58.62822 45.87514
# Shear Modulus (GPa) = 11.02809 23.98199 17.50504
#
# Velocity S-wave (km/s) = 2.50298 3.69105 3.15347
# Velocity P-wave (km/s) = 5.21244 7.17434 6.27059
#
# Compressibility (1/GPa) = 0.03019135
#
# Stress axis : x y z
#
# Youngs Moduli (GPa) = 14.68520 14.33424 71.84597
#
# Poissons Ratio (x) = 0.62233 0.16931
# Poissons Ratio (y) = 0.63757 1.07917
# Poissons Ratio (z) = 0.03461 0.21531
#
# Static dielectric constant tensor:
#      x y z
#    x 1.608990 0.000000 -0.026900 
#    y 0.000000 1.611510 0.000000 
#    z -0.026900 0.000000 1.620490 
# 
# From -- ./inp_files/249824.got.cif
#   From: 2010.05.17/outbox.cif.g08.bks.cpg/sg12_125_cif.got.tgz:249824.got - 2010.06.03 13:09:07.
