data_PCOD9182640
_publ_section_title
;
Structure prediction by ZEFSAII (Michael W. Deem and Ramdas Pophale) SiO2 
 PCOD9182640
Probable space group: C 2/M
;
_chemical_formula_sum "Si O2"
_cell_formula_units_Z 64
_cell_length_a 22.121538
_cell_length_b 11.506502
_cell_length_c 15.388482
_cell_angle_alpha 90.000000
_cell_angle_beta 118.944959
_cell_angle_gamma 90.000000
_cell_volume 3427.714745
_symmetry_space_group_name_H-M "C 2/M"
_symmetry_group_IT_number 12
_symmetry_cell_setting 'monoclinic'
loop_
_space_group_symop_operation_xyz
x,y,z
-x,y,-z
-x,-y,-z
x,-y,z
1/2+x,1/2+y,z
1/2-x,1/2+y,-z
1/2-x,1/2-y,-z
1/2+x,1/2-y,z
loop_
_atom_site_type_symbol
_atom_site_label
_atom_site_fract_x
_atom_site_fract_y
_atom_site_fract_z
Si Si1 0.053724 0.867130 0.609730
Si Si2 0.702864 0.867102 0.805856
Si Si3 0.048409 0.636688 0.951931
Si Si4 0.945653 0.698314 0.233763
Si Si5 0.301557 0.133736 0.671032
Si Si6 0.589950 0.870713 0.393616
Si Si7 0.204896 0.634638 0.126207
Si Si8 0.668560 0.758371 0.602160
O O1 0.052908 0.810636 0.703840
O O2 0.130480 0.846566 0.625915
O O3 0.000000 0.818405 0.500000
O O4 0.036405 0.000000 0.607239
O O5 0.629870 0.857145 0.805494
O O6 0.748633 0.750726 0.861634
O O7 0.685198 0.849149 0.690872
O O8 0.730399 0.000000 0.838680
O O9 0.032599 0.500000 0.921760
O O10 0.038121 0.708281 0.856569
O O11 0.129378 0.644594 0.031271
O O12 0.000000 0.669594 0.000000
O O13 0.009008 0.628837 0.319948
O O14 0.370038 0.165707 0.666120
O O15 0.308478 0.139665 0.779595
O O16 0.238388 0.217348 0.605848
O O17 0.284163 0.000000 0.637864
O O18 0.615910 0.797748 0.492375
O O19 0.613150 0.000000 0.430572
O O20 0.231033 0.500000 0.125485
#
# Coordination Sequence:
#
# PCOD9182640 Si02
#       8
#     8   8   8   8   8   8   8   8
#     4  10  20  37  57  78 109 150 194 234 281 342
#     4  10  21  35  54  80 115 152 188 239 295 348
#     4  10  20  37  63  90 115 147 190 242 292 342
#     4  11  22  36  56  84 114 146 190 236 290 343
#     4   9  18  32  52  76 104 141 188 237 283 334
#     4  11  20  31  49  76 110 145 181 230 287 344
#     4   9  19  37  60  84 111 149 196 243 289 344
#     4  10  19  33  52  78 108 144 188 232 286 344
#
# _framework density 18.671332
#
# number of rings (size 3 to 8) (size 9 to 14) (size 15 to 20)
#    0.000    2.000    1.250    3.000    0.000    5.500 
#    0.000    2.500    0.000    8.250    0.000    0.000 
#    0.000    0.000    0.000    0.000    0.000    0.000 
#
# Total GULP energy -178146.866534 kJ/mol
# GULP energy per Si atom -5567.089579 kJ/mol
# Density = 1.862884 g / cm^3
# Si number density = 18.671332 Si / 1000 Ang^3
#
#
#
# Elastic Constant Matrix: (Units=GPa)
#
#
# Indices 1 2 3 4 5 6 
#
# 1 87.4142 41.0632 23.1842 0.0000 -8.4358 0.0000
# 2 41.0632 82.1937 37.4441 0.0000 -4.7683 0.0000
# 3 23.1842 37.4441 77.7709 0.0000 -2.2010 0.0000
# 4 0.0000 0.0000 0.0000 4.8903 0.0000 6.6938
# 5 -8.4358 -4.7683 -2.2010 0.0000 25.4979 0.0000
# 6 0.0000 0.0000 0.0000 6.6938 0.0000 10.1985
#
#
#
# Elastic Compliance Matrix: (Units=1/GPa)
#
#
# Indices 1 2 3 4 5 6 
#
# 1 0.015357 -0.006943 -0.001131 0.000000 0.003685 0.000000
# 2 -0.006943 0.018856 -0.006991 0.000000 0.000626 0.000000
# 3 -0.001131 -0.006991 0.016554 0.000000 -0.000253 0.000000
# 4 0.000000 0.000000 0.000000 2.012555 0.000000 -1.320938
# 5 0.003685 0.000626 -0.000253 0.000000 0.040533 0.000000
# 6 0.000000 0.000000 0.000000 -1.320938 0.000000 0.965049
#
#
# Mechanical properties :
#
#
# Convention : Reuss Voigt Hill
#
# Bulk Modulus (GPa) = 48.45649 50.08464 49.27056
# Shear Modulus (GPa) = 1.60983 17.82985 9.71984
#
# Velocity S-wave (km/s) = 0.92955 3.09355 2.28409
# Velocity P-wave (km/s) = 5.21160 6.29624 5.77942
#
# Compressibility (1/GPa) = 0.02063707
#
# Stress axis : x y z
#
# Youngs Moduli (GPa) = 65.11723 53.03251 60.40754
#
# Poissons Ratio (x) = 0.36822 0.06831
# Poissons Ratio (y) = 0.45213 0.42232
# Poissons Ratio (z) = 0.07363 0.37076
#
# Static dielectric constant tensor:
#      x y z
#    x 1.668020 0.000000 0.012950 
#    y 0.000000 1.675690 0.000000 
#    z 0.012950 0.000000 1.673060 
# 
# From -- ./inp_files/232518.got.cif
#   From: 2010.05.17/outbox.cif.g08.bks.cpg/sg12_117_cif.got.tgz:232518.got - 2010.06.03 13:09:07.
