data_PCOD9182024
_publ_section_title
;
Structure prediction by ZEFSAII (Michael W. Deem and Ramdas Pophale) SiO2 
 PCOD9182024
Probable space group: C 2/M
;
_chemical_formula_sum "Si O2"
_cell_formula_units_Z 64
_cell_length_a 21.034875
_cell_length_b 13.372227
_cell_length_c 21.555626
_cell_angle_alpha 90.000000
_cell_angle_beta 145.657230
_cell_angle_gamma 90.000000
_cell_volume 3420.528215
_symmetry_space_group_name_H-M "C 2/M"
_symmetry_group_IT_number 12
_symmetry_cell_setting 'monoclinic'
loop_
_space_group_symop_operation_xyz
x,y,z
-x,y,-z
-x,-y,-z
x,-y,z
1/2+x,1/2+y,z
1/2-x,1/2+y,-z
1/2-x,1/2-y,-z
1/2+x,1/2-y,z
loop_
_atom_site_type_symbol
_atom_site_label
_atom_site_fract_x
_atom_site_fract_y
_atom_site_fract_z
Si Si1 0.131416 0.116651 0.407335
Si Si2 0.427220 0.749315 0.259920
Si Si3 0.262685 0.389110 0.700803
Si Si4 0.279369 0.226708 0.622665
Si Si5 0.509092 0.882798 0.808580
Si Si6 0.520817 0.383912 0.946203
Si Si7 0.559160 0.112428 0.614849
Si Si8 0.690652 0.231907 0.019068
O O1 0.197877 0.149998 0.522499
O O2 0.183172 0.186709 0.395547
O O3 0.002870 0.151826 0.310390
O O4 0.143116 0.000000 0.403898
O O5 0.455779 0.826473 0.226876
O O6 0.463385 0.805216 0.351844
O O7 0.295567 0.722657 0.150017
O O8 0.237116 0.500000 0.652988
O O9 0.224768 0.292473 0.632371
O O10 0.396893 0.381963 0.815735
O O11 0.193289 0.386778 0.708637
O O12 0.391160 0.167620 0.732911
O O13 0.496785 0.000000 0.788263
O O14 0.605366 0.858738 0.936676
O O15 0.557592 0.500000 0.979385
O O16 0.500000 0.347531 0.000000
O O17 0.610332 0.320748 0.979116
O O18 0.500000 0.125727 0.500000
O O19 0.529098 0.000000 0.612410
O O20 0.750000 0.250000 0.000000
#
# Coordination Sequence:
#
# PCOD9182024 Si02
#       8
#     8   8   8   8   8   8   8   8
#     4  10  21  35  55  80 109 146 187 232 284 342
#     4  10  21  36  55  81 116 151 188 234 291 346
#     4  10  19  32  55  83 112 145 182 229 289 344
#     4  10  19  35  55  81 111 140 182 234 288 336
#     4  10  20  35  56  81 110 150 191 233 286 345
#     4  10  20  35  58  88 119 153 193 242 303 363
#     4  10  20  34  55  86 119 152 190 237 296 360
#     4  10  21  36  53  84 120 159 198 241 294 354
#
# _framework density 18.710560000000001
#
# number of rings (size 3 to 8) (size 9 to 14) (size 15 to 20)
#    0.000    2.000    1.250    2.625    0.000    4.000 
#    0.000    3.750    0.000    4.500    0.000    0.000 
#    0.000    0.000    0.000    0.000    0.000    0.000 
#
# Total GULP energy -178429.078743 kJ/mol
# GULP energy per Si atom -5575.908711 kJ/mol
# Density = 1.866797 g / cm^3
# Si number density = 18.710560 Si / 1000 Ang^3
#
#
#
# Elastic Constant Matrix: (Units=GPa)
#
#
# Indices 1 2 3 4 5 6 
#
# 1 51.7057 17.9726 3.0530 0.0000 8.3865 0.0000
# 2 17.9726 100.7585 28.4287 0.0000 6.0851 0.0000
# 3 3.0530 28.4287 71.1348 0.0000 9.8065 0.0000
# 4 0.0000 0.0000 0.0000 18.3804 0.0000 -0.1048
# 5 8.3865 6.0851 9.8065 0.0000 29.3941 0.0000
# 6 0.0000 0.0000 0.0000 -0.1048 0.0000 24.5216
#
#
#
# Elastic Compliance Matrix: (Units=1/GPa)
#
#
# Indices 1 2 3 4 5 6 
#
# 1 0.021555 -0.003898 0.001435 0.000000 -0.005822 0.000000
# 2 -0.003898 0.011912 -0.004619 0.000000 0.000187 0.000000
# 3 0.001435 -0.004619 0.016527 0.000000 -0.004967 0.000000
# 4 0.000000 0.000000 0.000000 0.054407 0.000000 0.000232
# 5 -0.005822 0.000187 -0.004967 0.000000 0.037300 0.000000
# 6 0.000000 0.000000 0.000000 0.000232 0.000000 0.040781
#
#
# Mechanical properties :
#
#
# Convention : Reuss Voigt Hill
#
# Bulk Modulus (GPa) = 27.90964 35.83417 31.87190
# Shear Modulus (GPa) = 23.97058 26.06887 25.01972
#
# Velocity S-wave (km/s) = 3.58316 3.73670 3.66074
# Velocity P-wave (km/s) = 5.66283 6.14904 5.91094
#
# Compressibility (1/GPa) = 0.03582992
#
# Stress axis : x y z
#
# Youngs Moduli (GPa) = 46.39352 83.94889 60.50715
#
# Poissons Ratio (x) = 0.32725 -0.08685
# Poissons Ratio (y) = 0.18085 0.27949
# Poissons Ratio (z) = -0.06659 0.38777
#
# Static dielectric constant tensor:
#      x y z
#    x 1.672690 0.000000 0.012730 
#    y 0.000000 1.612070 0.000000 
#    z 0.012730 0.000000 1.723680 
# 
# From -- ./inp_files/349335.got.cif
#   From: 2010.05.17/outbox.cif.g08.bks.cpg/sg12_175_cif.got.tgz:349335.got - 2010.06.03 13:09:07.
