data_PCOD9182206
_publ_section_title
;
Structure prediction by ZEFSAII (Michael W. Deem and Ramdas Pophale) SiO2 
 PCOD9182206
Probable space group: C 2/M
;
_chemical_formula_sum "Si O2"
_cell_formula_units_Z 48
_cell_length_a 11.636599
_cell_length_b 14.335199
_cell_length_c 15.179538
_cell_angle_alpha 90.000000
_cell_angle_beta 126.615148
_cell_angle_gamma 90.000000
_cell_volume 2032.449996
_symmetry_space_group_name_H-M "C 2/M"
_symmetry_group_IT_number 12
_symmetry_cell_setting 'monoclinic'
loop_
_space_group_symop_operation_xyz
x,y,z
-x,y,-z
-x,-y,-z
x,-y,z
1/2+x,1/2+y,z
1/2-x,1/2+y,-z
1/2-x,1/2-y,-z
1/2+x,1/2-y,z
loop_
_atom_site_type_symbol
_atom_site_label
_atom_site_fract_x
_atom_site_fract_y
_atom_site_fract_z
Si Si1 0.580273 0.644807 0.951933
Si Si2 0.581273 0.613196 0.292118
Si Si3 0.398554 0.386438 0.372749
Si Si4 0.082659 0.612899 0.271944
Si Si5 0.380160 0.886443 0.513641
Si Si6 0.617261 0.854850 0.980856
O O1 0.459644 0.651924 0.821347
O O2 0.633034 0.745662 0.010592
O O3 0.500000 0.600759 0.000000
O O4 0.722613 0.605678 0.965889
O O5 0.586140 0.500000 0.285641
O O6 0.460415 0.639068 0.307008
O O7 0.728234 0.643488 0.405541
O O8 0.500000 0.356880 0.500000
O O9 0.398213 0.500000 0.376434
O O10 0.236922 0.354861 0.308571
O O11 0.082577 0.500000 0.273118
O O12 0.076350 0.645563 0.369578
O O13 0.960256 0.640066 0.148889
O O14 0.500000 0.859931 0.500000
O O15 0.372987 0.000000 0.514805
O O16 0.500000 0.892341 0.000000
#
# Coordination Sequence:
#
# PCOD9182206 Si02
#       6
#     8   8   8   8   8   8
#     4  10  23  40  57  76 105 147 183 219 271 318
#     4  10  19  33  56  81 108 139 176 220 261 314
#     4   9  15  28  51  80 109 136 166 206 264 319
#     4  10  19  32  57  84 106 136 176 220 263 316
#     4   9  18  31  49  78 113 143 167 207 270 321
#     4  10  22  41  58  75 107 145 180 222 271 318
#
# _framework density 23.616817999999999
#
# number of rings (size 3 to 8) (size 9 to 14) (size 15 to 20)
#    0.000    2.333    1.667    1.000    2.333    1.333 
#    0.000    0.833    0.000    0.000    0.000    0.000 
#    0.000    0.000    0.000    0.000    0.000    0.000 
#
# Total GULP energy -134032.221843 kJ/mol
# GULP energy per Si atom -5584.675910 kJ/mol
# Density = 2.356306 g / cm^3
# Si number density = 23.616818 Si / 1000 Ang^3
#
#
#
# Elastic Constant Matrix: (Units=GPa)
#
#
# Indices 1 2 3 4 5 6 
#
# 1 154.4203 2.2943 61.8868 0.0000 -18.4895 0.0000
# 2 2.2943 86.0868 -9.1012 0.0000 -1.7525 0.0000
# 3 61.8868 -9.1012 169.3720 0.0000 -12.7598 0.0000
# 4 0.0000 0.0000 0.0000 23.7791 0.0000 3.0113
# 5 -18.4895 -1.7525 -12.7598 0.0000 42.0927 0.0000
# 6 0.0000 0.0000 0.0000 3.0113 0.0000 -7.2650
#
#
#
# Elastic Compliance Matrix: (Units=1/GPa)
#
#
# Indices 1 2 3 4 5 6 
#
# 1 0.007881 -0.000443 -0.002706 0.000000 0.002623 0.000000
# 2 -0.000443 0.011727 0.000833 0.000000 0.000546 0.000000
# 3 -0.002706 0.000833 0.007011 0.000000 0.000971 0.000000
# 4 0.000000 0.000000 0.000000 0.039956 0.000000 0.016562
# 5 0.002623 0.000546 0.000971 0.000000 0.025227 0.000000
# 6 0.000000 0.000000 0.000000 0.016562 0.000000 -0.130781
#
#
# Mechanical properties :
#
#
# Convention : Reuss Voigt Hill
#
# Bulk Modulus (GPa) = 45.47926 57.78210 51.63068
# Shear Modulus (GPa) = -185.05399 35.37461 -74.83969
#
# Velocity S-wave (km/s) = -8.86154 3.87441 -5.63542
# Velocity P-wave (km/s) = 9.24141 6.67341 4.52047
#
# Compressibility (1/GPa) = 0.02198804
#
# Stress axis : x y z
#
# Youngs Moduli (GPa) = 126.88948 85.27201 142.63770
#
# Poissons Ratio (x) = 0.03775 0.38594
# Poissons Ratio (y) = 0.05617 -0.11883
# Poissons Ratio (z) = 0.34333 -0.07104
#
# Static dielectric constant tensor:
#      x y z
#    x 1.895130 0.000000 0.004120 
#    y 0.000000 1.937410 0.000000 
#    z 0.004120 0.000000 1.856570 
# 
# From -- ./inp_files/89734.got.cif
#   From: 2010.05.17/outbox.cif.g08.bks.cpg/sg12_45_cif.got.tgz:89734.got - 2010.06.03 13:09:07.
