data_PCOD9182392
_publ_section_title
;
Structure prediction by ZEFSAII (Michael W. Deem and Ramdas Pophale) SiO2 
 PCOD9182392
Probable space group: C 2/M
;
_chemical_formula_sum "Si O2"
_cell_formula_units_Z 64
_cell_length_a 24.942754
_cell_length_b 23.979567
_cell_length_c 13.220230
_cell_angle_alpha 90.000000
_cell_angle_beta 151.440029
_cell_angle_gamma 90.000000
_cell_volume 3780.278769
_symmetry_space_group_name_H-M "C 2/M"
_symmetry_group_IT_number 12
_symmetry_cell_setting 'monoclinic'
loop_
_space_group_symop_operation_xyz
x,y,z
-x,y,-z
-x,-y,-z
x,-y,z
1/2+x,1/2+y,z
1/2-x,1/2+y,-z
1/2-x,1/2-y,-z
1/2+x,1/2-y,z
loop_
_atom_site_type_symbol
_atom_site_label
_atom_site_fract_x
_atom_site_fract_y
_atom_site_fract_z
Si Si1 0.233148 0.434485 0.750780
Si Si2 0.877404 0.152696 0.346162
Si Si3 0.805794 0.631675 0.126656
Si Si4 0.989516 0.371982 0.686310
Si Si5 0.336797 0.434176 0.454583
Si Si6 0.575013 0.065610 0.024958
Si Si7 0.595110 0.775418 0.571309
Si Si8 0.525484 0.432172 0.929020
O O1 0.227320 0.500000 0.723036
O O2 0.228401 0.420582 0.861852
O O3 0.123936 0.406533 0.520687
O O4 0.352071 0.413323 0.905101
O O5 0.858910 0.103001 0.393512
O O6 0.863279 0.212985 0.376362
O O7 0.000000 0.148468 0.500000
O O8 0.786497 0.148331 0.107116
O O9 0.920002 0.619156 0.254167
O O10 0.821131 0.681897 0.233170
O O11 0.953945 0.307457 0.607732
O O12 0.041524 0.393433 0.877375
O O13 0.354169 0.500000 0.462404
O O14 0.206465 0.427422 0.268324
O O15 0.425145 0.416923 0.687113
O O16 0.559050 0.000000 0.968011
O O17 0.500000 0.075386 0.000000
O O18 0.500000 0.769676 0.500000
O O19 0.528160 0.500000 0.934649
O O20 0.500000 0.412968 0.000000
#
# Coordination Sequence:
#
# PCOD9182392 Si02
#       8
#     8   8   8   8   8   8   8   8
#     4  10  20  31  50  79 109 142 179 218 268 328
#     4  11  20  33  54  78 107 147 181 214 263 321
#     4  10  19  33  50  78 111 140 174 222 270 316
#     4  10  19  35  54  80 110 140 176 226 274 314
#     4  10  21  36  53  81 112 140 179 220 269 327
#     4  10  21  35  56  83 110 144 183 221 269 330
#     4   8  18  33  53  77 104 139 186 219 258 315
#     4   9  19  35  53  72 101 141 181 222 261 306
#
# _framework density 16.929967999999999
#
# number of rings (size 3 to 8) (size 9 to 14) (size 15 to 20)
#    0.000    2.250    1.250    2.625    1.750    2.250 
#    0.000    0.000    0.000    1.500    0.000    0.000 
#    0.000    0.000    0.000    0.000    0.000    0.000 
#
# Total GULP energy -178285.782720 kJ/mol
# GULP energy per Si atom -5571.430710 kJ/mol
# Density = 1.689144 g / cm^3
# Si number density = 16.929968 Si / 1000 Ang^3
#
#
#
# Elastic Constant Matrix: (Units=GPa)
#
#
# Indices 1 2 3 4 5 6 
#
# 1 86.1001 20.8214 43.4472 0.0000 15.2514 0.0000
# 2 20.8214 42.3671 30.4412 0.0000 7.9029 0.0000
# 3 43.4472 30.4412 108.3564 0.0000 17.6289 0.0000
# 4 0.0000 0.0000 0.0000 11.5181 0.0000 1.2756
# 5 15.2514 7.9029 17.6289 0.0000 21.2893 0.0000
# 6 0.0000 0.0000 0.0000 1.2756 0.0000 -8.9794
#
#
#
# Elastic Compliance Matrix: (Units=1/GPa)
#
#
# Indices 1 2 3 4 5 6 
#
# 1 0.015762 -0.003453 -0.004301 0.000000 -0.006449 0.000000
# 2 -0.003453 0.030748 -0.006702 0.000000 -0.003391 0.000000
# 3 -0.004301 -0.006702 0.013788 0.000000 -0.005848 0.000000
# 4 0.000000 0.000000 0.000000 0.085475 0.000000 0.012142
# 5 -0.006449 -0.003391 -0.005848 0.000000 0.057693 0.000000
# 6 0.000000 0.000000 0.000000 0.012142 0.000000 -0.109641
#
#
# Mechanical properties :
#
#
# Convention : Reuss Voigt Hill
#
# Bulk Modulus (GPa) = 31.86158 47.36036 39.61097
# Shear Modulus (GPa) = 37.53788 14.23985 25.88886
#
# Velocity S-wave (km/s) = 4.71387 2.90332 3.91471
# Velocity P-wave (km/s) = 6.96333 6.26690 6.62427
#
# Compressibility (1/GPa) = 0.03138577
#
# Stress axis : x y z
#
# Youngs Moduli (GPa) = 63.44397 32.52211 72.52933
#
# Poissons Ratio (x) = 0.11231 0.31193
# Poissons Ratio (y) = 0.21909 0.48609
# Poissons Ratio (z) = 0.27285 0.21796
#
# Static dielectric constant tensor:
#      x y z
#    x 1.556110 0.000000 0.009810 
#    y 0.000000 1.587010 0.000000 
#    z 0.009810 0.000000 1.590990 
# 
# From -- ./inp_files/178428.got.cif
#   From: 2010.05.17/outbox.cif.g08.bks.cpg/sg12_90_cif.got.tgz:178428.got - 2010.06.03 13:09:07.
