data_PCOD9182085
_publ_section_title
;
Structure prediction by ZEFSAII (Michael W. Deem and Ramdas Pophale) SiO2 
 PCOD9182085
Probable space group: C 2/M
;
_chemical_formula_sum "Si O2"
_cell_formula_units_Z 48
_cell_length_a 13.733869
_cell_length_b 19.268199
_cell_length_c 9.231149
_cell_angle_alpha 90.000000
_cell_angle_beta 74.377692
_cell_angle_gamma 90.000000
_cell_volume 2352.567718
_symmetry_space_group_name_H-M "C 2/M"
_symmetry_group_IT_number 12
_symmetry_cell_setting 'monoclinic'
loop_
_space_group_symop_operation_xyz
x,y,z
-x,y,-z
-x,-y,-z
x,-y,z
1/2+x,1/2+y,z
1/2-x,1/2+y,-z
1/2-x,1/2-y,-z
1/2+x,1/2-y,z
loop_
_atom_site_type_symbol
_atom_site_label
_atom_site_fract_x
_atom_site_fract_y
_atom_site_fract_z
Si Si1 0.335020 0.077839 0.726089
Si Si2 0.235095 0.677479 0.668775
Si Si3 0.274390 0.919213 0.081174
Si Si4 0.642829 0.580039 0.593512
Si Si5 0.890448 0.285533 0.559339
Si Si6 0.037003 0.916046 0.142041
O O1 0.224906 0.080982 0.691736
O O2 0.398441 0.139547 0.631510
O O3 0.374807 0.000000 0.682606
O O4 0.320380 0.086952 0.903057
O O5 0.185026 0.635224 0.818631
O O6 0.308470 0.624563 0.552754
O O7 0.156008 0.704560 0.582016
O O8 0.308184 0.740950 0.680667
O O9 0.154611 0.902857 0.118274
O O10 0.285656 0.000000 0.122446
O O11 0.630578 0.500000 0.551134
O O12 0.538039 0.607566 0.700949
O O13 0.000000 0.252872 0.500000
O O14 0.025086 0.000000 0.144318
O O15 0.000000 0.890140 0.000000
#
# Coordination Sequence:
#
# PCOD9182085 Si02
#       6
#     8   8   8   8   8   8
#     4   9  18  35  58  80 106 142 183 228 274 320
#     4  10  22  37  57  81 113 142 179 228 274 313
#     4  10  19  32  55  87 116 140 176 230 277 317
#     4   9  16  29  51  80 114 149 180 211 264 333
#     4  10  23  42  58  76 107 148 188 221 268 333
#     4   9  15  25  45  79 118 149 177 208 257 332
#
# _framework density 20.40324
#
# number of rings (size 3 to 8) (size 9 to 14) (size 15 to 20)
#    0.000    2.500    1.667    0.500    2.333    1.667 
#    0.000    3.333    0.000    2.000    0.000    0.000 
#    0.000    0.000    0.000    0.000    0.000    0.000 
#
# Total GULP energy -133983.154161 kJ/mol
# GULP energy per Si atom -5582.631423 kJ/mol
# Density = 2.035680 g / cm^3
# Si number density = 20.403240 Si / 1000 Ang^3
#
#
#
# Elastic Constant Matrix: (Units=GPa)
#
#
# Indices 1 2 3 4 5 6 
#
# 1 28.4762 7.1364 4.1263 0.0000 -4.2516 0.0000
# 2 7.1364 69.0985 30.0816 0.0000 10.5964 0.0000
# 3 4.1263 30.0816 50.0883 0.0000 6.9275 0.0000
# 4 0.0000 0.0000 0.0000 5.3847 0.0000 12.8050
# 5 -4.2516 10.5964 6.9275 0.0000 16.5924 0.0000
# 6 0.0000 0.0000 0.0000 12.8050 0.0000 9.2192
#
#
#
# Elastic Compliance Matrix: (Units=1/GPa)
#
#
# Indices 1 2 3 4 5 6 
#
# 1 0.038855 -0.005335 -0.001958 0.000000 0.014181 0.000000
# 2 -0.005335 0.021401 -0.010967 0.000000 -0.010455 0.000000
# 3 -0.001958 -0.010967 0.027395 0.000000 -0.004936 0.000000
# 4 0.000000 0.000000 0.000000 -0.080641 0.000000 0.112005
# 5 0.014181 -0.010455 -0.004936 0.000000 0.072640 0.000000
# 6 0.000000 0.000000 0.000000 0.112005 0.000000 -0.047100
#
#
# Mechanical properties :
#
#
# Convention : Reuss Voigt Hill
#
# Bulk Modulus (GPa) = 19.55782 25.59460 22.57621
# Shear Modulus (GPa) = 58.06177 13.32719 35.69448
#
# Velocity S-wave (km/s) = 5.34031 2.55853 4.18718
# Velocity P-wave (km/s) = 6.90157 4.61516 5.87075
#
# Compressibility (1/GPa) = 0.05113044
#
# Stress axis : x y z
#
# Youngs Moduli (GPa) = 25.73666 46.72685 36.50260
#
# Poissons Ratio (x) = 0.24929 0.07148
# Poissons Ratio (y) = 0.13731 0.40033
# Poissons Ratio (z) = 0.05039 0.51247
#
# Static dielectric constant tensor:
#      x y z
#    x 1.719490 0.000000 0.019240 
#    y 0.000000 1.754720 0.000000 
#    z 0.019240 0.000000 1.713740 
# 
# From -- ./inp_files/63342.got.cif
#   From: 2010.05.17/outbox.cif.g08.bks.cpg/sg12_32_cif.got.tgz:63342.got - 2010.06.03 13:09:07.
