data_PCOD9182092
_publ_section_title
;
Structure prediction by ZEFSAII (Michael W. Deem and Ramdas Pophale) SiO2 
 PCOD9182092
Probable space group: C 2/M
;
_chemical_formula_sum "Si O2"
_cell_formula_units_Z 58
_cell_length_a 18.913513
_cell_length_b 9.705782
_cell_length_c 21.283142
_cell_angle_alpha 90.000000
_cell_angle_beta 130.587482
_cell_angle_gamma 90.000000
_cell_volume 2966.994723
_symmetry_space_group_name_H-M "C 2/M"
_symmetry_group_IT_number 12
_symmetry_cell_setting 'monoclinic'
loop_
_space_group_symop_operation_xyz
x,y,z
-x,y,-z
-x,-y,-z
x,-y,z
1/2+x,1/2+y,z
1/2-x,1/2+y,-z
1/2-x,1/2-y,-z
1/2+x,1/2-y,z
loop_
_atom_site_type_symbol
_atom_site_label
_atom_site_fract_x
_atom_site_fract_y
_atom_site_fract_z
Si Si1 0.914484 0.658371 0.500859
Si Si2 0.470004 0.341559 0.344246
Si Si3 0.269048 0.653446 0.914872
Si Si4 0.000000 0.500000 0.000000
Si Si5 0.970625 0.241070 0.075534
Si Si6 0.174552 0.849570 0.194619
Si Si7 0.202135 0.160014 0.656989
Si Si8 0.097726 0.835594 0.836817
O O1 0.887707 0.500000 0.496627
O O2 0.834703 0.749445 0.422184
O O3 0.000000 0.657271 0.500000
O O4 0.955378 0.735250 0.585266
O O5 0.503838 0.500000 0.368999
O O6 0.378958 0.332844 0.336478
O O7 0.440617 0.315277 0.255701
O O8 0.235013 0.500000 0.912260
O O9 0.273736 0.663993 0.842048
O O10 0.201355 0.772650 0.899660
O O11 0.374139 0.670987 0.999189
O O12 0.020357 0.380119 0.958520
O O13 0.961897 0.244783 0.145842
O O14 0.065395 0.159306 0.117444
O O15 0.208099 0.729445 0.259691
O O16 0.197801 0.000000 0.235104
O O17 0.215332 0.000000 0.648754
O O18 0.097198 0.000000 0.849203
#
# Coordination Sequence:
#
# PCOD9182092 Si02
#       8
#     8   8   8   2   8   8   8   8
#     4   9  17  30  52  83 120 160 201 246 301 360
#     4   9  18  34  55  85 122 159 194 247 309 365
#     4  11  23  40  63  91 124 162 204 259 314 371
#     4  12  28  44  66  88 120 160 208 272 296 376
#     4  12  26  44  63  88 119 166 209 256 313 365
#     4  11  22  38  61  86 123 161 208 256 308 366
#     4  10  19  32  55  87 122 160 206 252 301 365
#     4  11  24  41  65  93 128 163 206 257 315 377
#
# _framework density 19.548400000000001
#
# number of rings (size 3 to 8) (size 9 to 14) (size 15 to 20)
#    0.000    1.517    2.759    2.483    2.897    3.862 
#    0.000    0.000    0.000    0.828    0.000    0.000 
#    0.000    0.000    0.000    0.000    0.000    0.000 
#
# Total GULP energy -161621.075293 kJ/mol
# GULP energy per Si atom -5573.140527 kJ/mol
# Density = 1.950391 g / cm^3
# Si number density = 19.548400 Si / 1000 Ang^3
#
#
#
# Elastic Constant Matrix: (Units=GPa)
#
#
# Indices 1 2 3 4 5 6 
#
# 1 54.7775 34.5847 11.8364 0.0000 -14.4352 0.0000
# 2 34.5847 144.8857 71.7834 0.0000 -8.0176 0.0000
# 3 11.8364 71.7834 97.5465 0.0000 -11.3614 0.0000
# 4 0.0000 0.0000 0.0000 -1.4992 0.0000 -22.3499
# 5 -14.4352 -8.0176 -11.3614 0.0000 14.5287 0.0000
# 6 0.0000 0.0000 0.0000 -22.3499 0.0000 -7.8503
#
#
#
# Elastic Compliance Matrix: (Units=1/GPa)
#
#
# Indices 1 2 3 4 5 6 
#
# 1 0.030334 -0.008638 0.006195 0.000000 0.030216 0.000000
# 2 -0.008638 0.013323 -0.009791 0.000000 -0.008887 0.000000
# 3 0.006195 -0.009791 0.018475 0.000000 0.015200 0.000000
# 4 0.000000 0.000000 0.000000 0.016095 0.000000 -0.045823
# 5 0.030216 -0.008887 0.015200 0.000000 0.105833 0.000000
# 6 0.000000 0.000000 0.000000 -0.045823 0.000000 0.003074
#
#
# Mechanical properties :
#
#
# Convention : Reuss Voigt Hill
#
# Bulk Modulus (GPa) = 26.55057 59.29095 42.92076
# Shear Modulus (GPa) = 22.30576 12.96952 17.63764
#
# Velocity S-wave (km/s) = 3.38161 2.57856 3.00701
# Velocity P-wave (km/s) = 5.37201 6.26590 5.83609
#
# Compressibility (1/GPa) = 0.03766398
#
# Stress axis : x y z
#
# Youngs Moduli (GPa) = 32.96683 75.05671 54.12582
#
# Poissons Ratio (x) = 0.64835 -0.33533
# Poissons Ratio (y) = 0.28477 0.52997
# Poissons Ratio (z) = -0.20424 0.73491
#
# Static dielectric constant tensor:
#      x y z
#    x 1.684500 0.000000 -0.012460 
#    y 0.000000 1.668150 0.000000 
#    z -0.012460 0.000000 1.695370 
# 
# From -- ./inp_files/314878.got.cif
#   From: 2010.05.17/outbox.cif.g08.bks.cpg/sg12_158_cif.got.tgz:314878.got - 2010.06.03 13:09:07.
