data_PCOD9182681
_publ_section_title
;
Structure prediction by ZEFSAII (Michael W. Deem and Ramdas Pophale) SiO2 
 PCOD9182681
Probable space group: C 2/M
;
_chemical_formula_sum "Si O2"
_cell_formula_units_Z 48
_cell_length_a 7.622755
_cell_length_b 22.848619
_cell_length_c 19.615973
_cell_angle_alpha 90.000000
_cell_angle_beta 141.715421
_cell_angle_gamma 90.000000
_cell_volume 2116.755044
_symmetry_space_group_name_H-M "C 2/M"
_symmetry_group_IT_number 12
_symmetry_cell_setting 'monoclinic'
loop_
_space_group_symop_operation_xyz
x,y,z
-x,y,-z
-x,-y,-z
x,-y,z
1/2+x,1/2+y,z
1/2-x,1/2+y,-z
1/2-x,1/2-y,-z
1/2+x,1/2-y,z
loop_
_atom_site_type_symbol
_atom_site_label
_atom_site_fract_x
_atom_site_fract_y
_atom_site_fract_z
Si Si1 0.232167 0.337011 0.833479
Si Si2 0.800653 0.064013 0.654787
Si Si3 0.310654 0.608776 0.114510
Si Si4 0.307533 0.683685 0.573176
Si Si5 0.801976 0.380987 0.587767
Si Si6 0.829301 0.292093 0.821231
O O1 0.480629 0.381410 0.886219
O O2 0.367930 0.273985 0.856928
O O3 0.967634 0.357522 0.704598
O O4 0.089088 0.325470 0.863499
O O5 0.834145 0.117634 0.613011
O O6 0.522735 0.079579 0.613694
O O7 0.046680 0.067838 0.785842
O O8 0.793165 0.000000 0.621081
O O9 0.274977 0.669648 0.146487
O O10 0.000000 0.589262 0.000000
O O11 0.279633 0.674181 0.484804
O O12 0.576876 0.713968 0.688297
O O13 0.000000 0.706552 0.500000
O O14 0.500000 0.412515 0.500000
#
# Coordination Sequence:
#
# PCOD9182681 Si02
#       6
#     8   8   8   8   8   8
#     4  11  22  36  56  83 119 151 193 229 275 330
#     4   9  20  38  59  82 109 141 187 241 286 336
#     4  10  23  41  60  83 109 145 192 239 292 344
#     4   9  19  33  53  79 114 150 188 221 270 329
#     4  10  19  33  52  82 116 149 183 221 268 333
#     4  11  21  37  55  82 118 154 188 237 273 330
#
# _framework density 22.676220000000001
#
# number of rings (size 3 to 8) (size 9 to 14) (size 15 to 20)
#    0.000    2.000    3.333    1.000    0.000    6.333 
#    0.000    0.000    0.000    0.000    0.000    4.667 
#    0.000    0.000    0.000    0.000    0.000    0.000 
#
# Total GULP energy -133949.944394 kJ/mol
# GULP energy per Si atom -5581.247683 kJ/mol
# Density = 2.262461 g / cm^3
# Si number density = 22.676220 Si / 1000 Ang^3
#
#
#
# Elastic Constant Matrix: (Units=GPa)
#
#
# Indices 1 2 3 4 5 6 
#
# 1 84.9620 -1.1589 13.7121 0.0002 23.0427 0.0000
# 2 -1.1589 65.0739 -9.0432 -0.0002 -2.3362 0.0000
# 3 13.7121 -9.0432 134.3317 0.0003 15.0128 0.0003
# 4 0.0002 -0.0002 0.0003 -2.1514 0.0002 -1.8163
# 5 23.0427 -2.3362 15.0128 0.0002 23.2946 0.0001
# 6 0.0000 0.0000 0.0003 -1.8163 0.0001 8.9433
#
#
#
# Elastic Compliance Matrix: (Units=1/GPa)
#
#
# Indices 1 2 3 4 5 6 
#
# 1 0.016093 -0.000271 0.000131 0.000000 -0.016030 0.000000
# 2 -0.000271 0.015536 0.000937 -0.000001 0.001222 0.000000
# 3 0.000131 0.000937 0.008080 0.000001 -0.005243 0.000000
# 4 0.000000 -0.000001 0.000001 -0.396780 0.000004 -0.080584
# 5 -0.016030 0.001222 -0.005243 0.000004 0.062286 0.000001
# 6 0.000000 0.000000 0.000000 -0.080584 0.000001 0.095450
#
#
# Mechanical properties :
#
#
# Convention : Reuss Voigt Hill
#
# Bulk Modulus (GPa) = 24.21150 32.37639 28.29395
# Shear Modulus (GPa) = -26.71504 24.74114 -0.98695
#
# Velocity S-wave (km/s) = -3.43608 3.30670 -0.66044
# Velocity P-wave (km/s) = 2.24544 5.37473 3.45295
#
# Compressibility (1/GPa) = 0.04130268
#
# Stress axis : x y z
#
# Youngs Moduli (GPa) = 62.13976 64.36499 123.76382
#
# Poissons Ratio (x) = 0.01743 -0.01616
# Poissons Ratio (y) = 0.01682 -0.11596
# Poissons Ratio (z) = -0.00812 -0.06031
#
# Static dielectric constant tensor:
#      x y z
#    x 1.948660 0.000000 0.035080 
#    y 0.000000 1.866170 0.000000 
#    z 0.035080 0.000000 1.905120 
# 
# From -- ./inp_files/121964.got.cif
#   From: 2010.05.17/outbox.cif.g08.bks.cpg/sg12_61_cif.got.tgz:121964.got - 2010.06.03 13:09:07.
