data_PCOD9182647
_publ_section_title
;
Structure prediction by ZEFSAII (Michael W. Deem and Ramdas Pophale) SiO2 
 PCOD9182647
Probable space group: C 2/M
;
_chemical_formula_sum "Si O2"
_cell_formula_units_Z 56
_cell_length_a 31.538485
_cell_length_b 8.467721
_cell_length_c 12.226517
_cell_angle_alpha 90.000000
_cell_angle_beta 116.176060
_cell_angle_gamma 90.000000
_cell_volume 2930.332388
_symmetry_space_group_name_H-M "C 2/M"
_symmetry_group_IT_number 12
_symmetry_cell_setting 'monoclinic'
loop_
_space_group_symop_operation_xyz
x,y,z
-x,y,-z
-x,-y,-z
x,-y,z
1/2+x,1/2+y,z
1/2-x,1/2+y,-z
1/2-x,1/2-y,-z
1/2+x,1/2-y,z
loop_
_atom_site_type_symbol
_atom_site_label
_atom_site_fract_x
_atom_site_fract_y
_atom_site_fract_z
Si Si1 0.849503 0.688308 0.068652
Si Si2 0.268576 0.192444 0.820867
Si Si3 0.203074 0.690932 0.386221
Si Si4 0.159925 0.811883 0.705243
Si Si5 0.432796 0.308805 0.012172
Si Si6 0.115958 0.311693 0.435562
Si Si7 0.461603 0.310219 0.804325
O O1 0.847494 0.500000 0.079265
O O2 0.857999 0.764989 0.195665
O O3 0.890266 0.732568 0.029572
O O4 0.799918 0.744685 0.959147
O O5 0.293694 0.241622 0.736377
O O6 0.214381 0.246846 0.758667
O O7 0.267997 0.000000 0.821810
O O8 0.203038 0.500000 0.387686
O O9 0.250000 0.750000 0.500000
O O10 0.157316 0.747577 0.400376
O O11 0.129180 0.744612 0.571408
O O12 0.160723 0.000000 0.695515
O O13 0.428643 0.500000 0.010917
O O14 0.483472 0.265061 0.122698
O O15 0.436145 0.259678 0.888698
O O16 0.116729 0.500000 0.434616
O O17 0.066514 0.253980 0.330825
O O18 0.460297 0.500000 0.801053
#
# Coordination Sequence:
#
# PCOD9182647 Si02
#       7
#     8   8   8   8   8   8   8
#     4  11  22  37  57  82 113 146 185 236 285 328
#     4   9  19  35  55  79 110 147 186 227 275 328
#     4  10  19  33  52  78 111 144 179 222 269 322
#     4  11  22  38  57  76 109 155 196 231 270 330
#     4   9  19  38  61  87 114 143 184 227 273 332
#     4  11  22  35  55  85 118 148 184 231 283 332
#     4   9  19  37  62  87 114 146 181 225 274 334
#
# _framework density 19.11046
#
# number of rings (size 3 to 8) (size 9 to 14) (size 15 to 20)
#    0.000    2.000    1.429    3.429    0.000    2.857 
#    0.000    5.714    0.000    4.286    0.000    0.000 
#    0.000    0.000    0.000    0.000    0.000    0.000 
#
# Total GULP energy -156388.742720 kJ/mol
# GULP energy per Si atom -5585.312240 kJ/mol
# Density = 1.906696 g / cm^3
# Si number density = 19.110460 Si / 1000 Ang^3
#
#
#
# Elastic Constant Matrix: (Units=GPa)
#
#
# Indices 1 2 3 4 5 6 
#
# 1 38.2790 4.1522 38.5551 0.0000 3.6294 0.0000
# 2 4.1522 16.2509 19.1825 0.0000 5.1542 0.0000
# 3 38.5551 19.1825 148.7238 0.0000 14.3389 0.0000
# 4 0.0000 0.0000 0.0000 14.5309 0.0000 1.9794
# 5 3.6294 5.1542 14.3389 0.0000 23.4391 0.0000
# 6 0.0000 0.0000 0.0000 1.9794 0.0000 23.6199
#
#
#
# Elastic Compliance Matrix: (Units=1/GPa)
#
#
# Indices 1 2 3 4 5 6 
#
# 1 0.035418 0.002153 -0.009442 0.000000 -0.000182 0.000000
# 2 0.002153 0.075423 -0.009198 0.000000 -0.011292 0.000000
# 3 -0.009442 -0.009198 0.010650 0.000000 -0.003031 0.000000
# 4 0.000000 0.000000 0.000000 0.069614 0.000000 -0.005834
# 5 -0.000182 -0.011292 -0.003031 0.000000 0.047029 0.000000
# 6 0.000000 0.000000 0.000000 -0.005834 0.000000 0.042826
#
#
# Mechanical properties :
#
#
# Convention : Reuss Voigt Hill
#
# Bulk Modulus (GPa) = 11.29707 36.33704 23.81705
# Shear Modulus (GPa) = 14.55865 21.74223 18.15044
#
# Velocity S-wave (km/s) = 2.76310 3.37666 3.08517
# Velocity P-wave (km/s) = 4.01296 5.85303 5.01806
#
# Compressibility (1/GPa) = 0.08851854
#
# Stress axis : x y z
#
# Youngs Moduli (GPa) = 28.23452 13.25850 93.89598
#
# Poissons Ratio (x) = -0.02855 0.88655
# Poissons Ratio (y) = -0.06080 0.86362
# Poissons Ratio (z) = 0.26659 0.12195
#
# Static dielectric constant tensor:
#      x y z
#    x 1.658870 0.000000 0.005770 
#    y 0.000000 1.645840 0.000000 
#    z 0.005770 0.000000 1.650680 
# 
# From -- ./inp_files/180805.got.cif
#   From: 2010.05.17/outbox.cif.g08.bks.cpg/sg12_91_cif.got.tgz:180805.got - 2010.06.03 13:09:07.
