data_PCOD9182616
_publ_section_title
;
Structure prediction by ZEFSAII (Michael W. Deem and Ramdas Pophale) SiO2 
 PCOD9182616
Probable space group: C 2/M
;
_chemical_formula_sum "Si O2"
_cell_formula_units_Z 56
_cell_length_a 10.768654
_cell_length_b 13.790932
_cell_length_c 27.755635
_cell_angle_alpha 90.000000
_cell_angle_beta 40.770854
_cell_angle_gamma 90.000000
_cell_volume 2691.801058
_symmetry_space_group_name_H-M "C 2/M"
_symmetry_group_IT_number 12
_symmetry_cell_setting 'monoclinic'
loop_
_space_group_symop_operation_xyz
x,y,z
-x,y,-z
-x,-y,-z
x,-y,z
1/2+x,1/2+y,z
1/2-x,1/2+y,-z
1/2-x,1/2-y,-z
1/2+x,1/2-y,z
loop_
_atom_site_type_symbol
_atom_site_label
_atom_site_fract_x
_atom_site_fract_y
_atom_site_fract_z
Si Si1 0.372213 0.885694 0.082653
Si Si2 0.055209 0.891368 0.677887
Si Si3 0.424013 0.109994 0.313791
Si Si4 0.398638 0.893356 0.180582
Si Si5 0.613394 0.107411 0.561557
Si Si6 0.498356 0.681463 0.413445
Si Si7 0.983089 0.234376 0.779264
O O1 0.474896 0.876553 0.104323
O O2 0.183934 0.822957 0.145476
O O3 0.324566 0.000000 0.091015
O O4 0.500000 0.856257 0.000000
O O5 0.829679 0.899807 0.754764
O O6 0.117857 0.838500 0.708969
O O7 0.064514 0.835275 0.624267
O O8 0.132029 0.000000 0.649665
O O9 0.434880 0.110882 0.367891
O O10 0.567076 0.187424 0.248055
O O11 0.209596 0.141176 0.360644
O O12 0.456953 0.000000 0.288077
O O13 0.433781 0.805040 0.205266
O O14 0.466896 0.000000 0.176607
O O15 0.524389 0.205424 0.565490
O O16 0.840488 0.122206 0.489316
O O17 0.563462 0.000000 0.557249
#
# Coordination Sequence:
#
# PCOD9182616 Si02
#       7
#     8   8   8   8   8   8   8
#     4   9  20  39  60  83 112 144 179 218 264 329
#     4  10  19  33  52  77 106 143 187 227 267 325
#     4  11  21  35  56  81 107 143 189 232 274 330
#     4   9  18  33  56  80 106 139 178 217 265 324
#     4  10  22  37  54  79 110 145 189 237 281 325
#     4  11  20  35  59  77 107 148 192 231 281 327
#     4  11  19  31  55  85 108 137 179 227 270 314
#
# _framework density 20.803913999999999
#
# number of rings (size 3 to 8) (size 9 to 14) (size 15 to 20)
#    0.000    1.857    2.857    3.429    0.000    1.714 
#    0.000    1.429    0.000   17.143    0.000    0.000 
#    0.000    0.000    0.000    0.000    0.000    0.000 
#
# Total GULP energy -156114.790461 kJ/mol
# GULP energy per Si atom -5575.528231 kJ/mol
# Density = 2.075656 g / cm^3
# Si number density = 20.803914 Si / 1000 Ang^3
#
#
#
# Elastic Constant Matrix: (Units=GPa)
#
#
# Indices 1 2 3 4 5 6 
#
# 1 30.0476 8.0431 -1.1836 0.0000 4.4439 0.0001
# 2 8.0431 135.0471 8.5839 0.0000 -2.7793 0.0001
# 3 -1.1836 8.5839 86.0657 0.0001 8.7519 0.0001
# 4 0.0000 0.0000 0.0001 33.8992 0.0000 1.2253
# 5 4.4439 -2.7793 8.7519 0.0000 26.5936 0.0000
# 6 0.0001 0.0001 0.0001 1.2253 0.0000 24.7207
#
#
#
# Elastic Compliance Matrix: (Units=1/GPa)
#
#
# Indices 1 2 3 4 5 6 
#
# 1 0.034916 -0.002301 0.001373 0.000000 -0.006527 0.000000
# 2 -0.002301 0.007633 -0.000945 0.000000 0.001493 0.000000
# 3 0.001373 -0.000945 0.012173 0.000000 -0.004334 0.000000
# 4 0.000000 0.000000 0.000000 0.029552 0.000000 -0.001465
# 5 -0.006527 0.001493 -0.004334 0.000000 0.040276 0.000000
# 6 0.000000 0.000000 0.000000 -0.001465 0.000000 0.040524
#
#
# Mechanical properties :
#
#
# Convention : Reuss Voigt Hill
#
# Bulk Modulus (GPa) = 19.61686 31.33858 25.47772
# Shear Modulus (GPa) = 26.90902 32.75719 29.83310
#
# Velocity S-wave (km/s) = 3.60037 3.97239 3.79095
# Velocity P-wave (km/s) = 5.17044 6.01135 5.60668
#
# Compressibility (1/GPa) = 0.05097655
#
# Stress axis : x y z
#
# Youngs Moduli (GPa) = 28.64022 131.01601 82.14979
#
# Poissons Ratio (x) = 0.30149 -0.11283
# Poissons Ratio (y) = 0.06591 0.07761
# Poissons Ratio (z) = -0.03934 0.12378
#
# Static dielectric constant tensor:
#      x y z
#    x 1.794250 0.000000 0.033790 
#    y 0.000000 1.822880 0.000000 
#    z 0.033790 0.000000 1.733820 
# 
# From -- ./inp_files/375883.got.cif
#   From: 2010.05.17/outbox.cif.g08.bks.cpg/sg12_188_cif.got.tgz:375883.got - 2010.06.03 13:09:07.
