data_PCOD9182664
_publ_section_title
;
Structure prediction by ZEFSAII (Michael W. Deem and Ramdas Pophale) SiO2 
 PCOD9182664
Probable space group: C 2/M
;
_chemical_formula_sum "Si O2"
_cell_formula_units_Z 48
_cell_length_a 12.905065
_cell_length_b 21.698765
_cell_length_c 16.944880
_cell_angle_alpha 90.000000
_cell_angle_beta 27.237239
_cell_angle_gamma 90.000000
_cell_volume 2171.659615
_symmetry_space_group_name_H-M "C 2/M"
_symmetry_group_IT_number 12
_symmetry_cell_setting 'monoclinic'
loop_
_space_group_symop_operation_xyz
x,y,z
-x,y,-z
-x,-y,-z
x,-y,z
1/2+x,1/2+y,z
1/2-x,1/2+y,-z
1/2-x,1/2-y,-z
1/2+x,1/2-y,z
loop_
_atom_site_type_symbol
_atom_site_label
_atom_site_fract_x
_atom_site_fract_y
_atom_site_fract_z
Si Si1 0.436542 0.429847 0.350478
Si Si2 0.174736 0.617793 0.808366
Si Si3 0.377672 0.242620 0.226288
Si Si4 0.153301 0.692473 0.514965
Si Si5 0.769996 0.687442 0.882347
Si Si6 0.279605 0.069419 0.969759
O O1 0.345482 0.500000 0.414766
O O2 0.610790 0.419067 0.304690
O O3 0.262258 0.372993 0.466354
O O4 0.594089 0.424046 0.165397
O O5 0.248313 0.684797 0.727371
O O6 0.023072 0.584216 0.845123
O O7 0.000000 0.626695 0.000000
O O8 0.230165 0.290926 0.375064
O O9 0.546748 0.212321 0.177517
O O10 0.549850 0.273115 0.048631
O O11 0.250000 0.750000 0.500000
O O12 0.890983 0.691180 0.716382
O O13 0.727616 0.617789 0.937127
O O14 0.277950 0.000000 0.942372
#
# Coordination Sequence:
#
# PCOD9182664 Si02
#       6
#     8   8   8   8   8   8
#     4  10  19  33  52  80 116 148 180 221 271 331
#     4   9  18  29  52  75 106 154 178 213 271 327
#     4   9  17  33  49  70 100 134 185 224 263 306
#     4  10  20  32  53  75 101 144 187 228 263 309
#     4   9  17  29  51  69  93 137 180 228 262 301
#     4   9  16  29  48  74 107 141 177 213 264 325
#
# _framework density 22.102910999999999
#
# number of rings (size 3 to 8) (size 9 to 14) (size 15 to 20)
#    0.000    2.667    1.667    0.500    7.000    2.667 
#    0.000    7.500    0.000   10.000    0.000    0.000 
#    0.000    6.667    0.000    0.000    0.000    0.000 
#
# Total GULP energy -134115.870258 kJ/mol
# GULP energy per Si atom -5588.161261 kJ/mol
# Density = 2.205260 g / cm^3
# Si number density = 22.102911 Si / 1000 Ang^3
#
#
#
# Elastic Constant Matrix: (Units=GPa)
#
#
# Indices 1 2 3 4 5 6 
#
# 1 40.6185 22.6483 19.0617 0.0413 5.5968 -0.0784
# 2 22.6483 164.8141 53.6854 -0.1293 0.5767 0.1214
# 3 19.0617 53.6854 90.9114 0.0286 7.2636 -0.0117
# 4 0.0413 -0.1293 0.0286 29.2601 0.0136 1.7385
# 5 5.5968 0.5767 7.2636 0.0136 29.6915 0.0060
# 6 -0.0784 0.1214 -0.0117 1.7385 0.0060 27.7471
#
#
#
# Elastic Compliance Matrix: (Units=1/GPa)
#
#
# Indices 1 2 3 4 5 6 
#
# 1 0.028586 -0.002567 -0.004132 -0.000051 -0.004328 0.000094
# 2 -0.002567 0.007770 -0.004158 0.000044 0.001350 -0.000046
# 3 -0.004132 -0.004158 0.014537 -0.000026 -0.002697 0.000015
# 4 -0.000051 0.000044 -0.000026 0.034304 0.000000 -0.002150
# 5 -0.004328 0.001350 -0.002697 0.000000 0.035129 -0.000027
# 6 0.000094 -0.000046 0.000015 -0.002150 -0.000027 0.036175
#
#
# Mechanical properties :
#
#
# Convention : Reuss Voigt Hill
#
# Bulk Modulus (GPa) = 34.27134 54.12610 44.19872
# Shear Modulus (GPa) = 26.60390 30.73629 28.67010
#
# Velocity S-wave (km/s) = 3.47311 3.73312 3.60546
# Velocity P-wave (km/s) = 5.62338 6.56681 6.11332
#
# Compressibility (1/GPa) = 0.02917890
#
# Stress axis : x y z
#
# Youngs Moduli (GPa) = 34.98157 128.70065 68.79041
#
# Poissons Ratio (x) = 0.33042 0.28424
# Poissons Ratio (y) = 0.08981 0.28603
# Poissons Ratio (z) = 0.14454 0.53513
#
# Static dielectric constant tensor:
#      x y z
#    x 1.842460 0.000000 0.012360 
#    y 0.000000 1.789290 0.000050 
#    z 0.012360 0.000050 1.828610 
# 
# From -- ./inp_files/75432.got.cif
#   From: 2010.05.17/outbox.cif.g08.bks.cpg/sg12_38_cif.got.tgz:75432.got - 2010.06.03 13:09:07.
