data_PCOD9182310
_publ_section_title
;
Structure prediction by ZEFSAII (Michael W. Deem and Ramdas Pophale) SiO2 
 PCOD9182310
Probable space group: C 2/M
;
_chemical_formula_sum "Si O2"
_cell_formula_units_Z 64
_cell_length_a 19.042471
_cell_length_b 24.534707
_cell_length_c 16.750131
_cell_angle_alpha 90.000000
_cell_angle_beta 28.845822
_cell_angle_gamma 90.000000
_cell_volume 3775.535914
_symmetry_space_group_name_H-M "C 2/M"
_symmetry_group_IT_number 12
_symmetry_cell_setting 'monoclinic'
loop_
_space_group_symop_operation_xyz
x,y,z
-x,y,-z
-x,-y,-z
x,-y,z
1/2+x,1/2+y,z
1/2-x,1/2+y,-z
1/2-x,1/2-y,-z
1/2+x,1/2-y,z
loop_
_atom_site_type_symbol
_atom_site_label
_atom_site_fract_x
_atom_site_fract_y
_atom_site_fract_z
Si Si1 0.531110 0.438571 0.267135
Si Si2 0.278537 0.340479 0.963551
Si Si3 0.941923 0.369967 0.951157
Si Si4 0.847639 0.737690 0.150118
Si Si5 0.292411 0.561838 0.742923
Si Si6 0.130254 0.264634 0.232378
Si Si7 0.785921 0.884711 0.586536
Si Si8 0.186832 0.235458 0.475680
O O1 0.558010 0.500000 0.211180
O O2 0.607497 0.389951 0.142036
O O3 0.607339 0.433543 0.278910
O O4 0.360687 0.428766 0.454651
O O5 0.340907 0.289658 0.849925
O O6 0.142052 0.361623 0.047860
O O7 0.215877 0.313961 0.105650
O O8 0.111520 0.378984 0.765168
O O9 0.894706 0.317723 0.053412
O O10 0.868035 0.421257 0.068152
O O11 0.706819 0.756549 0.241199
O O12 0.801012 0.737027 0.288931
O O13 0.000000 0.770261 0.000000
O O14 0.299784 0.500000 0.705855
O O15 0.331467 0.601901 0.632048
O O16 0.956393 0.270198 0.402638
O O17 0.852105 0.828380 0.489389
O O18 0.250000 0.250000 0.500000
#
# Coordination Sequence:
#
# PCOD9182310 Si02
#       8
#     8   8   8   8   8   8   8   8
#     4  10  21  34  50  75 108 145 188 230 269 320
#     4   9  19  35  54  73 101 141 187 226 273 327
#     4  10  19  33  48  70 103 142 185 228 266 312
#     4  11  21  35  53  76 109 142 188 227 275 336
#     4  10  20  32  47  68 100 144 192 225 255 311
#     4  10  21  35  55  76 105 146 186 229 282 335
#     4  12  20  31  47  70 102 141 180 230 264 315
#     4  12  24  35  53  80 110 144 187 234 287 336
#
# _framework density 16.951236000000002
#
# number of rings (size 3 to 8) (size 9 to 14) (size 15 to 20)
#    0.000    1.500    3.750    2.250    3.500    3.500 
#    0.000    0.000    0.000    0.000    0.000    0.000 
#    0.000    7.500    0.000    0.000    0.000    0.375 
#
# Total GULP energy -178185.638075 kJ/mol
# GULP energy per Si atom -5568.301190 kJ/mol
# Density = 1.691265 g / cm^3
# Si number density = 16.951236 Si / 1000 Ang^3
#
#
#
# Elastic Constant Matrix: (Units=GPa)
#
#
# Indices 1 2 3 4 5 6 
#
# 1 67.8035 11.6795 34.3286 0.0143 0.1933 -0.0079
# 2 11.6795 76.2407 34.0704 0.0120 8.3932 -0.0108
# 3 34.3286 34.0704 112.5871 0.0077 -16.6905 -0.0091
# 4 0.0143 0.0120 0.0077 19.3390 -0.0116 5.9772
# 5 0.1933 8.3932 -16.6905 -0.0116 21.9748 0.0112
# 6 -0.0079 -0.0108 -0.0091 5.9772 0.0112 16.4072
#
#
#
# Elastic Compliance Matrix: (Units=1/GPa)
#
#
# Indices 1 2 3 4 5 6 
#
# 1 0.017919 0.000743 -0.006484 -0.000019 -0.005366 0.000016
# 2 0.000743 0.017679 -0.007413 -0.000024 -0.012390 0.000025
# 3 -0.006484 -0.007413 0.015247 0.000017 0.014470 -0.000016
# 4 -0.000019 -0.000024 0.000017 0.058270 0.000064 -0.021228
# 5 -0.005366 -0.012390 0.014470 0.000064 0.061276 -0.000068
# 6 0.000016 0.000025 -0.000016 -0.021228 -0.000068 0.068682
#
#
# Mechanical properties :
#
#
# Convention : Reuss Voigt Hill
#
# Bulk Modulus (GPa) = 40.75426 46.30982 43.53204
# Shear Modulus (GPa) = 18.27743 23.31437 20.79590
#
# Velocity S-wave (km/s) = 3.28721 3.71263 3.50638
# Velocity P-wave (km/s) = 6.20499 6.76439 6.49072
#
# Compressibility (1/GPa) = 0.02453731
#
# Stress axis : x y z
#
# Youngs Moduli (GPa) = 55.80799 56.56315 65.58468
#
# Poissons Ratio (x) = -0.04205 0.42525
# Poissons Ratio (y) = -0.04149 0.48621
# Poissons Ratio (z) = 0.36186 0.41933
#
# Static dielectric constant tensor:
#      x y z
#    x 1.586850 0.000000 -0.037610 
#    y 0.000000 1.613030 0.000010 
#    z -0.037610 0.000010 1.615470 
# 
# From -- ./inp_files/228138.got.cif
#   From: 2010.05.17/outbox.cif.g08.bks.cpg/sg12_115_cif.got.tgz:228138.got - 2010.06.03 13:09:07.
