data_PCOD9182190
_publ_section_title
;
Structure prediction by ZEFSAII (Michael W. Deem and Ramdas Pophale) SiO2 
 PCOD9182190
Probable space group: C 2/M
;
_chemical_formula_sum "Si O2"
_cell_formula_units_Z 40
_cell_length_a 18.143291
_cell_length_b 17.564363
_cell_length_c 9.192288
_cell_angle_alpha 90.000000
_cell_angle_beta 41.106356
_cell_angle_gamma 90.000000
_cell_volume 1925.930718
_symmetry_space_group_name_H-M "C 2/M"
_symmetry_group_IT_number 12
_symmetry_cell_setting 'monoclinic'
loop_
_space_group_symop_operation_xyz
x,y,z
-x,y,-z
-x,-y,-z
x,-y,z
1/2+x,1/2+y,z
1/2-x,1/2+y,-z
1/2-x,1/2-y,-z
1/2+x,1/2-y,z
loop_
_atom_site_type_symbol
_atom_site_label
_atom_site_fract_x
_atom_site_fract_y
_atom_site_fract_z
Si Si1 0.716174 0.231848 0.714010
Si Si2 0.215383 0.916396 0.058767
Si Si3 0.552811 0.329468 0.133853
Si Si4 0.884741 0.708092 0.713586
Si Si5 0.668043 0.412558 0.452668
O O1 0.750000 0.250000 0.500000
O O2 0.812085 0.261665 0.685056
O O3 0.720645 0.139862 0.708252
O O4 0.604791 0.276232 0.930795
O O5 0.135261 0.900392 0.041231
O O6 0.145173 0.914789 0.312968
O O7 0.267238 0.000000 0.973100
O O8 0.305531 0.849068 0.918947
O O9 0.573631 0.276407 0.245065
O O10 0.429717 0.365762 0.320006
O O11 0.000000 0.667621 0.500000
O O12 0.678315 0.500000 0.486920
#
# Coordination Sequence:
#
# PCOD9182190 Si02
#       5
#     8   8   8   8   8
#     4  11  23  39  57  87 122 162 194 241 303 362
#     4  10  19  32  56  90 120 150 196 256 304 343
#     4  11  19  37  60  88 116 153 200 242 298 357
#     4  11  19  37  61  83 116 154 206 243 289 361
#     4  11  21  37  63  95 120 152 200 254 305 352
#
# _framework density 20.769179999999999
#
# number of rings (size 3 to 8) (size 9 to 14) (size 15 to 20)
#    0.000    1.200    6.000    2.400    0.000    2.800 
#    0.000    6.000    0.000    0.000    0.000    4.200 
#    0.000    0.000    0.000    0.000    0.000    0.000 
#
# Total GULP energy -111473.919573 kJ/mol
# GULP energy per Si atom -5573.695979 kJ/mol
# Density = 2.072191 g / cm^3
# Si number density = 20.769180 Si / 1000 Ang^3
#
#
#
# Elastic Constant Matrix: (Units=GPa)
#
#
# Indices 1 2 3 4 5 6 
#
# 1 50.5505 26.6640 30.8405 0.0000 3.4951 0.0000
# 2 26.6640 150.6347 49.3302 0.0000 2.3566 0.0000
# 3 30.8405 49.3302 123.9602 0.0000 0.5867 0.0000
# 4 0.0000 0.0000 0.0000 31.1354 0.0000 -3.3834
# 5 3.4951 2.3566 0.5867 0.0000 33.4284 0.0000
# 6 0.0000 0.0000 0.0000 -3.3834 0.0000 10.7303
#
#
#
# Elastic Compliance Matrix: (Units=1/GPa)
#
#
# Indices 1 2 3 4 5 6 
#
# 1 0.024387 -0.002642 -0.005005 0.000000 -0.002276 0.000000
# 2 -0.002642 0.007927 -0.002496 0.000000 -0.000239 0.000000
# 3 -0.005005 -0.002496 0.010303 0.000000 0.000518 0.000000
# 4 0.000000 0.000000 0.000000 0.033257 0.000000 0.010487
# 5 -0.002276 -0.000239 0.000518 0.000000 0.030160 0.000000
# 6 0.000000 0.000000 0.000000 0.010487 0.000000 0.096501
#
#
# Mechanical properties :
#
#
# Convention : Reuss Voigt Hill
#
# Bulk Modulus (GPa) = 44.78156 59.86830 52.32493
# Shear Modulus (GPa) = 21.71399 29.61285 25.66342
#
# Velocity S-wave (km/s) = 3.23691 3.78008 3.51899
# Velocity P-wave (km/s) = 5.96477 6.92388 6.46215
#
# Compressibility (1/GPa) = 0.02233062
#
# Stress axis : x y z
#
# Youngs Moduli (GPa) = 41.00598 126.14355 97.05630
#
# Poissons Ratio (x) = 0.33327 0.48578
# Poissons Ratio (y) = 0.10834 0.24228
# Poissons Ratio (z) = 0.20524 0.31489
#
# Static dielectric constant tensor:
#      x y z
#    x 1.786430 0.000000 -0.011530 
#    y 0.000000 1.786880 0.000000 
#    z -0.011530 0.000000 1.818390 
# 
# From -- ./inp_files/58970.got.cif
#   From: 2010.05.17/outbox.cif.g08.bks.cpg/sg12_30_cif.got.tgz:58970.got - 2010.06.03 13:09:07.
