data_PCOD9182330
_publ_section_title
;
Structure prediction by ZEFSAII (Michael W. Deem and Ramdas Pophale) SiO2 
 PCOD9182330
Probable space group: C 2/M
;
_chemical_formula_sum "Si O2"
_cell_formula_units_Z 64
_cell_length_a 9.294520
_cell_length_b 24.165300
_cell_length_c 14.399571
_cell_angle_alpha 90.000000
_cell_angle_beta 98.495145
_cell_angle_gamma 90.000000
_cell_volume 3198.729139
_symmetry_space_group_name_H-M "C 2/M"
_symmetry_group_IT_number 12
_symmetry_cell_setting 'monoclinic'
loop_
_space_group_symop_operation_xyz
x,y,z
-x,y,-z
-x,-y,-z
x,-y,z
1/2+x,1/2+y,z
1/2-x,1/2+y,-z
1/2-x,1/2-y,-z
1/2+x,1/2-y,z
loop_
_atom_site_type_symbol
_atom_site_label
_atom_site_fract_x
_atom_site_fract_y
_atom_site_fract_z
Si Si1 0.450792 0.892874 0.397560
Si Si2 0.256982 0.737611 0.206829
Si Si3 0.925199 0.937153 0.180724
Si Si4 0.274917 0.218647 0.403631
Si Si5 0.998172 0.161201 0.597294
Si Si6 0.654001 0.441053 0.371039
Si Si7 0.295170 0.125745 0.724587
Si Si8 0.988154 0.183143 0.888937
O O1 0.500000 0.918554 0.500000
O O2 0.384651 0.832755 0.419360
O O3 0.312462 0.926580 0.348005
O O4 0.578761 0.889808 0.334997
O O5 0.323233 0.749670 0.315688
O O6 0.162148 0.681834 0.216542
O O7 0.384624 0.717328 0.151123
O O8 0.163763 0.788761 0.158600
O O9 0.768567 0.919835 0.210200
O O10 0.982139 0.882261 0.131493
O O11 0.039582 0.940811 0.276497
O O12 0.919842 0.000000 0.139009
O O13 0.250000 0.250000 0.500000
O O14 0.115950 0.196404 0.354820
O O15 0.149872 0.141597 0.651804
O O16 0.000000 0.191986 0.500000
O O17 0.899356 0.107043 0.567267
O O18 0.654806 0.500000 0.418645
O O19 0.000000 0.190020 0.000000
#
# Coordination Sequence:
#
# PCOD9182330 Si02
#       8
#     8   8   8   8   8   8   8   8
#     4  11  21  32  47  75 111 145 191 241 282 333
#     4  11  21  37  57  84 121 153 187 235 290 346
#     4   9  20  40  62  81 106 144 191 240 291 350
#     4  11  22  35  54  79 113 157 197 232 280 343
#     4  10  19  33  49  72 106 144 192 237 275 333
#     4   9  19  35  52  70  98 142 189 233 287 341
#     4  10  20  33  53  80 109 149 191 236 293 343
#     4  11  23  39  62  90 118 150 189 236 295 357
#
# _framework density 20.007947000000001
#
# number of rings (size 3 to 8) (size 9 to 14) (size 15 to 20)
#    0.000    1.750    0.000    7.125    0.000    3.750 
#    0.000    3.125    0.000    0.000    0.000    0.000 
#    0.000   11.500    0.000    0.000    0.000    0.000 
#
# Total GULP energy -178184.133912 kJ/mol
# GULP energy per Si atom -5568.254185 kJ/mol
# Density = 1.996241 g / cm^3
# Si number density = 20.007947 Si / 1000 Ang^3
#
#
#
# Elastic Constant Matrix: (Units=GPa)
#
#
# Indices 1 2 3 4 5 6 
#
# 1 104.9740 34.2752 10.0484 0.0000 -11.3608 0.0000
# 2 34.2752 102.3787 23.3683 0.0000 -4.3075 0.0000
# 3 10.0484 23.3683 81.2383 0.0000 -15.3964 0.0000
# 4 0.0000 0.0000 0.0000 15.4461 0.0000 -0.0218
# 5 -11.3608 -4.3075 -15.3964 0.0000 23.6439 0.0000
# 6 0.0000 0.0000 0.0000 -0.0218 0.0000 12.9914
#
#
#
# Elastic Compliance Matrix: (Units=1/GPa)
#
#
# Indices 1 2 3 4 5 6 
#
# 1 0.011226 -0.003690 0.000648 0.000000 0.005143 0.000000
# 2 -0.003690 0.011667 -0.003232 0.000000 -0.001752 0.000000
# 3 0.000648 -0.003232 0.014952 0.000000 0.009459 0.000000
# 4 0.000000 0.000000 0.000000 0.064741 0.000000 0.000109
# 5 0.005143 -0.001752 0.009459 0.000000 0.050606 0.000000
# 6 0.000000 0.000000 0.000000 0.000109 0.000000 0.076974
#
#
# Mechanical properties :
#
#
# Convention : Reuss Voigt Hill
#
# Bulk Modulus (GPa) = 39.53084 47.10832 43.31958
# Shear Modulus (GPa) = 19.90884 25.14287 22.52585
#
# Velocity S-wave (km/s) = 3.15786 3.54876 3.35900
# Velocity P-wave (km/s) = 5.75296 6.35512 6.06152
#
# Compressibility (1/GPa) = 0.02529671
#
# Stress axis : x y z
#
# Youngs Moduli (GPa) = 89.08274 85.71321 66.88271
#
# Poissons Ratio (x) = 0.31625 -0.04331
# Poissons Ratio (y) = 0.32868 0.21614
# Poissons Ratio (z) = -0.05769 0.27699
#
# Static dielectric constant tensor:
#      x y z
#    x 1.845480 0.000000 -0.063790 
#    y 0.000000 1.844850 0.000000 
#    z -0.063790 0.000000 1.748630 
# 
# From -- ./inp_files/199878.got.cif
#   From: 2010.05.17/outbox.cif.g08.bks.cpg/sg12_100_cif.got.tgz:199878.got - 2010.06.03 13:09:07.
