data_PCOD9182869
_publ_section_title
;
Structure prediction by ZEFSAII (Michael W. Deem and Ramdas Pophale) SiO2 
 PCOD9182869
Probable space group: C 2/M
;
_chemical_formula_sum "Si O2"
_cell_formula_units_Z 56
_cell_length_a 20.134698
_cell_length_b 12.738008
_cell_length_c 9.595656
_cell_angle_alpha 90.000000
_cell_angle_beta 86.019789
_cell_angle_gamma 90.000000
_cell_volume 2455.119074
_symmetry_space_group_name_H-M "C 2/M"
_symmetry_group_IT_number 12
_symmetry_cell_setting 'monoclinic'
loop_
_space_group_symop_operation_xyz
x,y,z
-x,y,-z
-x,-y,-z
x,-y,z
1/2+x,1/2+y,z
1/2-x,1/2+y,-z
1/2-x,1/2-y,-z
1/2+x,1/2-y,z
loop_
_atom_site_type_symbol
_atom_site_label
_atom_site_fract_x
_atom_site_fract_y
_atom_site_fract_z
Si Si1 0.310039 0.612526 0.050271
Si Si2 0.975988 0.313135 0.842757
Si Si3 0.799565 0.118602 0.632483
Si Si4 0.109519 0.613086 0.718565
Si Si5 0.458344 0.621114 0.646659
Si Si6 0.199574 0.793633 0.662074
Si Si7 0.842833 0.658581 0.973523
O O1 0.335051 0.500000 0.997081
O O2 0.324050 0.632422 0.210621
O O3 0.339435 0.714381 0.972659
O O4 0.230088 0.616752 0.047959
O O5 0.974479 0.201243 0.767268
O O6 0.031053 0.377214 0.750537
O O7 0.903658 0.366845 0.862922
O O8 0.000000 0.302928 0.000000
O O9 0.878827 0.127997 0.632909
O O10 0.781358 0.138091 0.473126
O O11 0.758862 0.215509 0.705920
O O12 0.781072 0.000000 0.680629
O O13 0.127688 0.500000 0.656954
O O14 0.141349 0.710888 0.633793
O O15 0.138259 0.623849 0.872433
O O16 0.500000 0.646575 0.500000
O O17 0.474189 0.500000 0.679280
#
# Coordination Sequence:
#
# PCOD9182869 Si02
#       7
#     8   8   8   8   8   8   8
#     4  10  19  33  53  77 110 144 176 224 279 324
#     4  10  21  37  56  81 110 140 184 234 274 324
#     4  10  20  35  56  79 107 145 185 226 275 331
#     4  10  20  35  55  77 107 145 181 225 280 333
#     4  10  21  37  57  80 109 147 184 222 277 337
#     4  10  20  34  54  81 108 138 184 232 272 326
#     4   9  20  34  51  80 109 141 183 222 270 333
#
# _framework density 22.809484000000001
#
# number of rings (size 3 to 8) (size 9 to 14) (size 15 to 20)
#    0.000    2.143    0.000    3.000    0.000    4.000 
#    0.000   10.714    0.000    4.714    0.000    0.000 
#    0.000    0.000    0.000    0.000    0.000    0.000 
#
# Total GULP energy -156475.397473 kJ/mol
# GULP energy per Si atom -5588.407053 kJ/mol
# Density = 2.275757 g / cm^3
# Si number density = 22.809484 Si / 1000 Ang^3
#
#
#
# Elastic Constant Matrix: (Units=GPa)
#
#
# Indices 1 2 3 4 5 6 
#
# 1 85.7686 4.8751 -13.7160 0.0000 -18.0406 0.0000
# 2 4.8751 121.9257 4.8599 0.0000 7.1848 0.0000
# 3 -13.7160 4.8599 37.1765 0.0000 -7.1589 0.0000
# 4 0.0000 0.0000 0.0000 4.6063 0.0000 -5.3728
# 5 -18.0406 7.1848 -7.1589 0.0000 23.6198 0.0000
# 6 0.0000 0.0000 0.0000 -5.3728 0.0000 16.2126
#
#
#
# Elastic Compliance Matrix: (Units=1/GPa)
#
#
# Indices 1 2 3 4 5 6 
#
# 1 0.016731 -0.002011 0.009573 0.000000 0.016293 0.000000
# 2 -0.002011 0.008693 -0.002849 0.000000 -0.005044 0.000000
# 3 0.009573 -0.002849 0.034385 0.000000 0.018600 0.000000
# 4 0.000000 0.000000 0.000000 0.353883 0.000000 0.117275
# 5 0.016293 -0.005044 0.018600 0.000000 0.061953 0.000000
# 6 0.000000 0.000000 0.000000 0.117275 0.000000 0.100544
#
#
# Mechanical properties :
#
#
# Convention : Reuss Voigt Hill
#
# Bulk Modulus (GPa) = 14.44343 26.32318 20.38331
# Shear Modulus (GPa) = 8.47684 25.47787 16.97736
#
# Velocity S-wave (km/s) = 1.92988 3.34576 2.73117
# Velocity P-wave (km/s) = 3.36331 5.14694 4.34758
#
# Compressibility (1/GPa) = 0.06923563
#
# Stress axis : x y z
#
# Youngs Moduli (GPa) = 59.76755 115.03660 29.08248
#
# Poissons Ratio (x) = 0.23130 -0.27841
# Poissons Ratio (y) = 0.12017 0.08287
# Poissons Ratio (z) = -0.57217 0.32779
#
# Static dielectric constant tensor:
#      x y z
#    x 1.883100 0.000000 -0.002180 
#    y 0.000000 1.839790 0.000000 
#    z -0.002180 0.000000 1.814460 
# 
# From -- ./inp_files/164965.got.cif
#   From: 2010.05.17/outbox.cif.g08.bks.cpg/sg12_83_cif.got.tgz:164965.got - 2010.06.03 13:09:07.
