data_PCOD9182148
_publ_section_title
;
Structure prediction by ZEFSAII (Michael W. Deem and Ramdas Pophale) SiO2 
 PCOD9182148
Probable space group: C 2/M
;
_chemical_formula_sum "Si O2"
_cell_formula_units_Z 32
_cell_length_a 21.034647
_cell_length_b 8.806097
_cell_length_c 25.900913
_cell_angle_alpha 90.000000
_cell_angle_beta 22.481949
_cell_angle_gamma 90.000000
_cell_volume 1834.606622
_symmetry_space_group_name_H-M "C 2/M"
_symmetry_group_IT_number 12
_symmetry_cell_setting 'monoclinic'
loop_
_space_group_symop_operation_xyz
x,y,z
-x,y,-z
-x,-y,-z
x,-y,z
1/2+x,1/2+y,z
1/2-x,1/2+y,-z
1/2-x,1/2-y,-z
1/2+x,1/2-y,z
loop_
_atom_site_type_symbol
_atom_site_label
_atom_site_fract_x
_atom_site_fract_y
_atom_site_fract_z
Si Si1 0.237028 0.182332 0.850773
Si Si2 0.922877 0.317837 0.132802
Si Si3 0.158951 0.817551 0.415826
Si Si4 0.118133 0.318591 0.559528
O O1 0.179680 0.250202 0.838668
O O2 0.428323 0.223624 0.716536
O O3 0.221563 0.000000 0.860576
O O4 0.106642 0.249370 0.989599
O O5 0.928756 0.500000 0.122976
O O6 0.823434 0.280683 0.259445
O O7 0.151021 0.739732 0.477026
O O8 0.000000 0.774466 0.500000
O O9 0.152190 0.000000 0.427942
O O10 0.129134 0.500000 0.552259
O O11 0.250000 0.250000 0.500000
#
# Coordination Sequence:
#
# PCOD9182148 Si02
#       4
#     8   8   8   8
#     4  10  20  34  53  81 114 146 182 229 278 327
#     4  10  19  32  56  85 111 145 183 226 277 328
#     4  10  20  36  58  85 115 145 185 234 277 327
#     4  11  24  39  58  82 113 152 189 230 281 335
#
# _framework density 17.442430000000002
#
# number of rings (size 3 to 8) (size 9 to 14) (size 15 to 20)
#    0.000    1.750    2.500    3.750    0.000    5.500 
#    0.000    1.250    0.000    0.000    0.000    0.000 
#    0.000    0.000    0.000    0.000    0.000    0.000 
#
# Total GULP energy -89340.839523 kJ/mol
# GULP energy per Si atom -5583.802470 kJ/mol
# Density = 1.740273 g / cm^3
# Si number density = 17.442430 Si / 1000 Ang^3
#
#
#
# Elastic Constant Matrix: (Units=GPa)
#
#
# Indices 1 2 3 4 5 6 
#
# 1 114.4348 43.9775 93.2717 -0.0003 -5.7333 0.0000
# 2 43.9775 59.1110 72.3884 -0.0003 -1.3466 0.0001
# 3 93.2717 72.3884 201.3978 -0.0005 -0.6672 0.0001
# 4 -0.0003 -0.0003 -0.0005 30.5591 -0.0001 -0.3986
# 5 -5.7333 -1.3466 -0.6672 -0.0001 23.3926 -0.0001
# 6 0.0000 0.0001 0.0001 -0.3986 -0.0001 27.3923
#
#
#
# Elastic Compliance Matrix: (Units=1/GPa)
#
#
# Indices 1 2 3 4 5 6 
#
# 1 0.014962 -0.004617 -0.005259 0.000000 0.003251 0.000000
# 2 -0.004617 0.031691 -0.009251 0.000000 0.000429 0.000000
# 3 -0.005259 -0.009251 0.010721 0.000000 -0.001516 0.000000
# 4 0.000000 0.000000 0.000000 0.032730 0.000000 0.000476
# 5 0.003251 0.000429 -0.001516 0.000000 0.043527 0.000000
# 6 0.000000 0.000000 0.000000 0.000476 0.000000 0.036514
#
#
# Mechanical properties :
#
#
# Convention : Reuss Voigt Hill
#
# Bulk Modulus (GPa) = 52.30170 88.24652 70.27411
# Shear Modulus (GPa) = 23.28041 27.28917 25.28479
#
# Velocity S-wave (km/s) = 3.65732 3.95970 3.81151
# Velocity P-wave (km/s) = 6.91990 8.46218 7.72960
#
# Compressibility (1/GPa) = 0.01911984
#
# Stress axis : x y z
#
# Youngs Moduli (GPa) = 66.83414 31.55447 93.27573
#
# Poissons Ratio (x) = 0.14570 0.49054
# Poissons Ratio (y) = 0.30860 0.86289
# Poissons Ratio (z) = 0.35148 0.29191
#
# Static dielectric constant tensor:
#      x y z
#    x 1.546380 0.000000 0.002210 
#    y 0.000000 1.584890 0.000000 
#    z 0.002210 0.000000 1.616490 
# 
# From -- ./inp_files/151056.got.cif
#   From: 2010.05.17/outbox.cif.g08.bks.cpg/sg12_76_cif.got.tgz:151056.got - 2010.06.03 13:09:07.
