data_PCOD9182842
_publ_section_title
;
Structure prediction by ZEFSAII (Michael W. Deem and Ramdas Pophale) SiO2 
 PCOD9182842
Probable space group: C 2/M
;
_chemical_formula_sum "Si O2"
_cell_formula_units_Z 56
_cell_length_a 19.772210
_cell_length_b 8.231379
_cell_length_c 27.796198
_cell_angle_alpha 90.000000
_cell_angle_beta 139.168272
_cell_angle_gamma 90.000000
_cell_volume 2957.906852
_symmetry_space_group_name_H-M "C 2/M"
_symmetry_group_IT_number 12
_symmetry_cell_setting 'monoclinic'
loop_
_space_group_symop_operation_xyz
x,y,z
-x,y,-z
-x,-y,-z
x,-y,z
1/2+x,1/2+y,z
1/2-x,1/2+y,-z
1/2-x,1/2-y,-z
1/2+x,1/2-y,z
loop_
_atom_site_type_symbol
_atom_site_label
_atom_site_fract_x
_atom_site_fract_y
_atom_site_fract_z
Si Si1 0.185730 0.696637 0.288245
Si Si2 0.076310 0.194538 0.582210
Si Si3 0.485434 0.196733 0.239001
Si Si4 0.193396 0.817219 0.188289
Si Si5 0.889315 0.686199 0.949021
Si Si6 0.282833 0.304418 0.071075
Si Si7 0.441662 0.814429 0.322765
O O1 0.186983 0.500000 0.286865
O O2 0.304559 0.752507 0.360441
O O3 0.154547 0.764356 0.219393
O O4 0.097224 0.745105 0.278175
O O5 0.034628 0.231775 0.613422
O O6 0.000000 0.259122 0.500000
O O7 0.080756 0.000000 0.580036
O O8 0.392047 0.248896 0.153126
O O9 0.472643 0.256354 0.287330
O O10 0.480645 0.000000 0.238315
O O11 0.161508 0.692712 0.130417
O O12 0.317244 0.818292 0.255582
O O13 0.158401 0.000000 0.157613
O O14 0.907366 0.500000 0.974806
O O15 0.808291 0.759012 0.942720
O O16 0.000000 0.766832 0.000000
O O17 0.284370 0.500000 0.073028
O O18 0.250000 0.250000 0.000000
O O19 0.480535 0.000000 0.345887
#
# Coordination Sequence:
#
# PCOD9182842 Si02
#       7
#     8   8   8   8   8   8   8
#     4   9  19  34  55  78 105 143 180 214 261 320
#     4   9  18  34  56  82 110 140 177 218 260 314
#     4  10  20  37  57  77 107 144 183 223 266 322
#     4  10  19  33  53  77 103 132 173 225 267 307
#     4  10  22  38  54  73 100 137 179 217 263 323
#     4  11  24  39  56  78 108 144 181 225 274 322
#     4   9  18  33  54  78 104 137 174 214 264 316
#
# _framework density 18.932307000000002
#
# number of rings (size 3 to 8) (size 9 to 14) (size 15 to 20)
#    0.000    2.286    1.429    0.857    2.000    2.857 
#    0.000    0.714    0.000    0.000    0.000    0.000 
#    0.000    0.000    0.000    0.000    0.000    0.000 
#
# Total GULP energy -155972.196263 kJ/mol
# GULP energy per Si atom -5570.435581 kJ/mol
# Density = 1.888922 g / cm^3
# Si number density = 18.932307 Si / 1000 Ang^3
#
#
#
# Elastic Constant Matrix: (Units=GPa)
#
#
# Indices 1 2 3 4 5 6 
#
# 1 158.3638 17.9515 69.2539 0.0000 -16.3211 0.0000
# 2 17.9515 16.4067 10.3563 0.0000 1.2162 -0.0001
# 3 69.2539 10.3563 114.7517 0.0000 -17.9943 0.0000
# 4 0.0000 0.0000 0.0000 21.7935 0.0000 -5.9844
# 5 -16.3211 1.2162 -17.9943 0.0000 23.3296 0.0000
# 6 0.0000 -0.0001 0.0000 -5.9844 0.0000 15.0113
#
#
#
# Elastic Compliance Matrix: (Units=1/GPa)
#
#
# Indices 1 2 3 4 5 6 
#
# 1 0.009540 -0.007882 -0.004477 0.000000 0.003632 0.000000
# 2 -0.007882 0.072831 -0.003727 0.000000 -0.012185 0.000000
# 3 -0.004477 -0.003727 0.012846 0.000000 0.006970 0.000000
# 4 0.000000 0.000000 0.000000 0.051526 0.000000 0.020541
# 5 0.003632 -0.012185 0.006970 0.000000 0.051416 0.000000
# 6 0.000000 0.000000 0.000000 0.020541 0.000000 0.074806
#
#
# Mechanical properties :
#
#
# Convention : Reuss Voigt Hill
#
# Bulk Modulus (GPa) = 15.86160 53.84951 34.85555
# Shear Modulus (GPa) = 15.33038 24.82425 20.07731
#
# Velocity S-wave (km/s) = 2.84869 3.62499 3.26003
# Velocity P-wave (km/s) = 4.38364 6.78422 5.71148
#
# Compressibility (1/GPa) = 0.06304534
#
# Stress axis : x y z
#
# Youngs Moduli (GPa) = 104.82160 13.73051 77.84803
#
# Poissons Ratio (x) = 0.10822 0.34850
# Poissons Ratio (y) = 0.82618 0.29014
# Poissons Ratio (z) = 0.46925 0.05117
#
# Static dielectric constant tensor:
#      x y z
#    x 1.675410 0.000000 0.007660 
#    y 0.000000 1.698500 0.000000 
#    z 0.007660 0.000000 1.661030 
# 
# From -- ./inp_files/280192.got.cif
#   From: 2010.05.17/outbox.cif.g08.bks.cpg/sg12_141_cif.got.tgz:280192.got - 2010.06.03 13:09:07.
