data_PCOD9182244
_publ_section_title
;
Structure prediction by ZEFSAII (Michael W. Deem and Ramdas Pophale) SiO2 
 PCOD9182244
Probable space group: C 2/M
;
_chemical_formula_sum "Si O2"
_cell_formula_units_Z 50
_cell_length_a 18.181229
_cell_length_b 14.653220
_cell_length_c 8.725550
_cell_angle_alpha 90.000000
_cell_angle_beta 98.028052
_cell_angle_gamma 90.000000
_cell_volume 2301.823171
_symmetry_space_group_name_H-M "C 2/M"
_symmetry_group_IT_number 12
_symmetry_cell_setting 'monoclinic'
loop_
_space_group_symop_operation_xyz
x,y,z
-x,y,-z
-x,-y,-z
x,-y,z
1/2+x,1/2+y,z
1/2-x,1/2+y,-z
1/2-x,1/2-y,-z
1/2+x,1/2-y,z
loop_
_atom_site_type_symbol
_atom_site_label
_atom_site_fract_x
_atom_site_fract_y
_atom_site_fract_z
Si Si1 0.143185 0.604000 0.835139
Si Si2 0.000000 0.000000 0.500000
Si Si3 0.404120 0.676685 0.544565
Si Si4 0.965448 0.242694 0.242039
Si Si5 0.732975 0.100118 0.179953
Si Si6 0.283245 0.695953 0.724396
Si Si7 0.379892 0.395274 0.022574
O O1 0.131321 0.500000 0.783803
O O2 0.068043 0.661939 0.820585
O O3 0.204059 0.652037 0.742919
O O4 0.181000 0.603897 0.013653
O O5 0.055126 0.920244 0.447627
O O6 0.419926 0.718320 0.383601
O O7 0.449637 0.737843 0.681026
O O8 0.319997 0.670512 0.573834
O O9 0.945019 0.165156 0.113196
O O10 0.719767 0.194994 0.260516
O O11 0.816659 0.101631 0.136676
O O12 0.721880 0.000000 0.251496
O O13 0.339229 0.652846 0.868541
O O14 0.400788 0.500000 0.994104
#
# Coordination Sequence:
#
# PCOD9182244 Si02
#       7
#     8   2   8   8   8   8   8
#     4  10  19  35  62  84 114 151 192 239 299 342
#     4   8  20  44  52  74 110 172 172 216 306 354
#     4  10  25  36  59  75 121 155 191 234 292 343
#     4  10  20  42  52  78 113 159 187 225 293 354
#     4   9  17  33  56  87 117 147 175 239 308 340
#     4  11  19  37  56  92 113 142 194 253 278 340
#     4  10  19  32  58  84 113 147 188 233 295 346
#
# _framework density 21.721913000000001
#
# number of rings (size 3 to 8) (size 9 to 14) (size 15 to 20)
#    0.000    2.240    3.200    2.400    6.720    1.280 
#    0.000    4.000    0.000    1.920    0.000    0.000 
#    0.000    0.000    0.000    0.000    0.000    0.000 
#
# Total GULP energy -139397.460435 kJ/mol
# GULP energy per Si atom -5575.898417 kJ/mol
# Density = 2.167247 g / cm^3
# Si number density = 21.721913 Si / 1000 Ang^3
#
#
#
# Elastic Constant Matrix: (Units=GPa)
#
#
# Indices 1 2 3 4 5 6 
#
# 1 53.0827 46.0306 29.1776 0.0000 0.5192 0.0000
# 2 46.0306 184.3544 23.3136 0.0000 -1.4481 0.0000
# 3 29.1776 23.3136 29.1121 0.0000 11.9793 0.0000
# 4 0.0000 0.0000 0.0000 -8.3089 0.0000 -15.3163
# 5 0.5192 -1.4481 11.9793 0.0000 35.5028 0.0000
# 6 0.0000 0.0000 0.0000 -15.3163 0.0000 -4.9876
#
#
#
# Elastic Compliance Matrix: (Units=1/GPa)
#
#
# Indices 1 2 3 4 5 6 
#
# 1 0.057461 -0.006580 -0.060226 0.000000 0.019213 0.000000
# 2 -0.006580 0.006938 0.001025 0.000000 0.000033 0.000000
# 3 -0.060226 0.001025 0.108588 0.000000 -0.035717 0.000000
# 4 0.000000 0.000000 0.000000 0.025823 0.000000 -0.079298
# 5 0.019213 0.000033 -0.035717 0.000000 0.039939 0.000000
# 6 0.000000 0.000000 0.000000 -0.079298 0.000000 0.043018
#
#
# Mechanical properties :
#
#
# Convention : Reuss Voigt Hill
#
# Bulk Modulus (GPa) = 24.14062 51.51030 37.82546
# Shear Modulus (GPa) = 11.70586 15.64310 13.67448
#
# Velocity S-wave (km/s) = 2.32393 2.68648 2.51175
# Velocity P-wave (km/s) = 4.28235 5.77822 5.08559
#
# Compressibility (1/GPa) = 0.04142395
#
# Stress axis : x y z
#
# Youngs Moduli (GPa) = 17.40322 144.13627 9.20912
#
# Poissons Ratio (x) = 0.94840 0.55463
# Poissons Ratio (y) = 0.11451 -0.00944
# Poissons Ratio (z) = 1.04813 -0.14774
#
# Static dielectric constant tensor:
#      x y z
#    x 1.805740 0.000000 0.004500 
#    y 0.000000 1.772570 0.000000 
#    z 0.004500 0.000000 1.836920 
# 
# From -- ./inp_files/85775.got.cif
#   From: 2010.05.17/outbox.cif.g08.bks.cpg/sg12_43_cif.got.tgz:85775.got - 2010.06.03 13:09:07.
