data_PCOD9182839
_publ_section_title
;
Structure prediction by ZEFSAII (Michael W. Deem and Ramdas Pophale) SiO2 
 PCOD9182839
Probable space group: C 2/M
;
_chemical_formula_sum "Si O2"
_cell_formula_units_Z 64
_cell_length_a 21.079261
_cell_length_b 7.627940
_cell_length_c 20.447563
_cell_angle_alpha 90.000000
_cell_angle_beta 104.149287
_cell_angle_gamma 90.000000
_cell_volume 3188.046321
_symmetry_space_group_name_H-M "C 2/M"
_symmetry_group_IT_number 12
_symmetry_cell_setting 'monoclinic'
loop_
_space_group_symop_operation_xyz
x,y,z
-x,y,-z
-x,-y,-z
x,-y,z
1/2+x,1/2+y,z
1/2-x,1/2+y,-z
1/2-x,1/2-y,-z
1/2+x,1/2-y,z
loop_
_atom_site_type_symbol
_atom_site_label
_atom_site_fract_x
_atom_site_fract_y
_atom_site_fract_z
Si Si1 0.909948 0.214497 0.154794
Si Si2 0.436861 0.291464 0.446075
Si Si3 0.896864 0.210487 0.294959
Si Si4 0.158420 0.205206 0.159817
Si Si5 0.764717 0.791041 0.078996
Si Si6 0.249971 0.789129 0.294723
Si Si7 0.291504 0.208389 0.446207
Si Si8 0.518059 0.715094 0.077684
O O1 0.923963 0.273119 0.232455
O O2 0.837228 0.271718 0.116194
O O3 0.963178 0.270029 0.115539
O O4 0.909784 0.000000 0.154662
O O5 0.500000 0.220037 0.500000
O O6 0.446910 0.500000 0.442015
O O7 0.427653 0.219568 0.370069
O O8 0.367108 0.268771 0.464658
O O9 0.819597 0.249586 0.278762
O O10 0.903897 0.000000 0.297749
O O11 0.210300 0.216955 0.113997
O O12 0.192673 0.280531 0.233566
O O13 0.089168 0.278073 0.118870
O O14 0.146682 0.000000 0.170543
O O15 0.763660 0.000000 0.087360
O O16 0.750000 0.750000 0.000000
O O17 0.257077 0.722584 0.370934
O O18 0.243130 0.000000 0.295879
O O19 0.250000 0.250000 0.500000
O O20 0.294318 0.000000 0.440862
O O21 0.518938 0.500000 0.076669
O O22 0.500000 0.771677 0.000000
#
# Coordination Sequence:
#
# PCOD9182839 Si02
#       8
#     8   8   8   8   8   8   8   8
#     4   9  17  30  49  74  97 127 171 210 247 297
#     4   9  18  33  53  80 109 138 172 216 265 314
#     4   9  16  30  52  76 101 132 169 210 255 301
#     4  10  19  33  53  77 102 131 167 210 259 307
#     4  11  21  33  52  77 102 130 168 214 254 301
#     4   9  18  32  51  77 105 133 167 210 261 308
#     4  10  20  35  54  78 108 144 180 219 265 317
#     4   9  17  30  48  70  99 132 165 203 247 299
#
# _framework density 20.07499
#
# number of rings (size 3 to 8) (size 9 to 14) (size 15 to 20)
#    0.000    2.500    1.250    1.500    0.000    2.750 
#    2.250    0.000    0.000    4.875    0.000    0.000 
#    0.000    0.000    0.000    0.000    0.000    0.000 
#
# Total GULP energy -178555.203101 kJ/mol
# GULP energy per Si atom -5579.850097 kJ/mol
# Density = 2.002930 g / cm^3
# Si number density = 20.074990 Si / 1000 Ang^3
#
#
#
# Elastic Constant Matrix: (Units=GPa)
#
#
# Indices 1 2 3 4 5 6 
#
# 1 152.4680 -2.9798 113.7936 0.0000 9.2647 0.0000
# 2 -2.9798 40.9547 -0.6551 0.0000 7.5249 0.0000
# 3 113.7936 -0.6551 187.1270 0.0000 4.0015 0.0000
# 4 0.0000 0.0000 0.0000 7.0955 0.0000 -3.0649
# 5 9.2647 7.5249 4.0015 0.0000 39.5966 0.0000
# 6 0.0000 0.0000 0.0000 -3.0649 0.0000 18.0330
#
#
#
# Elastic Compliance Matrix: (Units=1/GPa)
#
#
# Indices 1 2 3 4 5 6 
#
# 1 0.012239 0.001203 -0.007388 0.000000 -0.002346 0.000000
# 2 0.001203 0.025426 -0.000535 0.000000 -0.005059 0.000000
# 3 -0.007388 -0.000535 0.009817 0.000000 0.000838 0.000000
# 4 0.000000 0.000000 0.000000 0.152101 0.000000 0.025851
# 5 -0.002346 -0.005059 0.000838 0.000000 0.026680 0.000000
# 6 0.000000 0.000000 0.000000 0.025851 0.000000 0.059848
#
#
# Mechanical properties :
#
#
# Convention : Reuss Voigt Hill
#
# Bulk Modulus (GPa) = 29.37478 66.76300 48.06889
# Shear Modulus (GPa) = 16.08247 30.97108 23.52677
#
# Velocity S-wave (km/s) = 2.83348 3.93207 3.42708
# Velocity P-wave (km/s) = 5.03677 7.34465 6.29734
#
# Compressibility (1/GPa) = 0.03404281
#
# Stress axis : x y z
#
# Youngs Moduli (GPa) = 81.70607 39.33016 101.86371
#
# Poissons Ratio (x) = -0.04733 0.75260
# Poissons Ratio (y) = -0.09832 0.05445
# Poissons Ratio (z) = 0.60367 0.02102
#
# Static dielectric constant tensor:
#      x y z
#    x 1.661440 0.000000 0.034010 
#    y 0.000000 1.754410 0.000000 
#    z 0.034010 0.000000 1.724190 
# 
# From -- ./inp_files/314106.got.cif
#   From: 2010.05.17/outbox.cif.g08.bks.cpg/sg12_158_cif.got.tgz:314106.got - 2010.06.03 13:09:07.
