data_PCOD9182782
_publ_section_title
;
Structure prediction by ZEFSAII (Michael W. Deem and Ramdas Pophale) SiO2 
 PCOD9182782
Probable space group: C 2/M
;
_chemical_formula_sum "Si O2"
_cell_formula_units_Z 56
_cell_length_a 13.441457
_cell_length_b 11.307808
_cell_length_c 29.880198
_cell_angle_alpha 90.000000
_cell_angle_beta 35.901637
_cell_angle_gamma 90.000000
_cell_volume 2663.169895
_symmetry_space_group_name_H-M "C 2/M"
_symmetry_group_IT_number 12
_symmetry_cell_setting 'monoclinic'
loop_
_space_group_symop_operation_xyz
x,y,z
-x,y,-z
-x,-y,-z
x,-y,z
1/2+x,1/2+y,z
1/2-x,1/2+y,-z
1/2-x,1/2-y,-z
1/2+x,1/2-y,z
loop_
_atom_site_type_symbol
_atom_site_label
_atom_site_fract_x
_atom_site_fract_y
_atom_site_fract_z
Si Si1 0.585369 0.635230 0.178684
Si Si2 0.051594 0.870063 0.548146
Si Si3 0.963847 0.364672 0.066061
Si Si4 0.380948 0.129494 0.711282
Si Si5 0.754561 0.298805 0.663188
Si Si6 0.315007 0.696582 0.405714
Si Si7 0.000092 0.137000 0.889355
O O1 0.521646 0.500000 0.207616
O O2 0.758957 0.645136 0.142108
O O3 0.436013 0.718631 0.249620
O O4 0.607877 0.649417 0.117099
O O5 0.166743 0.780317 0.478348
O O6 0.121934 0.871481 0.573495
O O7 0.861291 0.820635 0.618305
O O8 0.064792 0.000000 0.524683
O O9 0.011718 0.500000 0.063617
O O10 0.033513 0.249482 0.066547
O O11 0.000000 0.358570 0.000000
O O12 0.348037 0.135002 0.669727
O O13 0.522042 0.226521 0.668686
O O14 0.197444 0.145640 0.801314
O O15 0.444926 0.000000 0.700395
O O16 0.747643 0.361051 0.617467
O O17 0.975676 0.000000 0.914893
#
# Coordination Sequence:
#
# PCOD9182782 Si02
#       7
#     8   8   8   8   8   8   8
#     4   9  19  37  58  79 108 144 178 218 275 333
#     4  10  22  36  49  72 105 138 175 224 277 323
#     4  10  21  37  58  85 115 147 183 223 271 327
#     4   9  18  33  53  76 101 133 176 219 261 312
#     4  10  19  33  53  75  98 130 176 217 258 316
#     4  10  20  34  52  73 101 137 176 218 268 323
#     4   9  18  35  57  81 112 148 184 224 269 322
#
# _framework density 21.027574000000001
#
# number of rings (size 3 to 8) (size 9 to 14) (size 15 to 20)
#    0.000    2.429    0.000    3.000    0.000    3.714 
#    0.000   11.429    0.000    7.714    0.000    0.000 
#    0.000    0.000    0.000    0.000    0.000    0.000 
#
# Total GULP energy -156117.904188 kJ/mol
# GULP energy per Si atom -5575.639435 kJ/mol
# Density = 2.097971 g / cm^3
# Si number density = 21.027574 Si / 1000 Ang^3
#
#
#
# Elastic Constant Matrix: (Units=GPa)
#
#
# Indices 1 2 3 4 5 6 
#
# 1 74.0499 37.7290 21.2340 0.0000 15.3400 0.0000
# 2 37.7290 111.1275 29.1327 0.0000 16.7351 0.0000
# 3 21.2340 29.1327 49.0238 0.0001 7.1824 0.0000
# 4 0.0000 0.0000 0.0001 -12.6235 0.0000 4.5717
# 5 15.3400 16.7351 7.1824 0.0000 39.5211 0.0000
# 6 0.0000 0.0000 0.0000 4.5717 0.0000 -1.6751
#
#
#
# Elastic Compliance Matrix: (Units=1/GPa)
#
#
# Indices 1 2 3 4 5 6 
#
# 1 0.017862 -0.004208 -0.004604 -0.000008 -0.004315 -0.000023
# 2 -0.004208 0.012130 -0.005006 -0.000004 -0.002594 -0.000012
# 3 -0.004604 -0.005006 0.025473 0.000019 -0.000723 0.000052
# 4 -0.000008 -0.000004 0.000019 -6.808588 0.000007-18.581468
# 5 -0.004315 -0.002594 -0.000723 0.000007 0.028207 0.000018
# 6 -0.000023 -0.000012 0.000052-18.581468 0.000018-51.308059
#
#
# Mechanical properties :
#
#
# Convention : Reuss Voigt Hill
#
# Bulk Modulus (GPa) = 35.93253 45.59919 40.76586
# Shear Modulus (GPa) = -0.08621 14.78486 7.34932
#
# Velocity S-wave (km/s) = -0.20270 2.65451 1.87154
# Velocity P-wave (km/s) = 4.13166 5.57923 4.90909
#
# Compressibility (1/GPa) = 0.02782993
#
# Stress axis : x y z
#
# Youngs Moduli (GPa) = 55.98368 82.43946 39.25698
#
# Poissons Ratio (x) = 0.34688 0.18075
# Poissons Ratio (y) = 0.23556 0.19652
# Poissons Ratio (z) = 0.25776 0.41269
#
# Static dielectric constant tensor:
#      x y z
#    x 1.791730 0.000000 0.001850 
#    y 0.000000 1.746380 0.000000 
#    z 0.001850 0.000000 1.767670 
# 
# From -- ./inp_files/360775.got.cif
#   From: 2010.05.17/outbox.cif.g08.bks.cpg/sg12_181_cif.got.tgz:360775.got - 2010.06.03 13:09:07.
