data_PCOD9182368
_publ_section_title
;
Structure prediction by ZEFSAII (Michael W. Deem and Ramdas Pophale) SiO2 
 PCOD9182368
Probable space group: C 2/M
;
_chemical_formula_sum "Si O2"
_cell_formula_units_Z 56
_cell_length_a 30.916193
_cell_length_b 7.470990
_cell_length_c 16.085115
_cell_angle_alpha 90.000000
_cell_angle_beta 134.278938
_cell_angle_gamma 90.000000
_cell_volume 2659.932886
_symmetry_space_group_name_H-M "C 2/M"
_symmetry_group_IT_number 12
_symmetry_cell_setting 'monoclinic'
loop_
_space_group_symop_operation_xyz
x,y,z
-x,y,-z
-x,-y,-z
x,-y,z
1/2+x,1/2+y,z
1/2-x,1/2+y,-z
1/2-x,1/2-y,-z
1/2+x,1/2-y,z
loop_
_atom_site_type_symbol
_atom_site_label
_atom_site_fract_x
_atom_site_fract_y
_atom_site_fract_z
Si Si1 0.689036 0.212681 0.969581
Si Si2 0.597098 0.218447 0.117411
Si Si3 0.489560 0.214845 0.854667
Si Si4 0.585899 0.706600 0.704821
Si Si5 0.716743 0.218943 0.194136
Si Si6 0.353574 0.719235 0.383713
Si Si7 0.031802 0.787216 0.366116
O O1 0.632237 0.289261 0.843898
O O2 0.679818 0.000000 0.960154
O O3 0.750000 0.250000 0.000000
O O4 0.698001 0.275610 0.075844
O O5 0.565771 0.276931 0.161112
O O6 0.664725 0.276891 0.187842
O O7 0.597541 0.000000 0.118645
O O8 0.551520 0.274425 0.982181
O O9 0.482716 0.261099 0.749774
O O10 0.490270 0.000000 0.860345
O O11 0.573660 0.500000 0.666515
O O12 0.620041 0.780678 0.670045
O O13 0.522508 0.786988 0.649671
O O14 0.784826 0.278892 0.303594
O O15 0.717159 0.000000 0.194145
O O16 0.350856 0.500000 0.379131
O O17 0.402443 0.777629 0.517468
O O18 0.032438 0.000000 0.380863
#
# Coordination Sequence:
#
# PCOD9182368 Si02
#       7
#     8   8   8   8   8   8   8
#     4  11  20  31  50  76 103 130 160 200 246 292
#     4   8  15  29  51  75  94 122 159 200 246 295
#     4   9  17  32  52  73  98 122 157 204 250 297
#     4  10  19  33  50  71  97 130 170 206 242 284
#     4   9  16  28  49  73  95 123 165 202 235 285
#     4   9  17  31  48  68  96 132 169 203 236 287
#     4  10  20  32  50  72  97 130 167 204 245 291
#
# _framework density 21.053163999999999
#
# number of rings (size 3 to 8) (size 9 to 14) (size 15 to 20)
#    0.000    2.571    1.429    2.571    0.000    3.429 
#    0.000    2.857    0.000    3.429    0.000    0.000 
#    0.000    0.000    0.000    0.000    0.000    0.000 
#
# Total GULP energy -156326.269193 kJ/mol
# GULP energy per Si atom -5583.081043 kJ/mol
# Density = 2.100525 g / cm^3
# Si number density = 21.053164 Si / 1000 Ang^3
#
#
#
# Elastic Constant Matrix: (Units=GPa)
#
#
# Indices 1 2 3 4 5 6 
#
# 1 168.9389 4.0982 63.8548 0.0000 33.2064 0.0000
# 2 4.0982 59.7268 -2.4711 0.0000 0.9051 0.0000
# 3 63.8548 -2.4711 84.7762 0.0000 20.1105 0.0000
# 4 0.0000 0.0000 0.0000 16.8865 0.0000 -11.7417
# 5 33.2064 0.9051 20.1105 0.0000 19.7924 0.0000
# 6 0.0000 0.0000 0.0000 -11.7417 0.0000 44.8164
#
#
#
# Elastic Compliance Matrix: (Units=1/GPa)
#
#
# Indices 1 2 3 4 5 6 
#
# 1 0.010117 -0.000708 -0.004773 0.000000 -0.012092 0.000000
# 2 -0.000708 0.016854 0.001220 0.000000 -0.000822 0.000000
# 3 -0.004773 0.001220 0.017840 0.000000 -0.010175 0.000000
# 4 0.000000 0.000000 0.000000 0.072410 0.000000 0.018971
# 5 -0.012092 -0.000822 -0.010175 0.000000 0.081188 0.000000
# 6 0.000000 0.000000 0.000000 0.018971 0.000000 0.027284
#
#
# Mechanical properties :
#
#
# Convention : Reuss Voigt Hill
#
# Bulk Modulus (GPa) = 27.55652 49.37840 38.46746
# Shear Modulus (GPa) = 20.29943 32.82974 26.56458
#
# Velocity S-wave (km/s) = 3.10852 3.95317 3.55602
# Velocity P-wave (km/s) = 5.09915 6.65897 5.93056
#
# Compressibility (1/GPa) = 0.03628905
#
# Stress axis : x y z
#
# Youngs Moduli (GPa) = 98.84097 59.33161 56.05428
#
# Poissons Ratio (x) = 0.04203 0.26752
# Poissons Ratio (y) = 0.07002 -0.06837
# Poissons Ratio (z) = 0.47173 -0.07237
#
# Static dielectric constant tensor:
#      x y z
#    x 1.748930 0.000000 0.012470 
#    y 0.000000 1.815590 0.000000 
#    z 0.012470 0.000000 1.725830 
# 
# From -- ./inp_files/237351.got.cif
#   From: 2010.05.17/outbox.cif.g08.bks.cpg/sg12_119_cif.got.tgz:237351.got - 2010.06.03 13:09:07.
