data_PCOD9182133
_publ_section_title
;
Structure prediction by ZEFSAII (Michael W. Deem and Ramdas Pophale) SiO2 
 PCOD9182133
Probable space group: C 2/M
;
_chemical_formula_sum "Si O2"
_cell_formula_units_Z 64
_cell_length_a 17.778133
_cell_length_b 13.582637
_cell_length_c 14.551984
_cell_angle_alpha 90.000000
_cell_angle_beta 114.041511
_cell_angle_gamma 90.000000
_cell_volume 3209.093636
_symmetry_space_group_name_H-M "C 2/M"
_symmetry_group_IT_number 12
_symmetry_cell_setting 'monoclinic'
loop_
_space_group_symop_operation_xyz
x,y,z
-x,y,-z
-x,-y,-z
x,-y,z
1/2+x,1/2+y,z
1/2-x,1/2+y,-z
1/2-x,1/2-y,-z
1/2+x,1/2-y,z
loop_
_atom_site_type_symbol
_atom_site_label
_atom_site_fract_x
_atom_site_fract_y
_atom_site_fract_z
Si Si1 0.948817 0.821608 0.886010
Si Si2 0.238081 0.807416 0.219223
Si Si3 0.986801 0.613136 0.839874
Si Si4 0.531241 0.611990 0.737878
Si Si5 0.127570 0.384103 0.582573
Si Si6 0.524363 0.813202 0.370016
Si Si7 0.270719 0.386515 0.160745
Si Si8 0.182844 0.384788 0.926220
O O1 0.853194 0.849547 0.837331
O O2 0.993515 0.864276 0.818765
O O3 0.950550 0.702028 0.881189
O O4 0.000000 0.853371 0.000000
O O5 0.287706 0.849440 0.329793
O O6 0.238005 0.688945 0.220237
O O7 0.288366 0.831705 0.151450
O O8 0.967749 0.500000 0.856196
O O9 0.962906 0.635457 0.722128
O O10 0.085723 0.627718 0.893258
O O11 0.510861 0.500000 0.700252
O O12 0.496520 0.698628 0.656502
O O13 0.630218 0.619960 0.792724
O O14 0.129076 0.500000 0.565795
O O15 0.055092 0.361646 0.620322
O O16 0.100034 0.329330 0.476348
O O17 0.247865 0.500000 0.166853
O O18 0.232232 0.358059 0.042745
O O19 0.198204 0.500000 0.917547
#
# Coordination Sequence:
#
# PCOD9182133 Si02
#       8
#     8   8   8   8   8   8   8   8
#     4  11  24  37  55  84 120 160 192 231 281 338
#     4  12  21  35  55  84 120 143 188 245 284 334
#     4  10  19  36  58  82 115 153 194 237 289 345
#     4  10  21  40  59  80 116 160 196 224 273 345
#     4  11  21  35  61  92 116 138 180 245 300 336
#     4  10  19  37  60  88 113 143 187 238 295 336
#     4  10  20  35  55  78 110 154 195 235 281 337
#     4  10  19  32  56  83 107 143 193 244 290 331
#
# _framework density 19.943325000000002
#
# number of rings (size 3 to 8) (size 9 to 14) (size 15 to 20)
#    0.000    1.500    2.500    4.500    0.000    2.000 
#    0.000    4.375    0.000    1.500    0.000    0.000 
#    0.000    0.000    0.000    0.000    0.000    0.000 
#
# Total GULP energy -178861.781007 kJ/mol
# GULP energy per Si atom -5589.430656 kJ/mol
# Density = 1.989793 g / cm^3
# Si number density = 19.943325 Si / 1000 Ang^3
#
#
#
# Elastic Constant Matrix: (Units=GPa)
#
#
# Indices 1 2 3 4 5 6 
#
# 1 37.9310 5.1099 21.8247 0.0000 20.8119 0.0000
# 2 5.1099 95.3933 50.1201 0.0000 14.1978 0.0000
# 3 21.8247 50.1201 144.3487 0.0000 30.3390 0.0000
# 4 0.0000 0.0000 0.0000 23.9254 0.0000 7.6447
# 5 20.8119 14.1978 30.3390 0.0000 26.0493 0.0000
# 6 0.0000 0.0000 0.0000 7.6447 0.0000 8.7499
#
#
#
# Elastic Compliance Matrix: (Units=1/GPa)
#
#
# Indices 1 2 3 4 5 6 
#
# 1 0.047938 0.003404 0.000013 0.000000 -0.040170 0.000000
# 2 0.003404 0.013177 -0.003984 0.000000 -0.005261 0.000000
# 3 0.000013 -0.003984 0.010401 0.000000 -0.009953 0.000000
# 4 0.000000 0.000000 0.000000 0.057983 0.000000 -0.050659
# 5 -0.040170 -0.005261 -0.009953 0.000000 0.084942 0.000000
# 6 0.000000 0.000000 0.000000 -0.050659 0.000000 0.158547
#
#
# Mechanical properties :
#
#
# Convention : Reuss Voigt Hill
#
# Bulk Modulus (GPa) = 14.20819 47.97584 31.09202
# Shear Modulus (GPa) = 12.57599 25.11947 18.84773
#
# Velocity S-wave (km/s) = 2.51387 3.55285 3.07753
# Velocity P-wave (km/s) = 3.94535 6.39833 5.31528
#
# Compressibility (1/GPa) = 0.07038193
#
# Stress axis : x y z
#
# Youngs Moduli (GPa) = 20.86017 75.89049 96.14594
#
# Poissons Ratio (x) = -0.25833 -0.00126
# Poissons Ratio (y) = -0.07101 0.38305
# Poissons Ratio (z) = -0.00027 0.30235
#
# Static dielectric constant tensor:
#      x y z
#    x 1.693340 0.000000 0.020110 
#    y 0.000000 1.746630 0.000000 
#    z 0.020110 0.000000 1.690510 
# 
# From -- ./inp_files/225301.got.cif
#   From: 2010.05.17/outbox.cif.g08.bks.cpg/sg12_113_cif.got.tgz:225301.got - 2010.06.03 13:09:07.
