data_PCOD9182514
_publ_section_title
;
Structure prediction by ZEFSAII (Michael W. Deem and Ramdas Pophale) SiO2 
 PCOD9182514
Probable space group: C 2/M
;
_chemical_formula_sum "Si O2"
_cell_formula_units_Z 48
_cell_length_a 14.636589
_cell_length_b 8.504838
_cell_length_c 21.902381
_cell_angle_alpha 90.000000
_cell_angle_beta 90.216908
_cell_angle_gamma 90.000000
_cell_volume 2726.428675
_symmetry_space_group_name_H-M "C 2/M"
_symmetry_group_IT_number 12
_symmetry_cell_setting 'monoclinic'
loop_
_space_group_symop_operation_xyz
x,y,z
-x,y,-z
-x,-y,-z
x,-y,z
1/2+x,1/2+y,z
1/2-x,1/2+y,-z
1/2-x,1/2-y,-z
1/2+x,1/2-y,z
loop_
_atom_site_type_symbol
_atom_site_label
_atom_site_fract_x
_atom_site_fract_y
_atom_site_fract_z
Si Si1 0.643556 0.811295 0.167201
Si Si2 0.502349 0.311698 0.263912
Si Si3 0.147793 0.808783 0.833083
Si Si4 0.999002 0.809736 0.930014
Si Si5 0.647435 0.810542 0.500324
Si Si6 0.500423 0.809965 0.599035
O O1 0.588428 0.753878 0.226459
O O2 0.748104 0.753910 0.167189
O O3 0.587168 0.750869 0.108655
O O4 0.643475 0.000000 0.166651
O O5 0.506033 0.500000 0.261655
O O6 0.412149 0.260390 0.225760
O O7 0.500295 0.255950 0.333213
O O8 0.089191 0.760811 0.892299
O O9 0.150086 0.000000 0.833036
O O10 0.996107 0.000000 0.929405
O O11 0.000000 0.756606 0.000000
O O12 0.750000 0.750000 0.500000
O O13 0.589032 0.761073 0.559663
O O14 0.587920 0.761429 0.441144
O O15 0.648884 0.000000 0.500360
O O16 0.500343 0.000000 0.601828
#
# Coordination Sequence:
#
# PCOD9182514 Si02
#       6
#     8   8   8   8   8   8
#     4  10  19  33  52  73 100 132 166 206 249 296
#     4  10  20  35  53  74 100 131 168 207 248 298
#     4   8  17  33  50  70  99 132 163 199 248 297
#     4   9  18  34  53  73 101 134 166 204 249 296
#     4   9  19  35  54  75 103 135 168 206 248 296
#     4   9  19  36  53  73 103 136 166 203 252 298
#
# _framework density 17.605447999999999
#
# number of rings (size 3 to 8) (size 9 to 14) (size 15 to 20)
#    0.000    2.833    0.000    3.000    0.000    3.667 
#    0.000   15.000    0.000    0.000    0.000    0.000 
#    0.000    0.000    0.000    0.000    0.000    0.000 
#
# Total GULP energy -133816.380847 kJ/mol
# GULP energy per Si atom -5575.682535 kJ/mol
# Density = 1.756538 g / cm^3
# Si number density = 17.605448 Si / 1000 Ang^3
#
#
#
# Elastic Constant Matrix: (Units=GPa)
#
#
# Indices 1 2 3 4 5 6 
#
# 1 203.1413 27.5832 110.2455 0.0000 -3.1402 0.0000
# 2 27.5832 20.0532 30.1646 0.0000 -1.3995 0.0000
# 3 110.2455 30.1646 197.9807 0.0000 -3.3424 0.0000
# 4 0.0000 0.0000 0.0000 28.9980 0.0000 2.2727
# 5 -3.1402 -1.3995 -3.3424 0.0000 6.1916 0.0000
# 6 0.0000 0.0000 0.0000 2.2727 0.0000 27.8998
#
#
#
# Elastic Compliance Matrix: (Units=1/GPa)
#
#
# Indices 1 2 3 4 5 6 
#
# 1 0.007454 -0.005155 -0.003352 0.000000 0.000806 0.000000
# 2 -0.005155 0.068805 -0.007462 0.000000 0.008910 0.000000
# 3 -0.003352 -0.007462 0.008071 0.000000 0.000970 0.000000
# 4 0.000000 0.000000 0.000000 0.034707 0.000000 -0.002827
# 5 0.000806 0.008910 0.000970 0.000000 0.164456 0.000000
# 6 0.000000 0.000000 0.000000 -0.002827 0.000000 0.036073
#
#
# Mechanical properties :
#
#
# Convention : Reuss Voigt Hill
#
# Bulk Modulus (GPa) = 19.08700 84.12909 51.60804
# Shear Modulus (GPa) = 13.55134 29.49666 21.52400
#
# Velocity S-wave (km/s) = 2.77740 4.09764 3.50033
# Velocity P-wave (km/s) = 4.59895 8.38314 6.76119
#
# Compressibility (1/GPa) = 0.05239169
#
# Stress axis : x y z
#
# Youngs Moduli (GPa) = 134.15340 14.53385 123.90398
#
# Poissons Ratio (x) = 0.07492 0.41530
# Poissons Ratio (y) = 0.69158 0.92459
# Poissons Ratio (z) = 0.44966 0.10845
#
# Static dielectric constant tensor:
#      x y z
#    x 1.590110 0.000000 -0.000810 
#    y 0.000000 1.606210 0.000000 
#    z -0.000810 0.000000 1.579210 
# 
# From -- ./inp_files/307979.got.cif
#   From: 2010.05.17/outbox.cif.g08.bks.cpg/sg12_154_cif.got.tgz:307979.got - 2010.06.03 13:09:07.
