data_PCOD9182628
_publ_section_title
;
Structure prediction by ZEFSAII (Michael W. Deem and Ramdas Pophale) SiO2 
 PCOD9182628
Probable space group: C 2/M
;
_chemical_formula_sum "Si O2"
_cell_formula_units_Z 60
_cell_length_a 11.817806
_cell_length_b 22.784357
_cell_length_c 13.036367
_cell_angle_alpha 90.000000
_cell_angle_beta 88.793547
_cell_angle_gamma 90.000000
_cell_volume 3509.408516
_symmetry_space_group_name_H-M "C 2/M"
_symmetry_group_IT_number 12
_symmetry_cell_setting 'monoclinic'
loop_
_space_group_symop_operation_xyz
x,y,z
-x,y,-z
-x,-y,-z
x,-y,z
1/2+x,1/2+y,z
1/2-x,1/2+y,-z
1/2-x,1/2-y,-z
1/2+x,1/2-y,z
loop_
_atom_site_type_symbol
_atom_site_label
_atom_site_fract_x
_atom_site_fract_y
_atom_site_fract_z
Si Si1 0.201996 0.860965 0.931968
Si Si2 0.969610 0.067556 0.196437
Si Si3 0.729761 0.569124 0.126562
Si Si4 0.369544 0.224052 0.812984
Si Si5 0.500000 0.726089 0.000000
Si Si6 0.246594 0.666838 0.716070
Si Si7 0.974138 0.281020 0.383056
Si Si8 0.481949 0.353829 0.611836
O O1 0.128904 0.908848 0.873095
O O2 0.289432 0.826185 0.859313
O O3 0.260967 0.895069 0.024160
O O4 0.109130 0.813821 0.972979
O O5 0.092302 0.073325 0.139487
O O6 0.973274 0.106934 0.297270
O O7 0.954051 0.000000 0.222500
O O8 0.758962 0.500000 0.125622
O O9 0.775436 0.607116 0.220883
O O10 0.295661 0.282935 0.792011
O O11 0.427917 0.208175 0.703479
O O12 0.463814 0.238551 0.898314
O O13 0.349404 0.655686 0.635999
O O14 0.138234 0.689890 0.658842
O O15 0.960780 0.210246 0.385700
O O16 0.000000 0.299009 0.500000
O O17 0.500000 0.380249 0.500000
#
# Coordination Sequence:
#
# PCOD9182628 Si02
#       8
#     8   8   8   8   4   8   8   8
#     4  12  20  33  53  80 113 142 178 221 266 328
#     4  10  19  33  52  77 111 145 180 218 266 328
#     4  10  20  34  53  78 106 145 179 214 271 330
#     4  11  23  32  55  85 112 145 180 223 269 325
#     4  12  20  34  51  84 119 148 172 216 274 338
#     4  10  19  37  55  77 110 143 179 222 270 327
#     4  10  22  38  57  80 109 145 184 224 276 326
#     4   9  19  33  52  82 110 139 175 225 271 323
#
# _framework density 17.096897999999999
#
# number of rings (size 3 to 8) (size 9 to 14) (size 15 to 20)
#    0.000    1.600    2.667    4.000    1.867    7.200 
#    0.000    0.000    0.000    2.800    0.000    0.000 
#    0.000    0.000    0.000    0.000    0.000    0.000 
#
# Total GULP energy -167433.004035 kJ/mol
# GULP energy per Si atom -5581.100134 kJ/mol
# Density = 1.705798 g / cm^3
# Si number density = 17.096898 Si / 1000 Ang^3
#
#
#
# Elastic Constant Matrix: (Units=GPa)
#
#
# Indices 1 2 3 4 5 6 
#
# 1 44.7393 30.4620 41.8975 0.0000 12.4320 0.0000
# 2 30.4620 64.6384 42.6276 0.0000 -2.6306 0.0000
# 3 41.8975 42.6276 110.0956 0.0000 -3.5557 0.0000
# 4 0.0000 0.0000 0.0000 4.0778 0.0000 -1.5091
# 5 12.4320 -2.6306 -3.5557 0.0000 14.2952 0.0000
# 6 0.0000 0.0000 0.0000 -1.5091 0.0000 13.8370
#
#
#
# Elastic Compliance Matrix: (Units=1/GPa)
#
#
# Indices 1 2 3 4 5 6 
#
# 1 0.095990 -0.030900 -0.027668 0.000000 -0.096048 0.000000
# 2 -0.030900 0.030770 0.000903 0.000000 0.032760 0.000000
# 3 -0.027668 0.000903 0.020207 0.000000 0.029254 0.000000
# 4 0.000000 0.000000 0.000000 0.255541 0.000000 0.027869
# 5 -0.096048 0.032760 0.029254 0.000000 0.166789 0.000000
# 6 0.000000 0.000000 0.000000 0.027869 0.000000 0.075309
#
#
# Mechanical properties :
#
#
# Convention : Reuss Voigt Hill
#
# Bulk Modulus (GPa) = 31.60616 49.93859 40.77238
# Shear Modulus (GPa) = 6.48944 13.40775 9.94860
#
# Velocity S-wave (km/s) = 1.95036 2.80343 2.41487
# Velocity P-wave (km/s) = 4.85783 6.30488 5.62806
#
# Compressibility (1/GPa) = 0.03163940
#
# Stress axis : x y z
#
# Youngs Moduli (GPa) = 10.41770 32.49878 49.48746
#
# Poissons Ratio (x) = 1.00421 1.36920
# Poissons Ratio (y) = 0.32191 -0.04470
# Poissons Ratio (z) = 0.28823 -0.02935
#
# Static dielectric constant tensor:
#      x y z
#    x 1.556880 0.000000 -0.019310 
#    y 0.000000 1.570760 0.000000 
#    z -0.019310 0.000000 1.585780 
# 
# From -- ./inp_files/133948.got.cif
#   From: 2010.05.17/outbox.cif.g08.bks.cpg/sg12_67_cif.got.tgz:133948.got - 2010.06.03 13:09:07.
