data_PCOD9182208
_publ_section_title
;
Structure prediction by ZEFSAII (Michael W. Deem and Ramdas Pophale) SiO2 
 PCOD9182208
Probable space group: C 2/M
;
_chemical_formula_sum "Si O2"
_cell_formula_units_Z 56
_cell_length_a 20.877816
_cell_length_b 18.459962
_cell_length_c 8.063776
_cell_angle_alpha 90.000000
_cell_angle_beta 65.178536
_cell_angle_gamma 90.000000
_cell_volume 2820.710501
_symmetry_space_group_name_H-M "C 2/M"
_symmetry_group_IT_number 12
_symmetry_cell_setting 'monoclinic'
loop_
_space_group_symop_operation_xyz
x,y,z
-x,y,-z
-x,-y,-z
x,-y,z
1/2+x,1/2+y,z
1/2-x,1/2+y,-z
1/2-x,1/2-y,-z
1/2+x,1/2-y,z
loop_
_atom_site_type_symbol
_atom_site_label
_atom_site_fract_x
_atom_site_fract_y
_atom_site_fract_z
Si Si1 0.421709 0.679134 0.025423
Si Si2 0.306917 0.225811 0.292884
Si Si3 0.290261 0.823060 0.774964
Si Si4 0.808273 0.079615 0.990160
Si Si5 0.232830 0.415685 0.530058
Si Si6 0.928636 0.229412 0.637286
Si Si7 0.879233 0.080396 0.553409
O O1 0.382443 0.734363 0.196115
O O2 0.500000 0.658024 0.000000
O O3 0.365980 0.614570 0.051594
O O4 0.429942 0.711691 0.831310
O O5 0.250000 0.250000 0.500000
O O6 0.266922 0.258841 0.179143
O O7 0.309150 0.139891 0.305146
O O8 0.280754 0.880142 0.634010
O O9 0.363720 0.783377 0.684698
O O10 0.261600 0.872307 0.952885
O O11 0.843623 0.075540 0.772688
O O12 0.790521 0.000000 0.068803
O O13 0.213651 0.500000 0.561727
O O14 0.315392 0.410132 0.492927
O O15 0.921601 0.155512 0.532331
O O16 0.000000 0.265613 0.500000
O O17 0.913293 0.000000 0.485086
#
# Coordination Sequence:
#
# PCOD9182208 Si02
#       7
#     8   8   8   8   8   8   8
#     4  10  23  37  58  88 120 153 197 234 292 352
#     4   9  19  34  60  85 114 147 188 245 287 336
#     4  10  20  34  55  83 114 145 199 237 284 341
#     4   9  19  36  58  84 116 152 188 237 288 340
#     4  10  19  32  57  85 109 141 183 239 293 344
#     4  11  24  36  55  82 120 162 197 238 291 337
#     4   9  19  35  55  84 116 145 187 234 289 348
#
# _framework density 19.853152999999999
#
# number of rings (size 3 to 8) (size 9 to 14) (size 15 to 20)
#    0.000    2.286    1.429    0.429    6.000    3.429 
#    0.000    0.000    0.000    2.143    0.000    0.000 
#    0.000    0.000    0.000    0.000    0.000    0.000 
#
# Total GULP energy -155949.978832 kJ/mol
# GULP energy per Si atom -5569.642101 kJ/mol
# Density = 1.980797 g / cm^3
# Si number density = 19.853153 Si / 1000 Ang^3
#
#
#
# Elastic Constant Matrix: (Units=GPa)
#
#
# Indices 1 2 3 4 5 6 
#
# 1 94.3815 39.0174 19.4421 0.0000 -9.2883 0.0000
# 2 39.0174 129.7862 29.1765 0.0000 -2.4242 0.0000
# 3 19.4421 29.1765 44.6331 0.0000 -2.4993 0.0000
# 4 0.0000 0.0000 0.0000 20.1836 0.0000 -8.2821
# 5 -9.2883 -2.4242 -2.4993 0.0000 34.3891 0.0000
# 6 0.0000 0.0000 0.0000 -8.2821 0.0000 -5.1216
#
#
#
# Elastic Compliance Matrix: (Units=1/GPa)
#
#
# Indices 1 2 3 4 5 6 
#
# 1 0.012856 -0.003033 -0.003449 0.000000 0.003008 0.000000
# 2 -0.003033 0.009750 -0.005080 0.000000 -0.000501 0.000000
# 3 -0.003449 -0.005080 0.027267 0.000000 0.000692 0.000000
# 4 0.000000 0.000000 0.000000 0.029783 0.000000 -0.048161
# 5 0.003008 -0.000501 0.000692 0.000000 0.029906 0.000000
# 6 0.000000 0.000000 0.000000 -0.048161 0.000000 -0.117370
#
#
# Mechanical properties :
#
#
# Convention : Reuss Voigt Hill
#
# Bulk Modulus (GPa) = 37.38598 49.34140 43.36369
# Shear Modulus (GPa) = 206.34833 21.96787 114.15810
#
# Velocity S-wave (km/s) = 10.20603 3.33005 7.59118
# Velocity P-wave (km/s) = 12.56010 6.30022 9.93602
#
# Compressibility (1/GPa) = 0.02674799
#
# Stress axis : x y z
#
# Youngs Moduli (GPa) = 77.78663 102.56914 36.67490
#
# Poissons Ratio (x) = 0.31113 0.12648
# Poissons Ratio (y) = 0.23595 0.18631
# Poissons Ratio (z) = 0.26825 0.52105
#
# Static dielectric constant tensor:
#      x y z
#    x 1.711720 0.000000 0.035900 
#    y 0.000000 1.767370 0.000000 
#    z 0.035900 0.000000 1.849910 
# 
# From -- ./inp_files/75905.got.cif
#   From: 2010.05.17/outbox.cif.g08.bks.cpg/sg12_38_cif.got.tgz:75905.got - 2010.06.03 13:09:07.
