data_PCOD9182100
_publ_section_title
;
Structure prediction by ZEFSAII (Michael W. Deem and Ramdas Pophale) SiO2 
 PCOD9182100
Probable space group: C 2/M
;
_chemical_formula_sum "Si O2"
_cell_formula_units_Z 44
_cell_length_a 20.538250
_cell_length_b 8.453746
_cell_length_c 13.222756
_cell_angle_alpha 90.000000
_cell_angle_beta 102.622816
_cell_angle_gamma 90.000000
_cell_volume 2240.312999
_symmetry_space_group_name_H-M "C 2/M"
_symmetry_group_IT_number 12
_symmetry_cell_setting 'monoclinic'
loop_
_space_group_symop_operation_xyz
x,y,z
-x,y,-z
-x,-y,-z
x,-y,z
1/2+x,1/2+y,z
1/2-x,1/2+y,-z
1/2-x,1/2-y,-z
1/2+x,1/2-y,z
loop_
_atom_site_type_symbol
_atom_site_label
_atom_site_fract_x
_atom_site_fract_y
_atom_site_fract_z
Si Si1 0.559657 0.313810 0.217427
Si Si2 0.338172 0.188210 0.242325
Si Si3 0.695723 0.184947 0.199789
Si Si4 0.000000 0.236787 0.000000
Si Si5 0.019767 0.309077 0.620324
Si Si6 0.147822 0.177738 0.976797
O O1 0.546504 0.500000 0.188589
O O2 0.638313 0.281527 0.238182
O O3 0.527408 0.270931 0.312650
O O4 0.526362 0.203191 0.118357
O O5 0.270240 0.269026 0.255480
O O6 0.404033 0.233588 0.326907
O O7 0.349586 0.238276 0.129846
O O8 0.329880 0.000000 0.244587
O O9 0.683998 0.000000 0.209326
O O10 0.686293 0.230607 0.078243
O O11 0.929233 0.166793 0.013244
O O12 0.013658 0.500000 0.627972
O O13 0.000000 0.265157 0.500000
O O14 0.174846 0.000000 0.977131
#
# Coordination Sequence:
#
# PCOD9182100 Si02
#       6
#     8   8   8   4   8   8
#     4  11  21  38  62  91 124 158 200 248 302 359
#     4  11  22  38  59  86 118 158 202 246 299 357
#     4  11  23  38  57  86 123 161 199 243 299 360
#     4  10  19  32  55  88 123 156 189 240 297 352
#     4  10  23  43  65  90 121 157 202 255 303 353
#     4  11  20  34  55  85 123 161 199 241 296 357
#
# _framework density 19.640111999999998
#
# number of rings (size 3 to 8) (size 9 to 14) (size 15 to 20)
#    0.000    1.273    1.818    6.545    0.000    1.091 
#    0.000    3.636    0.000    0.000    0.000    0.000 
#    0.000    0.000    0.000    0.000    0.000    0.000 
#
# Total GULP energy -122743.756897 kJ/mol
# GULP energy per Si atom -5579.261677 kJ/mol
# Density = 1.959541 g / cm^3
# Si number density = 19.640112 Si / 1000 Ang^3
#
#
#
# Elastic Constant Matrix: (Units=GPa)
#
#
# Indices 1 2 3 4 5 6 
#
# 1 127.1790 24.4770 72.5216 0.0000 12.0848 0.0000
# 2 24.4770 55.0108 25.6289 0.0000 6.0349 0.0000
# 3 72.5216 25.6289 115.9689 0.0000 -0.5272 0.0000
# 4 0.0000 0.0000 0.0000 18.8877 0.0000 -2.4644
# 5 12.0848 6.0349 -0.5272 0.0000 15.8599 0.0000
# 6 0.0000 0.0000 0.0000 -2.4644 0.0000 16.9408
#
#
#
# Elastic Compliance Matrix: (Units=1/GPa)
#
#
# Indices 1 2 3 4 5 6 
#
# 1 0.013922 -0.001077 -0.008516 0.000000 -0.010481 0.000000
# 2 -0.001077 0.021378 -0.004085 0.000000 -0.007449 0.000000
# 3 -0.008516 -0.004085 0.014890 0.000000 0.008538 0.000000
# 4 0.000000 0.000000 0.000000 0.053969 0.000000 0.007851
# 5 -0.010481 -0.007449 0.008538 0.000000 0.074157 0.000000
# 6 0.000000 0.000000 0.000000 0.007851 0.000000 0.060171
#
#
# Mechanical properties :
#
#
# Convention : Reuss Voigt Hill
#
# Bulk Modulus (GPa) = 43.79372 60.37930 52.08651
# Shear Modulus (GPa) = 18.28458 22.03976 20.16217
#
# Velocity S-wave (km/s) = 3.05451 3.35353 3.20751
# Velocity P-wave (km/s) = 5.89801 6.76790 6.34787
#
# Compressibility (1/GPa) = 0.02283432
#
# Stress axis : x y z
#
# Youngs Moduli (GPa) = 71.82725 46.77750 67.15945
#
# Poissons Ratio (x) = 0.05040 0.57192
# Poissons Ratio (y) = 0.07739 0.27432
# Poissons Ratio (z) = 0.61167 0.19107
#
# Static dielectric constant tensor:
#      x y z
#    x 1.702410 0.000000 0.011630 
#    y 0.000000 1.692940 0.000000 
#    z 0.011630 0.000000 1.664420 
# 
# From -- ./inp_files/163228.got.cif
#   From: 2010.05.17/outbox.cif.g08.bks.cpg/sg12_82_cif.got.tgz:163228.got - 2010.06.03 13:09:07.
