data_PCOD9182952
_publ_section_title
;
Structure prediction by ZEFSAII (Michael W. Deem and Ramdas Pophale) SiO2 
 PCOD9182952
Probable space group: C 2/M
;
_chemical_formula_sum "Si O2"
_cell_formula_units_Z 56
_cell_length_a 30.920537
_cell_length_b 8.690663
_cell_length_c 17.248020
_cell_angle_alpha 90.000000
_cell_angle_beta 134.236883
_cell_angle_gamma 90.000000
_cell_volume 3320.719155
_symmetry_space_group_name_H-M "C 2/M"
_symmetry_group_IT_number 12
_symmetry_cell_setting 'monoclinic'
loop_
_space_group_symop_operation_xyz
x,y,z
-x,y,-z
-x,-y,-z
x,-y,z
1/2+x,1/2+y,z
1/2-x,1/2+y,-z
1/2-x,1/2-y,-z
1/2+x,1/2-y,z
loop_
_atom_site_type_symbol
_atom_site_label
_atom_site_fract_x
_atom_site_fract_y
_atom_site_fract_z
Si Si1 0.131786 0.184923 0.370845
Si Si2 0.529005 0.684828 0.650482
Si Si3 0.910781 0.684236 0.418509
Si Si4 0.943932 0.685360 0.983516
Si Si5 0.673729 0.184649 0.259950
Si Si6 0.990440 0.814865 0.199583
Si Si7 0.303275 0.184230 0.395529
O O1 0.162136 0.242797 0.329838
O O2 0.164609 0.256961 0.485983
O O3 0.061072 0.230676 0.281847
O O4 0.135340 0.000000 0.380114
O O5 0.529727 0.500000 0.646628
O O6 0.578773 0.753331 0.654868
O O7 0.464769 0.743602 0.537238
O O8 0.533684 0.731701 0.745963
O O9 0.917768 0.500000 0.427635
O O10 0.847640 0.723870 0.379831
O O11 0.945452 0.500000 0.987750
O O12 0.881523 0.731974 0.864913
O O13 0.954176 0.747382 0.082285
O O14 0.000000 0.737743 0.000000
O O15 0.737810 0.240319 0.308558
O O16 0.673127 0.000000 0.266501
O O17 0.988544 0.000000 0.193189
O O18 0.297440 0.000000 0.391837
#
# Coordination Sequence:
#
# PCOD9182952 Si02
#       7
#     8   8   8   8   8   8   8
#     4  11  21  35  54  79 111 145 180 216 263 319
#     4  10  19  33  53  80 110 139 174 216 266 318
#     4  10  20  33  52  79 108 140 177 216 265 318
#     4  10  21  37  56  78 105 139 180 224 267 312
#     4  11  23  38  55  77 107 144 184 222 266 318
#     4  10  21  34  54  82 110 141 176 217 266 315
#     4  11  23  37  54  78 110 146 181 220 266 318
#
# _framework density 16.863817999999998
#
# number of rings (size 3 to 8) (size 9 to 14) (size 15 to 20)
#    0.000    1.571    2.857    3.429    0.000    4.857 
#    0.000    0.000    0.000    0.857    0.000    0.000 
#    0.000    0.000    0.000    0.000    0.000    0.000 
#
# Total GULP energy -156395.516179 kJ/mol
# GULP energy per Si atom -5585.554149 kJ/mol
# Density = 1.682543 g / cm^3
# Si number density = 16.863818 Si / 1000 Ang^3
#
#
#
# Elastic Constant Matrix: (Units=GPa)
#
#
# Indices 1 2 3 4 5 6 
#
# 1 148.4199 29.5354 67.1851 0.0000 -7.7996 0.0000
# 2 29.5354 30.8774 19.2876 0.0000 0.7773 0.0000
# 3 67.1851 19.2876 78.7781 0.0000 4.4013 0.0000
# 4 0.0000 0.0000 0.0000 28.0986 0.0000 -2.3130
# 5 -7.7996 0.7773 4.4013 0.0000 28.4683 0.0000
# 6 0.0000 0.0000 0.0000 -2.3130 0.0000 28.6321
#
#
#
# Elastic Compliance Matrix: (Units=1/GPa)
#
#
# Indices 1 2 3 4 5 6 
#
# 1 0.012505 -0.006199 -0.009430 0.000000 0.005053 0.000000
# 2 -0.006199 0.041311 -0.004711 0.000000 -0.002098 0.000000
# 3 -0.009430 -0.004711 0.022218 0.000000 -0.005890 0.000000
# 4 0.000000 0.000000 0.000000 0.035827 0.000000 0.002894
# 5 0.005053 -0.002098 -0.005890 0.000000 0.037479 0.000000
# 6 0.000000 0.000000 0.000000 0.002894 0.000000 0.035160
#
#
# Mechanical properties :
#
#
# Convention : Reuss Voigt Hill
#
# Bulk Modulus (GPa) = 28.28346 54.45462 41.36904
# Shear Modulus (GPa) = 21.10032 26.51096 23.80564
#
# Velocity S-wave (km/s) = 3.54109 3.96922 3.76126
# Velocity P-wave (km/s) = 5.79027 7.30529 6.59145
#
# Compressibility (1/GPa) = 0.03535635
#
# Stress axis : x y z
#
# Youngs Moduli (GPa) = 79.96662 24.20683 45.00819
#
# Poissons Ratio (x) = 0.15005 0.42441
# Poissons Ratio (y) = 0.49569 0.21201
# Poissons Ratio (z) = 0.75405 0.11403
#
# Static dielectric constant tensor:
#      x y z
#    x 1.572670 0.000000 0.003300 
#    y 0.000000 1.568410 0.000000 
#    z 0.003300 0.000000 1.538520 
# 
# From -- ./inp_files/295183.got.cif
#   From: 2010.05.17/outbox.cif.g08.bks.cpg/sg12_148_cif.got.tgz:295183.got - 2010.06.03 13:09:07.
