data_PCOD9182724
_publ_section_title
;
Structure prediction by ZEFSAII (Michael W. Deem and Ramdas Pophale) SiO2 
 PCOD9182724
Probable space group: C 2/M
;
_chemical_formula_sum "Si O2"
_cell_formula_units_Z 56
_cell_length_a 19.778260
_cell_length_b 8.673683
_cell_length_c 22.345328
_cell_angle_alpha 90.000000
_cell_angle_beta 123.689983
_cell_angle_gamma 90.000000
_cell_volume 3189.542307
_symmetry_space_group_name_H-M "C 2/M"
_symmetry_group_IT_number 12
_symmetry_cell_setting 'monoclinic'
loop_
_space_group_symop_operation_xyz
x,y,z
-x,y,-z
-x,-y,-z
x,-y,z
1/2+x,1/2+y,z
1/2-x,1/2+y,-z
1/2-x,1/2-y,-z
1/2+x,1/2-y,z
loop_
_atom_site_type_symbol
_atom_site_label
_atom_site_fract_x
_atom_site_fract_y
_atom_site_fract_z
Si Si1 0.950359 0.816221 0.193108
Si Si2 0.746220 0.185183 0.430586
Si Si3 0.485435 0.318620 0.903791
Si Si4 0.723422 0.817419 0.922650
Si Si5 0.924419 0.186138 0.645570
Si Si6 0.573617 0.687540 0.493083
Si Si7 0.876119 0.318858 0.946214
O O1 0.867197 0.728796 0.139514
O O2 0.006377 0.791881 0.162336
O O3 0.999128 0.769718 0.276149
O O4 0.933002 0.000000 0.187538
O O5 0.750000 0.250000 0.500000
O O6 0.659136 0.248746 0.367133
O O7 0.833032 0.230894 0.443658
O O8 0.743581 0.000000 0.430370
O O9 0.472084 0.500000 0.908246
O O10 0.416914 0.221024 0.903219
O O11 0.569159 0.268984 0.977449
O O12 0.785786 0.743161 0.906618
O O13 0.732508 0.000000 0.929179
O O14 0.750000 0.750000 0.000000
O O15 0.935412 0.234216 0.581375
O O16 0.917968 0.000000 0.642660
O O17 0.500000 0.741330 0.500000
O O18 0.570962 0.500000 0.492680
O O19 0.880096 0.500000 0.960365
#
# Coordination Sequence:
#
# PCOD9182724 Si02
#       7
#     8   8   8   8   8   8   8
#     4  10  21  36  54  76 106 142 179 222 275 328
#     4   9  16  28  49  74 100 132 172 214 253 303
#     4  10  19  33  53  74 100 134 173 218 272 324
#     4  12  23  36  55  78 105 138 180 225 272 327
#     4   9  18  33  52  75 105 140 174 213 262 316
#     4   8  14  27  50  78 105 135 173 212 252 298
#     4  11  21  34  53  76 102 129 171 223 270 320
#
# _framework density 17.557379000000001
#
# number of rings (size 3 to 8) (size 9 to 14) (size 15 to 20)
#    0.000    2.143    1.429    5.143    0.000    1.143 
#    0.000    1.429    0.000   12.429    0.000    0.000 
#    0.000    0.000    0.000    0.000    0.000    0.000 
#
# Total GULP energy -156081.738837 kJ/mol
# GULP energy per Si atom -5574.347816 kJ/mol
# Density = 1.751742 g / cm^3
# Si number density = 17.557379 Si / 1000 Ang^3
#
#
#
# Elastic Constant Matrix: (Units=GPa)
#
#
# Indices 1 2 3 4 5 6 
#
# 1 106.2685 12.9215 37.3097 0.0000 15.3682 0.0000
# 2 12.9215 32.5958 19.0982 0.0000 2.3970 0.0000
# 3 37.3097 19.0982 77.8809 0.0000 11.2117 0.0000
# 4 0.0000 0.0000 0.0000 18.5649 0.0000 8.6732
# 5 15.3682 2.3970 11.2117 0.0000 21.5071 0.0000
# 6 0.0000 0.0000 0.0000 8.6732 0.0000 25.7919
#
#
#
# Elastic Compliance Matrix: (Units=1/GPa)
#
#
# Indices 1 2 3 4 5 6 
#
# 1 0.012076 -0.001709 -0.004488 0.000000 -0.006099 0.000000
# 2 -0.001709 0.036076 -0.008244 0.000000 0.001498 0.000000
# 3 -0.004488 -0.008244 0.017750 0.000000 -0.005127 0.000000
# 4 0.000000 0.000000 0.000000 0.063905 0.000000 -0.021490
# 5 -0.006099 0.001498 -0.005127 0.000000 0.053360 0.000000
# 6 0.000000 0.000000 0.000000 -0.021490 0.000000 0.045998
#
#
# Mechanical properties :
#
#
# Convention : Reuss Voigt Hill
#
# Bulk Modulus (GPa) = 27.01206 39.48932 33.25069
# Shear Modulus (GPa) = 18.49211 23.00051 20.74631
#
# Velocity S-wave (km/s) = 3.24888 3.62335 3.44121
# Velocity P-wave (km/s) = 5.43066 6.32813 5.89650
#
# Compressibility (1/GPa) = 0.03702050
#
# Stress axis : x y z
#
# Youngs Moduli (GPa) = 82.81196 27.71915 56.33882
#
# Poissons Ratio (x) = 0.04737 0.25284
# Poissons Ratio (y) = 0.14152 0.46444
# Poissons Ratio (z) = 0.37165 0.22851
#
# Static dielectric constant tensor:
#      x y z
#    x 1.616380 0.000000 0.012130 
#    y 0.000000 1.591510 0.000000 
#    z 0.012130 0.000000 1.616650 
# 
# From -- ./inp_files/342584.got.cif
#   From: 2010.05.17/outbox.cif.g08.bks.cpg/sg12_172_cif.got.tgz:342584.got - 2010.06.03 13:09:07.
