data_PCOD9182420
_publ_section_title
;
Structure prediction by ZEFSAII (Michael W. Deem and Ramdas Pophale) SiO2 
 PCOD9182420
Probable space group: C 2/M
;
_chemical_formula_sum "Si O2"
_cell_formula_units_Z 64
_cell_length_a 31.077987
_cell_length_b 13.534813
_cell_length_c 10.132820
_cell_angle_alpha 90.000000
_cell_angle_beta 86.961239
_cell_angle_gamma 90.000000
_cell_volume 4256.223032
_symmetry_space_group_name_H-M "C 2/M"
_symmetry_group_IT_number 12
_symmetry_cell_setting 'monoclinic'
loop_
_space_group_symop_operation_xyz
x,y,z
-x,y,-z
-x,-y,-z
x,-y,z
1/2+x,1/2+y,z
1/2-x,1/2+y,-z
1/2-x,1/2-y,-z
1/2+x,1/2-y,z
loop_
_atom_site_type_symbol
_atom_site_label
_atom_site_fract_x
_atom_site_fract_y
_atom_site_fract_z
Si Si1 0.362345 0.880759 0.974470
Si Si2 0.782845 0.113614 0.324623
Si Si3 0.734061 0.614344 0.359584
Si Si4 0.536274 0.120154 0.392329
Si Si5 0.328089 0.809853 0.260960
Si Si6 0.692784 0.806449 0.262337
Si Si7 0.871338 0.381459 0.505574
Si Si8 0.538000 0.879909 0.090992
O O1 0.342381 0.846782 0.116026
O O2 0.359290 0.000000 0.961141
O O3 0.335503 0.831172 0.860477
O O4 0.413097 0.853887 0.957528
O O5 0.773323 0.131337 0.482408
O O6 0.817139 0.193819 0.270385
O O7 0.738163 0.135658 0.256280
O O8 0.795563 0.000000 0.306090
O O9 0.724542 0.500000 0.333346
O O10 0.783629 0.637340 0.314608
O O11 0.705266 0.692246 0.283743
O O12 0.500000 0.154387 0.500000
O O13 0.583222 0.147479 0.438305
O O14 0.530104 0.152904 0.242848
O O15 0.534881 0.000000 0.390715
O O16 0.363842 0.838406 0.362310
O O17 0.666101 0.843338 0.392947
O O18 0.869266 0.500000 0.499408
O O19 0.536689 0.000000 0.090571
O O20 0.500000 0.845639 0.000000
#
# Coordination Sequence:
#
# PCOD9182420 Si02
#       8
#     8   8   8   8   8   8   8   8
#     4  11  22  33  47  70 103 134 162 198 238 287
#     4  10  19  33  52  71  96 127 163 209 252 280
#     4  10  19  33  51  72  98 125 162 212 250 277
#     4   9  18  29  44  68  94 125 162 196 232 281
#     4  11  21  33  47  74  96 129 170 202 237 285
#     4  11  19  33  50  71  94 132 169 197 238 290
#     4  11  18  29  49  69  96 129 167 201 230 281
#     4   9  18  31  44  63  96 132 157 187 240 291
#
# _framework density 15.036806
#
# number of rings (size 3 to 8) (size 9 to 14) (size 15 to 20)
#    0.000    1.750    3.750    3.000    1.750    2.000 
#    0.000    1.875    0.000    0.000    0.000    0.000 
#    0.000    6.000    0.000    0.000    0.000    0.000 
#
# Total GULP energy -178490.400967 kJ/mol
# GULP energy per Si atom -5577.825030 kJ/mol
# Density = 1.500258 g / cm^3
# Si number density = 15.036806 Si / 1000 Ang^3
#
#
#
# Elastic Constant Matrix: (Units=GPa)
#
#
# Indices 1 2 3 4 5 6 
#
# 1 83.5161 37.4332 52.9587 0.0000 15.6223 0.0000
# 2 37.4332 71.2165 26.4690 0.0000 15.2839 0.0000
# 3 52.9587 26.4690 102.0922 0.0000 22.0997 0.0000
# 4 0.0000 0.0000 0.0000 16.2194 0.0000 3.1813
# 5 15.6223 15.2839 22.0997 0.0000 24.5238 0.0000
# 6 0.0000 0.0000 0.0000 3.1813 0.0000 13.1629
#
#
#
# Elastic Compliance Matrix: (Units=1/GPa)
#
#
# Indices 1 2 3 4 5 6 
#
# 1 0.021145 -0.007679 -0.008818 0.000000 -0.000738 0.000000
# 2 -0.007679 0.019530 0.000616 0.000000 -0.007835 0.000000
# 3 -0.008818 0.000616 0.016246 0.000000 -0.009406 0.000000
# 4 0.000000 0.000000 0.000000 0.064723 0.000000 -0.015643
# 5 -0.000738 -0.007835 -0.009406 0.000000 0.054606 0.000000
# 6 0.000000 0.000000 0.000000 -0.015643 0.000000 0.079752
#
#
# Mechanical properties :
#
#
# Convention : Reuss Voigt Hill
#
# Bulk Modulus (GPa) = 39.74679 54.50521 47.12600
# Shear Modulus (GPa) = 16.88324 20.11214 18.49769
#
# Velocity S-wave (km/s) = 3.35445 3.66119 3.51117
# Velocity P-wave (km/s) = 6.44154 7.36199 6.91710
#
# Compressibility (1/GPa) = 0.02515926
#
# Stress axis : x y z
#
# Youngs Moduli (GPa) = 47.29202 51.20201 61.55390
#
# Poissons Ratio (x) = 0.39316 0.54279
# Poissons Ratio (y) = 0.36314 -0.03790
# Poissons Ratio (z) = 0.41703 -0.03152
#
# Static dielectric constant tensor:
#      x y z
#    x 1.495610 0.000000 0.003110 
#    y 0.000000 1.486930 0.000000 
#    z 0.003110 0.000000 1.504340 
# 
# From -- ./inp_files/111220.got.cif
#   From: 2010.05.17/outbox.cif.g08.bks.cpg/sg12_56_cif.got.tgz:111220.got - 2010.06.03 13:09:07.
