data_PCOD9182619
_publ_section_title
;
Structure prediction by ZEFSAII (Michael W. Deem and Ramdas Pophale) SiO2 
 PCOD9182619
Probable space group: C 2/M
;
_chemical_formula_sum "Si O2"
_cell_formula_units_Z 64
_cell_length_a 21.061368
_cell_length_b 7.648280
_cell_length_c 20.769246
_cell_angle_alpha 90.000000
_cell_angle_beta 67.577191
_cell_angle_gamma 90.000000
_cell_volume 3092.632571
_symmetry_space_group_name_H-M "C 2/M"
_symmetry_group_IT_number 12
_symmetry_cell_setting 'monoclinic'
loop_
_space_group_symop_operation_xyz
x,y,z
-x,y,-z
-x,-y,-z
x,-y,z
1/2+x,1/2+y,z
1/2-x,1/2+y,-z
1/2-x,1/2-y,-z
1/2+x,1/2-y,z
loop_
_atom_site_type_symbol
_atom_site_label
_atom_site_fract_x
_atom_site_fract_y
_atom_site_fract_z
Si Si1 0.197793 0.298089 0.281877
Si Si2 0.575528 0.703294 0.953705
Si Si3 0.643777 0.207481 0.575188
Si Si4 0.330361 0.208792 0.962657
Si Si5 0.148777 0.701561 0.795643
Si Si6 0.047650 0.285749 0.722093
Si Si7 0.108993 0.714565 0.197351
Si Si8 0.709419 0.212721 0.420529
O O1 0.175748 0.500000 0.296063
O O2 0.277928 0.293984 0.232118
O O3 0.153468 0.222144 0.240849
O O4 0.191666 0.222375 0.356124
O O5 0.566595 0.500000 0.939830
O O6 0.610954 0.789713 0.878555
O O7 0.500000 0.775225 0.000000
O O8 0.625213 0.717111 0.995817
O O9 0.580690 0.274847 0.642002
O O10 0.660241 0.275980 0.497389
O O11 0.713367 0.235358 0.589382
O O12 0.633511 0.000000 0.572272
O O13 0.359073 0.271688 0.882838
O O14 0.338653 0.000000 0.961997
O O15 0.250000 0.250000 0.000000
O O16 0.163900 0.500000 0.773997
O O17 0.097895 0.770777 0.760281
O O18 0.047725 0.500000 0.722256
O O19 0.969883 0.231445 0.764428
O O20 0.111164 0.500000 0.195884
O O21 0.708440 0.000000 0.420337
#
# Coordination Sequence:
#
# PCOD9182619 Si02
#       8
#     8   8   8   8   8   8   8   8
#     4  10  19  33  52  77 108 139 173 215 266 319
#     4  11  24  40  57  80 111 143 177 227 286 336
#     4   9  16  29  49  74 104 137 174 216 257 307
#     4  11  22  38  60  82 108 145 189 231 278 334
#     4  11  21  34  56  81 103 134 179 225 268 319
#     4   9  17  31  51  76 104 136 176 217 261 312
#     4   9  19  34  52  74 104 139 171 214 267 317
#     4   9  17  28  47  76 107 137 171 213 262 311
#
# _framework density 20.694344000000001
#
# number of rings (size 3 to 8) (size 9 to 14) (size 15 to 20)
#    0.000    2.125    1.250    2.625    0.000    3.000 
#    0.000    1.250    0.000    6.750    0.000    0.000 
#    0.000    5.000    0.000    0.000    0.000    0.000 
#
# Total GULP energy -178718.126269 kJ/mol
# GULP energy per Si atom -5584.941446 kJ/mol
# Density = 2.064724 g / cm^3
# Si number density = 20.694344 Si / 1000 Ang^3
#
#
#
# Elastic Constant Matrix: (Units=GPa)
#
#
# Indices 1 2 3 4 5 6 
#
# 1 110.2921 -14.2455 65.5831 -0.0004 -10.8530 -0.0009
# 2 -14.2455 40.5577 -8.6157 -0.0008 0.2330 -0.0013
# 3 65.5831 -8.6157 182.5180 -0.0001 -8.8885 -0.0005
# 4 -0.0004 -0.0008 -0.0001 -6.8463 0.0000 6.8313
# 5 -10.8530 0.2330 -8.8885 0.0000 29.6810 -0.0001
# 6 -0.0009 -0.0013 -0.0005 6.8313 -0.0001 12.0306
#
#
#
# Elastic Compliance Matrix: (Units=1/GPa)
#
#
# Indices 1 2 3 4 5 6 
#
# 1 0.012255 0.003418 -0.004085 0.000000 0.003231 0.000001
# 2 0.003418 0.025860 0.000044 0.000000 0.001060 0.000003
# 3 -0.004085 0.000044 0.006978 0.000000 0.000596 0.000000
# 4 0.000000 0.000000 0.000000 -0.093238 0.000000 0.052943
# 5 0.003231 0.001060 0.000596 0.000000 0.035043 0.000001
# 6 0.000001 0.000003 0.000000 0.052943 0.000001 0.053059
#
#
# Mechanical properties :
#
#
# Convention : Reuss Voigt Hill
#
# Bulk Modulus (GPa) = 22.80606 46.53462 34.67034
# Shear Modulus (GPa) = 89.57552 26.34947 57.96250
#
# Velocity S-wave (km/s) = 6.58627 3.57216 5.29808
# Velocity P-wave (km/s) = 8.29958 6.28882 7.36316
#
# Compressibility (1/GPa) = 0.04384800
#
# Stress axis : x y z
#
# Youngs Moduli (GPa) = 81.59744 38.66962 143.31152
#
# Poissons Ratio (x) = -0.13218 0.58541
# Poissons Ratio (y) = -0.27892 -0.00632
# Poissons Ratio (z) = 0.33332 -0.00171
#
# Static dielectric constant tensor:
#      x y z
#    x 1.683030 -0.000020 0.027020 
#    y -0.000020 1.673640 0.000050 
#    z 0.027020 0.000050 1.703980 
# 
# From -- ./inp_files/319948.got.cif
#   From: 2010.05.17/outbox.cif.g08.bks.cpg/sg12_160_cif.got.tgz:319948.got - 2010.06.03 13:09:07.
