data_PCOD9182762
_publ_section_title
;
Structure prediction by ZEFSAII (Michael W. Deem and Ramdas Pophale) SiO2 
 PCOD9182762
Probable space group: C 2/M
;
_chemical_formula_sum "Si O2"
_cell_formula_units_Z 64
_cell_length_a 14.861673
_cell_length_b 7.764787
_cell_length_c 27.878977
_cell_angle_alpha 90.000000
_cell_angle_beta 111.875519
_cell_angle_gamma 90.000000
_cell_volume 2985.519894
_symmetry_space_group_name_H-M "C 2/M"
_symmetry_group_IT_number 12
_symmetry_cell_setting 'monoclinic'
loop_
_space_group_symop_operation_xyz
x,y,z
-x,y,-z
-x,-y,-z
x,-y,z
1/2+x,1/2+y,z
1/2-x,1/2+y,-z
1/2-x,1/2-y,-z
1/2+x,1/2-y,z
loop_
_atom_site_type_symbol
_atom_site_label
_atom_site_fract_x
_atom_site_fract_y
_atom_site_fract_z
Si Si1 0.755810 0.706945 0.625965
Si Si2 0.487853 0.211044 0.141791
Si Si3 0.384896 0.206561 0.325432
Si Si4 0.806855 0.298032 0.860200
Si Si5 0.781054 0.705347 0.059692
Si Si6 0.108451 0.794907 0.515993
Si Si7 0.420779 0.207593 0.593967
Si Si8 0.899229 0.700708 0.221643
O O1 0.755261 0.500000 0.624192
O O2 0.717275 0.756261 0.670198
O O3 0.681781 0.774389 0.570262
O O4 0.860897 0.762288 0.628882
O O5 0.589869 0.266882 0.139179
O O6 0.391271 0.264081 0.093325
O O7 0.466571 0.270807 0.192174
O O8 0.488718 0.000000 0.141947
O O9 0.469710 0.271783 0.377749
O O10 0.401105 0.276634 0.275333
O O11 0.393569 0.000000 0.324862
O O12 0.800607 0.500000 0.847010
O O13 0.791344 0.278043 0.914200
O O14 0.711961 0.210981 0.818446
O O15 0.779938 0.500000 0.065246
O O16 0.750000 0.750000 0.000000
O O17 0.131361 0.766104 0.464811
O O18 0.000000 0.721917 0.500000
O O19 0.104478 0.000000 0.522830
O O20 0.421885 0.000000 0.592057
O O21 0.926421 0.500000 0.231450
#
# Coordination Sequence:
#
# PCOD9182762 Si02
#       8
#     8   8   8   8   8   8   8   8
#     4  10  21  36  53  75 103 133 168 209 258 312
#     4   8  17  34  56  77 104 143 180 213 259 312
#     4  10  21  36  54  76 103 134 171 214 261 310
#     4  10  19  34  57  83 105 138 185 223 259 310
#     4  10  20  36  55  80 115 151 181 218 262 306
#     4  10  19  33  53  75 102 135 164 204 262 313
#     4  10  21  35  53  77 101 132 173 212 249 308
#     4   9  19  37  55  74 104 139 172 215 268 315
#
# _framework density 21.436803000000001
#
# number of rings (size 3 to 8) (size 9 to 14) (size 15 to 20)
#    0.000    2.375    1.250    1.875    0.000    3.250 
#    0.000   11.250    0.000    0.000    0.000    0.000 
#    0.000    0.000    0.000    0.000    0.000    0.000 
#
# Total GULP energy -178540.434373 kJ/mol
# GULP energy per Si atom -5579.388574 kJ/mol
# Density = 2.138801 g / cm^3
# Si number density = 21.436803 Si / 1000 Ang^3
#
#
#
# Elastic Constant Matrix: (Units=GPa)
#
#
# Indices 1 2 3 4 5 6 
#
# 1 118.7617 -5.3816 21.3088 0.0000 -33.3434 0.0000
# 2 -5.3816 29.1466 -14.3706 0.0000 1.0025 0.0000
# 3 21.3088 -14.3706 88.8476 0.0000 -26.0051 0.0000
# 4 0.0000 0.0000 0.0000 19.7308 0.0000 -5.6781
# 5 -33.3434 1.0025 -26.0051 0.0000 22.3070 0.0000
# 6 0.0000 0.0000 0.0000 -5.6781 0.0000 18.3944
#
#
#
# Elastic Compliance Matrix: (Units=1/GPa)
#
#
# Indices 1 2 3 4 5 6 
#
# 1 0.016314 0.004899 0.006000 0.000000 0.031160 0.000000
# 2 0.004899 0.039750 0.010436 0.000000 0.017702 0.000000
# 3 0.006000 0.010436 0.021239 0.000000 0.033259 0.000000
# 4 0.000000 0.000000 0.000000 0.055623 0.000000 0.017170
# 5 0.031160 0.017702 0.033259 0.000000 0.129383 0.000000
# 6 0.000000 0.000000 0.000000 0.017170 0.000000 0.059664
#
#
# Mechanical properties :
#
#
# Convention : Reuss Voigt Hill
#
# Bulk Modulus (GPa) = 8.33529 26.65211 17.49370
# Shear Modulus (GPa) = 15.65948 27.76641 21.71294
#
# Velocity S-wave (km/s) = 2.70570 3.60289 3.18603
# Velocity P-wave (km/s) = 3.69565 5.45597 4.65969
#
# Compressibility (1/GPa) = 0.11997188
#
# Stress axis : x y z
#
# Youngs Moduli (GPa) = 61.29680 25.15708 47.08341
#
# Poissons Ratio (x) = -0.12324 -0.28250
# Poissons Ratio (y) = -0.30028 -0.49135
# Poissons Ratio (z) = -0.36778 -0.26253
#
# Static dielectric constant tensor:
#      x y z
#    x 1.794450 0.000000 -0.017240 
#    y 0.000000 1.798420 0.000000 
#    z -0.017240 0.000000 1.782630 
# 
# From -- ./inp_files/359882.got.cif
#   From: 2010.05.17/outbox.cif.g08.bks.cpg/sg12_180_cif.got.tgz:359882.got - 2010.06.03 13:09:07.
