data_PCOD9182464
_publ_section_title
;
Structure prediction by ZEFSAII (Michael W. Deem and Ramdas Pophale) SiO2 
 PCOD9182464
Probable space group: C 2/M
;
_chemical_formula_sum "Si O2"
_cell_formula_units_Z 40
_cell_length_a 16.211147
_cell_length_b 25.187607
_cell_length_c 7.175110
_cell_angle_alpha 90.000000
_cell_angle_beta 141.567633
_cell_angle_gamma 90.000000
_cell_volume 1821.098820
_symmetry_space_group_name_H-M "C 2/M"
_symmetry_group_IT_number 12
_symmetry_cell_setting 'monoclinic'
loop_
_space_group_symop_operation_xyz
x,y,z
-x,y,-z
-x,-y,-z
x,-y,z
1/2+x,1/2+y,z
1/2-x,1/2+y,-z
1/2-x,1/2-y,-z
1/2+x,1/2-y,z
loop_
_atom_site_type_symbol
_atom_site_label
_atom_site_fract_x
_atom_site_fract_y
_atom_site_fract_z
Si Si1 0.572683 0.215621 0.934415
Si Si2 0.821022 0.860894 0.378808
Si Si3 0.116032 0.437528 0.926845
Si Si4 0.618423 0.875888 0.531432
Si Si5 0.892313 0.163697 0.077506
O O1 0.470331 0.177962 0.639764
O O2 0.605469 0.272521 0.908203
O O3 0.500000 0.225440 0.000000
O O4 0.709552 0.184156 0.210996
O O5 0.862737 0.855262 0.235344
O O6 0.961578 0.854075 0.726600
O O7 0.740274 0.915353 0.262063
O O8 0.117397 0.500000 0.904597
O O9 0.129095 0.406279 0.750355
O O10 0.973058 0.416791 0.745413
O O11 0.766764 0.858831 0.740288
#
# Coordination Sequence:
#
# PCOD9182464 Si02
#       5
#     8   8   8   8   8
#     4  11  22  34  50  74 109 150 181 206 248 310
#     4   9  20  34  51  78 108 136 172 220 263 307
#     4   9  17  34  57  77 101 133 173 221 267 312
#     4   9  18  31  50  75 100 133 175 213 249 302
#     4  10  19  33  51  76 109 140 170 212 263 306
#
# _framework density 21.964762
#
# number of rings (size 3 to 8) (size 9 to 14) (size 15 to 20)
#    0.000    2.400    0.000    4.200    0.000   11.200 
#    0.000    9.000    0.000   15.000    0.000    0.000 
#    0.000   67.200    0.000    0.000    0.000    0.000 
#
# Total GULP energy -111502.549095 kJ/mol
# GULP energy per Si atom -5575.127455 kJ/mol
# Density = 2.191477 g / cm^3
# Si number density = 21.964762 Si / 1000 Ang^3
#
#
#
# Elastic Constant Matrix: (Units=GPa)
#
#
# Indices 1 2 3 4 5 6 
#
# 1 53.1045 9.2958 46.6571 0.0000 17.0323 0.0000
# 2 9.2958 159.1237 90.3509 0.0000 24.7368 0.0000
# 3 46.6571 90.3509 197.0704 0.0000 55.0097 0.0000
# 4 0.0000 0.0000 0.0000 14.1311 0.0000 3.0382
# 5 17.0323 24.7368 55.0097 0.0000 50.8662 0.0000
# 6 0.0000 0.0000 0.0000 3.0382 0.0000 -10.7525
#
#
#
# Elastic Compliance Matrix: (Units=1/GPa)
#
#
# Indices 1 2 3 4 5 6 
#
# 1 0.024768 0.002534 -0.006255 0.000000 -0.002761 0.000000
# 2 0.002534 0.008756 -0.004568 0.000000 -0.000167 0.000000
# 3 -0.006255 -0.004568 0.010664 0.000000 -0.007217 0.000000
# 4 0.000000 0.000000 0.000000 0.066713 0.000000 0.018850
# 5 -0.002761 -0.000167 -0.007217 0.000000 0.028470 0.000000
# 6 0.000000 0.000000 0.000000 0.018850 0.000000 -0.087676
#
#
# Mechanical properties :
#
#
# Convention : Reuss Voigt Hill
#
# Bulk Modulus (GPa) = 36.21773 77.98955 57.10364
# Shear Modulus (GPa) = 64.53591 28.38195 46.45893
#
# Velocity S-wave (km/s) = 5.42636 3.59856 4.60407
# Velocity P-wave (km/s) = 7.46895 7.26980 7.37005
#
# Compressibility (1/GPa) = 0.02761079
#
# Stress axis : x y z
#
# Youngs Moduli (GPa) = 40.37396 114.20950 93.77540
#
# Poissons Ratio (x) = -0.28939 0.58656
# Poissons Ratio (y) = -0.10230 0.42833
# Poissons Ratio (z) = 0.25253 0.52167
#
# Static dielectric constant tensor:
#      x y z
#    x 1.883300 0.000000 -0.035080 
#    y 0.000000 1.748400 0.000000 
#    z -0.035080 0.000000 1.938570 
# 
# From -- ./inp_files/79311.got.cif
#   From: 2010.05.17/outbox.cif.g08.bks.cpg/sg12_40_cif.got.tgz:79311.got - 2010.06.03 13:09:07.
