data_PCOD9182844
_publ_section_title
;
Structure prediction by ZEFSAII (Michael W. Deem and Ramdas Pophale) SiO2 
 PCOD9182844
Probable space group: C 2/M
;
_chemical_formula_sum "Si O2"
_cell_formula_units_Z 40
_cell_length_a 5.023224
_cell_length_b 17.419030
_cell_length_c 21.840029
_cell_angle_alpha 90.000000
_cell_angle_beta 101.929922
_cell_angle_gamma 90.000000
_cell_volume 1869.720474
_symmetry_space_group_name_H-M "C 2/M"
_symmetry_group_IT_number 12
_symmetry_cell_setting 'monoclinic'
loop_
_space_group_symop_operation_xyz
x,y,z
-x,y,-z
-x,-y,-z
x,-y,z
1/2+x,1/2+y,z
1/2-x,1/2+y,-z
1/2-x,1/2-y,-z
1/2+x,1/2-y,z
loop_
_atom_site_type_symbol
_atom_site_label
_atom_site_fract_x
_atom_site_fract_y
_atom_site_fract_z
Si Si1 0.085145 0.694849 0.127213
Si Si2 0.996417 0.087977 0.194477
Si Si3 0.506841 0.803087 0.434564
Si Si4 0.671154 0.193972 0.703286
Si Si5 0.350236 0.588956 0.053906
O O1 0.309444 0.762179 0.128841
O O2 0.217273 0.637394 0.183271
O O3 0.108629 0.642766 0.067316
O O4 0.218037 0.130520 0.245324
O O5 0.049442 0.088601 0.123284
O O6 0.957369 0.000000 0.210685
O O7 0.500000 0.844790 0.500000
O O8 0.306611 0.729621 0.435363
O O9 0.390990 0.840230 0.367309
O O10 0.406299 0.241696 0.709408
O O11 0.269566 0.500000 0.041913
O O12 0.500000 0.615618 0.000000
#
# Coordination Sequence:
#
# PCOD9182844 Si02
#       5
#     8   8   8   8   8
#     4  10  20  35  54  76  99 125 164 208 250 294
#     4   9  19  35  52  75 103 137 169 208 258 310
#     4   8  14  25  44  71 100 129 163 203 246 290
#     4  10  19  33  53  77 104 134 170 212 251 295
#     4   8  17  36  56  76 104 137 170 208 257 310
#
# _framework density 21.393574000000001
#
# number of rings (size 3 to 8) (size 9 to 14) (size 15 to 20)
#    1.200    1.800    0.000    1.200    0.000    0.800 
#    0.000    7.000    0.000    3.000    0.000    0.000 
#    0.000   16.000    0.000    0.000    0.000    2.400 
#
# Total GULP energy -111514.603508 kJ/mol
# GULP energy per Si atom -5575.730175 kJ/mol
# Density = 2.134488 g / cm^3
# Si number density = 21.393574 Si / 1000 Ang^3
#
#
#
# Elastic Constant Matrix: (Units=GPa)
#
#
# Indices 1 2 3 4 5 6 
#
# 1 86.2925 28.2431 20.4451 0.0000 4.4166 0.0000
# 2 28.2431 92.3861 17.7249 0.0000 -5.1050 0.0000
# 3 20.4451 17.7249 152.1119 0.0000 13.0333 0.0000
# 4 0.0000 0.0000 0.0000 19.4789 0.0000 -8.0947
# 5 4.4166 -5.1050 13.0333 0.0000 26.1137 0.0000
# 6 0.0000 0.0000 0.0000 -8.0947 0.0000 -97.1381
#
#
#
# Elastic Compliance Matrix: (Units=1/GPa)
#
#
# Indices 1 2 3 4 5 6 
#
# 1 0.013282 -0.003984 -0.001109 0.000000 -0.002472 0.000000
# 2 -0.003984 0.012486 -0.001239 0.000000 0.003733 0.000000
# 3 -0.001109 -0.001239 0.007179 0.000000 -0.003638 0.000000
# 4 0.000000 0.000000 0.000000 0.049619 0.000000 -0.004135
# 5 -0.002472 0.003733 -0.003638 0.000000 0.041258 0.000000
# 6 0.000000 0.000000 0.000000 -0.004135 0.000000 -0.009950
#
#
# Mechanical properties :
#
#
# Convention : Reuss Voigt Hill
#
# Bulk Modulus (GPa) = 49.30471 51.51297 50.40884
# Shear Modulus (GPa) = 37.50942 7.31607 22.41275
#
# Velocity S-wave (km/s) = 4.19179 1.85126 3.24024
# Velocity P-wave (km/s) = 6.82090 5.35729 6.13291
#
# Compressibility (1/GPa) = 0.02028204
#
# Stress axis : x y z
#
# Youngs Moduli (GPa) = 75.29121 80.08860 139.28923
#
# Poissons Ratio (x) = 0.31908 0.15449
# Poissons Ratio (y) = 0.29997 0.17263
# Poissons Ratio (z) = 0.08351 0.09926
#
# Static dielectric constant tensor:
#      x y z
#    x 1.823350 0.000000 -0.006300 
#    y 0.000000 1.743340 0.000000 
#    z -0.006300 0.000000 1.902280 
# 
# From -- ./inp_files/330943.got.cif
#   From: 2010.05.17/outbox.cif.g08.bks.cpg/sg12_166_cif.got.tgz:330943.got - 2010.06.03 13:09:07.
