data_PCOD9182370
_publ_section_title
;
Structure prediction by ZEFSAII (Michael W. Deem and Ramdas Pophale) SiO2 
 PCOD9182370
Probable space group: C 2/M
;
_chemical_formula_sum "Si O2"
_cell_formula_units_Z 64
_cell_length_a 29.048247
_cell_length_b 7.416615
_cell_length_c 23.329755
_cell_angle_alpha 90.000000
_cell_angle_beta 147.045288
_cell_angle_gamma 90.000000
_cell_volume 2734.107262
_symmetry_space_group_name_H-M "C 2/M"
_symmetry_group_IT_number 12
_symmetry_cell_setting 'monoclinic'
loop_
_space_group_symop_operation_xyz
x,y,z
-x,y,-z
-x,-y,-z
x,-y,z
1/2+x,1/2+y,z
1/2-x,1/2+y,-z
1/2-x,1/2-y,-z
1/2+x,1/2-y,z
loop_
_atom_site_type_symbol
_atom_site_label
_atom_site_fract_x
_atom_site_fract_y
_atom_site_fract_z
Si Si1 0.130094 0.279563 0.220204
Si Si2 0.544790 0.289874 0.339159
Si Si3 0.695993 0.220839 0.049503
Si Si4 0.007442 0.718020 0.838959
Si Si5 0.374157 0.294498 0.209549
Si Si6 0.270792 0.783247 0.785541
Si Si7 0.226952 0.784095 0.541804
Si Si8 0.086648 0.287675 0.619437
O O1 0.128698 0.500000 0.217457
O O2 0.163258 0.218757 0.193179
O O3 0.201395 0.220286 0.340169
O O4 0.039908 0.224506 0.152333
O O5 0.542544 0.500000 0.354349
O O6 0.545589 0.278523 0.271370
O O7 0.456038 0.207174 0.266408
O O8 0.632375 0.212494 0.454025
O O9 0.780306 0.285171 0.105139
O O10 0.706210 0.277286 0.126483
O O11 0.697842 0.000000 0.050184
O O12 0.603962 0.279720 0.933094
O O13 0.008144 0.500000 0.839427
O O14 0.368709 0.500000 0.182459
O O15 0.393646 0.297307 0.298083
O O16 0.172185 0.736850 0.671745
O O17 0.274931 0.000000 0.790153
O O18 0.250000 0.750000 0.500000
O O19 0.223723 0.000000 0.545479
O O20 0.075454 0.500000 0.618217
O O21 0.000000 0.220044 0.500000
#
# Coordination Sequence:
#
# PCOD9182370 Si02
#       8
#     8   8   8   8   8   8   8   8
#     4   9  18  31  51  78 102 130 171 210 248 301
#     4  10  21  34  51  76 105 134 171 215 253 297
#     4   8  16  32  53  77 101 128 168 217 256 292
#     4  10  19  33  53  75 104 137 170 210 255 303
#     4   9  19  36  55  75 100 133 173 213 251 298
#     4   9  18  34  55  76 101 133 172 211 251 300
#     4  10  19  33  50  72 102 134 168 210 254 299
#     4  10  21  35  50  75 107 134 166 209 255 305
#
# _framework density 23.408003999999998
#
# number of rings (size 3 to 8) (size 9 to 14) (size 15 to 20)
#    0.000    2.625    1.250    1.125    1.750    2.500 
#    0.000    6.250    0.000    0.000    0.000    4.375 
#    0.000    0.000    0.000    0.000    0.000    0.000 
#
# Total GULP energy -178679.346440 kJ/mol
# GULP energy per Si atom -5583.729576 kJ/mol
# Density = 2.335473 g / cm^3
# Si number density = 23.408004 Si / 1000 Ang^3
#
#
#
# Elastic Constant Matrix: (Units=GPa)
#
#
# Indices 1 2 3 4 5 6 
#
# 1 91.1912 -2.4721 0.1713 0.0000 34.8429 0.0000
# 2 -2.4721 82.8886 0.4540 0.0000 5.7329 0.0000
# 3 0.1713 0.4540 82.0865 0.0000 34.2657 0.0000
# 4 0.0000 0.0000 0.0000 -0.9906 0.0000 -4.0979
# 5 34.8429 5.7329 34.2657 0.0000 40.9331 0.0000
# 6 0.0000 0.0000 0.0000 -4.0979 0.0000 5.5558
#
#
#
# Elastic Compliance Matrix: (Units=1/GPa)
#
#
# Indices 1 2 3 4 5 6 
#
# 1 0.022404 0.002662 0.012382 0.000000 -0.029809 0.000000
# 2 0.002662 0.012551 0.002467 0.000000 -0.006089 0.000000
# 3 0.012382 0.002467 0.025650 0.000000 -0.032357 0.000000
# 4 0.000000 0.000000 0.000000 -0.249181 0.000000 -0.183792
# 5 -0.029809 -0.006089 -0.032357 0.000000 0.077743 0.000000
# 6 0.000000 0.000000 0.000000 -0.183792 0.000000 0.044428
#
#
# Mechanical properties :
#
#
# Convention : Reuss Voigt Hill
#
# Bulk Modulus (GPa) = 10.45739 28.05253 19.25496
# Shear Modulus (GPa) = -71.89007 26.30054 -22.79477
#
# Velocity S-wave (km/s) = -5.54783 3.35561 -3.12397
# Velocity P-wave (km/s) = 6.04655 5.19843 2.18370
#
# Compressibility (1/GPa) = 0.09562616
#
# Stress axis : x y z
#
# Youngs Moduli (GPa) = 44.63425 79.67237 38.98706
#
# Poissons Ratio (x) = -0.21209 -0.48272
# Poissons Ratio (y) = -0.11882 -0.09617
# Poissons Ratio (z) = -0.55265 -0.19653
#
# Static dielectric constant tensor:
#      x y z
#    x 1.848540 0.000000 -0.025750 
#    y 0.000000 1.934560 0.000000 
#    z -0.025750 0.000000 1.738650 
# 
# From -- ./inp_files/353575.got.cif
#   From: 2010.05.17/outbox.cif.g08.bks.cpg/sg12_177_cif.got.tgz:353575.got - 2010.06.03 13:09:07.
