data_PCOD9182112
_publ_section_title
;
Structure prediction by ZEFSAII (Michael W. Deem and Ramdas Pophale) SiO2 
 PCOD9182112
Probable space group: C 2/M
;
_chemical_formula_sum "Si O2"
_cell_formula_units_Z 48
_cell_length_a 12.316935
_cell_length_b 18.227834
_cell_length_c 9.473822
_cell_angle_alpha 90.000000
_cell_angle_beta 116.166183
_cell_angle_gamma 90.000000
_cell_volume 1909.002462
_symmetry_space_group_name_H-M "C 2/M"
_symmetry_group_IT_number 12
_symmetry_cell_setting 'monoclinic'
loop_
_space_group_symop_operation_xyz
x,y,z
-x,y,-z
-x,-y,-z
x,-y,z
1/2+x,1/2+y,z
1/2-x,1/2+y,-z
1/2-x,1/2-y,-z
1/2+x,1/2-y,z
loop_
_atom_site_type_symbol
_atom_site_label
_atom_site_fract_x
_atom_site_fract_y
_atom_site_fract_z
Si Si1 0.081944 0.845066 0.737911
Si Si2 0.003118 0.284871 0.172069
Si Si3 0.604334 0.500000 0.737363
Si Si4 0.469114 0.000000 0.144477
Si Si5 0.223259 0.500000 0.431613
Si Si6 0.750011 0.667626 0.567919
Si Si7 0.281889 0.872663 0.093364
Si Si8 0.856431 0.000000 0.920525
O O1 0.029403 0.926596 0.689077
O O2 0.144575 0.827837 0.625488
O O3 0.981169 0.795075 0.750489
O O4 0.190459 0.850582 0.916289
O O5 0.117644 0.333084 0.279730
O O6 0.872205 0.304418 0.169629
O O7 0.000000 0.282146 0.000000
O O8 0.704334 0.500000 0.675026
O O9 0.668868 0.500000 0.925375
O O10 0.388064 0.071062 0.117784
O O11 0.580959 0.000000 0.314526
O O12 0.500000 0.000000 0.000000
O O13 0.251108 0.584446 0.502029
O O14 0.750000 0.750000 0.500000
O O15 0.202213 0.922152 0.156077
O O16 0.000000 0.000000 0.000000
#
# Coordination Sequence:
#
# PCOD9182112 Si02
#       8
#     8   8   4   4   4   8   8   4
#     4  10  21  39  60  97 137 173 229 286 340 416
#     4  12  23  38  65 100 139 182 226 286 352 415
#     4   8  18  36  57  87 124 170 223 270 335 402
#     4  11  15  26  59  95 129 161 210 279 345 396
#     4  10  19  39  68  95 128 171 235 294 334 413
#     4  11  24  43  69 101 135 186 235 292 355 415
#     4  10  19  32  55  94 134 172 219 265 338 419
#     4   9  18  31  50  88 144 183 207 265 344 420
#
# _framework density 25.144020999999999
#
# number of rings (size 3 to 8) (size 9 to 14) (size 15 to 20)
#    0.000    1.667    3.333    4.500    0.000    3.333 
#    0.000    0.833    0.000    7.000    0.000    0.000 
#    0.000    0.000    0.000    0.000    0.000    0.000 
#
# Total GULP energy -133691.955253 kJ/mol
# GULP energy per Si atom -5570.498136 kJ/mol
# Density = 2.508679 g / cm^3
# Si number density = 25.144021 Si / 1000 Ang^3
#
#
#
# Elastic Constant Matrix: (Units=GPa)
#
#
# Indices 1 2 3 4 5 6 
#
# 1 102.9361 39.4309 30.2611 0.0000 27.9075 0.0000
# 2 39.4309 178.6566 27.2001 0.0000 -10.4148 0.0000
# 3 30.2611 27.2001 88.7703 0.0000 0.7124 0.0000
# 4 0.0000 0.0000 0.0000 10.8757 0.0000 30.5466
# 5 27.9075 -10.4148 0.7124 0.0000 30.4468 0.0000
# 6 0.0000 0.0000 0.0000 30.5466 0.0000 18.3014
#
#
#
# Elastic Compliance Matrix: (Units=1/GPa)
#
#
# Indices 1 2 3 4 5 6 
#
# 1 0.017253 -0.004124 -0.004480 0.000000 -0.017120 0.000000
# 2 -0.004124 0.006988 -0.000785 0.000000 0.006188 0.000000
# 3 -0.004480 -0.000785 0.013005 0.000000 0.003534 0.000000
# 4 0.000000 0.000000 0.000000 -0.024932 0.000000 0.041614
# 5 -0.017120 0.006188 0.003534 0.000000 0.050570 0.000000
# 6 0.000000 0.000000 0.000000 0.041614 0.000000 -0.014816
#
#
# Mechanical properties :
#
#
# Convention : Reuss Voigt Hill
#
# Bulk Modulus (GPa) = 54.15106 62.68301 58.41703
# Shear Modulus (GPa) = 68.49122 30.15619 49.32371
#
# Velocity S-wave (km/s) = 5.22482 3.46690 4.43385
# Velocity P-wave (km/s) = 7.61455 6.40387 7.03530
#
# Compressibility (1/GPa) = 0.01846686
#
# Stress axis : x y z
#
# Youngs Moduli (GPa) = 57.96075 143.10762 76.89603
#
# Poissons Ratio (x) = 0.59014 0.34453
# Poissons Ratio (y) = 0.23902 0.06036
# Poissons Ratio (z) = 0.25969 0.11234
#
# Static dielectric constant tensor:
#      x y z
#    x 1.898890 0.000000 -0.000860 
#    y 0.000000 2.380410 0.000000 
#    z -0.000860 0.000000 1.999130 
# 
# From -- ./inp_files/131827.got.cif
#   From: 2010.05.17/outbox.cif.g08.bks.cpg/sg12_66_cif.got.tgz:131827.got - 2010.06.03 13:09:07.
