data_PCOD9182111
_publ_section_title
;
Structure prediction by ZEFSAII (Michael W. Deem and Ramdas Pophale) SiO2 
 PCOD9182111
Probable space group: C 2/M
;
_chemical_formula_sum "Si O2"
_cell_formula_units_Z 44
_cell_length_a 17.888286
_cell_length_b 11.205207
_cell_length_c 18.199236
_cell_angle_alpha 90.000000
_cell_angle_beta 142.436927
_cell_angle_gamma 90.000000
_cell_volume 2223.879449
_symmetry_space_group_name_H-M "C 2/M"
_symmetry_group_IT_number 12
_symmetry_cell_setting 'monoclinic'
loop_
_space_group_symop_operation_xyz
x,y,z
-x,y,-z
-x,-y,-z
x,-y,z
1/2+x,1/2+y,z
1/2-x,1/2+y,-z
1/2-x,1/2-y,-z
1/2+x,1/2-y,z
loop_
_atom_site_type_symbol
_atom_site_label
_atom_site_fract_x
_atom_site_fract_y
_atom_site_fract_z
Si Si1 0.310811 0.217454 0.954247
Si Si2 0.779986 0.500000 0.431695
Si Si3 0.034885 0.000000 0.146531
Si Si4 0.872001 0.000000 0.161947
Si Si5 0.616163 0.500000 0.448510
Si Si6 0.000000 0.796601 0.000000
Si Si7 0.872007 0.739536 0.544899
Si Si8 0.587230 0.141727 0.815638
O O1 0.224084 0.333838 0.891104
O O2 0.213473 0.112217 0.888450
O O3 0.386314 0.218545 0.938469
O O4 0.402619 0.197950 0.094725
O O5 0.662959 0.500000 0.288630
O O6 0.725370 0.500000 0.472703
O O7 0.854697 0.622446 0.481702
O O8 0.026855 0.115682 0.088791
O O9 0.927904 0.000000 0.123872
O O10 0.989457 0.000000 0.305289
O O11 0.618866 0.368873 0.487162
O O12 0.750000 0.750000 0.500000
O O13 0.986022 0.709437 0.687742
O O14 0.561573 0.000000 0.798434
#
# Coordination Sequence:
#
# PCOD9182111 Si02
#       8
#     8   4   4   4   4   4   8   8
#     4  11  24  37  60  89 128 162 208 258 318 371
#     4   9  19  33  58  90 125 150 205 267 316 357
#     4  10  22  41  64  90 125 166 216 256 309 379
#     4  11  19  40  65  90 120 163 207 263 307 373
#     4   9  18  31  53  89 124 149 195 251 320 364
#     4  11  26  39  58  90 132 171 201 258 326 379
#     4  10  19  32  55  92 127 154 200 271 321 359
#     4  11  21  36  61  93 122 159 214 267 308 367
#
# _framework density 19.785245
#
# number of rings (size 3 to 8) (size 9 to 14) (size 15 to 20)
#    0.000    1.636    3.636    2.182    7.636    0.364 
#    0.000    0.000    0.000    3.273    0.000    1.273 
#    0.000    0.000    0.000    0.000    0.000    0.000 
#
# Total GULP energy -122680.445774 kJ/mol
# GULP energy per Si atom -5576.383899 kJ/mol
# Density = 1.974021 g / cm^3
# Si number density = 19.785245 Si / 1000 Ang^3
#
#
#
# Elastic Constant Matrix: (Units=GPa)
#
#
# Indices 1 2 3 4 5 6 
#
# 1 105.6016 29.5139 17.8328 0.0000 9.0117 0.0000
# 2 29.5139 167.6268 42.4777 0.0000 5.8397 0.0000
# 3 17.8328 42.4777 67.3150 0.0000 22.4510 0.0000
# 4 0.0000 0.0000 0.0000 19.3694 0.0000 13.5511
# 5 9.0117 5.8397 22.4510 0.0000 12.4342 0.0000
# 6 0.0000 0.0000 0.0000 13.5511 0.0000 22.1517
#
#
#
# Elastic Compliance Matrix: (Units=1/GPa)
#
#
# Indices 1 2 3 4 5 6 
#
# 1 0.010565 -0.001951 0.001711 0.000000 -0.009830 0.000000
# 2 -0.001951 0.008247 -0.009721 0.000000 0.015093 0.000000
# 3 0.001711 -0.009721 0.048837 0.000000 -0.084853 0.000000
# 4 0.000000 0.000000 0.000000 0.090256 0.000000 -0.055213
# 5 -0.009830 0.015093 -0.084853 0.000000 0.233670 0.000000
# 6 0.000000 0.000000 0.000000 -0.055213 0.000000 0.078920
#
#
# Mechanical properties :
#
#
# Convention : Reuss Voigt Hill
#
# Bulk Modulus (GPa) = 20.95287 57.79913 39.37600
# Shear Modulus (GPa) = 9.87510 27.50566 18.69038
#
# Velocity S-wave (km/s) = 2.23651 3.73260 3.07687
# Velocity P-wave (km/s) = 4.15722 6.91759 5.70682
#
# Compressibility (1/GPa) = 0.04772617
#
# Stress axis : x y z
#
# Youngs Moduli (GPa) = 94.65384 121.26097 20.47641
#
# Poissons Ratio (x) = 0.23661 -0.03503
# Poissons Ratio (y) = 0.18469 0.19904
# Poissons Ratio (z) = -0.16194 1.17874
#
# Static dielectric constant tensor:
#      x y z
#    x 1.679480 0.000000 0.008690 
#    y 0.000000 1.803540 0.000000 
#    z 0.008690 0.000000 1.685850 
# 
# From -- ./inp_files/277153.got.cif
#   From: 2010.05.17/outbox.cif.g08.bks.cpg/sg12_139_cif.got.tgz:277153.got - 2010.06.03 13:09:07.
