data_PCOD9182779
_publ_section_title
;
Structure prediction by ZEFSAII (Michael W. Deem and Ramdas Pophale) SiO2 
 PCOD9182779
Probable space group: C 2/M
;
_chemical_formula_sum "Si O2"
_cell_formula_units_Z 56
_cell_length_a 29.151849
_cell_length_b 19.132368
_cell_length_c 9.008877
_cell_angle_alpha 90.000000
_cell_angle_beta 42.280917
_cell_angle_gamma 90.000000
_cell_volume 3380.411810
_symmetry_space_group_name_H-M "C 2/M"
_symmetry_group_IT_number 12
_symmetry_cell_setting 'monoclinic'
loop_
_space_group_symop_operation_xyz
x,y,z
-x,y,-z
-x,-y,-z
x,-y,z
1/2+x,1/2+y,z
1/2-x,1/2+y,-z
1/2-x,1/2-y,-z
1/2+x,1/2-y,z
loop_
_atom_site_type_symbol
_atom_site_label
_atom_site_fract_x
_atom_site_fract_y
_atom_site_fract_z
Si Si1 0.072109 0.778088 0.850391
Si Si2 0.798978 0.798383 0.981574
Si Si3 0.184083 0.078309 0.874585
Si Si4 0.691099 0.214930 0.744801
Si Si5 0.387899 0.636401 0.514451
Si Si6 0.774008 0.078418 0.570883
Si Si7 0.961328 0.081772 0.878455
O O1 0.122914 0.730050 0.818298
O O2 0.101700 0.798461 0.621033
O O3 0.056753 0.853805 0.966756
O O4 0.000000 0.742626 0.000000
O O5 0.855811 0.831802 0.739001
O O6 0.750000 0.750000 0.000000
O O7 0.772964 0.866936 0.133032
O O8 0.820412 0.751805 0.069903
O O9 0.196148 0.085677 0.668390
O O10 0.201861 0.000000 0.875754
O O11 0.101625 0.086532 0.086585
O O12 0.750000 0.250000 0.500000
O O13 0.716773 0.137386 0.716770
O O14 0.332422 0.590926 0.555142
O O15 0.461015 0.597914 0.357553
O O16 0.748000 0.000000 0.648300
O O17 0.958524 0.000000 0.940524
#
# Coordination Sequence:
#
# PCOD9182779 Si02
#       7
#     8   8   8   8   8   8   8
#     4  10  20  35  55  80 105 147 190 225 266 322
#     4  12  22  35  52  77 107 151 182 231 278 314
#     4  10  21  36  53  76 110 150 188 224 272 328
#     4  12  19  39  59  74 107 146 188 231 272 329
#     4  11  21  31  50  81 113 142 185 218 266 323
#     4  11  21  35  58  81 105 143 189 233 276 327
#     4  10  19  33  53  75 112 155 186 211 254 326
#
# _framework density 16.566030000000001
#
# number of rings (size 3 to 8) (size 9 to 14) (size 15 to 20)
#    0.000    1.143    7.143    0.429    0.000    4.286 
#    0.000    1.429    0.000    0.429    0.000    0.000 
#    0.000    4.571    0.000    0.000    0.000    0.000 
#
# Total GULP energy -155890.934247 kJ/mol
# GULP energy per Si atom -5567.533366 kJ/mol
# Density = 1.652832 g / cm^3
# Si number density = 16.566030 Si / 1000 Ang^3
#
#
#
# Elastic Constant Matrix: (Units=GPa)
#
#
# Indices 1 2 3 4 5 6 
#
# 1 78.0338 39.5304 25.0871 0.0000 -6.5219 0.0000
# 2 39.5304 104.1808 33.9613 0.0000 -6.9688 0.0000
# 3 25.0871 33.9613 59.7485 0.0000 8.9594 0.0000
# 4 0.0000 0.0000 0.0000 21.4322 0.0000 5.3457
# 5 -6.5219 -6.9688 8.9594 0.0000 25.7564 0.0000
# 6 0.0000 0.0000 0.0000 5.3457 0.0000 15.8246
#
#
#
# Elastic Compliance Matrix: (Units=1/GPa)
#
#
# Indices 1 2 3 4 5 6 
#
# 1 0.017240 -0.004411 -0.005494 0.000000 0.005083 0.000000
# 2 -0.004411 0.013800 -0.006736 0.000000 0.004960 0.000000
# 3 -0.005494 -0.006736 0.024639 0.000000 -0.011784 0.000000
# 4 0.000000 0.000000 0.000000 0.050952 0.000000 -0.017212
# 5 0.005083 0.004960 -0.011784 0.000000 0.045554 0.000000
# 6 0.000000 0.000000 0.000000 -0.017212 0.000000 0.069007
#
#
# Mechanical properties :
#
#
# Convention : Reuss Voigt Hill
#
# Bulk Modulus (GPa) = 44.64540 48.79121 46.71830
# Shear Modulus (GPa) = 19.08837 22.16158 20.62498
#
# Velocity S-wave (km/s) = 3.39818 3.66153 3.53231
# Velocity P-wave (km/s) = 6.51193 6.88420 6.70065
#
# Compressibility (1/GPa) = 0.02239873
#
# Stress axis : x y z
#
# Youngs Moduli (GPa) = 58.00306 72.46480 40.58550
#
# Poissons Ratio (x) = 0.31962 0.22298
# Poissons Ratio (y) = 0.25584 0.27337
# Poissons Ratio (z) = 0.31867 0.48810
#
# Static dielectric constant tensor:
#      x y z
#    x 1.595520 0.000000 0.004220 
#    y 0.000000 1.576290 0.000000 
#    z 0.004220 0.000000 1.612840 
# 
# From -- ./inp_files/112594.got.cif
#   From: 2010.05.17/outbox.cif.g08.bks.cpg/sg12_57_cif.got.tgz:112594.got - 2010.06.03 13:09:07.
