data_PCOD9182168
_publ_section_title
;
Structure prediction by ZEFSAII (Michael W. Deem and Ramdas Pophale) SiO2 
 PCOD9182168
Probable space group: C 2/M
;
_chemical_formula_sum "Si O2"
_cell_formula_units_Z 56
_cell_length_a 9.333043
_cell_length_b 15.423548
_cell_length_c 23.079911
_cell_angle_alpha 90.000000
_cell_angle_beta 120.901822
_cell_angle_gamma 90.000000
_cell_volume 2850.713420
_symmetry_space_group_name_H-M "C 2/M"
_symmetry_group_IT_number 12
_symmetry_cell_setting 'monoclinic'
loop_
_space_group_symop_operation_xyz
x,y,z
-x,y,-z
-x,-y,-z
x,-y,z
1/2+x,1/2+y,z
1/2-x,1/2+y,-z
1/2-x,1/2-y,-z
1/2+x,1/2-y,z
loop_
_atom_site_type_symbol
_atom_site_label
_atom_site_fract_x
_atom_site_fract_y
_atom_site_fract_z
Si Si1 0.584993 0.846847 0.216936
Si Si2 0.937093 0.159371 0.223010
Si Si3 0.912036 0.404848 0.655314
Si Si4 0.765211 0.401408 0.354379
Si Si5 0.762285 0.842597 0.075071
Si Si6 0.587115 0.843279 0.930061
Si Si7 0.814082 0.760114 0.448942
O O1 0.769523 0.835131 0.227375
O O2 0.509447 0.754214 0.221637
O O3 0.588634 0.901735 0.275696
O O4 0.466477 0.885296 0.141746
O O5 0.883270 0.118425 0.149461
O O6 0.083181 0.112567 0.288511
O O7 0.856950 0.500000 0.623664
O O8 0.792554 0.330031 0.607795
O O9 0.095848 0.389760 0.666957
O O10 0.779087 0.500000 0.379373
O O11 0.802747 0.329545 0.410785
O O12 0.587767 0.829138 0.072700
O O13 0.837586 0.749754 0.072388
O O14 0.711104 0.885881 0.003084
O O15 0.750000 0.750000 0.500000
O O16 0.000000 0.790262 0.500000
#
# Coordination Sequence:
#
# PCOD9182168 Si02
#       7
#     8   8   8   8   8   8   8
#     4  10  19  32  56  86 120 161 206 250 301 355
#     4  10  19  32  56  86 119 162 206 250 300 355
#     4  11  25  44  65  93 126 161 201 247 301 358
#     4  11  25  44  66  92 125 164 202 243 300 362
#     4   8  14  25  43  73 112 152 199 248 296 346
#     4   8  14  25  43  73 112 153 197 249 297 345
#     4  12  26  46  71  95 121 154 196 243 298 359
#
# _framework density 19.644204999999999
#
# number of rings (size 3 to 8) (size 9 to 14) (size 15 to 20)
#    0.000    2.000    2.857    0.857    2.000    2.857 
#    0.000    0.000    0.000    0.857    0.000    6.000 
#    0.000    0.000    0.000    0.000    0.000    0.000 
#
# Total GULP energy -156010.188793 kJ/mol
# GULP energy per Si atom -5571.792457 kJ/mol
# Density = 1.959949 g / cm^3
# Si number density = 19.644205 Si / 1000 Ang^3
#
#
#
# Elastic Constant Matrix: (Units=GPa)
#
#
# Indices 1 2 3 4 5 6 
#
# 1 83.4024 25.6074 42.6198 0.0000 -9.1343 0.0000
# 2 25.6074 77.0455 37.3471 0.0000 -4.6924 0.0000
# 3 42.6198 37.3471 132.0989 0.0000 -12.3332 0.0000
# 4 0.0000 0.0000 0.0000 -17.2555 0.0000 1.3884
# 5 -9.1343 -4.6924 -12.3332 0.0000 35.0737 0.0000
# 6 0.0000 0.0000 0.0000 1.3884 0.0000 10.2527
#
#
#
# Elastic Compliance Matrix: (Units=1/GPa)
#
#
# Indices 1 2 3 4 5 6 
#
# 1 0.015111 -0.003042 -0.003811 0.000000 0.002188 0.000000
# 2 -0.003042 0.015663 -0.003438 0.000000 0.000094 0.000000
# 3 -0.003811 -0.003438 0.009963 0.000000 0.002051 0.000000
# 4 0.000000 0.000000 0.000000 -0.057328 0.000000 0.007763
# 5 0.002188 0.000094 0.002051 0.000000 0.029815 0.000000
# 6 0.000000 0.000000 0.000000 0.007763 0.000000 0.096484
#
#
# Mechanical properties :
#
#
# Convention : Reuss Voigt Hill
#
# Bulk Modulus (GPa) = 49.61485 55.96614 52.79049
# Shear Modulus (GPa) = 36.49420 18.07902 27.28661
#
# Velocity S-wave (km/s) = 4.31485 3.03697 3.73103
# Velocity P-wave (km/s) = 7.08064 6.39135 6.74481
#
# Compressibility (1/GPa) = 0.02015526
#
# Stress axis : x y z
#
# Youngs Moduli (GPa) = 66.17610 63.84642 100.36992
#
# Poissons Ratio (x) = 0.19421 0.38252
# Poissons Ratio (y) = 0.20129 0.34507
# Poissons Ratio (z) = 0.25221 0.21950
#
# Static dielectric constant tensor:
#      x y z
#    x 1.704620 0.000000 0.186400 
#    y 0.000000 1.690290 0.000000 
#    z 0.186400 0.000000 2.344160 
# 
# From -- ./inp_files/333018.got.cif
#   From: 2010.05.17/outbox.cif.g08.bks.cpg/sg12_167_cif.got.tgz:333018.got - 2010.06.03 13:09:07.
