data_PCOD9182489
_publ_section_title
;
Structure prediction by ZEFSAII (Michael W. Deem and Ramdas Pophale) SiO2 
 PCOD9182489
Probable space group: C 2/M
;
_chemical_formula_sum "Si O2"
_cell_formula_units_Z 64
_cell_length_a 10.517048
_cell_length_b 19.050749
_cell_length_c 24.716127
_cell_angle_alpha 90.000000
_cell_angle_beta 36.636389
_cell_angle_gamma 90.000000
_cell_volume 2955.068628
_symmetry_space_group_name_H-M "C 2/M"
_symmetry_group_IT_number 12
_symmetry_cell_setting 'monoclinic'
loop_
_space_group_symop_operation_xyz
x,y,z
-x,y,-z
-x,-y,-z
x,-y,z
1/2+x,1/2+y,z
1/2-x,1/2+y,-z
1/2-x,1/2-y,-z
1/2+x,1/2-y,z
loop_
_atom_site_type_symbol
_atom_site_label
_atom_site_fract_x
_atom_site_fract_y
_atom_site_fract_z
Si Si1 0.541801 0.678752 0.237211
Si Si2 0.514528 0.831820 0.208358
Si Si3 0.219442 0.389540 0.946393
Si Si4 0.838666 0.416749 0.605441
Si Si5 0.801253 0.415069 0.439200
Si Si6 0.651027 0.584077 0.369756
Si Si7 0.956572 0.879011 0.078043
Si Si8 0.504081 0.781429 0.099061
O O1 0.453727 0.757154 0.255945
O O2 0.627154 0.638009 0.154106
O O3 0.371497 0.629999 0.324686
O O4 0.761748 0.695910 0.191375
O O5 0.307600 0.879758 0.274824
O O6 0.699345 0.879541 0.172680
O O7 0.610939 0.804275 0.118633
O O8 0.383470 0.419627 0.935794
O O9 0.000000 0.426556 0.000000
O O10 0.105805 0.325577 0.016577
O O11 0.786096 0.500000 0.627121
O O12 0.000000 0.408965 0.500000
O O13 0.976464 0.393048 0.610825
O O14 0.801793 0.500000 0.441469
O O15 0.594982 0.392633 0.544569
O O16 0.750808 0.396992 0.394626
O O17 0.653310 0.500000 0.363344
O O18 0.996916 0.798041 0.082092
O O19 0.000000 0.894869 0.000000
#
# Coordination Sequence:
#
# PCOD9182489 Si02
#       8
#     8   8   8   8   8   8   8   8
#     4  10  22  35  54  82 115 144 184 239 280 329
#     4  11  21  32  55  85 117 144 185 229 284 336
#     4  10  19  34  54  79 117 152 189 232 277 336
#     4  10  22  40  60  80 106 148 194 231 277 343
#     4   8  17  37  60  77  98 137 192 234 269 328
#     4   9  19  36  58  81 106 144 187 230 278 337
#     4  11  19  31  53  81 113 152 191 230 272 327
#     4  10  19  33  51  83 116 152 184 226 280 332
#
# _framework density 21.657703000000001
#
# number of rings (size 3 to 8) (size 9 to 14) (size 15 to 20)
#    0.000    2.125    2.500    3.000    3.500    0.000 
#    2.250    0.625    0.000    4.500    0.000    0.000 
#    0.000    0.000    0.000    0.000    0.000    0.000 
#
# Total GULP energy -178232.759693 kJ/mol
# GULP energy per Si atom -5569.773740 kJ/mol
# Density = 2.160841 g / cm^3
# Si number density = 21.657703 Si / 1000 Ang^3
#
#
#
# Elastic Constant Matrix: (Units=GPa)
#
#
# Indices 1 2 3 4 5 6 
#
# 1 81.8970 13.8538 7.3459 0.0087 -12.2281 -0.0069
# 2 13.8538 56.3442 40.8826 -0.0301 -8.3549 0.0055
# 3 7.3459 40.8826 96.1897 -0.0475 -18.8675 -0.0038
# 4 0.0087 -0.0301 -0.0475 44.1974 -0.0185 -11.3760
# 5 -12.2281 -8.3549 -18.8675 -0.0185 32.8695 0.0096
# 6 -0.0069 0.0055 -0.0038 -11.3760 0.0096 7.5867
#
#
#
# Elastic Compliance Matrix: (Units=1/GPa)
#
#
# Indices 1 2 3 4 5 6 
#
# 1 0.013430 -0.003656 0.001494 0.000002 0.004925 0.000012
# 2 -0.003656 0.026660 -0.011257 -0.000001 -0.001045 -0.000029
# 3 0.001494 -0.011257 0.016468 0.000024 0.007148 0.000045
# 4 0.000002 -0.000001 0.000024 0.036847 0.000019 0.055251
# 5 0.004925 -0.001045 0.007148 0.000019 0.036093 -0.000009
# 6 0.000012 -0.000029 0.000045 0.055251 -0.000009 0.214656
#
#
# Mechanical properties :
#
#
# Convention : Reuss Voigt Hill
#
# Bulk Modulus (GPa) = 33.64614 39.84394 36.74504
# Shear Modulus (GPa) = 13.12688 28.42063 20.77376
#
# Velocity S-wave (km/s) = 2.46459 3.62645 3.10043
# Velocity P-wave (km/s) = 4.86499 5.99766 5.46077
#
# Compressibility (1/GPa) = 0.02972109
#
# Stress axis : x y z
#
# Youngs Moduli (GPa) = 74.45896 37.50972 60.72238
#
# Poissons Ratio (x) = 0.13714 -0.09074
# Poissons Ratio (y) = 0.27223 0.68354
# Poissons Ratio (z) = -0.11126 0.42224
#
# Static dielectric constant tensor:
#      x y z
#    x 1.933500 0.000010 0.001160 
#    y 0.000010 1.764110 0.000000 
#    z 0.001160 0.000000 1.811430 
# 
# From -- ./inp_files/358993.got.cif
#   From: 2010.05.17/outbox.cif.g08.bks.cpg/sg12_180_cif.got.tgz:358993.got - 2010.06.03 13:09:07.
