data_PCOD9182129
_publ_section_title
;
Structure prediction by ZEFSAII (Michael W. Deem and Ramdas Pophale) SiO2 
 PCOD9182129
Probable space group: C 2/M
;
_chemical_formula_sum "Si O2"
_cell_formula_units_Z 48
_cell_length_a 23.738992
_cell_length_b 23.333698
_cell_length_c 8.949259
_cell_angle_alpha 90.000000
_cell_angle_beta 149.313063
_cell_angle_gamma 90.000000
_cell_volume 2529.870990
_symmetry_space_group_name_H-M "C 2/M"
_symmetry_group_IT_number 12
_symmetry_cell_setting 'monoclinic'
loop_
_space_group_symop_operation_xyz
x,y,z
-x,y,-z
-x,-y,-z
x,-y,z
1/2+x,1/2+y,z
1/2-x,1/2+y,-z
1/2-x,1/2-y,-z
1/2+x,1/2-y,z
loop_
_atom_site_type_symbol
_atom_site_label
_atom_site_fract_x
_atom_site_fract_y
_atom_site_fract_z
Si Si1 0.321411 0.883476 0.809573
Si Si2 0.573121 0.121848 0.359593
Si Si3 0.393382 0.000000 0.471005
Si Si4 0.345077 0.000000 0.018212
Si Si5 0.880325 0.194378 0.191838
Si Si6 0.157764 0.325124 0.833647
Si Si7 0.743725 0.308735 0.391343
O O1 0.236131 0.859647 0.494752
O O2 0.445336 0.883887 0.022499
O O3 0.297518 0.943874 0.830945
O O4 0.332108 0.840077 0.971230
O O5 0.576528 0.138465 0.544124
O O6 0.644921 0.171995 0.445475
O O7 0.626178 0.058168 0.479726
O O8 0.334512 0.000000 0.174113
O O9 0.523870 0.000000 0.724224
O O10 0.874945 0.258613 0.247905
O O11 0.000000 0.170125 0.500000
O O12 0.778117 0.163530 0.037635
O O13 0.850603 0.195731 0.948680
O O14 0.750000 0.250000 0.500000
#
# Coordination Sequence:
#
# PCOD9182129 Si02
#       7
#     8   8   4   4   8   8   8
#     4  11  19  35  53  86 119 148 179 230 284 336
#     4  10  20  33  56  82 120 153 181 226 277 339
#     4   9  16  31  53  87 110 151 194 212 268 352
#     4   9  18  29  55  83 118 148 180 224 282 343
#     4  10  21  38  54  76 108 150 194 233 270 325
#     4  10  19  32  56  82 109 147 191 223 272 342
#     4  11  23  36  49  80 115 148 191 226 279 337
#
# _framework density 18.973299000000001
#
# number of rings (size 3 to 8) (size 9 to 14) (size 15 to 20)
#    0.000    1.833    3.333    2.000    0.000    0.667 
#    3.000    3.333    0.000    0.000    0.000   22.167 
#    0.000    0.000    0.000    0.000    0.000    0.000 
#
# Total GULP energy -133777.726075 kJ/mol
# GULP energy per Si atom -5574.071920 kJ/mol
# Density = 1.893012 g / cm^3
# Si number density = 18.973299 Si / 1000 Ang^3
#
#
#
# Elastic Constant Matrix: (Units=GPa)
#
#
# Indices 1 2 3 4 5 6 
#
# 1 64.7401 10.8511 21.0888 0.0000 -5.4933 0.0000
# 2 10.8511 78.8988 20.6637 0.0000 -6.9481 0.0000
# 3 21.0888 20.6637 107.2622 0.0000 -11.9371 0.0000
# 4 0.0000 0.0000 0.0000 15.3935 0.0000 -8.8658
# 5 -5.4933 -6.9481 -11.9371 0.0000 23.8758 0.0000
# 6 0.0000 0.0000 0.0000 -8.8658 0.0000 27.2742
#
#
#
# Elastic Compliance Matrix: (Units=1/GPa)
#
#
# Indices 1 2 3 4 5 6 
#
# 1 0.016766 -0.001392 -0.002800 0.000000 0.002053 0.000000
# 2 -0.001392 0.013636 -0.002062 0.000000 0.002617 0.000000
# 3 -0.002800 -0.002062 0.010729 0.000000 0.004120 0.000000
# 4 0.000000 0.000000 0.000000 0.079926 0.000000 0.025981
# 5 0.002053 0.002617 0.004120 0.000000 0.045177 0.000000
# 6 0.000000 0.000000 0.000000 0.025981 0.000000 0.045110
#
#
# Mechanical properties :
#
#
# Convention : Reuss Voigt Hill
#
# Bulk Modulus (GPa) = 34.93563 39.56757 37.25160
# Shear Modulus (GPa) = 21.42306 26.52853 23.97580
#
# Velocity S-wave (km/s) = 3.36388 3.74331 3.55866
# Velocity P-wave (km/s) = 5.79142 6.29149 6.04663
#
# Compressibility (1/GPa) = 0.02862408
#
# Stress axis : x y z
#
# Youngs Moduli (GPa) = 59.64509 73.33299 93.20382
#
# Poissons Ratio (x) = 0.10207 0.26095
# Poissons Ratio (y) = 0.08302 0.19220
# Poissons Ratio (z) = 0.16699 0.15122
#
# Static dielectric constant tensor:
#      x y z
#    x 1.729890 0.000000 -0.010710 
#    y 0.000000 1.706080 0.000000 
#    z -0.010710 0.000000 1.682310 
# 
# From -- ./inp_files/50846.got.cif
#   From: 2010.05.17/outbox.cif.g08.bks.cpg/sg12_26_cif.got.tgz:50846.got - 2010.06.03 13:09:07.
