data_PCOD9182017
_publ_section_title
;
Structure prediction by ZEFSAII (Michael W. Deem and Ramdas Pophale) SiO2 
 PCOD9182017
Probable space group: C 2/M
;
_chemical_formula_sum "Si O2"
_cell_formula_units_Z 56
_cell_length_a 16.692135
_cell_length_b 7.583581
_cell_length_c 20.487185
_cell_angle_alpha 90.000000
_cell_angle_beta 101.938738
_cell_angle_gamma 90.000000
_cell_volume 2537.297224
_symmetry_space_group_name_H-M "C 2/M"
_symmetry_group_IT_number 12
_symmetry_cell_setting 'monoclinic'
loop_
_space_group_symop_operation_xyz
x,y,z
-x,y,-z
-x,-y,-z
x,-y,z
1/2+x,1/2+y,z
1/2-x,1/2+y,-z
1/2-x,1/2-y,-z
1/2+x,1/2-y,z
loop_
_atom_site_type_symbol
_atom_site_label
_atom_site_fract_x
_atom_site_fract_y
_atom_site_fract_z
Si Si1 0.043399 0.710533 0.346376
Si Si2 0.761928 0.712849 0.209713
Si Si3 0.983929 0.715988 0.070836
Si Si4 0.198305 0.288901 0.926845
Si Si5 0.226767 0.208731 0.421998
Si Si6 0.367942 0.215078 0.347491
Si Si7 0.580501 0.792718 0.211202
O O1 0.033096 0.500000 0.339925
O O2 0.133606 0.735726 0.391235
O O3 0.045433 0.782675 0.272536
O O4 0.962220 0.774912 0.370524
O O5 0.759798 0.500000 0.207881
O O6 0.768033 0.779310 0.136496
O O7 0.836484 0.762129 0.269535
O O8 0.677795 0.773691 0.227784
O O9 0.986663 0.500000 0.069202
O O10 0.046520 0.778245 0.136960
O O11 0.893964 0.771971 0.077536
O O12 0.000000 0.776693 0.000000
O O13 0.195378 0.500000 0.920371
O O14 0.250000 0.250000 0.000000
O O15 0.250000 0.250000 0.500000
O O16 0.298632 0.279983 0.386404
O O17 0.226835 0.000000 0.412545
O O18 0.367519 0.000000 0.352202
O O19 0.559451 0.000000 0.207475
#
# Coordination Sequence:
#
# PCOD9182017 Si02
#       7
#     8   8   8   8   8   8   8
#     4  10  20  37  61  88 115 149 196 241 284 341
#     4  10  19  34  55  79 109 147 187 228 283 347
#     4   9  17  30  48  72 103 140 182 227 278 331
#     4  10  20  33  51  74 104 141 184 233 283 338
#     4  11  23  41  63  88 121 156 190 235 289 347
#     4   9  19  37  61  85 115 155 194 231 284 350
#     4  10  19  32  55  83 109 140 185 240 284 328
#
# _framework density 22.070727999999999
#
# number of rings (size 3 to 8) (size 9 to 14) (size 15 to 20)
#    0.000    2.143    1.429    2.143    0.000    5.714 
#    0.000    5.714    0.000    6.000    0.000    0.000 
#    0.000    0.000    0.000    0.000    0.000    0.000 
#
# Total GULP energy -156329.380230 kJ/mol
# GULP energy per Si atom -5583.192151 kJ/mol
# Density = 2.202049 g / cm^3
# Si number density = 22.070728 Si / 1000 Ang^3
#
#
#
# Elastic Constant Matrix: (Units=GPa)
#
#
# Indices 1 2 3 4 5 6 
#
# 1 170.0634 -1.0718 68.8121 0.0000 -0.1531 0.0000
# 2 -1.0718 46.3049 -0.8877 0.0000 -2.3978 0.0000
# 3 68.8121 -0.8877 130.4371 0.0000 1.6104 0.0000
# 4 0.0000 0.0000 0.0000 8.2447 0.0000 0.9424
# 5 -0.1531 -2.3978 1.6104 0.0000 30.6399 0.0000
# 6 0.0000 0.0000 0.0000 0.9424 0.0000 14.3478
#
#
#
# Elastic Compliance Matrix: (Units=1/GPa)
#
#
# Indices 1 2 3 4 5 6 
#
# 1 0.007478 0.000111 -0.003948 0.000000 0.000253 0.000000
# 2 0.000111 0.021688 0.000068 0.000000 0.001694 0.000000
# 3 -0.003948 0.000068 0.009756 0.000000 -0.000527 0.000000
# 4 0.000000 0.000000 0.000000 0.122207 0.000000 -0.008027
# 5 0.000253 0.001694 -0.000527 0.000000 0.032799 0.000000
# 6 0.000000 0.000000 0.000000 -0.008027 0.000000 0.070225
#
#
# Mechanical properties :
#
#
# Convention : Reuss Voigt Hill
#
# Bulk Modulus (GPa) = 31.86273 53.39007 42.62640
# Shear Modulus (GPa) = 17.72098 29.31000 23.51549
#
# Velocity S-wave (km/s) = 2.83665 3.64813 3.26768
# Velocity P-wave (km/s) = 5.01964 6.47982 5.79590
#
# Compressibility (1/GPa) = 0.03138463
#
# Stress axis : x y z
#
# Youngs Moduli (GPa) = 133.71869 46.10937 102.50040
#
# Poissons Ratio (x) = -0.00510 0.40463
# Poissons Ratio (y) = -0.01478 -0.00701
# Poissons Ratio (z) = 0.52787 -0.00315
#
# Static dielectric constant tensor:
#      x y z
#    x 1.801670 0.000000 -0.008520 
#    y 0.000000 1.832000 0.000000 
#    z -0.008520 0.000000 1.815580 
# 
# From -- ./inp_files/309024.got.cif
#   From: 2010.05.17/outbox.cif.g08.bks.cpg/sg12_155_cif.got.tgz:309024.got - 2010.06.03 13:09:07.
