data_PCOD9182573
_publ_section_title
;
Structure prediction by ZEFSAII (Michael W. Deem and Ramdas Pophale) SiO2 
 PCOD9182573
Probable space group: C 2/M
;
_chemical_formula_sum "Si O2"
_cell_formula_units_Z 64
_cell_length_a 21.285534
_cell_length_b 7.518842
_cell_length_c 20.982430
_cell_angle_alpha 90.000000
_cell_angle_beta 66.143903
_cell_angle_gamma 90.000000
_cell_volume 3071.181297
_symmetry_space_group_name_H-M "C 2/M"
_symmetry_group_IT_number 12
_symmetry_cell_setting 'monoclinic'
loop_
_space_group_symop_operation_xyz
x,y,z
-x,y,-z
-x,-y,-z
x,-y,z
1/2+x,1/2+y,z
1/2-x,1/2+y,-z
1/2-x,1/2-y,-z
1/2+x,1/2-y,z
loop_
_atom_site_type_symbol
_atom_site_label
_atom_site_fract_x
_atom_site_fract_y
_atom_site_fract_z
Si Si1 0.205097 0.281767 0.285735
Si Si2 0.575994 0.792724 0.975126
Si Si3 0.654001 0.216284 0.583422
Si Si4 0.328516 0.213357 0.951613
Si Si5 0.141881 0.790227 0.814346
Si Si6 0.046930 0.285677 0.732311
Si Si7 0.110591 0.717650 0.206949
Si Si8 0.693078 0.208426 0.431742
O O1 0.206345 0.500000 0.287017
O O2 0.282898 0.223466 0.237588
O O3 0.152816 0.227467 0.251946
O O4 0.183428 0.218227 0.364919
O O5 0.614757 0.785537 0.891914
O O6 0.565959 0.000000 0.996210
O O7 0.500000 0.712735 0.000000
O O8 0.622280 0.715735 0.012665
O O9 0.592111 0.276353 0.653654
O O10 0.654237 0.280599 0.510088
O O11 0.726103 0.274390 0.584795
O O12 0.654574 0.000000 0.582384
O O13 0.351302 0.277866 0.872850
O O14 0.335502 0.000000 0.947120
O O15 0.250000 0.250000 0.000000
O O16 0.087266 0.760699 0.780360
O O17 0.148813 0.000000 0.821901
O O18 0.045074 0.500000 0.730311
O O19 0.968526 0.223346 0.762297
O O20 0.110400 0.500000 0.207306
O O21 0.675578 0.000000 0.435735
#
# Coordination Sequence:
#
# PCOD9182573 Si02
#       8
#     8   8   8   8   8   8   8   8
#     4   9  17  30  49  74 101 132 168 206 248 295
#     4  10  21  37  55  75 100 133 170 209 255 305
#     4   9  17  28  47  75 102 131 167 208 249 291
#     4  10  20  35  55  75  98 132 171 209 253 303
#     4  11  21  33  53  78 101 129 167 212 258 301
#     4  10  19  33  52  75 103 135 171 208 250 304
#     4   9  18  33  52  72  99 135 168 201 249 306
#     4   9  16  29  48  72 103 134 167 206 248 293
#
# _framework density 20.838887
#
# number of rings (size 3 to 8) (size 9 to 14) (size 15 to 20)
#    0.000    2.375    1.250    1.875    0.000    3.750 
#    0.000    2.500    0.000    6.000    0.000    0.000 
#    0.000    5.000    0.000    0.000    0.000    0.000 
#
# Total GULP energy -178691.978738 kJ/mol
# GULP energy per Si atom -5584.124336 kJ/mol
# Density = 2.079146 g / cm^3
# Si number density = 20.838887 Si / 1000 Ang^3
#
#
#
# Elastic Constant Matrix: (Units=GPa)
#
#
# Indices 1 2 3 4 5 6 
#
# 1 136.7223 -7.6058 58.8421 0.0036 32.5255 -0.0018
# 2 -7.6058 52.2948 -12.8128 0.0001 2.7112 -0.0012
# 3 58.8421 -12.8128 135.6591 0.0042 36.7663 -0.0022
# 4 0.0036 0.0001 0.0042 -53.5507 -0.0010 9.4028
# 5 32.5255 2.7112 36.7663 -0.0010 30.8371 0.0001
# 6 -0.0018 -0.0012 -0.0022 9.4028 0.0001 7.2299
#
#
#
# Elastic Compliance Matrix: (Units=1/GPa)
#
#
# Indices 1 2 3 4 5 6 
#
# 1 0.010304 0.001456 -0.001997 0.000001 -0.008615 0.000001
# 2 0.001456 0.020509 0.003266 0.000001 -0.007232 0.000003
# 3 -0.001997 0.003266 0.011897 0.000001 -0.012366 0.000002
# 4 0.000001 0.000001 0.000001 -0.015202 -0.000003 0.019771
# 5 -0.008615 -0.007232 -0.012366 -0.000003 0.056895 -0.000004
# 6 0.000001 0.000003 0.000002 0.019771 -0.000004 0.112602
#
#
# Mechanical properties :
#
#
# Convention : Reuss Voigt Hill
#
# Bulk Modulus (GPa) = 20.76402 44.61368 32.68885
# Shear Modulus (GPa) = 24.08373 15.98676 20.03525
#
# Velocity S-wave (km/s) = 3.40326 2.77277 3.10407
# Velocity P-wave (km/s) = 5.04268 5.63084 5.34486
#
# Compressibility (1/GPa) = 0.04816022
#
# Stress axis : x y z
#
# Youngs Moduli (GPa) = 97.04900 48.75855 84.05193
#
# Poissons Ratio (x) = -0.07099 0.16785
# Poissons Ratio (y) = -0.14131 -0.27448
# Poissons Ratio (z) = 0.19380 -0.15923
#
# Static dielectric constant tensor:
#      x y z
#    x 1.683220 0.000000 0.012590 
#    y 0.000000 1.788460 0.000000 
#    z 0.012590 0.000000 1.734590 
# 
# From -- ./inp_files/319947.got.cif
#   From: 2010.05.17/outbox.cif.g08.bks.cpg/sg12_160_cif.got.tgz:319947.got - 2010.06.03 13:09:07.
