data_PCOD9182733
_publ_section_title
;
Structure prediction by ZEFSAII (Michael W. Deem and Ramdas Pophale) SiO2 
 PCOD9182733
Probable space group: C 2/M
;
_chemical_formula_sum "Si O2"
_cell_formula_units_Z 64
_cell_length_a 20.576395
_cell_length_b 9.015294
_cell_length_c 23.842376
_cell_angle_alpha 90.000000
_cell_angle_beta 55.426576
_cell_angle_gamma 90.000000
_cell_volume 3641.743910
_symmetry_space_group_name_H-M "C 2/M"
_symmetry_group_IT_number 12
_symmetry_cell_setting 'monoclinic'
loop_
_space_group_symop_operation_xyz
x,y,z
-x,y,-z
-x,-y,-z
x,-y,z
1/2+x,1/2+y,z
1/2-x,1/2+y,-z
1/2-x,1/2-y,-z
1/2+x,1/2-y,z
loop_
_atom_site_type_symbol
_atom_site_label
_atom_site_fract_x
_atom_site_fract_y
_atom_site_fract_z
Si Si1 0.920266 0.321775 0.639669
Si Si2 0.684519 0.177865 0.414774
Si Si3 0.513765 0.179477 0.198755
Si Si4 0.650854 0.821537 0.668782
Si Si5 0.602018 0.819679 0.567500
Si Si6 0.741059 0.330174 0.915725
Si Si7 0.859385 0.176634 0.779508
Si Si8 0.372961 0.829378 0.950596
O O1 0.916676 0.500000 0.650549
O O2 0.883855 0.290561 0.596748
O O3 0.870807 0.241250 0.712062
O O4 0.011598 0.275988 0.600330
O O5 0.766292 0.250165 0.356370
O O6 0.657732 0.231211 0.489510
O O7 0.694042 0.000000 0.412318
O O8 0.423362 0.217319 0.255559
O O9 0.569317 0.255293 0.218016
O O10 0.548371 0.219828 0.120756
O O11 0.522899 0.000000 0.200112
O O12 0.629253 0.772837 0.615814
O O13 0.657799 0.000000 0.665494
O O14 0.603088 0.000000 0.566431
O O15 0.732753 0.500000 0.901843
O O16 0.779040 0.232351 0.848198
O O17 0.806370 0.326992 0.933935
O O18 0.661486 0.267656 0.982342
O O19 0.863338 0.000000 0.778230
O O20 0.381454 0.000000 0.964575
#
# Coordination Sequence:
#
# PCOD9182733 Si02
#       8
#     8   8   8   8   8   8   8   8
#     4  10  19  35  54  71  98 134 172 208 250 304
#     4  10  21  34  52  77 101 129 168 214 253 296
#     4   9  17  31  49  69  96 135 172 201 245 300
#     4  10  19  33  53  74 102 137 167 204 251 304
#     4   9  17  33  56  76  95 129 173 208 249 303
#     4   9  16  26  41  63  96 133 163 194 244 302
#     4  11  20  29  46  72  99 127 165 212 253 291
#     4   8  14  24  40  64  94 125 163 205 240 283
#
# _framework density 17.573998
#
# number of rings (size 3 to 8) (size 9 to 14) (size 15 to 20)
#    0.000    2.500    1.250    3.000    0.000    5.500 
#    0.000    0.625    0.000    1.500    0.000    0.875 
#    0.000    7.000    0.000    0.000    0.000    0.000 
#
# Total GULP energy -178409.595584 kJ/mol
# GULP energy per Si atom -5575.299862 kJ/mol
# Density = 1.753400 g / cm^3
# Si number density = 17.573998 Si / 1000 Ang^3
#
#
#
# Elastic Constant Matrix: (Units=GPa)
#
#
# Indices 1 2 3 4 5 6 
#
# 1 32.4473 5.0390 -1.5719 0.0000 -10.8189 0.0001
# 2 5.0390 25.9878 18.8590 0.0000 -5.9323 0.0000
# 3 -1.5719 18.8590 86.3060 0.0000 -22.6322 0.0001
# 4 0.0000 0.0000 0.0000 24.5728 0.0000 -4.4670
# 5 -10.8189 -5.9323 -22.6322 0.0000 11.1607 0.0000
# 6 0.0001 0.0000 0.0001 -4.4670 0.0000 15.9519
#
#
#
# Elastic Compliance Matrix: (Units=1/GPa)
#
#
# Indices 1 2 3 4 5 6 
#
# 1 0.128361 -0.019310 0.077943 0.000000 0.272224 -0.000001
# 2 -0.019310 0.049029 -0.019520 0.000000 -0.032242 0.000000
# 3 0.077943 -0.019520 0.073392 0.000000 0.214008 -0.000001
# 4 0.000000 0.000000 0.000000 0.042878 0.000000 0.012007
# 5 0.272224 -0.032242 0.214008 0.000000 0.770326 -0.000003
# 6 -0.000001 0.000000 -0.000001 0.012007 -0.000003 0.066051
#
#
# Mechanical properties :
#
#
# Convention : Reuss Voigt Hill
#
# Bulk Modulus (GPa) = 3.03944 21.04369 12.04157
# Shear Modulus (GPa) = 4.30485 18.49809 11.40147
#
# Velocity S-wave (km/s) = 1.56680 3.24787 2.54986
# Velocity P-wave (km/s) = 2.23750 5.10541 3.94155
#
# Compressibility (1/GPa) = 0.32900802
#
# Stress axis : x y z
#
# Youngs Moduli (GPa) = 7.79050 20.39595 13.62553
#
# Poissons Ratio (x) = 0.39385 -1.06202
# Poissons Ratio (y) = 0.15044 0.26597
# Poissons Ratio (z) = -0.60722 0.39814
#
# Static dielectric constant tensor:
#      x y z
#    x 1.571990 0.000000 -0.009340 
#    y 0.000000 1.591070 0.000000 
#    z -0.009340 0.000000 1.617980 
# 
# From -- ./inp_files/348562.got.cif
#   From: 2010.05.17/outbox.cif.g08.bks.cpg/sg12_175_cif.got.tgz:348562.got - 2010.06.03 13:09:07.
