data_PCOD9182299
_publ_section_title
;
Structure prediction by ZEFSAII (Michael W. Deem and Ramdas Pophale) SiO2 
 PCOD9182299
Probable space group: C 2/M
;
_chemical_formula_sum "Si O2"
_cell_formula_units_Z 48
_cell_length_a 25.090623
_cell_length_b 8.272936
_cell_length_c 15.811306
_cell_angle_alpha 90.000000
_cell_angle_beta 62.419524
_cell_angle_gamma 90.000000
_cell_volume 2909.039967
_symmetry_space_group_name_H-M "C 2/M"
_symmetry_group_IT_number 12
_symmetry_cell_setting 'monoclinic'
loop_
_space_group_symop_operation_xyz
x,y,z
-x,y,-z
-x,-y,-z
x,-y,z
1/2+x,1/2+y,z
1/2-x,1/2+y,-z
1/2-x,1/2-y,-z
1/2+x,1/2-y,z
loop_
_atom_site_type_symbol
_atom_site_label
_atom_site_fract_x
_atom_site_fract_y
_atom_site_fract_z
Si Si1 0.538501 0.804194 0.174361
Si Si2 0.450398 0.311422 0.649399
Si Si3 0.402154 0.197941 0.228286
Si Si4 0.071109 0.688202 0.971658
Si Si5 0.581313 0.809207 0.502689
Si Si6 0.182014 0.305254 0.559024
O O1 0.562498 0.745086 0.246215
O O2 0.468188 0.756445 0.215109
O O3 0.539503 0.000000 0.172516
O O4 0.573336 0.743518 0.064829
O O5 0.438764 0.500000 0.648967
O O6 0.415685 0.220720 0.599661
O O7 0.521078 0.277136 0.579982
O O8 0.396986 0.257403 0.135168
O O9 0.350877 0.250617 0.330714
O O10 0.402061 0.000000 0.225695
O O11 0.089385 0.500000 0.964354
O O12 0.000000 0.689043 0.000000
O O13 0.639278 0.754343 0.512475
O O14 0.572364 0.000000 0.525189
O O15 0.181674 0.500000 0.560558
O O16 0.250000 0.250000 0.500000
#
# Coordination Sequence:
#
# PCOD9182299 Si02
#       6
#     8   8   8   8   8   8
#     4   9  14  25  44  66  90 118 149 178 217 271
#     4  11  20  28  43  68  95 121 145 183 231 272
#     4   8  13  25  42  64  89 115 150 187 219 255
#     4   7  11  19  39  65  86 110 145 185 216 254
#     4  10  19  33  48  63  85 120 158 189 220 264
#     4  10  20  32  48  67  90 120 154 188 222 262
#
# _framework density 16.500288999999999
#
# number of rings (size 3 to 8) (size 9 to 14) (size 15 to 20)
#    0.000    2.833    1.667    5.000    0.000    1.333 
#    0.000    0.000    0.000    5.500    0.000    1.167 
#    0.000    0.000    0.000    0.000    0.000    0.000 
#
# Total GULP energy -133623.486904 kJ/mol
# GULP energy per Si atom -5567.645288 kJ/mol
# Density = 1.646273 g / cm^3
# Si number density = 16.500289 Si / 1000 Ang^3
#
#
#
# Elastic Constant Matrix: (Units=GPa)
#
#
# Indices 1 2 3 4 5 6 
#
# 1 67.3901 1.2287 56.7329 0.0000 3.7272 0.0000
# 2 1.2287 10.9545 1.0117 -0.0001 -2.9927 -0.0001
# 3 56.7329 1.0117 151.8683 0.0000 19.0383 0.0000
# 4 0.0000 -0.0001 0.0000 2.1874 0.0000 -6.4405
# 5 3.7272 -2.9927 19.0383 0.0000 21.4996 0.0000
# 6 0.0000 -0.0001 0.0000 -6.4405 0.0000 12.8688
#
#
#
# Elastic Compliance Matrix: (Units=1/GPa)
#
#
# Indices 1 2 3 4 5 6 
#
# 1 0.021935 -0.000627 -0.008664 0.000000 0.003782 0.000000
# 2 -0.000627 0.095816 -0.002351 -0.000011 0.015528 -0.000005
# 3 -0.008664 -0.002351 0.010900 0.000000 -0.008477 0.000000
# 4 0.000000 -0.000011 0.000000 -0.965326 -0.000002 -0.483122
# 5 0.003782 0.015528 -0.008477 -0.000002 0.055525 -0.000001
# 6 0.000000 -0.000005 0.000000 -0.483122 -0.000001 -0.164084
#
#
# Mechanical properties :
#
#
# Convention : Reuss Voigt Hill
#
# Bulk Modulus (GPa) = 9.49063 38.68441 24.08752
# Shear Modulus (GPa) = -5.63807 18.72712 6.54453
#
# Velocity S-wave (km/s) = -1.85051 3.37257 1.99372
# Velocity P-wave (km/s) = 1.09474 6.21781 4.46428
#
# Compressibility (1/GPa) = 0.10536708
#
# Stress axis : x y z
#
# Youngs Moduli (GPa) = 45.58859 10.43669 91.74564
#
# Poissons Ratio (x) = 0.00654 0.79491
# Poissons Ratio (y) = 0.02858 0.21567
# Poissons Ratio (z) = 0.39499 0.02453
#
# Static dielectric constant tensor:
#      x y z
#    x 1.521090 0.000000 0.029080 
#    y 0.000000 1.576700 0.000000 
#    z 0.029080 0.000000 1.611590 
# 
# From -- ./inp_files/236615.got.cif
#   From: 2010.05.17/outbox.cif.g08.bks.cpg/sg12_119_cif.got.tgz:236615.got - 2010.06.03 13:09:07.
