data_PCOD9182814
_publ_section_title
;
Structure prediction by ZEFSAII (Michael W. Deem and Ramdas Pophale) SiO2 
 PCOD9182814
Probable space group: C 2/M
;
_chemical_formula_sum "Si O2"
_cell_formula_units_Z 32
_cell_length_a 22.450118
_cell_length_b 7.284167
_cell_length_c 21.971843
_cell_angle_alpha 90.000000
_cell_angle_beta 19.562341
_cell_angle_gamma 90.000000
_cell_volume 1203.074067
_symmetry_space_group_name_H-M "C 2/M"
_symmetry_group_IT_number 12
_symmetry_cell_setting 'monoclinic'
loop_
_space_group_symop_operation_xyz
x,y,z
-x,y,-z
-x,-y,-z
x,-y,z
1/2+x,1/2+y,z
1/2-x,1/2+y,-z
1/2-x,1/2-y,-z
1/2+x,1/2-y,z
loop_
_atom_site_type_symbol
_atom_site_label
_atom_site_fract_x
_atom_site_fract_y
_atom_site_fract_z
Si Si1 0.846939 0.276465 0.100804
Si Si2 0.527104 0.706992 0.565526
Si Si3 0.600648 0.775758 0.752946
Si Si4 0.441748 0.217260 0.784780
O O1 0.838515 0.500000 0.111283
O O2 0.644479 0.211854 0.303198
O O3 0.000000 0.219782 0.000000
O O4 0.927031 0.223899 0.958337
O O5 0.553019 0.500000 0.517234
O O6 0.722933 0.790021 0.382370
O O7 0.467136 0.697578 0.694288
O O8 0.579517 0.716296 0.703865
O O9 0.607603 0.000000 0.745771
O O10 0.464214 0.000000 0.754789
O O11 0.250000 0.250000 0.000000
#
# Coordination Sequence:
#
# PCOD9182814 Si02
#       4
#     8   8   8   8
#     4   9  17  30  49  75 105 134 168 210 252 294
#     4  10  19  33  53  76 105 135 166 208 254 299
#     4   9  18  31  49  76 105 132 167 209 252 300
#     4  11  20  33  53  77 106 135 167 206 253 306
#
# _framework density 26.598526
#
# number of rings (size 3 to 8) (size 9 to 14) (size 15 to 20)
#    0.000    2.250    2.500    1.500    0.000    1.000 
#    0.000    6.250    0.000    0.750    0.000    1.750 
#    0.000    0.000    0.000    0.000    0.000    0.000 
#
# Total GULP energy -89527.562052 kJ/mol
# GULP energy per Si atom -5595.472628 kJ/mol
# Density = 2.653799 g / cm^3
# Si number density = 26.598526 Si / 1000 Ang^3
#
#
#
# Elastic Constant Matrix: (Units=GPa)
#
#
# Indices 1 2 3 4 5 6 
#
# 1 121.9015 1.2981 19.6599 -0.0002 -33.2884 -0.0001
# 2 1.2981 131.0430 -7.5485 -0.0010 -4.0048 0.0002
# 3 19.6599 -7.5485 149.6440 0.0001 -40.3793 -0.0006
# 4 -0.0002 -0.0010 0.0001 -4.5172 -0.0001 6.9953
# 5 -33.2884 -4.0048 -40.3793 -0.0001 65.3081 0.0004
# 6 -0.0001 0.0002 -0.0006 6.9953 0.0004 0.1081
#
#
#
# Elastic Compliance Matrix: (Units=1/GPa)
#
#
# Indices 1 2 3 4 5 6 
#
# 1 0.009531 0.000060 0.000075 0.000000 0.004908 0.000000
# 2 0.000060 0.007693 0.000619 0.000000 0.000885 0.000001
# 3 0.000075 0.000619 0.008071 0.000000 0.005067 0.000000
# 4 0.000000 0.000000 0.000000 -0.002187 -0.000001 0.141541
# 5 0.004908 0.000885 0.005067 -0.000001 0.021001 0.000000
# 6 0.000000 0.000001 0.000000 0.141541 0.000000 0.091400
#
#
# Mechanical properties :
#
#
# Convention : Reuss Voigt Hill
#
# Bulk Modulus (GPa) = 37.30851 47.71197 42.51024
# Shear Modulus (GPa) = 34.98091 38.12505 36.55298
#
# Velocity S-wave (km/s) = 3.63043 3.79007 3.71111
# Velocity P-wave (km/s) = 5.62408 6.09341 5.86344
#
# Compressibility (1/GPa) = 0.02680353
#
# Stress axis : x y z
#
# Youngs Moduli (GPa) = 104.92196 129.98508 123.90047
#
# Poissons Ratio (x) = -0.00779 -0.00933
# Poissons Ratio (y) = -0.00629 -0.07670
# Poissons Ratio (z) = -0.00790 -0.08046
#
# Static dielectric constant tensor:
#      x y z
#    x 2.086610 0.000000 -0.032000 
#    y 0.000000 1.939630 0.000000 
#    z -0.032000 0.000000 2.042220 
# 
# From -- ./inp_files/81638.got.cif
#   From: 2010.05.17/outbox.cif.g08.bks.cpg/sg12_41_cif.got.tgz:81638.got - 2010.06.03 13:09:07.
