data_PCOD9182057
_publ_section_title
;
Structure prediction by ZEFSAII (Michael W. Deem and Ramdas Pophale) SiO2 
 PCOD9182057
Probable space group: C 2/M
;
_chemical_formula_sum "Si O2"
_cell_formula_units_Z 44
_cell_length_a 13.330105
_cell_length_b 20.894475
_cell_length_c 8.337444
_cell_angle_alpha 90.000000
_cell_angle_beta 53.954286
_cell_angle_gamma 90.000000
_cell_volume 1877.602460
_symmetry_space_group_name_H-M "C 2/M"
_symmetry_group_IT_number 12
_symmetry_cell_setting 'monoclinic'
loop_
_space_group_symop_operation_xyz
x,y,z
-x,y,-z
-x,-y,-z
x,-y,z
1/2+x,1/2+y,z
1/2-x,1/2+y,-z
1/2-x,1/2-y,-z
1/2+x,1/2-y,z
loop_
_atom_site_type_symbol
_atom_site_label
_atom_site_fract_x
_atom_site_fract_y
_atom_site_fract_z
Si Si1 0.007998 0.360406 0.300633
Si Si2 0.110333 0.000000 0.758281
Si Si3 0.784350 0.866245 0.906940
Si Si4 0.274886 0.500000 0.039414
Si Si5 0.506135 0.277600 0.805822
Si Si6 0.507829 0.000000 0.686324
Si Si7 0.120955 0.116847 0.503726
O O1 0.964129 0.295642 0.259503
O O2 0.946088 0.428771 0.312246
O O3 0.000000 0.353930 0.500000
O O4 0.153418 0.360532 0.116690
O O5 0.227316 0.000000 0.766886
O O6 0.118986 0.059801 0.631769
O O7 0.000000 0.000000 0.000000
O O8 0.875934 0.807081 0.859203
O O9 0.771907 0.875888 0.728336
O O10 0.836918 0.934412 0.922327
O O11 0.133609 0.500000 0.113295
O O12 0.607895 0.319982 0.621069
O O13 0.500000 0.288963 0.000000
O O14 0.500000 0.000000 0.500000
O O15 0.000000 0.111083 0.500000
#
# Coordination Sequence:
#
# PCOD9182057 Si02
#       7
#     8   4   8   4   8   4   8
#     4  10  20  39  62  81 103 142 190 232 275 331
#     4  12  20  31  53  88 125 151 173 219 273 326
#     4  10  20  37  58  81 111 151 188 223 270 332
#     4  10  19  32  55  85 110 141 184 224 268 322
#     4  11  22  36  54  84 116 144 181 229 277 330
#     4   8  18  37  60  77  96 134 184 229 270 318
#     4  10  20  34  53  80 117 157 185 213 264 337
#
# _framework density 23.434141
#
# number of rings (size 3 to 8) (size 9 to 14) (size 15 to 20)
#    0.000    1.818    0.000    6.818    0.000    0.000 
#    0.000    9.545    0.000    0.000    0.000    0.000 
#    0.000    0.000    0.000    0.000    0.000    0.000 
#
# Total GULP energy -122838.166767 kJ/mol
# GULP energy per Si atom -5583.553035 kJ/mol
# Density = 2.338080 g / cm^3
# Si number density = 23.434141 Si / 1000 Ang^3
#
#
#
# Elastic Constant Matrix: (Units=GPa)
#
#
# Indices 1 2 3 4 5 6 
#
# 1 37.3964 34.3629 36.6471 0.0000 18.8555 0.0000
# 2 34.3629 199.4030 50.0150 0.0000 22.1817 0.0000
# 3 36.6471 50.0150 204.4068 0.0000 17.1768 0.0000
# 4 0.0000 0.0000 0.0000 47.6944 0.0000 28.5994
# 5 18.8555 22.1817 17.1768 0.0000 37.4765 0.0000
# 6 0.0000 0.0000 0.0000 28.5994 0.0000 21.8771
#
#
#
# Elastic Compliance Matrix: (Units=1/GPa)
#
#
# Indices 1 2 3 4 5 6 
#
# 1 0.045054 -0.004431 -0.005522 0.000000 -0.017515 0.000000
# 2 -0.004431 0.006048 -0.000595 0.000000 -0.001078 0.000000
# 3 -0.005522 -0.000595 0.005996 0.000000 0.000382 0.000000
# 4 0.000000 0.000000 0.000000 0.097022 0.000000 -0.126834
# 5 -0.017515 -0.001078 0.000382 0.000000 0.035958 0.000000
# 6 0.000000 0.000000 0.000000 -0.126834 0.000000 0.211518
#
#
# Mechanical properties :
#
#
# Convention : Reuss Voigt Hill
#
# Bulk Modulus (GPa) = 27.77571 75.91737 51.84654
# Shear Modulus (GPa) = 11.50246 42.75501 27.12873
#
# Velocity S-wave (km/s) = 2.21790 4.27602 3.40613
# Velocity P-wave (km/s) = 4.29385 7.53960 6.13525
#
# Compressibility (1/GPa) = 0.03600268
#
# Stress axis : x y z
#
# Youngs Moduli (GPa) = 22.19564 165.35506 166.78986
#
# Poissons Ratio (x) = 0.73266 0.92094
# Poissons Ratio (y) = 0.09834 0.09921
# Poissons Ratio (z) = 0.12255 0.09836
#
# Static dielectric constant tensor:
#      x y z
#    x 1.966220 0.000000 -0.097450 
#    y 0.000000 2.023980 0.000000 
#    z -0.097450 0.000000 1.895580 
# 
# From -- ./inp_files/75735.got.cif
#   From: 2010.05.17/outbox.cif.g08.bks.cpg/sg12_38_cif.got.tgz:75735.got - 2010.06.03 13:09:07.
