data_PCOD9182402
_publ_section_title
;
Structure prediction by ZEFSAII (Michael W. Deem and Ramdas Pophale) SiO2 
 PCOD9182402
Probable space group: C 2/M
;
_chemical_formula_sum "Si O2"
_cell_formula_units_Z 56
_cell_length_a 30.533897
_cell_length_b 7.572328
_cell_length_c 17.385171
_cell_angle_alpha 90.000000
_cell_angle_beta 47.091319
_cell_angle_gamma 90.000000
_cell_volume 2944.167592
_symmetry_space_group_name_H-M "C 2/M"
_symmetry_group_IT_number 12
_symmetry_cell_setting 'monoclinic'
loop_
_space_group_symop_operation_xyz
x,y,z
-x,y,-z
-x,-y,-z
x,-y,z
1/2+x,1/2+y,z
1/2-x,1/2+y,-z
1/2-x,1/2-y,-z
1/2+x,1/2-y,z
loop_
_atom_site_type_symbol
_atom_site_label
_atom_site_fract_x
_atom_site_fract_y
_atom_site_fract_z
Si Si1 0.331725 0.296370 0.733793
Si Si2 0.197786 0.717163 0.907972
Si Si3 0.497993 0.706153 0.285749
Si Si4 0.133455 0.702971 0.138922
Si Si5 0.531585 0.786979 0.845766
Si Si6 0.591951 0.215128 0.925169
Si Si7 0.554100 0.716105 0.491454
O O1 0.324746 0.500000 0.718074
O O2 0.265076 0.220214 0.813565
O O3 0.355651 0.293757 0.792653
O O4 0.383242 0.218690 0.617993
O O5 0.197480 0.500000 0.910351
O O6 0.151610 0.772698 0.896882
O O7 0.171806 0.774651 0.021733
O O8 0.510165 0.500000 0.284484
O O9 0.563428 0.791814 0.201311
O O10 0.462972 0.726553 0.247956
O O11 0.462148 0.772438 0.402904
O O12 0.151273 0.500000 0.129184
O O13 0.579644 0.728645 0.852154
O O14 0.531772 0.000000 0.844870
O O15 0.466479 0.731168 0.955952
O O16 0.592200 0.000000 0.924970
O O17 0.500000 0.768892 0.500000
O O18 0.555952 0.500000 0.487820
#
# Coordination Sequence:
#
# PCOD9182402 Si02
#       7
#     8   8   8   8   8   8   8
#     4  10  19  33  51  68  91 126 164 196 227 270
#     4   9  17  29  49  73  95 122 157 191 227 281
#     4  11  20  31  49  70  96 126 158 196 233 272
#     4  11  20  31  47  71 101 125 151 190 237 286
#     4   9  16  29  50  71  95 123 151 190 237 279
#     4   8  14  27  48  72  96 122 150 186 233 282
#     4   9  17  31  48  66  90 123 162 197 227 265
#
# _framework density 19.020655000000001
#
# number of rings (size 3 to 8) (size 9 to 14) (size 15 to 20)
#    0.000    2.429    2.857    2.143    0.000    0.000 
#    0.000    4.286    0.000    0.857    0.000    0.000 
#    0.000    0.000    0.000    0.000    0.000    0.143 
#
# Total GULP energy -156238.553804 kJ/mol
# GULP energy per Si atom -5579.948350 kJ/mol
# Density = 1.897736 g / cm^3
# Si number density = 19.020655 Si / 1000 Ang^3
#
#
#
# Elastic Constant Matrix: (Units=GPa)
#
#
# Indices 1 2 3 4 5 6 
#
# 1 93.2674 -4.0382 70.6985 -0.0001 21.0034 0.0010
# 2 -4.0382 43.0390 4.0395 0.0137 -2.2060 -0.0103
# 3 70.6985 4.0395 163.3451 0.0022 7.2921 -0.0018
# 4 -0.0001 0.0137 0.0022 7.6497 0.0000 7.2962
# 5 21.0034 -2.2060 7.2921 0.0000 29.3345 -0.0002
# 6 0.0010 -0.0103 -0.0018 7.2962 -0.0002 12.8443
#
#
#
# Elastic Compliance Matrix: (Units=1/GPa)
#
#
# Indices 1 2 3 4 5 6 
#
# 1 0.019512 0.001971 -0.007965 0.000001 -0.011842 -0.000002
# 2 0.001971 0.023595 -0.001469 -0.000130 0.000728 0.000092
# 3 -0.007965 -0.001469 0.009461 -0.000002 0.003241 0.000002
# 4 0.000001 -0.000130 -0.000002 0.285305 -0.000011 -0.162068
# 5 -0.011842 0.000728 0.003241 -0.000011 0.041818 0.000009
# 6 -0.000002 0.000092 0.000002 -0.162068 0.000009 0.169918
#
#
# Mechanical properties :
#
#
# Convention : Reuss Voigt Hill
#
# Bulk Modulus (GPa) = 26.56623 49.00568 37.78595
# Shear Modulus (GPa) = 8.66429 25.22915 16.94672
#
# Velocity S-wave (km/s) = 2.13661 3.64594 2.98814
# Velocity P-wave (km/s) = 4.48153 6.59880 5.64041
#
# Compressibility (1/GPa) = 0.03764178
#
# Stress axis : x y z
#
# Youngs Moduli (GPa) = 51.25135 42.38192 105.69599
#
# Poissons Ratio (x) = -0.08355 0.84188
# Poissons Ratio (y) = -0.10103 0.15529
# Poissons Ratio (z) = 0.40822 0.06227
#
# Static dielectric constant tensor:
#      x y z
#    x 1.645040 0.000000 0.004020 
#    y 0.000000 1.725750 0.000000 
#    z 0.004020 0.000000 1.650880 
# 
# From -- ./inp_files/295103.got.cif
#   From: 2010.05.17/outbox.cif.g08.bks.cpg/sg12_148_cif.got.tgz:295103.got - 2010.06.03 13:09:07.
