data_PCOD9182649
_publ_section_title
;
Structure prediction by ZEFSAII (Michael W. Deem and Ramdas Pophale) SiO2 
 PCOD9182649
Probable space group: C 2/M
;
_chemical_formula_sum "Si O2"
_cell_formula_units_Z 56
_cell_length_a 22.659918
_cell_length_b 11.887200
_cell_length_c 10.949574
_cell_angle_alpha 90.000000
_cell_angle_beta 119.091094
_cell_angle_gamma 90.000000
_cell_volume 2577.335334
_symmetry_space_group_name_H-M "C 2/M"
_symmetry_group_IT_number 12
_symmetry_cell_setting 'monoclinic'
loop_
_space_group_symop_operation_xyz
x,y,z
-x,y,-z
-x,-y,-z
x,-y,z
1/2+x,1/2+y,z
1/2-x,1/2+y,-z
1/2-x,1/2-y,-z
1/2+x,1/2-y,z
loop_
_atom_site_type_symbol
_atom_site_label
_atom_site_fract_x
_atom_site_fract_y
_atom_site_fract_z
Si Si1 0.976492 0.626021 0.154322
Si Si2 0.251627 0.629016 0.349460
Si Si3 0.811715 0.372748 0.404315
Si Si4 0.105467 0.693980 0.165416
Si Si5 0.814018 0.127103 0.894200
Si Si6 0.429418 0.796612 0.369424
Si Si7 0.680887 0.369056 0.827805
O O1 0.004259 0.500000 0.180068
O O2 0.041761 0.702890 0.191397
O O3 0.942597 0.647772 0.250581
O O4 0.924801 0.637644 0.988565
O O5 0.276726 0.500000 0.404246
O O6 0.291048 0.744614 0.434304
O O7 0.171153 0.636014 0.291857
O O8 0.258673 0.638866 0.208854
O O9 0.802088 0.500000 0.450902
O O10 0.760116 0.376104 0.238153
O O11 0.886503 0.367181 0.424657
O O12 0.136642 0.808954 0.147092
O O13 0.838640 0.000000 0.926796
O O14 0.810555 0.175707 0.026951
O O15 0.500000 0.767519 0.500000
O O16 0.382428 0.690548 0.296543
O O17 0.667496 0.500000 0.825693
#
# Coordination Sequence:
#
# PCOD9182649 Si02
#       7
#     8   8   8   8   8   8   8
#     4  11  22  34  49  73 108 146 183 219 265 330
#     4   9  17  29  52  79 107 136 173 223 276 328
#     4   9  19  32  52  80 110 140 174 226 282 325
#     4  10  19  33  52  78 112 141 173 218 280 329
#     4   9  17  32  56  84 111 136 173 226 284 331
#     4  11  23  37  54  77 109 150 189 222 264 324
#     4   9  18  33  55  83 109 137 179 232 280 321
#
# _framework density 21.727868000000001
#
# number of rings (size 3 to 8) (size 9 to 14) (size 15 to 20)
#    0.000    2.286    1.429    2.143    2.000    3.143 
#    0.000    2.143    0.000    7.714    0.000    8.000 
#    0.000    0.000    0.000    0.000    0.000    0.000 
#
# Total GULP energy -155928.889430 kJ/mol
# GULP energy per Si atom -5568.888908 kJ/mol
# Density = 2.167841 g / cm^3
# Si number density = 21.727868 Si / 1000 Ang^3
#
#
#
# Elastic Constant Matrix: (Units=GPa)
#
#
# Indices 1 2 3 4 5 6 
#
# 1 97.8546 9.3364 24.6596 0.0000 9.2850 0.0000
# 2 9.3364 110.9319 12.8374 0.0000 5.7037 0.0000
# 3 24.6596 12.8374 47.8852 0.0000 -3.8803 0.0000
# 4 0.0000 0.0000 0.0000 -26.3271 0.0000 -3.4346
# 5 9.2850 5.7037 -3.8803 0.0000 32.2710 0.0000
# 6 0.0000 0.0000 0.0000 -3.4346 0.0000 18.0975
#
#
#
# Elastic Compliance Matrix: (Units=1/GPa)
#
#
# Indices 1 2 3 4 5 6 
#
# 1 0.012320 -0.000040 -0.006685 0.000000 -0.004341 0.000000
# 2 -0.000040 0.009428 -0.002667 0.000000 -0.001976 0.000000
# 3 -0.006685 -0.002667 0.025483 0.000000 0.005459 0.000000
# 4 0.000000 0.000000 0.000000 -0.037066 0.000000 -0.007035
# 5 -0.004341 -0.001976 0.005459 0.000000 0.033242 0.000000
# 6 0.000000 0.000000 0.000000 -0.007035 0.000000 0.053921
#
#
# Mechanical properties :
#
#
# Convention : Reuss Voigt Hill
#
# Bulk Modulus (GPa) = 35.15383 38.92650 37.04016
# Shear Modulus (GPa) = 39.81018 18.79749 29.30383
#
# Velocity S-wave (km/s) = 4.28508 2.94450 3.67642
# Velocity P-wave (km/s) = 6.37941 5.43273 5.92501
#
# Compressibility (1/GPa) = 0.02844641
#
# Stress axis : x y z
#
# Youngs Moduli (GPa) = 81.17050 106.06571 39.24111
#
# Poissons Ratio (x) = 0.00424 0.26234
# Poissons Ratio (y) = 0.00325 0.10466
# Poissons Ratio (z) = 0.54266 0.28288
#
# Static dielectric constant tensor:
#      x y z
#    x 1.815310 0.000000 -0.048180 
#    y 0.000000 1.858380 0.000000 
#    z -0.048180 0.000000 1.824140 
# 
# From -- ./inp_files/174779.got.cif
#   From: 2010.05.17/outbox.cif.g08.bks.cpg/sg12_88_cif.got.tgz:174779.got - 2010.06.03 13:09:07.
