data_PCOD9182422
_publ_section_title
;
Structure prediction by ZEFSAII (Michael W. Deem and Ramdas Pophale) SiO2 
 PCOD9182422
Probable space group: C 2/M
;
_chemical_formula_sum "Si O2"
_cell_formula_units_Z 64
_cell_length_a 14.584411
_cell_length_b 7.611546
_cell_length_c 23.085030
_cell_angle_alpha 90.000000
_cell_angle_beta 96.623519
_cell_angle_gamma 90.000000
_cell_volume 2545.562706
_symmetry_space_group_name_H-M "C 2/M"
_symmetry_group_IT_number 12
_symmetry_cell_setting 'monoclinic'
loop_
_space_group_symop_operation_xyz
x,y,z
-x,y,-z
-x,-y,-z
x,-y,z
1/2+x,1/2+y,z
1/2-x,1/2+y,-z
1/2-x,1/2-y,-z
1/2+x,1/2-y,z
loop_
_atom_site_type_symbol
_atom_site_label
_atom_site_fract_x
_atom_site_fract_y
_atom_site_fract_z
Si Si1 0.394049 0.213355 0.989318
Si Si2 0.272762 0.707165 0.093555
Si Si3 0.398620 0.697777 0.762858
Si Si4 0.579300 0.215199 0.549111
Si Si5 0.460939 0.798624 0.643363
Si Si6 0.593076 0.283689 0.797863
Si Si7 0.774040 0.199048 0.582965
Si Si8 0.288816 0.701442 0.296800
O O1 0.338032 0.270015 0.042227
O O2 0.394877 0.000000 0.988146
O O3 0.500000 0.273780 0.000000
O O4 0.328936 0.275030 0.931189
O O5 0.261672 0.500000 0.104298
O O6 0.332223 0.780859 0.150670
O O7 0.380082 0.500000 0.781203
O O8 0.434969 0.694286 0.698749
O O9 0.487923 0.772645 0.802212
O O10 0.302256 0.796042 0.751181
O O11 0.500000 0.274935 0.500000
O O12 0.543931 0.269038 0.610130
O O13 0.683650 0.272656 0.544122
O O14 0.580651 0.000000 0.548768
O O15 0.370401 0.798024 0.594835
O O16 0.475742 0.000000 0.661349
O O17 0.591480 0.500000 0.797880
O O18 0.629052 0.229971 0.737119
O O19 0.737353 0.196844 0.647253
O O20 0.792496 0.000000 0.567038
O O21 0.304175 0.500000 0.314422
#
# Coordination Sequence:
#
# PCOD9182422 Si02
#       8
#     8   8   8   8   8   8   8   8
#     4   9  18  33  53  75  99 129 165 206 247 286
#     4   9  18  34  52  72 100 131 166 202 242 292
#     4  10  19  33  51  72  99 129 164 200 239 288
#     4   9  19  34  51  72  98 128 162 201 246 294
#     4  10  19  33  53  74  97 127 163 200 242 291
#     4   9  19  33  50  72 101 135 162 197 246 290
#     4  10  19  33  53  74  98 129 164 201 243 289
#     4  10  19  33  52  74 100 130 165 199 240 292
#
# _framework density 25.141787999999998
#
# number of rings (size 3 to 8) (size 9 to 14) (size 15 to 20)
#    0.000    2.500    0.000    3.750    0.000    1.750 
#    0.000    7.500    0.000    5.250    0.000    0.000 
#    0.000    0.000    0.000    0.000    0.000    0.000 
#
# Total GULP energy -178883.703320 kJ/mol
# GULP energy per Si atom -5590.115729 kJ/mol
# Density = 2.508456 g / cm^3
# Si number density = 25.141788 Si / 1000 Ang^3
#
#
#
# Elastic Constant Matrix: (Units=GPa)
#
#
# Indices 1 2 3 4 5 6 
#
# 1 147.9586 5.7301 11.3573 0.0000 36.4337 0.0000
# 2 5.7301 83.0164 4.7851 0.0000 9.7307 0.0000
# 3 11.3573 4.7851 64.0106 0.0000 30.1901 0.0000
# 4 0.0000 0.0000 0.0000 13.3477 0.0000 -1.3702
# 5 36.4337 9.7307 30.1901 0.0000 42.0069 0.0000
# 6 0.0000 0.0000 0.0000 -1.3702 0.0000 17.7467
#
#
#
# Elastic Compliance Matrix: (Units=1/GPa)
#
#
# Indices 1 2 3 4 5 6 
#
# 1 0.009008 0.000389 0.003177 0.000000 -0.010186 0.000000
# 2 0.000389 0.012417 0.000784 0.000000 -0.003777 0.000000
# 3 0.003177 0.000784 0.024787 0.000000 -0.020752 0.000000
# 4 0.000000 0.000000 0.000000 0.075518 0.000000 0.005831
# 5 -0.010186 -0.003777 -0.020752 0.000000 0.048429 0.000000
# 6 0.000000 0.000000 0.000000 0.005831 0.000000 0.056799
#
#
# Mechanical properties :
#
#
# Convention : Reuss Voigt Hill
#
# Bulk Modulus (GPa) = 18.21074 37.63671 27.92373
# Shear Modulus (GPa) = 21.13614 32.82780 26.98197
#
# Velocity S-wave (km/s) = 2.90259 3.61738 3.27952
# Velocity P-wave (km/s) = 4.30027 5.69645 5.04687
#
# Compressibility (1/GPa) = 0.05491265
#
# Stress axis : x y z
#
# Youngs Moduli (GPa) = 111.01250 80.53790 40.34296
#
# Poissons Ratio (x) = -0.03134 -0.12816
# Poissons Ratio (y) = -0.04319 -0.03164
# Poissons Ratio (z) = -0.35267 -0.06317
#
# Static dielectric constant tensor:
#      x y z
#    x 2.006780 0.000000 0.081350 
#    y 0.000000 1.869730 0.000000 
#    z 0.081350 0.000000 2.056490 
# 
# From -- ./inp_files/359925.got.cif
#   From: 2010.05.17/outbox.cif.g08.bks.cpg/sg12_180_cif.got.tgz:359925.got - 2010.06.03 13:09:07.
