data_PCOD9182029
_publ_section_title
;
Structure prediction by ZEFSAII (Michael W. Deem and Ramdas Pophale) SiO2 
 PCOD9182029
Probable space group: C 2/M
;
_chemical_formula_sum "Si O2"
_cell_formula_units_Z 64
_cell_length_a 19.910924
_cell_length_b 12.310981
_cell_length_c 14.472573
_cell_angle_alpha 90.000000
_cell_angle_beta 109.133791
_cell_angle_gamma 90.000000
_cell_volume 3351.578346
_symmetry_space_group_name_H-M "C 2/M"
_symmetry_group_IT_number 12
_symmetry_cell_setting 'monoclinic'
loop_
_space_group_symop_operation_xyz
x,y,z
-x,y,-z
-x,-y,-z
x,-y,z
1/2+x,1/2+y,z
1/2-x,1/2+y,-z
1/2-x,1/2-y,-z
1/2+x,1/2-y,z
loop_
_atom_site_type_symbol
_atom_site_label
_atom_site_fract_x
_atom_site_fract_y
_atom_site_fract_z
Si Si1 0.844425 0.379018 0.214016
Si Si2 0.094894 0.626049 0.093807
Si Si3 0.440520 0.209664 0.409277
Si Si4 0.503572 0.373481 0.283633
Si Si5 0.956560 0.707339 0.118673
Si Si6 0.738684 0.789716 0.244120
Si Si7 0.836658 0.879786 0.439118
Si Si8 0.825043 0.877870 0.639337
O O1 0.814245 0.500000 0.190361
O O2 0.890024 0.368985 0.328928
O O3 0.900901 0.355111 0.158674
O O4 0.786814 0.282501 0.196693
O O5 0.089545 0.500000 0.062662
O O6 0.172751 0.652158 0.166342
O O7 0.033310 0.649259 0.141473
O O8 0.076607 0.702832 0.998522
O O9 0.500000 0.156693 0.500000
O O10 0.474027 0.294672 0.350444
O O11 0.392848 0.284608 0.453417
O O12 0.483670 0.500000 0.287376
O O13 0.472457 0.322301 0.174855
O O14 0.589236 0.367339 0.321748
O O15 0.787120 0.869743 0.327022
O O16 0.708357 0.706561 0.306388
O O17 0.799804 0.865911 0.521914
O O18 0.870143 0.000000 0.457039
O O19 0.807275 0.000000 0.661718
#
# Coordination Sequence:
#
# PCOD9182029 Si02
#       8
#     8   8   8   8   8   8   8   8
#     4  10  22  39  58  81 117 156 189 232 289 347
#     4  11  22  39  65  87 110 146 192 246 292 338
#     4  10  19  32  55  83 113 148 193 238 276 331
#     4  10  19  33  56  84 115 146 182 232 285 337
#     4  10  21  41  61  86 113 144 193 240 293 342
#     4  11  22  37  55  84 116 148 194 234 283 344
#     4  10  20  33  52  79 113 151 189 231 280 334
#     4  10  19  33  53  76 110 152 186 222 278 337
#
# _framework density 19.095480999999999
#
# number of rings (size 3 to 8) (size 9 to 14) (size 15 to 20)
#    0.000    1.750    2.500    3.000    0.000    1.250 
#    0.000    3.125    0.000    0.750    0.000    0.000 
#    0.000    0.000    0.000    0.000    0.000    0.000 
#
# Total GULP energy -178509.577023 kJ/mol
# GULP energy per Si atom -5578.424282 kJ/mol
# Density = 1.905202 g / cm^3
# Si number density = 19.095481 Si / 1000 Ang^3
#
#
#
# Elastic Constant Matrix: (Units=GPa)
#
#
# Indices 1 2 3 4 5 6 
#
# 1 55.1986 7.5484 14.4436 0.0000 1.8839 0.0000
# 2 7.5484 59.6834 5.2666 0.0000 -9.3578 0.0000
# 3 14.4436 5.2666 60.2437 0.0000 4.9583 0.0000
# 4 0.0000 0.0000 0.0000 18.5200 0.0000 1.1817
# 5 1.8839 -9.3578 4.9583 0.0000 33.4225 0.0000
# 6 0.0000 0.0000 0.0000 1.1817 0.0000 -4.0613
#
#
#
# Elastic Compliance Matrix: (Units=1/GPa)
#
#
# Indices 1 2 3 4 5 6 
#
# 1 0.019618 -0.002261 -0.004417 0.000000 -0.001084 0.000000
# 2 -0.002261 0.018017 -0.001477 0.000000 0.005391 0.000000
# 3 -0.004417 -0.001477 0.018021 0.000000 -0.002838 0.000000
# 4 0.000000 0.000000 0.000000 0.053011 0.000000 0.015425
# 5 -0.001084 0.005391 -0.002838 0.000000 0.031911 0.000000
# 6 0.000000 0.000000 0.000000 0.015425 0.000000 -0.241740
#
#
# Mechanical properties :
#
#
# Convention : Reuss Voigt Hill
#
# Bulk Modulus (GPa) = 25.41518 25.51586 25.46552
# Shear Modulus (GPa) = -69.69931 19.43406 -25.13263
#
# Velocity S-wave (km/s) = -6.04811 3.19365 -3.63182
# Velocity P-wave (km/s) = 5.95269 5.19523 2.05475
#
# Compressibility (1/GPa) = 0.03934656
#
# Stress axis : x y z
#
# Youngs Moduli (GPa) = 50.97274 55.50423 55.49145
#
# Poissons Ratio (x) = 0.12552 0.24509
# Poissons Ratio (y) = 0.11527 0.08194
# Poissons Ratio (z) = 0.22513 0.08196
#
# Static dielectric constant tensor:
#      x y z
#    x 1.681330 0.000000 -0.000150 
#    y 0.000000 1.634610 0.000000 
#    z -0.000150 0.000000 1.673690 
# 
# From -- ./inp_files/232448.got.cif
#   From: 2010.05.17/outbox.cif.g08.bks.cpg/sg12_117_cif.got.tgz:232448.got - 2010.06.03 13:09:07.
