data_PCOD9182139
_publ_section_title
;
Structure prediction by ZEFSAII (Michael W. Deem and Ramdas Pophale) SiO2 
 PCOD9182139
Probable space group: C 2/M
;
_chemical_formula_sum "Si O2"
_cell_formula_units_Z 56
_cell_length_a 33.012061
_cell_length_b 9.834226
_cell_length_c 11.513332
_cell_angle_alpha 90.000000
_cell_angle_beta 54.010045
_cell_angle_gamma 90.000000
_cell_volume 3024.313478
_symmetry_space_group_name_H-M "C 2/M"
_symmetry_group_IT_number 12
_symmetry_cell_setting 'monoclinic'
loop_
_space_group_symop_operation_xyz
x,y,z
-x,y,-z
-x,-y,-z
x,-y,z
1/2+x,1/2+y,z
1/2-x,1/2+y,-z
1/2-x,1/2-y,-z
1/2+x,1/2-y,z
loop_
_atom_site_type_symbol
_atom_site_label
_atom_site_fract_x
_atom_site_fract_y
_atom_site_fract_z
Si Si1 0.319356 0.841879 0.690217
Si Si2 0.025368 0.335569 0.077974
Si Si3 0.206468 0.846131 0.914081
Si Si4 0.640606 0.160032 0.862935
Si Si5 0.704372 0.843412 0.538571
Si Si6 0.530644 0.838330 0.327831
Si Si7 0.378067 0.343838 0.750416
O O1 0.264593 0.815742 0.838412
O O2 0.310622 0.822802 0.568642
O O3 0.360769 0.740322 0.667727
O O4 0.332958 0.000000 0.690292
O O5 0.023649 0.500000 0.073229
O O6 0.006118 0.304312 0.242274
O O7 0.083802 0.294208 0.978007
O O8 0.000000 0.285266 0.000000
O O9 0.180948 0.741951 0.869261
O O10 0.205883 0.000000 0.865068
O O11 0.170856 0.846052 0.085291
O O12 0.657105 0.176931 0.702072
O O13 0.643331 0.000000 0.888181
O O14 0.750000 0.750000 0.500000
O O15 0.720319 0.000000 0.525690
O O16 0.500000 0.819332 0.500000
O O17 0.578801 0.742548 0.260206
O O18 0.543683 0.000000 0.300807
O O19 0.393011 0.500000 0.703170
#
# Coordination Sequence:
#
# PCOD9182139 Si02
#       7
#     8   8   8   8   8   8   8
#     4  10  21  36  54  80 116 153 191 232 275 327
#     4   9  18  34  57  85 112 138 180 235 285 337
#     4  10  20  35  55  80 111 149 186 227 276 327
#     4  10  19  32  56  84 108 142 185 227 274 331
#     4  10  20  33  52  79 110 147 186 228 276 328
#     4  10  21  38  62  87 110 147 192 237 290 345
#     4  11  23  37  56  83 114 149 190 234 283 336
#
# _framework density 18.516598999999999
#
# number of rings (size 3 to 8) (size 9 to 14) (size 15 to 20)
#    0.000    2.000    2.857    0.857    0.000    3.143 
#    0.000    4.286    0.000    1.714    0.000    0.000 
#    0.000    0.000    0.000    0.000    0.000    0.000 
#
# Total GULP energy -156048.966017 kJ/mol
# GULP energy per Si atom -5573.177358 kJ/mol
# Density = 1.847445 g / cm^3
# Si number density = 18.516599 Si / 1000 Ang^3
#
#
#
# Elastic Constant Matrix: (Units=GPa)
#
#
# Indices 1 2 3 4 5 6 
#
# 1 82.1052 51.2424 24.0046 0.0000 17.6243 0.0000
# 2 51.2424 60.9709 29.4774 0.0000 11.5355 0.0000
# 3 24.0046 29.4774 82.5929 0.0000 18.5556 0.0000
# 4 0.0000 0.0000 0.0000 17.8450 0.0000 -1.7936
# 5 17.6243 11.5355 18.5556 0.0000 16.7986 0.0000
# 6 0.0000 0.0000 0.0000 -1.7936 0.0000 24.3499
#
#
#
# Elastic Compliance Matrix: (Units=1/GPa)
#
#
# Indices 1 2 3 4 5 6 
#
# 1 0.029706 -0.023205 0.004083 0.000000 -0.019742 0.000000
# 2 -0.023205 0.038729 -0.008742 0.000000 0.007407 0.000000
# 3 0.004083 -0.008742 0.018162 0.000000 -0.018342 0.000000
# 4 0.000000 0.000000 0.000000 0.056456 0.000000 0.004158
# 5 -0.019742 0.007407 -0.018342 0.000000 0.095415 0.000000
# 6 0.000000 0.000000 0.000000 0.004158 0.000000 0.041374
#
#
# Mechanical properties :
#
#
# Convention : Reuss Voigt Hill
#
# Bulk Modulus (GPa) = 32.39525 48.34643 40.37084
# Shear Modulus (GPa) = 14.45678 19.86166 17.15922
#
# Velocity S-wave (km/s) = 2.79722 3.27867 3.04747
# Velocity P-wave (km/s) = 5.28827 6.36391 5.85086
#
# Compressibility (1/GPa) = 0.03086872
#
# Stress axis : x y z
#
# Youngs Moduli (GPa) = 33.66359 25.82052 55.06099
#
# Poissons Ratio (x) = 0.59917 -0.22484
# Poissons Ratio (y) = 0.78117 0.48135
# Poissons Ratio (z) = -0.13747 0.22573
#
# Static dielectric constant tensor:
#      x y z
#    x 1.617160 0.000000 0.011880 
#    y 0.000000 1.626130 0.000000 
#    z 0.011880 0.000000 1.700470 
# 
# From -- ./inp_files/187236.got.cif
#   From: 2010.05.17/outbox.cif.g08.bks.cpg/sg12_94_cif.got.tgz:187236.got - 2010.06.03 13:09:07.
