data_PCOD9182549
_publ_section_title
;
Structure prediction by ZEFSAII (Michael W. Deem and Ramdas Pophale) SiO2 
 PCOD9182549
Probable space group: C 2/M
;
_chemical_formula_sum "Si O2"
_cell_formula_units_Z 48
_cell_length_a 15.382481
_cell_length_b 7.567485
_cell_length_c 20.092246
_cell_angle_alpha 90.000000
_cell_angle_beta 99.964081
_cell_angle_gamma 90.000000
_cell_volume 2303.593375
_symmetry_space_group_name_H-M "C 2/M"
_symmetry_group_IT_number 12
_symmetry_cell_setting 'monoclinic'
loop_
_space_group_symop_operation_xyz
x,y,z
-x,y,-z
-x,-y,-z
x,-y,z
1/2+x,1/2+y,z
1/2-x,1/2+y,-z
1/2-x,1/2-y,-z
1/2+x,1/2-y,z
loop_
_atom_site_type_symbol
_atom_site_label
_atom_site_fract_x
_atom_site_fract_y
_atom_site_fract_z
Si Si1 0.298895 0.789904 0.075984
Si Si2 0.904584 0.215967 0.567439
Si Si3 0.333010 0.717093 0.826016
Si Si4 0.393655 0.712926 0.415833
Si Si5 0.213448 0.208416 0.326669
Si Si6 0.502934 0.706703 0.925883
O O1 0.240028 0.725981 0.129799
O O2 0.398107 0.719489 0.087545
O O3 0.305227 0.000000 0.082287
O O4 0.250000 0.750000 0.000000
O O5 0.875803 0.272945 0.489536
O O6 0.842790 0.281032 0.618624
O O7 0.007026 0.268445 0.589665
O O8 0.902411 0.000000 0.566549
O O9 0.331234 0.500000 0.824187
O O10 0.312267 0.780084 0.748967
O O11 0.427878 0.776554 0.866744
O O12 0.393826 0.500000 0.416362
O O13 0.316309 0.771306 0.357136
O O14 0.193510 0.000000 0.322040
O O15 0.480089 0.500000 0.930597
O O16 0.500000 0.785493 0.000000
#
# Coordination Sequence:
#
# PCOD9182549 Si02
#       6
#     8   8   8   8   8   8
#     4  11  21  36  56  79 103 133 171 217 263 309
#     4   8  16  31  52  74 101 137 173 205 253 310
#     4   9  20  36  52  73 106 140 169 207 262 314
#     4   9  17  32  52  76 103 133 170 216 255 294
#     4  10  19  33  52  74 102 139 174 206 253 312
#     4  10  19  36  58  78 102 135 171 211 261 314
#
# _framework density 20.837011
#
# number of rings (size 3 to 8) (size 9 to 14) (size 15 to 20)
#    0.000    2.500    1.667    2.000    0.000    1.667 
#    0.000    6.667    0.000    0.000    0.000    0.000 
#    0.000    0.000    0.000    0.000    0.000    0.000 
#
# Total GULP energy -133991.704655 kJ/mol
# GULP energy per Si atom -5582.987694 kJ/mol
# Density = 2.078958 g / cm^3
# Si number density = 20.837011 Si / 1000 Ang^3
#
#
#
# Elastic Constant Matrix: (Units=GPa)
#
#
# Indices 1 2 3 4 5 6 
#
# 1 92.5304 -15.8881 63.1060 0.0000 24.2034 0.0000
# 2 -15.8881 42.3219 1.0259 0.0000 -3.3916 0.0000
# 3 63.1060 1.0259 145.0593 0.0000 33.6887 0.0000
# 4 0.0000 0.0000 0.0000 11.6047 0.0000 6.1271
# 5 24.2034 -3.3916 33.6887 0.0000 26.3299 0.0000
# 6 0.0000 0.0000 0.0000 6.1271 0.0000 21.0265
#
#
#
# Elastic Compliance Matrix: (Units=1/GPa)
#
#
# Indices 1 2 3 4 5 6 
#
# 1 0.018141 0.006306 -0.006050 0.000000 -0.008122 0.000000
# 2 0.006306 0.026229 -0.003368 0.000000 0.001891 0.000000
# 3 -0.006050 -0.003368 0.011893 0.000000 -0.010089 0.000000
# 4 0.000000 0.000000 0.000000 0.101841 0.000000 -0.029676
# 5 -0.008122 0.001891 -0.010089 0.000000 0.058598 0.000000
# 6 0.000000 0.000000 0.000000 -0.029676 0.000000 0.056207
#
#
# Mechanical properties :
#
#
# Convention : Reuss Voigt Hill
#
# Bulk Modulus (GPa) = 19.98482 41.82214 30.90348
# Shear Modulus (GPa) = 16.90264 27.23673 22.06969
#
# Velocity S-wave (km/s) = 2.85122 3.61935 3.25800
# Velocity P-wave (km/s) = 4.52229 6.13033 5.38665
#
# Compressibility (1/GPa) = 0.05003799
#
# Stress axis : x y z
#
# Youngs Moduli (GPa) = 55.12406 38.12580 84.08583
#
# Poissons Ratio (x) = -0.24042 0.50874
# Poissons Ratio (y) = -0.34761 0.28321
# Poissons Ratio (z) = 0.33351 0.12841
#
# Static dielectric constant tensor:
#      x y z
#    x 1.711100 0.000000 -0.009780 
#    y 0.000000 1.799650 0.000000 
#    z -0.009780 0.000000 1.729230 
# 
# From -- ./inp_files/303839.got.cif
#   From: 2010.05.17/outbox.cif.g08.bks.cpg/sg12_152_cif.got.tgz:303839.got - 2010.06.03 13:09:07.
