data_PCOD9182020
_publ_section_title
;
Structure prediction by ZEFSAII (Michael W. Deem and Ramdas Pophale) SiO2 
 PCOD9182020
Probable space group: C 2/M
;
_chemical_formula_sum "Si O2"
_cell_formula_units_Z 56
_cell_length_a 19.900088
_cell_length_b 9.063373
_cell_length_c 21.422669
_cell_angle_alpha 90.000000
_cell_angle_beta 124.873016
_cell_angle_gamma 90.000000
_cell_volume 3169.971260
_symmetry_space_group_name_H-M "C 2/M"
_symmetry_group_IT_number 12
_symmetry_cell_setting 'monoclinic'
loop_
_space_group_symop_operation_xyz
x,y,z
-x,y,-z
-x,-y,-z
x,-y,z
1/2+x,1/2+y,z
1/2-x,1/2+y,-z
1/2-x,1/2-y,-z
1/2+x,1/2-y,z
loop_
_atom_site_type_symbol
_atom_site_label
_atom_site_fract_x
_atom_site_fract_y
_atom_site_fract_z
Si Si1 0.017405 0.825225 0.806617
Si Si2 0.145553 0.175144 0.200863
Si Si3 0.739357 0.177663 0.362322
Si Si4 0.922271 0.179219 0.499220
Si Si5 0.597847 0.321454 0.367940
Si Si6 0.336212 0.829857 0.048827
Si Si7 0.093306 0.327708 0.052871
O O1 0.098733 0.741842 0.869638
O O2 0.945065 0.796552 0.818357
O O3 0.976576 0.785188 0.718674
O O4 0.033654 0.000000 0.815080
O O5 0.207451 0.258525 0.279730
O O6 0.144271 0.236590 0.130390
O O7 0.159855 0.000000 0.210886
O O8 0.833621 0.219918 0.424432
O O9 0.679055 0.245628 0.382932
O O10 0.732748 0.000000 0.359830
O O11 0.922100 0.222861 0.571975
O O12 0.000000 0.232032 0.500000
O O13 0.925689 0.000000 0.500532
O O14 0.609376 0.500000 0.371560
O O15 0.324919 0.000000 0.059351
O O16 0.250000 0.750000 0.000000
O O17 0.372387 0.820262 0.998309
O O18 0.091620 0.500000 0.071992
O O19 0.000000 0.272738 0.000000
#
# Coordination Sequence:
#
# PCOD9182020 Si02
#       7
#     8   8   8   8   8   8   8
#     4   9  18  33  53  79 108 141 181 223 270 320
#     4  10  20  34  56  84 113 143 178 227 274 322
#     4  10  19  32  55  83 110 141 181 226 268 319
#     4   9  18  34  55  80 110 143 180 221 268 323
#     4   9  18  34  57  82 107 140 182 225 269 321
#     4  11  23  38  56  78 110 147 182 226 270 322
#     4  10  20  36  58  83 109 140 182 229 273 316
#
# _framework density 17.665776000000001
#
# number of rings (size 3 to 8) (size 9 to 14) (size 15 to 20)
#    0.000    2.286    1.429    2.571    0.000    3.714 
#    2.571    0.714    0.000    3.857    0.000    0.000 
#    0.000    0.000    0.000    0.000    0.000    0.000 
#
# Total GULP energy -156207.162120 kJ/mol
# GULP energy per Si atom -5578.827219 kJ/mol
# Density = 1.762557 g / cm^3
# Si number density = 17.665776 Si / 1000 Ang^3
#
#
#
# Elastic Constant Matrix: (Units=GPa)
#
#
# Indices 1 2 3 4 5 6 
#
# 1 83.2376 41.6230 69.5995 0.0000 22.3733 0.0000
# 2 41.6230 50.0146 53.0258 0.0000 17.6262 0.0000
# 3 69.5995 53.0258 137.2150 0.0000 20.6169 0.0000
# 4 0.0000 0.0000 0.0000 25.2779 0.0000 2.0580
# 5 22.3733 17.6262 20.6169 0.0000 26.5797 0.0000
# 6 0.0000 0.0000 0.0000 2.0580 0.0000 25.6227
#
#
#
# Elastic Compliance Matrix: (Units=1/GPa)
#
#
# Indices 1 2 3 4 5 6 
#
# 1 0.026240 -0.010091 -0.008033 0.000000 -0.009165 0.000000
# 2 -0.010091 0.043019 -0.009617 0.000000 -0.012575 0.000000
# 3 -0.008033 -0.009617 0.014833 0.000000 0.001634 0.000000
# 4 0.000000 0.000000 0.000000 0.039821 0.000000 -0.003198
# 5 -0.009165 -0.012575 0.001634 0.000000 0.052409 0.000000
# 6 0.000000 0.000000 0.000000 -0.003198 0.000000 0.039285
#
#
# Mechanical properties :
#
#
# Convention : Reuss Voigt Hill
#
# Bulk Modulus (GPa) = 34.95120 66.55156 50.75138
# Shear Modulus (GPa) = 17.81731 22.57731 20.19731
#
# Velocity S-wave (km/s) = 3.17926 3.57883 3.38494
# Velocity P-wave (km/s) = 5.77101 7.40484 6.63838
#
# Compressibility (1/GPa) = 0.02861132
#
# Stress axis : x y z
#
# Youngs Moduli (GPa) = 38.10965 23.24533 67.41528
#
# Poissons Ratio (x) = 0.23456 0.54156
# Poissons Ratio (y) = 0.38455 0.64832
# Poissons Ratio (z) = 0.30614 0.22355
#
# Static dielectric constant tensor:
#      x y z
#    x 1.404200 0.000000 0.024990 
#    y 0.000000 1.595880 0.000000 
#    z 0.024990 0.000000 1.588320 
# 
# From -- ./inp_files/314427.got.cif
#   From: 2010.05.17/outbox.cif.g08.bks.cpg/sg12_158_cif.got.tgz:314427.got - 2010.06.03 13:09:07.
