data_PCOD9182253
_publ_section_title
;
Structure prediction by ZEFSAII (Michael W. Deem and Ramdas Pophale) SiO2 
 PCOD9182253
Probable space group: C 2/M
;
_chemical_formula_sum "Si O2"
_cell_formula_units_Z 52
_cell_length_a 9.458615
_cell_length_b 14.665882
_cell_length_c 23.090659
_cell_angle_alpha 90.000000
_cell_angle_beta 44.143141
_cell_angle_gamma 90.000000
_cell_volume 2230.817650
_symmetry_space_group_name_H-M "C 2/M"
_symmetry_group_IT_number 12
_symmetry_cell_setting 'monoclinic'
loop_
_space_group_symop_operation_xyz
x,y,z
-x,y,-z
-x,-y,-z
x,-y,z
1/2+x,1/2+y,z
1/2-x,1/2+y,-z
1/2-x,1/2-y,-z
1/2+x,1/2-y,z
loop_
_atom_site_type_symbol
_atom_site_label
_atom_site_fract_x
_atom_site_fract_y
_atom_site_fract_z
Si Si1 0.437084 0.850487 0.080885
Si Si2 0.150526 0.688181 0.129127
Si Si3 0.814229 0.829848 0.263467
Si Si4 0.006654 0.398713 0.720667
Si Si5 0.766137 0.607534 0.586926
Si Si6 0.604589 0.500000 0.185527
Si Si7 0.027199 0.890418 0.427385
O O1 0.624408 0.839248 0.069993
O O2 0.269322 0.918834 0.155927
O O3 0.334499 0.753246 0.094490
O O4 0.500000 0.890512 0.000000
O O5 0.950149 0.747935 0.201271
O O6 0.121499 0.606581 0.182647
O O7 0.603328 0.832525 0.291546
O O8 0.773087 0.836415 0.343709
O O9 0.945020 0.920103 0.211475
O O10 0.002350 0.500000 0.696103
O O11 0.242611 0.378064 0.660194
O O12 0.707430 0.500000 0.617204
O O13 0.630249 0.642487 0.574062
O O14 0.000000 0.607640 0.500000
O O15 0.000000 0.852607 0.500000
O O16 0.989258 0.000000 0.441981
#
# Coordination Sequence:
#
# PCOD9182253 Si02
#       7
#     8   8   8   8   8   4   8
#     4  11  24  45  69  95 128 164 206 259 321 389
#     4  11  25  41  65  94 128 165 208 256 322 381
#     4  11  21  40  61  92 128 167 210 263 313 372
#     4  11  22  38  62  89 126 166 215 262 308 369
#     4  10  19  32  58  89 125 171 217 258 314 372
#     4  10  23  38  71  95 127 160 216 259 313 378
#     4   9  19  32  53  86 123 161 209 263 311 361
#
# _framework density 23.309840000000001
#
# number of rings (size 3 to 8) (size 9 to 14) (size 15 to 20)
#    0.000    1.538    3.077    1.615    5.385    2.462 
#    0.000    0.769    0.000    5.077    0.000    0.000 
#    0.000    0.000    0.000    0.000    0.000    0.000 
#
# Total GULP energy -144879.717522 kJ/mol
# GULP energy per Si atom -5572.296828 kJ/mol
# Density = 2.325679 g / cm^3
# Si number density = 23.309840 Si / 1000 Ang^3
#
#
#
# Elastic Constant Matrix: (Units=GPa)
#
#
# Indices 1 2 3 4 5 6 
#
# 1 137.4034 -12.5928 15.2309 0.0005 19.3902 0.0000
# 2 -12.5928 57.3315 -2.9700 -0.0001 2.0435 0.0000
# 3 15.2309 -2.9700 37.2737 -0.0001 22.6899 -0.0005
# 4 0.0005 -0.0001 -0.0001 22.1121 0.0002 -0.6328
# 5 19.3902 2.0435 22.6899 0.0002 42.8711 0.0001
# 6 0.0000 0.0000 -0.0005 -0.6328 0.0001 8.6841
#
#
#
# Elastic Compliance Matrix: (Units=1/GPa)
#
#
# Indices 1 2 3 4 5 6 
#
# 1 0.008013 0.001801 -0.001287 0.000000 -0.003029 0.000000
# 2 0.001801 0.018078 0.002545 0.000000 -0.003023 0.000000
# 3 -0.001287 0.002545 0.040242 0.000001 -0.020838 0.000002
# 4 0.000000 0.000000 0.000001 0.045319 0.000000 0.003302
# 5 -0.003029 -0.003023 -0.020838 0.000000 0.035868 -0.000001
# 6 0.000000 0.000000 0.000002 0.003302 -0.000001 0.115394
#
#
# Mechanical properties :
#
#
# Convention : Reuss Voigt Hill
#
# Bulk Modulus (GPa) = 13.80247 25.70498 19.75372
# Shear Modulus (GPa) = 17.79704 30.22282 24.00993
#
# Velocity S-wave (km/s) = 2.76615 3.60470 3.21290
# Velocity P-wave (km/s) = 4.01699 5.32697 4.71767
#
# Compressibility (1/GPa) = 0.07245082
#
# Stress axis : x y z
#
# Youngs Moduli (GPa) = 124.79674 55.31682 24.84977
#
# Poissons Ratio (x) = -0.09964 0.03198
# Poissons Ratio (y) = -0.22480 -0.06324
# Poissons Ratio (z) = 0.16061 -0.14077
#
# Static dielectric constant tensor:
#      x y z
#    x 1.896190 0.000000 0.024420 
#    y 0.000000 1.859970 0.000000 
#    z 0.024420 0.000000 1.920350 
# 
# From -- ./inp_files/301061.got.cif
#   From: 2010.05.17/outbox.cif.g08.bks.cpg/sg12_151_cif.got.tgz:301061.got - 2010.06.03 13:09:07.
