data_PCOD9182412
_publ_section_title
;
Structure prediction by ZEFSAII (Michael W. Deem and Ramdas Pophale) SiO2 
 PCOD9182412
Probable space group: C 2/M
;
_chemical_formula_sum "Si O2"
_cell_formula_units_Z 64
_cell_length_a 13.512525
_cell_length_b 31.870963
_cell_length_c 9.731854
_cell_angle_alpha 90.000000
_cell_angle_beta 90.708541
_cell_angle_gamma 90.000000
_cell_volume 4190.772380
_symmetry_space_group_name_H-M "C 2/M"
_symmetry_group_IT_number 12
_symmetry_cell_setting 'monoclinic'
loop_
_space_group_symop_operation_xyz
x,y,z
-x,y,-z
-x,-y,-z
x,-y,z
1/2+x,1/2+y,z
1/2-x,1/2+y,-z
1/2-x,1/2-y,-z
1/2+x,1/2-y,z
loop_
_atom_site_type_symbol
_atom_site_label
_atom_site_fract_x
_atom_site_fract_y
_atom_site_fract_z
Si Si1 0.191579 0.312370 0.217012
Si Si2 0.383875 0.721715 0.838902
Si Si3 0.609707 0.726957 0.830278
Si Si4 0.686836 0.182479 0.736065
Si Si5 0.897851 0.546286 0.582896
Si Si6 0.117928 0.637942 0.471586
Si Si7 0.101696 0.545924 0.089100
Si Si8 0.617890 0.132546 0.977648
O O1 0.140407 0.267213 0.223541
O O2 0.307835 0.303087 0.234369
O O3 0.142728 0.343540 0.323615
O O4 0.170228 0.331868 0.068226
O O5 0.497531 0.712448 0.806363
O O6 0.300498 0.690686 0.780005
O O7 0.373668 0.726335 0.004147
O O8 0.629892 0.774243 0.775413
O O9 0.671288 0.168422 0.580311
O O10 0.641330 0.144264 0.822849
O O11 0.849792 0.500000 0.564374
O O12 0.848389 0.589153 0.528508
O O13 0.916772 0.551460 0.747662
O O14 0.000000 0.544424 0.500000
O O15 0.000000 0.638880 0.500000
O O16 0.149901 0.500000 0.072354
O O17 0.153749 0.587102 0.029798
O O18 0.000000 0.544414 0.000000
O O19 0.500000 0.135108 0.000000
#
# Coordination Sequence:
#
# PCOD9182412 Si02
#       8
#     8   8   8   8   8   8   8   8
#     4  11  19  33  48  71  94 125 167 195 234 281
#     4  10  19  33  51  71  95 124 161 203 248 278
#     4  10  19  33  52  70  94 126 159 205 247 281
#     4  11  21  33  47  72  95 126 167 198 232 284
#     4   9  18  31  44  63  96 132 157 186 237 290
#     4  11  22  32  46  71 100 132 160 195 233 282
#     4   9  18  29  44  68  94 124 161 197 233 279
#     4  11  18  28  48  68  93 127 159 199 229 272
#
# _framework density 15.271647
#
# number of rings (size 3 to 8) (size 9 to 14) (size 15 to 20)
#    0.000    1.750    3.750    3.000    5.250    2.000 
#    0.000    1.875    0.000    0.000    0.000    0.000 
#    0.000    6.000    0.000    0.000    0.000    0.000 
#
# Total GULP energy -178230.373483 kJ/mol
# GULP energy per Si atom -5569.699171 kJ/mol
# Density = 1.523689 g / cm^3
# Si number density = 15.271647 Si / 1000 Ang^3
#
#
#
# Elastic Constant Matrix: (Units=GPa)
#
#
# Indices 1 2 3 4 5 6 
#
# 1 73.3757 20.0530 -0.7100 0.0000 -1.2039 0.0000
# 2 20.0530 71.6643 -5.7041 0.0000 -3.0177 0.0000
# 3 -0.7100 -5.7041 21.0109 0.0000 1.5198 0.0000
# 4 0.0000 0.0000 0.0000 17.4968 0.0000 0.1049
# 5 -1.2039 -3.0177 1.5198 0.0000 20.0585 0.0000
# 6 0.0000 0.0000 0.0000 0.1049 0.0000 6.8203
#
#
#
# Elastic Compliance Matrix: (Units=1/GPa)
#
#
# Indices 1 2 3 4 5 6 
#
# 1 0.014767 -0.004171 -0.000656 0.000000 0.000308 0.000000
# 2 -0.004171 0.015510 0.003941 0.000000 0.001784 0.000000
# 3 -0.000656 0.003941 0.048870 0.000000 -0.003149 0.000000
# 4 0.000000 0.000000 0.000000 0.057159 0.000000 -0.000879
# 5 0.000308 0.001784 -0.003149 0.000000 0.050380 0.000000
# 6 0.000000 0.000000 0.000000 -0.000879 0.000000 0.146634
#
#
# Mechanical properties :
#
#
# Convention : Reuss Voigt Hill
#
# Bulk Modulus (GPa) = 12.92423 21.48098 17.20261
# Shear Modulus (GPa) = 13.85488 19.03592 16.44540
#
# Velocity S-wave (km/s) = 3.01529 3.53439 3.28511
# Velocity P-wave (km/s) = 4.53915 5.54548 5.06736
#
# Compressibility (1/GPa) = 0.07737404
#
# Stress axis : x y z
#
# Youngs Moduli (GPa) = 67.71766 64.47469 20.46254
#
# Poissons Ratio (x) = 0.26895 0.01342
# Poissons Ratio (y) = 0.28247 -0.08063
# Poissons Ratio (z) = 0.04440 -0.25407
#
# Static dielectric constant tensor:
#      x y z
#    x 1.501770 0.000000 0.006860 
#    y 0.000000 1.537150 0.000000 
#    z 0.006860 0.000000 1.506390 
# 
# From -- ./inp_files/67842.got.cif
#   From: 2010.05.17/outbox.cif.g08.bks.cpg/sg12_34_cif.got.tgz:67842.got - 2010.06.03 13:09:07.
