data_PCOD9182429
_publ_section_title
;
Structure prediction by ZEFSAII (Michael W. Deem and Ramdas Pophale) SiO2 
 PCOD9182429
Probable space group: C 2/M
;
_chemical_formula_sum "Si O2"
_cell_formula_units_Z 56
_cell_length_a 32.531128
_cell_length_b 7.383996
_cell_length_c 12.402422
_cell_angle_alpha 90.000000
_cell_angle_beta 57.777896
_cell_angle_gamma 90.000000
_cell_volume 2520.351067
_symmetry_space_group_name_H-M "C 2/M"
_symmetry_group_IT_number 12
_symmetry_cell_setting 'monoclinic'
loop_
_space_group_symop_operation_xyz
x,y,z
-x,y,-z
-x,-y,-z
x,-y,z
1/2+x,1/2+y,z
1/2-x,1/2+y,-z
1/2-x,1/2-y,-z
1/2+x,1/2-y,z
loop_
_atom_site_type_symbol
_atom_site_label
_atom_site_fract_x
_atom_site_fract_y
_atom_site_fract_z
Si Si1 0.807439 0.784556 0.421662
Si Si2 0.680091 0.720265 0.354802
Si Si3 0.078968 0.220332 0.404515
Si Si4 0.007558 0.220608 0.320516
Si Si5 0.147007 0.777225 0.867767
Si Si6 0.035048 0.221110 0.046594
Si Si7 0.726931 0.297309 0.916559
O O1 0.750000 0.750000 0.500000
O O2 0.825346 0.719201 0.513576
O O3 0.831534 0.716329 0.277790
O O4 0.815688 0.000000 0.410330
O O5 0.682386 0.500000 0.350493
O O6 0.633432 0.779259 0.351492
O O7 0.729449 0.786692 0.231016
O O8 0.053273 0.276802 0.329948
O O9 0.041852 0.276149 0.550954
O O10 0.079849 0.000000 0.403061
O O11 0.013725 0.280592 0.190589
O O12 0.007210 0.000000 0.321632
O O13 0.180972 0.710464 0.919039
O O14 0.148755 0.000000 0.864813
O O15 0.091023 0.724023 0.956686
O O16 0.035083 0.000000 0.045898
O O17 0.000000 0.280635 0.000000
O O18 0.709994 0.500000 0.959007
O O19 0.750000 0.250000 0.000000
#
# Coordination Sequence:
#
# PCOD9182429 Si02
#       7
#     8   8   8   8   8   8   8
#     4  10  19  33  51  73 103 135 172 211 254 304
#     4  10  20  32  53  79 105 137 174 215 261 314
#     4   8  15  26  42  67  98 130 164 209 257 302
#     4   8  14  25  40  62  95 130 165 205 255 308
#     4   9  19  33  48  70 104 143 170 210 267 311
#     4   9  17  26  41  65  97 135 170 203 254 318
#     4  11  23  38  55  76 108 141 177 216 260 316
#
# _framework density 22.219127
#
# number of rings (size 3 to 8) (size 9 to 14) (size 15 to 20)
#    0.000    2.714    1.429    1.286    4.000    0.000 
#    0.000    0.000    0.000    0.000    0.000    2.000 
#    0.000    5.143    0.000    0.000    0.000    0.000 
#
# Total GULP energy -156307.813748 kJ/mol
# GULP energy per Si atom -5582.421920 kJ/mol
# Density = 2.216856 g / cm^3
# Si number density = 22.219127 Si / 1000 Ang^3
#
#
#
# Elastic Constant Matrix: (Units=GPa)
#
#
# Indices 1 2 3 4 5 6 
#
# 1 176.7209 -4.0610 69.2589 0.0000 8.3194 0.0000
# 2 -4.0610 70.3446 -2.7887 0.0000 6.4755 0.0000
# 3 69.2589 -2.7887 110.3378 0.0000 33.6042 0.0000
# 4 0.0000 0.0000 0.0000 4.5719 0.0000 -3.5636
# 5 8.3194 6.4755 33.6042 0.0000 35.1705 0.0000
# 6 0.0000 0.0000 0.0000 -3.5636 0.0000 4.7749
#
#
#
# Elastic Compliance Matrix: (Units=1/GPa)
#
#
# Indices 1 2 3 4 5 6 
#
# 1 0.007894 -0.000167 -0.006206 0.000000 0.004093 0.000000
# 2 -0.000167 0.014683 0.001816 0.000000 -0.004399 0.000000
# 3 -0.006206 0.001816 0.017855 0.000000 -0.015926 0.000000
# 4 0.000000 0.000000 0.000000 0.522925 0.000000 0.390269
# 5 0.004093 -0.004399 -0.015926 0.000000 0.043491 0.000000
# 6 0.000000 0.000000 0.000000 0.390269 0.000000 0.500692
#
#
# Mechanical properties :
#
#
# Convention : Reuss Voigt Hill
#
# Bulk Modulus (GPa) = 31.93139 53.58018 42.75579
# Shear Modulus (GPa) = 4.43618 28.56974 16.50296
#
# Velocity S-wave (km/s) = 1.41453 3.58972 2.72828
# Velocity P-wave (km/s) = 4.13161 6.43026 5.40456
#
# Compressibility (1/GPa) = 0.03131714
#
# Stress axis : x y z
#
# Youngs Moduli (GPa) = 126.67300 68.10605 56.00703
#
# Poissons Ratio (x) = 0.01138 0.34758
# Poissons Ratio (y) = 0.02116 -0.10169
# Poissons Ratio (z) = 0.78614 -0.12365
#
# Static dielectric constant tensor:
#      x y z
#    x 1.792520 0.000000 0.031990 
#    y 0.000000 1.892370 0.000000 
#    z 0.031990 0.000000 1.766630 
# 
# From -- ./inp_files/187227.got.cif
#   From: 2010.05.17/outbox.cif.g08.bks.cpg/sg12_94_cif.got.tgz:187227.got - 2010.06.03 13:09:07.
