data_PCOD9182579
_publ_section_title
;
Structure prediction by ZEFSAII (Michael W. Deem and Ramdas Pophale) SiO2 
 PCOD9182579
Probable space group: C 2/M
;
_chemical_formula_sum "Si O2"
_cell_formula_units_Z 48
_cell_length_a 20.776636
_cell_length_b 9.880191
_cell_length_c 19.036299
_cell_angle_alpha 90.000000
_cell_angle_beta 39.770932
_cell_angle_gamma 90.000000
_cell_volume 2499.844014
_symmetry_space_group_name_H-M "C 2/M"
_symmetry_group_IT_number 12
_symmetry_cell_setting 'monoclinic'
loop_
_space_group_symop_operation_xyz
x,y,z
-x,y,-z
-x,-y,-z
x,-y,z
1/2+x,1/2+y,z
1/2-x,1/2+y,-z
1/2-x,1/2-y,-z
1/2+x,1/2-y,z
loop_
_atom_site_type_symbol
_atom_site_label
_atom_site_fract_x
_atom_site_fract_y
_atom_site_fract_z
Si Si1 0.881074 0.348522 0.604697
Si Si2 0.387495 0.163024 0.103878
Si Si3 0.384031 0.156271 0.267122
Si Si4 0.335247 0.346894 0.517518
Si Si5 0.184498 0.836888 0.211553
Si Si6 0.990045 0.155820 0.746853
O O1 0.836595 0.500000 0.649385
O O2 0.851000 0.272047 0.559271
O O3 0.859201 0.249869 0.687826
O O4 0.000000 0.362657 0.500000
O O5 0.355316 0.195328 0.211083
O O6 0.303064 0.199156 0.117202
O O7 0.393046 0.000000 0.095704
O O8 0.500000 0.217475 0.000000
O O9 0.283726 0.162806 0.399552
O O10 0.472156 0.247705 0.223433
O O11 0.416661 0.000000 0.237814
O O12 0.346515 0.500000 0.539435
O O13 0.420138 0.337796 0.386767
O O14 0.115394 0.806707 0.202003
O O15 0.174613 0.000000 0.231726
O O16 0.983377 0.000000 0.775604
#
# Coordination Sequence:
#
# PCOD9182579 Si02
#       6
#     8   8   8   8   8   8
#     4  11  21  30  47  79 113 142 175 221 267 308
#     4   9  18  35  60  84 101 129 181 233 271 313
#     4  10  20  34  54  78 107 142 177 219 265 314
#     4  10  19  33  52  75 105 146 187 213 252 315
#     4  10  19  35  57  77 104 142 183 221 261 318
#     4  10  21  33  51  78 110 146 176 213 259 316
#
# _framework density 19.201197000000001
#
# number of rings (size 3 to 8) (size 9 to 14) (size 15 to 20)
#    0.000    2.000    3.333    1.000    0.000    2.667 
#    0.000    0.833    0.000    2.000    0.000    0.000 
#    0.000    0.000    0.000    0.000    0.000    0.000 
#
# Total GULP energy -133656.451389 kJ/mol
# GULP energy per Si atom -5569.018808 kJ/mol
# Density = 1.915749 g / cm^3
# Si number density = 19.201197 Si / 1000 Ang^3
#
#
#
# Elastic Constant Matrix: (Units=GPa)
#
#
# Indices 1 2 3 4 5 6 
#
# 1 120.0642 44.0743 10.1672 0.0000 -33.4026 0.0000
# 2 44.0743 56.8674 -10.1078 0.0000 -6.5825 0.0000
# 3 10.1672 -10.1078 46.6573 0.0000 -26.7863 0.0000
# 4 0.0000 0.0000 0.0000 32.3916 0.0000 28.2487
# 5 -33.4026 -6.5825 -26.7863 0.0000 26.3415 0.0000
# 6 0.0000 0.0000 0.0000 28.2487 0.0000 77.5694
#
#
#
# Elastic Compliance Matrix: (Units=1/GPa)
#
#
# Indices 1 2 3 4 5 6 
#
# 1 0.023305 -0.008670 0.021061 0.000000 0.048803 0.000000
# 2 -0.008670 0.027804 0.013431 0.000000 0.009612 0.000000
# 3 0.021061 0.013431 0.088930 0.000000 0.120495 0.000000
# 4 0.000000 0.000000 0.000000 0.045240 0.000000 -0.016475
# 5 0.048803 0.009612 0.120495 0.000000 0.224778 0.000000
# 6 0.000000 0.000000 0.000000 -0.016475 0.000000 0.018892
#
#
# Mechanical properties :
#
#
# Convention : Reuss Voigt Hill
#
# Bulk Modulus (GPa) = 5.21691 34.65070 19.93381
# Shear Modulus (GPa) = 11.33275 39.22420 25.27847
#
# Velocity S-wave (km/s) = 2.43206 4.52464 3.63230
# Velocity P-wave (km/s) = 3.25721 6.73660 5.29109
#
# Compressibility (1/GPa) = 0.19168425
#
# Stress axis : x y z
#
# Youngs Moduli (GPa) = 42.90898 35.96592 11.24479
#
# Poissons Ratio (x) = 0.31182 -0.23683
# Poissons Ratio (y) = 0.37201 -0.15103
# Poissons Ratio (z) = -0.90371 -0.48306
#
# Static dielectric constant tensor:
#      x y z
#    x 1.685480 0.000000 -0.031280 
#    y 0.000000 1.662210 0.000000 
#    z -0.031280 0.000000 1.713600 
# 
# From -- ./inp_files/249350.got.cif
#   From: 2010.05.17/outbox.cif.g08.bks.cpg/sg12_125_cif.got.tgz:249350.got - 2010.06.03 13:09:07.
