data_PCOD9182439
_publ_section_title
;
Structure prediction by ZEFSAII (Michael W. Deem and Ramdas Pophale) SiO2 
 PCOD9182439
Probable space group: C 2/M
;
_chemical_formula_sum "Si O2"
_cell_formula_units_Z 64
_cell_length_a 14.665574
_cell_length_b 8.253424
_cell_length_c 29.338560
_cell_angle_alpha 90.000000
_cell_angle_beta 90.282620
_cell_angle_gamma 90.000000
_cell_volume 3551.131319
_symmetry_space_group_name_H-M "C 2/M"
_symmetry_group_IT_number 12
_symmetry_cell_setting 'monoclinic'
loop_
_space_group_symop_operation_xyz
x,y,z
-x,y,-z
-x,-y,-z
x,-y,z
1/2+x,1/2+y,z
1/2-x,1/2+y,-z
1/2-x,1/2-y,-z
1/2+x,1/2-y,z
loop_
_atom_site_type_symbol
_atom_site_label
_atom_site_fract_x
_atom_site_fract_y
_atom_site_fract_z
Si Si1 0.395750 0.804798 0.375111
Si Si2 0.751561 0.806207 0.948183
Si Si3 0.897425 0.697808 0.124576
Si Si4 0.751280 0.197954 0.698727
Si Si5 0.603084 0.695192 0.374790
Si Si6 0.250008 0.304629 0.551850
Si Si7 0.751045 0.695475 0.197522
Si Si8 0.394618 0.806121 0.875434
O O1 0.337208 0.752163 0.330801
O O2 0.499392 0.749845 0.374918
O O3 0.338393 0.750106 0.419356
O O4 0.394575 0.000000 0.375262
O O5 0.662492 0.751275 0.919282
O O6 0.838958 0.745546 0.920180
O O7 0.752529 0.000000 0.946985
O O8 0.750000 0.750000 0.000000
O O9 0.899046 0.500000 0.124564
O O10 0.839572 0.749194 0.168808
O O11 0.001385 0.754428 0.124271
O O12 0.839637 0.248390 0.669611
O O13 0.750857 0.255415 0.750659
O O14 0.751396 0.000000 0.699547
O O15 0.604517 0.500000 0.374900
O O16 0.661515 0.749875 0.418975
O O17 0.250008 0.500000 0.552452
O O18 0.250000 0.250000 0.500000
O O19 0.753555 0.500000 0.198722
O O20 0.663236 0.744766 0.167861
O O21 0.396381 0.000000 0.873777
#
# Coordination Sequence:
#
# PCOD9182439 Si02
#       8
#     8   8   8   8   8   8   8   8
#     4   9  18  33  51  72  96 127 164 201 238 290
#     4  10  20  36  54  74  99 131 166 201 243 292
#     4   8  17  32  50  70  97 130 161 191 235 289
#     4   8  16  32  52  70  96 131 163 194 239 293
#     4   9  18  33  50  71  98 128 160 201 248 292
#     4   9  19  34  50  69  97 129 163 200 245 295
#     4   9  17  33  53  72  96 131 166 197 237 289
#     4  10  19  33  51  74 101 129 162 203 242 284
#
# _framework density 18.022424999999998
#
# number of rings (size 3 to 8) (size 9 to 14) (size 15 to 20)
#    0.000    3.000    0.000    3.000    0.000    3.000 
#    0.000   15.625    0.000    0.000    0.000    0.000 
#    0.000    0.000    0.000    0.000    0.000    0.000 
#
# Total GULP energy -178372.063482 kJ/mol
# GULP energy per Si atom -5574.126984 kJ/mol
# Density = 1.798140 g / cm^3
# Si number density = 18.022425 Si / 1000 Ang^3
#
#
#
# Elastic Constant Matrix: (Units=GPa)
#
#
# Indices 1 2 3 4 5 6 
#
# 1 206.6644 15.3767 115.2544 0.0000 -3.8686 0.0000
# 2 15.3767 10.1110 16.9911 0.0000 -1.3684 0.0000
# 3 115.2544 16.9911 206.6630 0.0000 -4.0180 0.0000
# 4 0.0000 0.0000 0.0000 23.9031 0.0000 1.6872
# 5 -3.8686 -1.3684 -4.0180 0.0000 6.8828 0.0000
# 6 0.0000 0.0000 0.0000 1.6872 0.0000 29.1157
#
#
#
# Elastic Compliance Matrix: (Units=1/GPa)
#
#
# Indices 1 2 3 4 5 6 
#
# 1 0.007233 -0.004778 -0.003621 0.000000 0.001001 0.000000
# 2 -0.004778 0.120038 -0.006870 0.000000 0.017168 0.000000
# 3 -0.003621 -0.006870 0.007442 0.000000 0.000943 0.000000
# 4 0.000000 0.000000 0.000000 0.042007 0.000000 -0.002434
# 5 0.001001 0.017168 0.000943 0.000000 0.149815 0.000000
# 6 0.000000 0.000000 0.000000 -0.002434 0.000000 0.034487
#
#
# Mechanical properties :
#
#
# Convention : Reuss Voigt Hill
#
# Bulk Modulus (GPa) = 9.59951 79.85364 44.72658
# Shear Modulus (GPa) = 11.72924 30.36809 21.04866
#
# Velocity S-wave (km/s) = 2.55387 4.10935 3.42118
# Velocity P-wave (km/s) = 3.74624 8.18045 6.36216
#
# Compressibility (1/GPa) = 0.10417198
#
# Stress axis : x y z
#
# Youngs Moduli (GPa) = 138.26397 8.33070 134.38136
#
# Poissons Ratio (x) = 0.03981 0.48662
# Poissons Ratio (y) = 0.66068 0.92326
# Poissons Ratio (z) = 0.50068 0.05724
#
# Static dielectric constant tensor:
#      x y z
#    x 1.603710 0.000000 -0.002890 
#    y 0.000000 1.637380 0.000000 
#    z -0.002890 0.000000 1.575750 
# 
# From -- ./inp_files/374807.got.cif
#   From: 2010.05.17/outbox.cif.g08.bks.cpg/sg12_188_cif.got.tgz:374807.got - 2010.06.03 13:09:07.
