data_PCOD9182456
_publ_section_title
;
Structure prediction by ZEFSAII (Michael W. Deem and Ramdas Pophale) SiO2 
 PCOD9182456
Probable space group: C 2/M
;
_chemical_formula_sum "Si O2"
_cell_formula_units_Z 56
_cell_length_a 27.577032
_cell_length_b 15.845322
_cell_length_c 7.650247
_cell_angle_alpha 90.000000
_cell_angle_beta 60.182000
_cell_angle_gamma 90.000000
_cell_volume 2900.335503
_symmetry_space_group_name_H-M "C 2/M"
_symmetry_group_IT_number 12
_symmetry_cell_setting 'monoclinic'
loop_
_space_group_symop_operation_xyz
x,y,z
-x,y,-z
-x,-y,-z
x,-y,z
1/2+x,1/2+y,z
1/2-x,1/2+y,-z
1/2-x,1/2-y,-z
1/2+x,1/2-y,z
loop_
_atom_site_type_symbol
_atom_site_label
_atom_site_fract_x
_atom_site_fract_y
_atom_site_fract_z
Si Si1 0.872913 0.759682 0.677837
Si Si2 0.215667 0.902822 0.195881
Si Si3 0.947058 0.500000 0.293512
Si Si4 0.425332 0.000000 0.912661
Si Si5 0.701597 0.096341 0.267264
Si Si6 0.310124 0.100824 0.310613
Si Si7 0.971721 0.326047 0.360074
Si Si8 0.093073 0.680813 0.041043
O O1 0.836055 0.840305 0.703432
O O2 0.835781 0.676127 0.715610
O O3 0.928964 0.750608 0.461966
O O4 0.890465 0.751540 0.850545
O O5 0.263845 0.878588 0.248855
O O6 0.200447 0.000000 0.258381
O O7 0.244604 0.898564 0.953929
O O8 0.932796 0.406147 0.379798
O O9 0.010161 0.500000 0.255452
O O10 0.936156 0.500000 0.104991
O O11 0.399716 0.086112 0.890149
O O12 0.713064 0.105002 0.452785
O O13 0.678303 0.000000 0.285644
O O14 0.325254 0.000000 0.255711
O O15 0.362310 0.165684 0.193120
O O16 0.000000 0.337929 0.500000
O O17 0.025780 0.315492 0.136267
#
# Coordination Sequence:
#
# PCOD9182456 Si02
#       8
#     8   8   4   4   8   8   8   8
#     4  11  22  35  56  80 108 151 195 227 280 333
#     4  10  22  43  59  76 109 146 191 248 289 324
#     4   9  17  30  44  72 113 152 193 210 251 332
#     4   9  18  28  46  72 112 161 182 209 259 325
#     4  10  22  35  55  86 115 147 184 225 274 342
#     4  10  20  35  56  84 116 149 184 221 276 340
#     4   9  20  32  48  75 111 151 189 226 266 326
#     4  10  19  33  51  75 117 150 176 221 271 323
#
# _framework density 19.308109999999999
#
# number of rings (size 3 to 8) (size 9 to 14) (size 15 to 20)
#    0.000    2.143    2.143    0.643    4.000    1.714 
#    0.000    0.000    0.000    3.857    0.000    0.000 
#    0.000    1.143    0.000    1.000    0.000    0.000 
#
# Total GULP energy -155958.298611 kJ/mol
# GULP energy per Si atom -5569.939236 kJ/mol
# Density = 1.926416 g / cm^3
# Si number density = 19.308110 Si / 1000 Ang^3
#
#
#
# Elastic Constant Matrix: (Units=GPa)
#
#
# Indices 1 2 3 4 5 6 
#
# 1 80.7391 45.9902 56.9164 0.0000 -5.4758 0.0000
# 2 45.9902 64.6836 34.4446 0.0000 -13.1505 0.0000
# 3 56.9164 34.4446 90.5060 0.0000 1.0463 0.0000
# 4 0.0000 0.0000 0.0000 20.7197 0.0000 -13.9205
# 5 -5.4758 -13.1505 1.0463 0.0000 20.8785 0.0000
# 6 0.0000 0.0000 0.0000 -13.9205 0.0000 40.8888
#
#
#
# Elastic Compliance Matrix: (Units=1/GPa)
#
#
# Indices 1 2 3 4 5 6 
#
# 1 0.029881 -0.014213 -0.013377 0.000000 -0.000445 0.000000
# 2 -0.014213 0.030137 -0.002709 0.000000 0.015390 0.000000
# 3 -0.013377 -0.002709 0.020565 0.000000 -0.006246 0.000000
# 4 0.000000 0.000000 0.000000 0.062576 0.000000 0.021304
# 5 -0.000445 0.015390 -0.006246 0.000000 0.057786 0.000000
# 6 0.000000 0.000000 0.000000 0.021304 0.000000 0.031709
#
#
# Mechanical properties :
#
#
# Convention : Reuss Voigt Hill
#
# Bulk Modulus (GPa) = 50.03919 56.73679 53.38799
# Shear Modulus (GPa) = 16.67139 23.06923 19.87031
#
# Velocity S-wave (km/s) = 2.94162 3.46033 3.21147
# Velocity P-wave (km/s) = 6.12454 6.73899 6.43909
#
# Compressibility (1/GPa) = 0.01998434
#
# Stress axis : x y z
#
# Youngs Moduli (GPa) = 33.46569 33.18211 48.62637
#
# Poissons Ratio (x) = 0.47160 0.65049
# Poissons Ratio (y) = 0.47563 0.13175
# Poissons Ratio (z) = 0.44768 0.08991
#
# Static dielectric constant tensor:
#      x y z
#    x 1.701270 0.000000 -0.031340 
#    y 0.000000 1.675560 0.000000 
#    z -0.031340 0.000000 1.803540 
# 
# From -- ./inp_files/111120.got.cif
#   From: 2010.05.17/outbox.cif.g08.bks.cpg/sg12_56_cif.got.tgz:111120.got - 2010.06.03 13:09:07.
