data_PCOD9182878
_publ_section_title
;
Structure prediction by ZEFSAII (Michael W. Deem and Ramdas Pophale) SiO2 
 PCOD9182878
Probable space group: C 2/M
;
_chemical_formula_sum "Si O2"
_cell_formula_units_Z 64
_cell_length_a 26.643798
_cell_length_b 13.893825
_cell_length_c 9.744555
_cell_angle_alpha 90.000000
_cell_angle_beta 65.214671
_cell_angle_gamma 90.000000
_cell_volume 3274.995731
_symmetry_space_group_name_H-M "C 2/M"
_symmetry_group_IT_number 12
_symmetry_cell_setting 'monoclinic'
loop_
_space_group_symop_operation_xyz
x,y,z
-x,y,-z
-x,-y,-z
x,-y,z
1/2+x,1/2+y,z
1/2-x,1/2+y,-z
1/2-x,1/2-y,-z
1/2+x,1/2-y,z
loop_
_atom_site_type_symbol
_atom_site_label
_atom_site_fract_x
_atom_site_fract_y
_atom_site_fract_z
Si Si1 0.138698 0.891560 0.708216
Si Si2 0.330663 0.106793 0.600021
Si Si3 0.578620 0.115284 0.713529
Si Si4 0.521725 0.214258 0.318594
Si Si5 0.251387 0.638896 0.532479
Si Si6 0.989749 0.886676 0.173162
Si Si7 0.342557 0.193015 0.165767
Si Si8 0.360245 0.116228 0.851796
O O1 0.185114 0.891073 0.534888
O O2 0.076326 0.872819 0.729049
O O3 0.156509 0.805308 0.790276
O O4 0.138397 0.000000 0.768974
O O5 0.375224 0.154499 0.448078
O O6 0.276132 0.097256 0.573060
O O7 0.324169 0.145167 0.759433
O O8 0.354118 0.000000 0.597304
O O9 0.521210 0.153329 0.724157
O O10 0.600495 0.152349 0.834072
O O11 0.579382 0.000000 0.716499
O O12 0.500000 0.224488 0.500000
O O13 0.522863 0.316578 0.237257
O O14 0.578706 0.155451 0.254032
O O15 0.250000 0.750000 0.500000
O O16 0.207807 0.632374 0.705984
O O17 0.002628 0.000000 0.178467
O O18 0.000000 0.864149 0.000000
O O19 0.341226 0.171766 0.008210
O O20 0.359344 0.000000 0.877448
#
# Coordination Sequence:
#
# PCOD9182878 Si02
#       8
#     8   8   8   8   8   8   8   8
#     4  10  19  35  61  86 109 147 199 239 286 351
#     4   9  18  34  53  78 115 155 188 222 284 352
#     4  10  19  33  53  77 112 153 194 235 281 341
#     4  12  23  35  56  84 118 157 196 241 282 347
#     4   9  19  34  60  86 112 145 194 242 282 346
#     4  10  22  41  63  86 115 152 195 247 298 342
#     4  10  20  37  55  86 118 150 191 249 297 339
#     4  11  23  36  55  84 121 161 192 233 297 360
#
# _framework density 19.542009
#
# number of rings (size 3 to 8) (size 9 to 14) (size 15 to 20)
#    0.000    1.875    2.500    1.875    0.000    2.250 
#    0.000    3.750    0.000    1.500    0.000    7.875 
#    0.000    0.000    0.000    0.000    0.000    0.000 
#
# Total GULP energy -178261.451058 kJ/mol
# GULP energy per Si atom -5570.670346 kJ/mol
# Density = 1.949753 g / cm^3
# Si number density = 19.542009 Si / 1000 Ang^3
#
#
#
# Elastic Constant Matrix: (Units=GPa)
#
#
# Indices 1 2 3 4 5 6 
#
# 1 37.1156 -3.3987 8.8331 0.0000 -10.6176 0.0000
# 2 -3.3987 103.2236 10.2302 0.0000 4.9690 0.0000
# 3 8.8331 10.2302 75.2079 0.0000 15.5047 0.0000
# 4 0.0000 0.0000 0.0000 18.6509 0.0000 0.6555
# 5 -10.6176 4.9690 15.5047 0.0000 21.3961 0.0000
# 6 0.0000 0.0000 0.0000 0.6555 0.0000 22.6479
#
#
#
# Elastic Compliance Matrix: (Units=1/GPa)
#
#
# Indices 1 2 3 4 5 6 
#
# 1 0.036353 0.000949 -0.009490 0.000000 0.024697 0.000000
# 2 0.000949 0.009888 -0.001270 0.000000 -0.000906 0.000000
# 3 -0.009490 -0.001270 0.018215 0.000000 -0.017614 0.000000
# 4 0.000000 0.000000 0.000000 0.053671 0.000000 -0.001554
# 5 0.024697 -0.000906 -0.017614 0.000000 0.071967 0.000000
# 6 0.000000 0.000000 0.000000 -0.001554 0.000000 0.044199
#
#
# Mechanical properties :
#
#
# Convention : Reuss Voigt Hill
#
# Bulk Modulus (GPa) = 22.30444 27.43070 24.86757
# Shear Modulus (GPa) = 18.59694 25.86447 22.23071
#
# Velocity S-wave (km/s) = 3.08821 3.64198 3.37647
# Velocity P-wave (km/s) = 4.91472 5.63495 5.28711
#
# Compressibility (1/GPa) = 0.04483413
#
# Stress axis : x y z
#
# Youngs Moduli (GPa) = 27.50793 101.12877 54.89968
#
# Poissons Ratio (x) = -0.09593 0.52100
# Poissons Ratio (y) = -0.02609 0.06971
# Poissons Ratio (z) = 0.26105 0.12841
#
# Static dielectric constant tensor:
#      x y z
#    x 1.701460 0.000000 -0.025720 
#    y 0.000000 1.703810 0.000000 
#    z -0.025720 0.000000 1.726950 
# 
# From -- ./inp_files/104488.got.cif
#   From: 2010.05.17/outbox.cif.g08.bks.cpg/sg12_53_cif.got.tgz:104488.got - 2010.06.03 13:09:07.
