data_PCOD9182862
_publ_section_title
;
Structure prediction by ZEFSAII (Michael W. Deem and Ramdas Pophale) SiO2 
 PCOD9182862
Probable space group: C 2/M
;
_chemical_formula_sum "Si O2"
_cell_formula_units_Z 56
_cell_length_a 29.607168
_cell_length_b 8.150353
_cell_length_c 14.675552
_cell_angle_alpha 90.000000
_cell_angle_beta 118.607047
_cell_angle_gamma 90.000000
_cell_volume 3109.028477
_symmetry_space_group_name_H-M "C 2/M"
_symmetry_group_IT_number 12
_symmetry_cell_setting 'monoclinic'
loop_
_space_group_symop_operation_xyz
x,y,z
-x,y,-z
-x,-y,-z
x,-y,z
1/2+x,1/2+y,z
1/2-x,1/2+y,-z
1/2-x,1/2-y,-z
1/2+x,1/2-y,z
loop_
_atom_site_type_symbol
_atom_site_label
_atom_site_fract_x
_atom_site_fract_y
_atom_site_fract_z
Si Si1 0.004602 0.299640 0.898264
Si Si2 0.694802 0.198778 0.488544
Si Si3 0.719685 0.197780 0.710754
Si Si4 0.837561 0.189762 0.822993
Si Si5 0.199137 0.807051 0.895056
Si Si6 0.100457 0.310468 0.276623
Si Si7 0.618602 0.193378 0.952576
O O1 0.001647 0.500000 0.897097
O O2 0.059318 0.255356 0.907166
O O3 0.956454 0.238468 0.791534
O O4 0.000000 0.246024 0.000000
O O5 0.750000 0.250000 0.500000
O O6 0.690874 0.248888 0.590702
O O7 0.645539 0.261266 0.383875
O O8 0.694548 0.000000 0.484855
O O9 0.779210 0.240767 0.750244
O O10 0.704266 0.269339 0.793011
O O11 0.716949 0.000000 0.715890
O O12 0.875837 0.299505 0.801680
O O13 0.844111 0.000000 0.802185
O O14 0.849625 0.210417 0.940268
O O15 0.148217 0.724237 0.887492
O O16 0.194960 0.000000 0.904606
O O17 0.250000 0.750000 0.000000
O O18 0.094326 0.500000 0.298673
O O19 0.621324 0.000000 0.976111
#
# Coordination Sequence:
#
# PCOD9182862 Si02
#       7
#     8   8   8   8   8   8   8
#     4   9  17  31  52  79 106 137 176 218 259 309
#     4  10  20  33  53  78 107 140 175 217 259 309
#     4  10  21  36  51  75 110 143 176 215 259 308
#     4  11  20  30  49  77 112 142 173 215 255 310
#     4  12  24  37  55  79 106 138 176 216 263 317
#     4  10  19  33  53  77 107 143 181 214 258 313
#     4  11  21  35  55  76 106 142 176 216 263 310
#
# _framework density 18.012058
#
# number of rings (size 3 to 8) (size 9 to 14) (size 15 to 20)
#    0.000    1.571    4.286    2.143    0.000    1.143 
#    0.000    2.143    0.000    0.857    0.000    6.000 
#    0.000    0.000    0.000    0.000    0.000    0.000 
#
# Total GULP energy -156199.432632 kJ/mol
# GULP energy per Si atom -5578.551165 kJ/mol
# Density = 1.797106 g / cm^3
# Si number density = 18.012058 Si / 1000 Ang^3
#
#
#
# Elastic Constant Matrix: (Units=GPa)
#
#
# Indices 1 2 3 4 5 6 
#
# 1 99.0510 15.1142 39.3529 0.0000 6.8194 0.0000
# 2 15.1142 18.7926 7.9107 0.0000 4.1409 0.0000
# 3 39.3529 7.9107 102.1940 0.0000 6.9401 0.0000
# 4 0.0000 0.0000 0.0000 16.0545 0.0000 -4.0906
# 5 6.8194 4.1409 6.9401 0.0000 31.4683 0.0000
# 6 0.0000 0.0000 0.0000 -4.0906 0.0000 16.3407
#
#
#
# Elastic Compliance Matrix: (Units=1/GPa)
#
#
# Indices 1 2 3 4 5 6 
#
# 1 0.013195 -0.008607 -0.004363 0.000000 -0.000765 0.000000
# 2 -0.008607 0.061917 -0.001068 0.000000 -0.006047 0.000000
# 3 -0.004363 -0.001068 0.011649 0.000000 -0.001483 0.000000
# 4 0.000000 0.000000 0.000000 0.066532 0.000000 0.016655
# 5 -0.000765 -0.006047 -0.001483 0.000000 0.033066 0.000000
# 6 0.000000 0.000000 0.000000 0.016655 0.000000 0.065366
#
#
# Mechanical properties :
#
#
# Convention : Reuss Voigt Hill
#
# Bulk Modulus (GPa) = 17.04019 38.31034 27.67527
# Shear Modulus (GPa) = 16.70212 23.28335 19.99273
#
# Velocity S-wave (km/s) = 3.04842 3.59925 3.33523
# Velocity P-wave (km/s) = 4.67669 6.21194 5.49817
#
# Compressibility (1/GPa) = 0.05868479
#
# Stress axis : x y z
#
# Youngs Moduli (GPa) = 75.78465 16.15065 85.84576
#
# Poissons Ratio (x) = 0.13901 0.37455
# Poissons Ratio (y) = 0.65231 0.09166
# Poissons Ratio (z) = 0.33065 0.01724
#
# Static dielectric constant tensor:
#      x y z
#    x 1.614090 0.000000 0.021260 
#    y 0.000000 1.639720 0.000000 
#    z 0.021260 0.000000 1.629510 
# 
# From -- ./inp_files/248588.got.cif
#   From: 2010.05.17/outbox.cif.g08.bks.cpg/sg12_125_cif.got.tgz:248588.got - 2010.06.03 13:09:07.
