data_PCOD9182271
_publ_section_title
;
Structure prediction by ZEFSAII (Michael W. Deem and Ramdas Pophale) SiO2 
 PCOD9182271
Probable space group: C 2/M
;
_chemical_formula_sum "Si O2"
_cell_formula_units_Z 44
_cell_length_a 10.559573
_cell_length_b 26.088305
_cell_length_c 8.217202
_cell_angle_alpha 90.000000
_cell_angle_beta 79.568521
_cell_angle_gamma 90.000000
_cell_volume 2226.272113
_symmetry_space_group_name_H-M "C 2/M"
_symmetry_group_IT_number 12
_symmetry_cell_setting 'monoclinic'
loop_
_space_group_symop_operation_xyz
x,y,z
-x,y,-z
-x,-y,-z
x,-y,z
1/2+x,1/2+y,z
1/2-x,1/2+y,-z
1/2-x,1/2-y,-z
1/2+x,1/2-y,z
loop_
_atom_site_type_symbol
_atom_site_label
_atom_site_fract_x
_atom_site_fract_y
_atom_site_fract_z
Si Si1 0.194497 0.088740 0.786874
Si Si2 0.406804 0.000000 0.176679
Si Si3 0.143505 0.000000 0.057401
Si Si4 0.613875 0.683526 0.608543
Si Si5 0.393256 0.201843 0.380669
Si Si6 0.992034 0.397067 0.696736
Si Si7 0.411891 0.500000 0.364425
O O1 0.118380 0.139133 0.744356
O O2 0.342692 0.102677 0.777937
O O3 0.176316 0.049647 0.639036
O O4 0.156495 0.052472 0.948268
O O5 0.440330 0.051555 0.262404
O O6 0.500000 0.000000 0.000000
O O7 0.261678 0.000000 0.152653
O O8 0.015354 0.000000 0.193109
O O9 0.500000 0.675763 0.500000
O O10 0.605832 0.740562 0.687614
O O11 0.753137 0.686338 0.484564
O O12 0.500000 0.205567 0.500000
O O13 0.439624 0.154855 0.259516
O O14 0.000000 0.396854 0.500000
O O15 0.500000 0.500000 0.500000
#
# Coordination Sequence:
#
# PCOD9182271 Si02
#       7
#     8   4   4   8   8   8   4
#     4  11  20  39  60  87 126 169 199 250 318 367
#     4  12  23  38  59  91 118 164 208 251 312 375
#     4  11  26  43  61  86 126 170 200 253 322 379
#     4  10  19  32  59  90 128 168 216 252 309 359
#     4   9  18  35  54  90 129 164 205 268 304 349
#     4  11  21  36  62  92 125 159 208 259 305 356
#     4  11  26  41  61  90 121 154 207 258 307 383
#
# _framework density 19.76398
#
# number of rings (size 3 to 8) (size 9 to 14) (size 15 to 20)
#    0.000    1.455    5.455    2.455    2.545    1.455 
#    0.000    0.000    0.000    3.273    0.000    0.000 
#    0.000    0.000    0.000    0.000    0.000    0.000 
#
# Total GULP energy -122620.522496 kJ/mol
# GULP energy per Si atom -5573.660113 kJ/mol
# Density = 1.971900 g / cm^3
# Si number density = 19.763980 Si / 1000 Ang^3
#
#
#
# Elastic Constant Matrix: (Units=GPa)
#
#
# Indices 1 2 3 4 5 6 
#
# 1 128.0441 45.3279 7.8895 0.0000 -4.3130 0.0000
# 2 45.3279 207.2842 35.6122 0.0000 11.6153 0.0000
# 3 7.8895 35.6122 44.7121 0.0000 -5.2172 0.0000
# 4 0.0000 0.0000 0.0000 -31.6849 0.0000 -18.4512
# 5 -4.3130 11.6153 -5.2172 0.0000 27.8772 0.0000
# 6 0.0000 0.0000 0.0000 -18.4512 0.0000 27.7805
#
#
#
# Elastic Compliance Matrix: (Units=1/GPa)
#
#
# Indices 1 2 3 4 5 6 
#
# 1 0.008596 -0.002076 0.000402 0.000000 0.002270 0.000000
# 2 -0.002076 0.006391 -0.005185 0.000000 -0.003954 0.000000
# 3 0.000402 -0.005185 0.027279 0.000000 0.007328 0.000000
# 4 0.000000 0.000000 0.000000 -0.022758 0.000000 -0.015116
# 5 0.002270 -0.003954 0.007328 0.000000 0.039242 0.000000
# 6 0.000000 0.000000 0.000000 -0.015116 0.000000 0.025957
#
#
# Mechanical properties :
#
#
# Convention : Reuss Voigt Hill
#
# Bulk Modulus (GPa) = 35.02965 61.96661 48.49813
# Shear Modulus (GPa) = 46.32130 24.20862 35.26496
#
# Velocity S-wave (km/s) = 4.84645 3.50363 4.22869
# Velocity P-wave (km/s) = 7.00571 6.91293 6.95947
#
# Compressibility (1/GPa) = 0.02854725
#
# Stress axis : x y z
#
# Youngs Moduli (GPa) = 116.32703 156.47803 36.65784
#
# Poissons Ratio (x) = 0.32485 -0.01472
# Poissons Ratio (y) = 0.24150 0.19007
# Poissons Ratio (z) = -0.04671 0.81136
#
# Static dielectric constant tensor:
#      x y z
#    x 1.703500 0.000000 0.004320 
#    y 0.000000 1.791150 0.000000 
#    z 0.004320 0.000000 1.711370 
# 
# From -- ./inp_files/50561.got.cif
#   From: 2010.05.17/outbox.cif.g08.bks.cpg/sg12_26_cif.got.tgz:50561.got - 2010.06.03 13:09:07.
