data_PCOD9182654
_publ_section_title
;
Structure prediction by ZEFSAII (Michael W. Deem and Ramdas Pophale) SiO2 
 PCOD9182654
Probable space group: C 2/M
;
_chemical_formula_sum "Si O2"
_cell_formula_units_Z 56
_cell_length_a 29.903806
_cell_length_b 8.654024
_cell_length_c 14.629508
_cell_angle_alpha 90.000000
_cell_angle_beta 59.675470
_cell_angle_gamma 90.000000
_cell_volume 3267.949858
_symmetry_space_group_name_H-M "C 2/M"
_symmetry_group_IT_number 12
_symmetry_cell_setting 'monoclinic'
loop_
_space_group_symop_operation_xyz
x,y,z
-x,y,-z
-x,-y,-z
x,-y,z
1/2+x,1/2+y,z
1/2-x,1/2+y,-z
1/2-x,1/2-y,-z
1/2+x,1/2-y,z
loop_
_atom_site_type_symbol
_atom_site_label
_atom_site_fract_x
_atom_site_fract_y
_atom_site_fract_z
Si Si1 0.773107 0.815270 0.240881
Si Si2 0.195433 0.814170 0.593991
Si Si3 0.993237 0.812602 0.613478
Si Si4 0.899954 0.819337 0.426092
Si Si5 0.664927 0.675964 0.324230
Si Si6 0.701117 0.315521 0.993010
Si Si7 0.114976 0.680060 0.206080
O O1 0.807496 0.783452 0.294514
O O2 0.720074 0.721860 0.307500
O O3 0.762382 0.000000 0.251968
O O4 0.794248 0.774221 0.118887
O O5 0.250000 0.750000 0.500000
O O6 0.144761 0.752613 0.593064
O O7 0.197159 0.000000 0.578440
O O8 0.042266 0.754969 0.622473
O O9 0.000000 0.763728 0.500000
O O10 0.939482 0.757547 0.711884
O O11 0.993904 0.000000 0.612082
O O12 0.876614 0.815943 0.552323
O O13 0.905597 0.000000 0.393755
O O14 0.665558 0.500000 0.287802
O O15 0.650731 0.790967 0.258130
O O16 0.702984 0.500000 0.998752
O O17 0.647729 0.254625 0.090627
O O18 0.750000 0.250000 0.000000
O O19 0.107681 0.500000 0.197300
#
# Coordination Sequence:
#
# PCOD9182654 Si02
#       7
#     8   8   8   8   8   8   8
#     4  10  21  34  51  78 111 140 176 222 265 310
#     4  10  19  33  52  79 110 142 175 215 260 314
#     4  10  19  35  56  78 105 141 180 218 263 319
#     4   9  18  32  52  78 108 142 178 211 257 317
#     4  11  19  31  53  79 108 144 179 213 256 319
#     4  11  22  36  54  78 106 143 180 221 270 318
#     4  12  24  36  51  78 111 143 178 221 269 320
#
# _framework density 17.136126000000001
#
# number of rings (size 3 to 8) (size 9 to 14) (size 15 to 20)
#    0.000    1.571    4.286    2.143    0.000    0.857 
#    0.000    0.714    0.000    0.857    0.000    6.000 
#    0.000    0.000    0.000    0.000    0.000    0.000 
#
# Total GULP energy -156191.923252 kJ/mol
# GULP energy per Si atom -5578.282973 kJ/mol
# Density = 1.709712 g / cm^3
# Si number density = 17.136126 Si / 1000 Ang^3
#
#
#
# Elastic Constant Matrix: (Units=GPa)
#
#
# Indices 1 2 3 4 5 6 
#
# 1 103.6176 17.5041 39.1380 0.0000 -2.3275 0.0000
# 2 17.5041 25.5802 22.2952 0.0000 -1.0122 0.0000
# 3 39.1380 22.2952 85.4369 0.0000 -4.5520 0.0000
# 4 0.0000 0.0000 0.0000 17.2549 0.0000 -4.2701
# 5 -2.3275 -1.0122 -4.5520 0.0000 29.7298 0.0000
# 6 0.0000 0.0000 0.0000 -4.2701 0.0000 20.3417
#
#
#
# Elastic Compliance Matrix: (Units=1/GPa)
#
#
# Indices 1 2 3 4 5 6 
#
# 1 0.012049 -0.004446 -0.004353 0.000000 0.000125 0.000000
# 2 -0.004446 0.052245 -0.011615 0.000000 -0.000348 0.000000
# 3 -0.004353 -0.011615 0.016828 0.000000 0.001840 0.000000
# 4 0.000000 0.000000 0.000000 0.061130 0.000000 0.012833
# 5 0.000125 -0.000348 0.001840 0.000000 0.033916 0.000000
# 6 0.000000 0.000000 0.000000 0.012833 0.000000 0.051854
#
#
# Mechanical properties :
#
#
# Convention : Reuss Voigt Hill
#
# Bulk Modulus (GPa) = 24.81806 41.38993 33.10399
# Shear Modulus (GPa) = 17.71283 22.51176 20.11229
#
# Velocity S-wave (km/s) = 3.21854 3.62843 3.42962
# Velocity P-wave (km/s) = 5.32225 6.46221 5.91973
#
# Compressibility (1/GPa) = 0.04029324
#
# Stress axis : x y z
#
# Youngs Moduli (GPa) = 82.99576 19.14052 59.42646
#
# Poissons Ratio (x) = 0.08510 0.25865
# Poissons Ratio (y) = 0.36902 0.69026
# Poissons Ratio (z) = 0.36124 0.22232
#
# Static dielectric constant tensor:
#      x y z
#    x 1.598350 0.000000 0.012720 
#    y 0.000000 1.588020 0.000000 
#    z 0.012720 0.000000 1.575740 
# 
# From -- ./inp_files/243700.got.cif
#   From: 2010.05.17/outbox.cif.g08.bks.cpg/sg12_122_cif.got.tgz:243700.got - 2010.06.03 13:09:07.
