data_PCOD9182013
_publ_section_title
;
Structure prediction by ZEFSAII (Michael W. Deem and Ramdas Pophale) SiO2 
 PCOD9182013
Probable space group: C 2/M
;
_chemical_formula_sum "Si O2"
_cell_formula_units_Z 48
_cell_length_a 16.398198
_cell_length_b 8.510717
_cell_length_c 14.898929
_cell_angle_alpha 90.000000
_cell_angle_beta 102.094980
_cell_angle_gamma 90.000000
_cell_volume 2033.143672
_symmetry_space_group_name_H-M "C 2/M"
_symmetry_group_IT_number 12
_symmetry_cell_setting 'monoclinic'
loop_
_space_group_symop_operation_xyz
x,y,z
-x,y,-z
-x,-y,-z
x,-y,z
1/2+x,1/2+y,z
1/2-x,1/2+y,-z
1/2-x,1/2-y,-z
1/2+x,1/2-y,z
loop_
_atom_site_type_symbol
_atom_site_label
_atom_site_fract_x
_atom_site_fract_y
_atom_site_fract_z
Si Si1 0.591592 0.807865 0.548268
Si Si2 0.845458 0.314126 0.623536
Si Si3 0.210290 0.684784 0.725595
Si Si4 0.595211 0.682094 0.060702
Si Si5 0.015295 0.681084 0.208679
Si Si6 0.157745 0.183662 0.890950
O O1 0.500000 0.752992 0.500000
O O2 0.651227 0.763243 0.478835
O O3 0.629849 0.754171 0.651113
O O4 0.589539 0.000000 0.549806
O O5 0.824834 0.500000 0.623545
O O6 0.784936 0.221686 0.675180
O O7 0.938366 0.297994 0.686524
O O8 0.200955 0.500000 0.733808
O O9 0.217056 0.751259 0.827148
O O10 0.617847 0.500000 0.086435
O O11 0.583945 0.781756 0.147795
O O12 0.500000 0.678059 0.000000
O O13 0.651105 0.747698 0.991478
O O14 0.988349 0.500000 0.194749
O O15 0.934948 0.785671 0.170936
O O16 0.171815 0.000000 0.904076
#
# Coordination Sequence:
#
# PCOD9182013 Si02
#       6
#     8   8   8   8   8   8
#     4   9  18  35  58  81 106 137 174 217 264 315
#     4  10  21  37  55  77 111 148 175 210 267 323
#     4  11  22  35  55  81 107 140 182 222 261 311
#     4   8  16  31  51  76 106 140 175 217 270 317
#     4  10  19  32  55  83 107 138 181 223 263 312
#     4  10  20  35  55  78 108 144 178 218 271 321
#
# _framework density 23.60876
#
# number of rings (size 3 to 8) (size 9 to 14) (size 15 to 20)
#    0.000    2.333    0.000    4.000    0.000    7.667 
#    0.000    1.667    0.000    3.500    0.000    0.000 
#    0.000    0.000    0.000    0.000    0.000    0.000 
#
# Total GULP energy -134135.372917 kJ/mol
# GULP energy per Si atom -5588.973872 kJ/mol
# Density = 2.355503 g / cm^3
# Si number density = 23.608760 Si / 1000 Ang^3
#
#
#
# Elastic Constant Matrix: (Units=GPa)
#
#
# Indices 1 2 3 4 5 6 
#
# 1 66.2805 -6.4950 16.3554 0.0000 -14.1681 0.0000
# 2 -6.4950 17.7982 16.7253 0.0000 -2.8510 0.0000
# 3 16.3554 16.7253 147.3019 0.0000 -18.3532 0.0000
# 4 0.0000 0.0000 0.0000 13.6099 0.0000 -4.4844
# 5 -14.1681 -2.8510 -18.3532 0.0000 43.3071 0.0000
# 6 0.0000 0.0000 0.0000 -4.4844 0.0000 20.9008
#
#
#
# Elastic Compliance Matrix: (Units=1/GPa)
#
#
# Indices 1 2 3 4 5 6 
#
# 1 0.017780 0.009602 -0.002387 0.000000 0.005437 0.000000
# 2 0.009602 0.068139 -0.008290 0.000000 0.004114 0.000000
# 3 -0.002387 -0.008290 0.008266 0.000000 0.002177 0.000000
# 4 0.000000 0.000000 0.000000 0.079066 0.000000 0.016964
# 5 0.005437 0.004114 0.002177 0.000000 0.026063 0.000000
# 6 0.000000 0.000000 0.000000 0.016964 0.000000 0.051485
#
#
# Mechanical properties :
#
#
# Convention : Reuss Voigt Hill
#
# Bulk Modulus (GPa) = 10.86542 31.61688 21.24115
# Shear Modulus (GPa) = 17.62877 29.21656 23.42267
#
# Velocity S-wave (km/s) = 2.73555 3.52167 3.15321
# Velocity P-wave (km/s) = 3.81968 5.47333 4.71949
#
# Compressibility (1/GPa) = 0.09203506
#
# Stress axis : x y z
#
# Youngs Moduli (GPa) = 56.24415 14.67582 120.97263
#
# Poissons Ratio (x) = -0.14092 0.28876
# Poissons Ratio (y) = -0.54007 1.00292
# Poissons Ratio (z) = 0.13425 0.12167
#
# Static dielectric constant tensor:
#      x y z
#    x 1.991400 0.000000 -0.008030 
#    y 0.000000 1.798230 0.000000 
#    z -0.008030 0.000000 1.891760 
# 
# From -- ./inp_files/221724.got.cif
#   From: 2010.05.17/outbox.cif.g08.bks.cpg/sg12_111_cif.got.tgz:221724.got - 2010.06.03 13:09:07.
