data_PCOD9182425
_publ_section_title
;
Structure prediction by ZEFSAII (Michael W. Deem and Ramdas Pophale) SiO2 
 PCOD9182425
Probable space group: C 2/M
;
_chemical_formula_sum "Si O2"
_cell_formula_units_Z 52
_cell_length_a 12.095542
_cell_length_b 11.559287
_cell_length_c 20.186467
_cell_angle_alpha 90.000000
_cell_angle_beta 60.592181
_cell_angle_gamma 90.000000
_cell_volume 2458.714190
_symmetry_space_group_name_H-M "C 2/M"
_symmetry_group_IT_number 12
_symmetry_cell_setting 'monoclinic'
loop_
_space_group_symop_operation_xyz
x,y,z
-x,y,-z
-x,-y,-z
x,-y,z
1/2+x,1/2+y,z
1/2-x,1/2+y,-z
1/2-x,1/2-y,-z
1/2+x,1/2-y,z
loop_
_atom_site_type_symbol
_atom_site_label
_atom_site_fract_x
_atom_site_fract_y
_atom_site_fract_z
Si Si1 0.000000 0.694178 0.000000
Si Si2 0.708419 0.626056 0.920237
Si Si3 0.581705 0.374002 0.296309
Si Si4 0.783359 0.194360 0.227239
Si Si5 0.144202 0.129693 0.432292
Si Si6 0.493960 0.873684 0.148232
Si Si7 0.720526 0.369302 0.622868
O O1 0.120488 0.776635 0.976972
O O2 0.028163 0.627549 0.924396
O O3 0.677431 0.500000 0.957741
O O4 0.682850 0.625171 0.848665
O O5 0.857348 0.646059 0.885906
O O6 0.606602 0.500000 0.257807
O O7 0.662553 0.271891 0.241420
O O8 0.633525 0.375947 0.356054
O O9 0.430887 0.358055 0.342732
O O10 0.902329 0.278563 0.205662
O O11 0.754976 0.132697 0.304828
O O12 0.215883 0.251808 0.425452
O O13 0.000000 0.138994 0.500000
O O14 0.192282 0.000000 0.440163
O O15 0.462000 0.000000 0.185451
O O16 0.757390 0.500000 0.587944
#
# Coordination Sequence:
#
# PCOD9182425 Si02
#       7
#     4   8   8   8   8   8   8
#     4  10  20  34  50  68  96 128 160 202 254 304
#     4  10  20  33  49  70  96 127 163 204 251 302
#     4   9  18  33  52  74 103 136 168 206 256 307
#     4  10  19  33  51  73 100 131 165 205 252 302
#     4   9  19  36  55  76 105 140 175 210 251 301
#     4  10  20  33  51  73  96 125 165 208 247 296
#     4  10  20  34  53  78 106 135 170 212 254 300
#
# _framework density 21.149266999999998
#
# number of rings (size 3 to 8) (size 9 to 14) (size 15 to 20)
#    0.000    2.308    0.000    2.769    0.000    1.538 
#    0.000    3.846    0.000   14.769    0.000    0.000 
#    0.000    0.000    0.000    0.000    0.000    0.000 
#
# Total GULP energy -144930.053233 kJ/mol
# GULP energy per Si atom -5574.232817 kJ/mol
# Density = 2.110113 g / cm^3
# Si number density = 21.149267 Si / 1000 Ang^3
#
#
#
# Elastic Constant Matrix: (Units=GPa)
#
#
# Indices 1 2 3 4 5 6 
#
# 1 64.6079 42.0921 -18.4380 0.0000 -10.9414 0.0000
# 2 42.0921 165.8388 19.9409 0.0000 -26.4475 0.0000
# 3 -18.4380 19.9409 31.6781 0.0000 2.2491 0.0000
# 4 0.0000 0.0000 0.0000 -138.7093 0.0000 19.8014
# 5 -10.9414 -26.4475 2.2491 0.0000 26.3556 0.0000
# 6 0.0000 0.0000 0.0000 19.8014 0.0000 -24.5132
#
#
#
# Elastic Compliance Matrix: (Units=1/GPa)
#
#
# Indices 1 2 3 4 5 6 
#
# 1 0.028519 -0.010022 0.022921 0.000000 -0.000174 0.000000
# 2 -0.010022 0.011609 -0.013757 0.000000 0.008663 0.000000
# 3 0.022921 -0.013757 0.054201 0.000000 -0.008914 0.000000
# 4 0.000000 0.000000 0.000000 -0.008149 0.000000 -0.006583
# 5 -0.000174 0.008663 -0.008914 0.000000 0.047325 0.000000
# 6 0.000000 0.000000 0.000000 -0.006583 0.000000 -0.046112
#
#
# Mechanical properties :
#
#
# Convention : Reuss Voigt Hill
#
# Bulk Modulus (GPa) = 10.79755 38.81275 24.80515
# Shear Modulus (GPa) = 41.67327 -12.80472 14.43428
#
# Velocity S-wave (km/s) = 4.44377 -2.46325 2.61530
# Velocity P-wave (km/s) = 5.60767 3.20960 4.56878
#
# Compressibility (1/GPa) = 0.09261364
#
# Stress axis : x y z
#
# Youngs Moduli (GPa) = 35.06388 86.13664 18.44985
#
# Poissons Ratio (x) = 0.86329 -0.42289
# Poissons Ratio (y) = 0.35142 0.25381
# Poissons Ratio (z) = -0.80369 1.18494
#
# Static dielectric constant tensor:
#      x y z
#    x 1.743180 0.000000 0.018140 
#    y 0.000000 2.258780 0.000000 
#    z 0.018140 0.000000 1.737560 
# 
# From -- ./inp_files/304339.got.cif
#   From: 2010.05.17/outbox.cif.g08.bks.cpg/sg12_153_cif.got.tgz:304339.got - 2010.06.03 13:09:07.
