data_PCOD9182625
_publ_section_title
;
Structure prediction by ZEFSAII (Michael W. Deem and Ramdas Pophale) SiO2 
 PCOD9182625
Probable space group: C 2/M
;
_chemical_formula_sum "Si O2"
_cell_formula_units_Z 56
_cell_length_a 13.949994
_cell_length_b 14.195703
_cell_length_c 14.686782
_cell_angle_alpha 90.000000
_cell_angle_beta 91.395325
_cell_angle_gamma 90.000000
_cell_volume 2907.560618
_symmetry_space_group_name_H-M "C 2/M"
_symmetry_group_IT_number 12
_symmetry_cell_setting 'monoclinic'
loop_
_space_group_symop_operation_xyz
x,y,z
-x,y,-z
-x,-y,-z
x,-y,z
1/2+x,1/2+y,z
1/2-x,1/2+y,-z
1/2-x,1/2-y,-z
1/2+x,1/2-y,z
loop_
_atom_site_type_symbol
_atom_site_label
_atom_site_fract_x
_atom_site_fract_y
_atom_site_fract_z
Si Si1 0.210634 0.109698 0.065722
Si Si2 0.290150 0.201009 0.624540
Si Si3 0.876228 0.609580 0.801852
Si Si4 0.886030 0.291048 0.989039
Si Si5 0.093124 0.752166 0.542691
Si Si6 0.214465 0.895733 0.275290
Si Si7 0.559700 0.105445 0.696387
O O1 0.144328 0.181479 0.007372
O O2 0.179920 0.115872 0.170974
O O3 0.206502 0.000000 0.038811
O O4 0.318928 0.149351 0.055571
O O5 0.317384 0.136037 0.709896
O O6 0.179600 0.191091 0.591606
O O7 0.353877 0.192549 0.535572
O O8 0.309245 0.308011 0.661031
O O9 0.864049 0.500000 0.824392
O O10 0.853729 0.671966 0.888581
O O11 0.986519 0.626969 0.775402
O O12 0.000000 0.304624 0.000000
O O13 0.052565 0.681169 0.617101
O O14 0.000000 0.803645 0.500000
O O15 0.330065 0.895293 0.271824
O O16 0.185490 0.000000 0.308424
O O17 0.534646 0.000000 0.663141
#
# Coordination Sequence:
#
# PCOD9182625 Si02
#       7
#     8   8   8   8   8   8   8
#     4  10  21  38  60  85 117 155 197 237 285 348
#     4  10  20  34  53  81 108 144 184 226 287 328
#     4  11  21  35  56  84 116 146 186 235 289 344
#     4  11  23  38  59  90 123 155 190 242 298 343
#     4  10  19  33  52  77 110 144 177 232 277 337
#     4   9  17  34  57  78 104 142 190 232 272 334
#     4   9  18  30  52  83 108 139 181 231 286 336
#
# _framework density 19.260131999999999
#
# number of rings (size 3 to 8) (size 9 to 14) (size 15 to 20)
#    0.000    2.000    2.857    1.286    0.000    3.429 
#    0.000    2.143    0.000    1.714    0.000    0.000 
#    0.000    0.000    0.000    0.000    0.000    0.000 
#
# Total GULP energy -156093.210871 kJ/mol
# GULP energy per Si atom -5574.757531 kJ/mol
# Density = 1.921629 g / cm^3
# Si number density = 19.260132 Si / 1000 Ang^3
#
#
#
# Elastic Constant Matrix: (Units=GPa)
#
#
# Indices 1 2 3 4 5 6 
#
# 1 34.1783 -8.0981 -12.6043 0.0000 5.3533 0.0000
# 2 -8.0981 80.2906 12.1683 0.0000 -6.9245 0.0000
# 3 -12.6043 12.1683 35.3201 0.0000 7.2166 0.0000
# 4 0.0000 0.0000 0.0000 9.0994 0.0000 -3.0169
# 5 5.3533 -6.9245 7.2166 0.0000 16.4638 0.0000
# 6 0.0000 0.0000 0.0000 -3.0169 0.0000 16.8398
#
#
#
# Elastic Compliance Matrix: (Units=1/GPa)
#
#
# Indices 1 2 3 4 5 6 
#
# 1 0.039269 -0.000684 0.018581 0.000000 -0.021201 0.000000
# 2 -0.000684 0.014259 -0.007059 0.000000 0.009314 0.000000
# 3 0.018581 -0.007059 0.043074 0.000000 -0.027892 0.000000
# 4 0.000000 0.000000 0.000000 0.116837 0.000000 0.020932
# 5 -0.021201 0.009314 -0.027892 0.000000 0.083776 0.000000
# 6 0.000000 0.000000 0.000000 0.020932 0.000000 0.063133
#
#
# Mechanical properties :
#
#
# Convention : Reuss Voigt Hill
#
# Bulk Modulus (GPa) = 8.45467 14.74676 11.60072
# Shear Modulus (GPa) = 13.22405 19.03547 16.12976
#
# Velocity S-wave (km/s) = 2.62315 3.14719 2.89704
# Velocity P-wave (km/s) = 3.68427 4.56943 4.15051
#
# Compressibility (1/GPa) = 0.11827782
#
# Stress axis : x y z
#
# Youngs Moduli (GPa) = 25.46523 70.13150 23.21576
#
# Poissons Ratio (x) = 0.04795 -0.43137
# Poissons Ratio (y) = 0.01741 0.16389
# Poissons Ratio (z) = -0.47317 0.49509
#
# Static dielectric constant tensor:
#      x y z
#    x 1.692580 0.000000 0.025460 
#    y 0.000000 1.676900 0.000000 
#    z 0.025460 0.000000 1.686280 
# 
# From -- ./inp_files/214240.got.cif
#   From: 2010.05.17/outbox.cif.g08.bks.cpg/sg12_108_cif.got.tgz:214240.got - 2010.06.03 13:09:07.
