data_PCOD9182994
_publ_section_title
;
Structure prediction by ZEFSAII (Michael W. Deem and Ramdas Pophale) SiO2 
 PCOD9182994
Probable space group: C 2/M
;
_chemical_formula_sum "Si O2"
_cell_formula_units_Z 46
_cell_length_a 6.894906
_cell_length_b 26.381882
_cell_length_c 12.164663
_cell_angle_alpha 90.000000
_cell_angle_beta 123.853003
_cell_angle_gamma 90.000000
_cell_volume 1837.629234
_symmetry_space_group_name_H-M "C 2/M"
_symmetry_group_IT_number 12
_symmetry_cell_setting 'monoclinic'
loop_
_space_group_symop_operation_xyz
x,y,z
-x,y,-z
-x,-y,-z
x,-y,z
1/2+x,1/2+y,z
1/2-x,1/2+y,-z
1/2-x,1/2-y,-z
1/2+x,1/2-y,z
loop_
_atom_site_type_symbol
_atom_site_label
_atom_site_fract_x
_atom_site_fract_y
_atom_site_fract_z
Si Si1 0.640749 0.581257 0.313906
Si Si2 0.000000 0.121405 0.500000
Si Si3 0.500000 0.000000 0.500000
Si Si4 0.744426 0.054958 0.013575
Si Si5 0.191745 0.699941 0.309480
Si Si6 0.194935 0.332590 0.962807
Si Si7 0.580090 0.309538 0.248031
O O1 0.527137 0.586842 0.400471
O O2 0.854124 0.543920 0.388153
O O3 0.445626 0.561585 0.167836
O O4 0.710415 0.637495 0.298035
O O5 0.222346 0.160116 0.573142
O O6 0.763303 0.000000 0.962403
O O7 0.500000 0.054134 0.000000
O O8 0.740518 0.108319 0.948582
O O9 0.371344 0.685200 0.270358
O O10 0.219483 0.760090 0.329998
O O11 0.930477 0.693365 0.180138
O O12 0.427869 0.307593 0.087392
O O13 0.000000 0.331557 0.000000
#
# Coordination Sequence:
#
# PCOD9182994 Si02
#       7
#     8   4   2   8   8   8   8
#     4  10  22  38  55  84 109 150 191 227 280 330
#     4  10  22  36  54  78 116 140 188 234 266 342
#     4  12  24  40  58  76 114 148 192 228 282 344
#     4   9  15  29  55  82 103 135 189 239 271 318
#     4  10  19  33  53  82 114 146 177 224 281 328
#     4   8  15  29  49  77 108 137 179 229 274 326
#     4   9  19  33  55  80 108 141 188 232 271 327
#
# _framework density 25.032253999999998
#
# number of rings (size 3 to 8) (size 9 to 14) (size 15 to 20)
#    0.000    2.609    0.870    3.652    0.000    5.217 
#    0.000    0.000    1.913    0.000    0.000    9.739 
#    0.000    0.000    0.000    0.000    0.000    0.000 
#
# Total GULP energy -128312.109018 kJ/mol
# GULP energy per Si atom -5578.787349 kJ/mol
# Density = 2.497528 g / cm^3
# Si number density = 25.032254 Si / 1000 Ang^3
#
#
#
# Elastic Constant Matrix: (Units=GPa)
#
#
# Indices 1 2 3 4 5 6 
#
# 1 60.6595 -12.7094 -1.2615 0.0000 0.1065 0.0000
# 2 -12.7094 122.9692 18.7854 0.0000 12.9535 0.0000
# 3 -1.2615 18.7854 87.9070 0.0000 19.9647 0.0000
# 4 0.0000 0.0000 0.0000 31.6380 0.0000 9.4514
# 5 0.1065 12.9535 19.9647 0.0000 39.1230 0.0000
# 6 0.0000 0.0000 0.0000 9.4514 0.0000 -19.4548
#
#
#
# Elastic Compliance Matrix: (Units=1/GPa)
#
#
# Indices 1 2 3 4 5 6 
#
# 1 0.016866 0.001811 0.000002 0.000000 -0.000646 0.000000
# 2 0.001811 0.008758 -0.001341 0.000000 -0.002220 0.000000
# 3 0.000002 -0.001341 0.013077 0.000000 -0.006229 0.000000
# 4 0.000000 0.000000 0.000000 0.027602 0.000000 0.013409
# 5 -0.000646 -0.002220 -0.006229 0.000000 0.029476 0.000000
# 6 0.000000 0.000000 0.000000 0.013409 0.000000 -0.044887
#
#
# Mechanical properties :
#
#
# Convention : Reuss Voigt Hill
#
# Bulk Modulus (GPa) = 25.22436 31.24052 28.23244
# Shear Modulus (GPa) = 79.15890 28.04263 53.60077
#
# Velocity S-wave (km/s) = 5.62951 3.35066 4.63240
# Velocity P-wave (km/s) = 7.23559 5.24180 6.31784
#
# Compressibility (1/GPa) = 0.03964422
#
# Stress axis : x y z
#
# Youngs Moduli (GPa) = 59.29060 114.18035 76.46983
#
# Poissons Ratio (x) = -0.20678 -0.00014
# Poissons Ratio (y) = -0.10737 0.10257
# Poissons Ratio (z) = -0.00011 0.15316
#
# Static dielectric constant tensor:
#      x y z
#    x 2.067460 0.000000 -0.040130 
#    y 0.000000 1.963240 0.000000 
#    z -0.040130 0.000000 1.986510 
# 
# From -- ./inp_files/123923.got.cif
#   From: 2010.05.17/outbox.cif.g08.bks.cpg/sg12_62_cif.got.tgz:123923.got - 2010.06.03 13:09:07.
