data_PCOD9182150
_publ_section_title
;
Structure prediction by ZEFSAII (Michael W. Deem and Ramdas Pophale) SiO2 
 PCOD9182150
Probable space group: C 2/M
;
_chemical_formula_sum "Si O2"
_cell_formula_units_Z 48
_cell_length_a 12.892694
_cell_length_b 20.943607
_cell_length_c 12.907506
_cell_angle_alpha 90.000000
_cell_angle_beta 134.445373
_cell_angle_gamma 90.000000
_cell_volume 2488.204422
_symmetry_space_group_name_H-M "C 2/M"
_symmetry_group_IT_number 12
_symmetry_cell_setting 'monoclinic'
loop_
_space_group_symop_operation_xyz
x,y,z
-x,y,-z
-x,-y,-z
x,-y,z
1/2+x,1/2+y,z
1/2-x,1/2+y,-z
1/2-x,1/2-y,-z
1/2+x,1/2-y,z
loop_
_atom_site_type_symbol
_atom_site_label
_atom_site_fract_x
_atom_site_fract_y
_atom_site_fract_z
Si Si1 0.917381 0.716948 0.835317
Si Si2 0.813538 0.573977 0.473167
Si Si3 0.355699 0.637188 0.834836
Si Si4 0.031334 0.068936 0.398758
Si Si5 0.097225 0.808346 0.669031
Si Si6 0.941515 0.668063 0.269985
O O1 0.892221 0.793859 0.806166
O O2 0.759819 0.688252 0.743467
O O3 0.001956 0.678127 0.806715
O O4 0.000000 0.711306 0.000000
O O5 0.862035 0.500000 0.497704
O O6 0.716078 0.593730 0.305285
O O7 0.700382 0.577943 0.489996
O O8 0.945797 0.622854 0.588101
O O9 0.223145 0.645726 0.824207
O O10 0.500000 0.617166 0.000000
O O11 0.945359 0.129576 0.295295
O O12 0.000000 0.065911 0.500000
O O13 0.988483 0.000000 0.324216
O O14 0.061862 0.741145 0.694660
O O15 0.000000 0.809277 0.500000
#
# Coordination Sequence:
#
# PCOD9182150 Si02
#       6
#     8   8   8   8   8   8
#     4  10  22  37  56  86 119 151 189 238 294 344
#     4  11  23  39  60  85 116 154 196 242 288 340
#     4  10  23  39  58  87 118 150 190 237 292 350
#     4   9  18  32  53  83 115 146 184 232 283 333
#     4  10  19  32  56  85 112 147 193 241 285 338
#     4  11  21  37  60  84 115 151 193 242 289 340
#
# _framework density 19.29102
#
# number of rings (size 3 to 8) (size 9 to 14) (size 15 to 20)
#    0.000    1.833    0.000    5.500    0.000   11.000 
#    0.000    0.000    0.000    2.000    0.000    0.000 
#    0.000    0.000    0.000    0.000    0.000    0.000 
#
# Total GULP energy -133727.299745 kJ/mol
# GULP energy per Si atom -5571.970823 kJ/mol
# Density = 1.924711 g / cm^3
# Si number density = 19.291020 Si / 1000 Ang^3
#
#
#
# Elastic Constant Matrix: (Units=GPa)
#
#
# Indices 1 2 3 4 5 6 
#
# 1 115.2782 65.8462 46.8397 0.0000 16.7922 0.0000
# 2 65.8462 105.6464 50.1114 0.0000 6.1505 0.0000
# 3 46.8397 50.1114 80.4214 0.0000 19.8578 0.0000
# 4 0.0000 0.0000 0.0000 6.0816 0.0000 -6.8693
# 5 16.7922 6.1505 19.8578 0.0000 19.2135 0.0000
# 6 0.0000 0.0000 0.0000 -6.8693 0.0000 15.2727
#
#
#
# Elastic Compliance Matrix: (Units=1/GPa)
#
#
# Indices 1 2 3 4 5 6 
#
# 1 0.015396 -0.008358 -0.001473 0.000000 -0.009258 0.000000
# 2 -0.008358 0.018481 -0.009386 0.000000 0.011090 0.000000
# 3 -0.001473 -0.009386 0.024277 0.000000 -0.020799 0.000000
# 4 0.000000 0.000000 0.000000 0.334234 0.000000 0.150330
# 5 -0.009258 0.011090 -0.020799 0.000000 0.078084 0.000000
# 6 0.000000 0.000000 0.000000 0.150330 0.000000 0.133091
#
#
# Mechanical properties :
#
#
# Convention : Reuss Voigt Hill
#
# Bulk Modulus (GPa) = 50.71178 69.66009 60.18594
# Shear Modulus (GPa) = 7.70925 17.35014 12.52970
#
# Velocity S-wave (km/s) = 2.00124 3.00224 2.55131
# Velocity P-wave (km/s) = 5.62892 6.94308 6.32025
#
# Compressibility (1/GPa) = 0.01971928
#
# Stress axis : x y z
#
# Youngs Moduli (GPa) = 64.95272 54.10820 41.19155
#
# Poissons Ratio (x) = 0.45224 0.06068
# Poissons Ratio (y) = 0.54288 0.38664
# Poissons Ratio (z) = 0.09568 0.50788
#
# Static dielectric constant tensor:
#      x y z
#    x 1.620520 0.000000 0.066280 
#    y 0.000000 1.827460 0.000000 
#    z 0.066280 0.000000 1.559130 
# 
# From -- ./inp_files/99763.got.cif
#   From: 2010.05.17/outbox.cif.g08.bks.cpg/sg12_50_cif.got.tgz:99763.got - 2010.06.03 13:09:07.
