data_PCOD9182117
_publ_section_title
;
Structure prediction by ZEFSAII (Michael W. Deem and Ramdas Pophale) SiO2 
 PCOD9182117
Probable space group: C 2/M
;
_chemical_formula_sum "Si O2"
_cell_formula_units_Z 48
_cell_length_a 12.516324
_cell_length_b 22.005263
_cell_length_c 9.477313
_cell_angle_alpha 90.000000
_cell_angle_beta 87.037600
_cell_angle_gamma 90.000000
_cell_volume 2606.800726
_symmetry_space_group_name_H-M "C 2/M"
_symmetry_group_IT_number 12
_symmetry_cell_setting 'monoclinic'
loop_
_space_group_symop_operation_xyz
x,y,z
-x,y,-z
-x,-y,-z
x,-y,z
1/2+x,1/2+y,z
1/2-x,1/2+y,-z
1/2-x,1/2-y,-z
1/2+x,1/2-y,z
loop_
_atom_site_type_symbol
_atom_site_label
_atom_site_fract_x
_atom_site_fract_y
_atom_site_fract_z
Si Si1 0.901527 0.124795 0.915432
Si Si2 0.641088 0.183106 0.132062
Si Si3 0.041260 0.886555 0.653111
Si Si4 0.231671 0.070143 0.820183
Si Si5 0.709554 0.209970 0.834564
Si Si6 0.963785 0.260629 0.345981
O O1 0.815147 0.169973 0.851924
O O2 0.958681 0.092236 0.780388
O O3 0.838021 0.084317 0.033231
O O4 0.000000 0.153800 0.000000
O O5 0.667264 0.114908 0.175572
O O6 0.751736 0.220879 0.147993
O O7 0.552135 0.214834 0.231565
O O8 0.629089 0.190310 0.964884
O O9 0.155786 0.912022 0.693578
O O10 0.044299 0.812671 0.662580
O O11 0.000000 0.902591 0.500000
O O12 0.260059 0.000000 0.812513
O O13 0.648039 0.208901 0.691870
O O14 0.000000 0.276240 0.500000
#
# Coordination Sequence:
#
# PCOD9182117 Si02
#       6
#     8   8   8   8   8   8
#     4   9  19  34  55  81 110 141 178 231 278 325
#     4  10  20  33  56  79 108 144 184 226 276 327
#     4  10  20  32  51  82 116 146 176 222 281 334
#     4  10  21  37  55  78 108 147 191 227 269 324
#     4  10  19  32  56  80 107 143 183 225 279 325
#     4  11  22  33  52  85 121 145 176 227 281 334
#
# _framework density 18.413376
#
# number of rings (size 3 to 8) (size 9 to 14) (size 15 to 20)
#    0.000    2.000    3.333    0.500    2.333    5.333 
#    0.000    0.000    0.000    8.500    0.000    0.000 
#    0.000    0.000    0.000    0.000    0.000    0.000 
#
# Total GULP energy -133809.186282 kJ/mol
# GULP energy per Si atom -5575.382762 kJ/mol
# Density = 1.837147 g / cm^3
# Si number density = 18.413376 Si / 1000 Ang^3
#
#
#
# Elastic Constant Matrix: (Units=GPa)
#
#
# Indices 1 2 3 4 5 6 
#
# 1 38.5023 16.4031 16.0301 0.0000 16.3657 0.0000
# 2 16.4031 95.5395 7.0335 0.0000 15.4093 0.0000
# 3 16.0301 7.0335 84.1413 0.0000 33.7606 0.0000
# 4 0.0000 0.0000 0.0000 11.9596 0.0000 3.8369
# 5 16.3657 15.4093 33.7606 0.0000 31.3922 0.0000
# 6 0.0000 0.0000 0.0000 3.8369 0.0000 17.1416
#
#
#
# Elastic Compliance Matrix: (Units=1/GPa)
#
#
# Indices 1 2 3 4 5 6 
#
# 1 0.034288 -0.003209 0.000486 0.000000 -0.016822 0.000000
# 2 -0.003209 0.011918 0.002271 0.000000 -0.006620 0.000000
# 3 0.000486 0.002271 0.021375 0.000000 -0.024355 0.000000
# 4 0.000000 0.000000 0.000000 0.090084 0.000000 -0.020164
# 5 -0.016822 -0.006620 -0.024355 0.000000 0.070067 0.000000
# 6 0.000000 0.000000 0.000000 -0.020164 0.000000 0.062851
#
#
# Mechanical properties :
#
#
# Convention : Reuss Voigt Hill
#
# Bulk Modulus (GPa) = 14.99785 33.01296 24.00541
# Shear Modulus (GPa) = 15.93810 24.01310 19.97560
#
# Velocity S-wave (km/s) = 2.94525 3.61517 3.29727
# Velocity P-wave (km/s) = 4.44171 5.94925 5.24988
#
# Compressibility (1/GPa) = 0.06667620
#
# Stress axis : x y z
#
# Youngs Moduli (GPa) = 29.16466 83.90413 46.78436
#
# Poissons Ratio (x) = 0.26928 -0.02272
# Poissons Ratio (y) = 0.09360 -0.10626
# Poissons Ratio (z) = -0.01417 -0.19057
#
# Static dielectric constant tensor:
#      x y z
#    x 1.667030 0.000000 0.001170 
#    y 0.000000 1.634020 0.000000 
#    z 0.001170 0.000000 1.663320 
# 
# From -- ./inp_files/50736.got.cif
#   From: 2010.05.17/outbox.cif.g08.bks.cpg/sg12_26_cif.got.tgz:50736.got - 2010.06.03 13:09:07.
