data_PCOD9182291
_publ_section_title
;
Structure prediction by ZEFSAII (Michael W. Deem and Ramdas Pophale) SiO2 
 PCOD9182291
Probable space group: C 2/M
;
_chemical_formula_sum "Si O2"
_cell_formula_units_Z 64
_cell_length_a 13.984150
_cell_length_b 15.347398
_cell_length_c 15.063584
_cell_angle_alpha 90.000000
_cell_angle_beta 91.575028
_cell_angle_gamma 90.000000
_cell_volume 3231.729712
_symmetry_space_group_name_H-M "C 2/M"
_symmetry_group_IT_number 12
_symmetry_cell_setting 'monoclinic'
loop_
_space_group_symop_operation_xyz
x,y,z
-x,y,-z
-x,-y,-z
x,-y,z
1/2+x,1/2+y,z
1/2-x,1/2+y,-z
1/2-x,1/2-y,-z
1/2+x,1/2-y,z
loop_
_atom_site_type_symbol
_atom_site_label
_atom_site_fract_x
_atom_site_fract_y
_atom_site_fract_z
Si Si1 0.356402 0.183139 0.883686
Si Si2 0.844911 0.743960 0.184933
Si Si3 0.128338 0.872458 0.051942
Si Si4 0.073487 0.399356 0.290746
Si Si5 0.654482 0.899058 0.674131
Si Si6 0.449037 0.406720 0.148473
Si Si7 0.607097 0.105607 0.481701
Si Si8 0.353455 0.905659 0.059026
O O1 0.245670 0.205843 0.859506
O O2 0.387270 0.269809 0.935768
O O3 0.404424 0.159524 0.792694
O O4 0.371021 0.107235 0.955509
O O5 0.810624 0.679204 0.262143
O O6 0.918250 0.822633 0.203854
O O7 0.890633 0.675711 0.116179
O O8 0.238326 0.898074 0.066895
O O9 0.060810 0.908652 0.127345
O O10 0.096123 0.898393 0.952278
O O11 0.100410 0.500000 0.272109
O O12 0.128934 0.368458 0.381332
O O13 0.960628 0.399631 0.311408
O O14 0.669369 0.876414 0.570576
O O15 0.686588 0.000000 0.692122
O O16 0.418560 0.500000 0.185899
O O17 0.500000 0.138626 0.500000
O O18 0.601250 0.000000 0.478176
O O19 0.387178 0.000000 0.091533
#
# Coordination Sequence:
#
# PCOD9182291 Si02
#       8
#     8   8   8   8   8   8   8   8
#     4  11  20  32  44  66 100 129 154 190 235 281
#     4  11  21  33  46  72  98 124 157 196 238 281
#     4  10  19  33  47  64  86 121 168 202 226 258
#     4   9  17  30  50  73  95 124 156 188 232 286
#     4   9  17  32  52  74  97 121 152 194 236 278
#     4  11  20  32  50  66  86 121 166 210 235 253
#     4   7  12  26  49  72  93 118 152 189 227 275
#     4  11  20  34  49  64  94 132 161 188 233 285
#
# _framework density 19.803636000000001
#
# number of rings (size 3 to 8) (size 9 to 14) (size 15 to 20)
#    0.000    2.125    2.500    5.250    0.000    0.500 
#    0.000    0.625    0.000    3.000    0.000    0.000 
#    0.000   14.500    0.000    0.000    0.000    0.875 
#
# Total GULP energy -178363.165785 kJ/mol
# GULP energy per Si atom -5573.848931 kJ/mol
# Density = 1.975856 g / cm^3
# Si number density = 19.803636 Si / 1000 Ang^3
#
#
#
# Elastic Constant Matrix: (Units=GPa)
#
#
# Indices 1 2 3 4 5 6 
#
# 1 13.0842 7.4935 2.1654 0.0000 -4.6984 0.0000
# 2 7.4935 103.9936 24.0505 0.0000 -3.3270 0.0000
# 3 2.1654 24.0505 90.7471 0.0000 4.9935 0.0000
# 4 0.0000 0.0000 0.0000 18.5952 0.0000 5.4736
# 5 -4.6984 -3.3270 4.9935 0.0000 11.8991 0.0000
# 6 0.0000 0.0000 0.0000 5.4736 0.0000 3.4463
#
#
#
# Elastic Compliance Matrix: (Units=1/GPa)
#
#
# Indices 1 2 3 4 5 6 
#
# 1 0.092801 -0.004838 -0.002942 0.000000 0.036524 0.000000
# 2 -0.004838 0.010695 -0.002844 0.000000 0.002274 0.000000
# 3 -0.002942 -0.002844 0.012234 0.000000 -0.007091 0.000000
# 4 0.000000 0.000000 0.000000 0.100991 0.000000 -0.160399
# 5 0.036524 0.002274 -0.007091 0.000000 0.102073 0.000000
# 6 0.000000 0.000000 0.000000 -0.160399 0.000000 0.544920
#
#
# Mechanical properties :
#
#
# Convention : Reuss Voigt Hill
#
# Bulk Modulus (GPa) = 10.58407 30.58263 20.58335
# Shear Modulus (GPa) = 5.45579 18.39581 11.92580
#
# Velocity S-wave (km/s) = 1.66160 3.05111 2.45664
# Velocity P-wave (km/s) = 3.00622 5.28099 4.29687
#
# Compressibility (1/GPa) = 0.09448164
#
# Stress axis : x y z
#
# Youngs Moduli (GPa) = 10.77572 93.50075 81.74073
#
# Poissons Ratio (x) = 0.45237 0.24048
# Poissons Ratio (y) = 0.05213 0.23248
# Poissons Ratio (z) = 0.03170 0.26593
#
# Static dielectric constant tensor:
#      x y z
#    x 1.754010 0.000000 0.016340 
#    y 0.000000 1.757510 0.000000 
#    z 0.016340 0.000000 1.726850 
# 
# From -- ./inp_files/224751.got.cif
#   From: 2010.05.17/outbox.cif.g08.bks.cpg/sg12_113_cif.got.tgz:224751.got - 2010.06.03 13:09:07.
