data_PCOD9182883
_publ_section_title
;
Structure prediction by ZEFSAII (Michael W. Deem and Ramdas Pophale) SiO2 
 PCOD9182883
Probable space group: C 2/M
;
_chemical_formula_sum "Si O2"
_cell_formula_units_Z 64
_cell_length_a 17.310686
_cell_length_b 13.491927
_cell_length_c 16.801233
_cell_angle_alpha 90.000000
_cell_angle_beta 55.662029
_cell_angle_gamma 90.000000
_cell_volume 3240.146655
_symmetry_space_group_name_H-M "C 2/M"
_symmetry_group_IT_number 12
_symmetry_cell_setting 'monoclinic'
loop_
_space_group_symop_operation_xyz
x,y,z
-x,y,-z
-x,-y,-z
x,-y,z
1/2+x,1/2+y,z
1/2-x,1/2+y,-z
1/2-x,1/2-y,-z
1/2+x,1/2-y,z
loop_
_atom_site_type_symbol
_atom_site_label
_atom_site_fract_x
_atom_site_fract_y
_atom_site_fract_z
Si Si1 0.704957 0.381307 0.941130
Si Si2 0.097886 0.615598 0.737994
Si Si3 0.578669 0.254828 0.398228
Si Si4 0.097886 0.384402 0.237994
Si Si5 0.544476 0.382425 0.142318
Si Si6 0.704957 0.381307 0.441130
Si Si7 0.921331 0.754828 0.101772
Si Si8 0.544476 0.617575 0.642318
O O1 0.687387 0.500000 0.934427
O O2 0.815710 0.367307 0.872158
O O3 0.658707 0.308039 0.903017
O O4 0.650876 0.358251 0.055091
O O5 0.100929 0.500000 0.760028
O O6 0.184290 0.632693 0.627842
O O7 0.109587 0.682398 0.809655
O O8 0.000000 0.631723 0.750000
O O9 0.500000 0.203875 0.500000
O O10 0.609587 0.182398 0.309655
O O11 0.658707 0.308039 0.403017
O O12 0.520188 0.342098 0.390036
O O13 0.100929 0.500000 0.260028
O O14 0.539057 0.500000 0.148425
O O15 0.479812 0.342098 0.109964
O O16 0.500000 0.344473 0.250000
O O17 0.687387 0.500000 0.434427
O O18 0.650876 0.358251 0.555091
O O19 0.000000 0.703875 0.000000
O O20 0.539058 0.500000 0.648425
#
# Coordination Sequence:
#
# PCOD9182883 Si02
#       8
#     8   8   8   8   8   8   8   8
#     4   9  18  34  56  80 105 135 170 212 263 309
#     4  10  21  37  54  73 104 144 180 211 247 302
#     4  10  19  33  53  78 105 135 171 216 264 306
#     4  10  21  37  54  73 104 144 180 211 247 302
#     4   9  17  31  53  81 108 132 166 215 267 313
#     4   9  18  34  56  80 105 135 170 212 263 309
#     4  10  19  33  53  78 105 135 171 216 264 306
#     4   9  17  31  53  81 108 132 166 215 267 313
#
# _framework density 19.752192000000001
#
# number of rings (size 3 to 8) (size 9 to 14) (size 15 to 20)
#    0.000    2.500    0.000    2.250    0.000    3.500 
#    0.000   13.750    0.000    6.000    0.000    0.000 
#    0.000    0.000    0.000    0.000    0.000    0.000 
#
# Total GULP energy -178331.420946 kJ/mol
# GULP energy per Si atom -5572.856905 kJ/mol
# Density = 1.970724 g / cm^3
# Si number density = 19.752192 Si / 1000 Ang^3
#
#
#
# Elastic Constant Matrix: (Units=GPa)
#
#
# Indices 1 2 3 4 5 6 
#
# 1 63.7703 29.1211 49.6872 0.0000 -28.1342 0.0000
# 2 29.1211 68.7395 53.8098 0.0000 -10.6304 0.0000
# 3 49.6872 53.8098 166.7561 0.0000 -25.9903 0.0000
# 4 0.0000 0.0000 0.0000 -7.9765 0.0000 33.1236
# 5 -28.1342 -10.6304 -25.9903 0.0000 34.1168 0.0000
# 6 0.0000 0.0000 0.0000 33.1236 0.0000 -0.9650
#
#
#
# Elastic Compliance Matrix: (Units=1/GPa)
#
#
# Indices 1 2 3 4 5 6 
#
# 1 0.030746 -0.006944 -0.003751 0.000000 0.020333 0.000000
# 2 -0.006944 0.021097 -0.005227 0.000000 -0.003135 0.000000
# 3 -0.003751 -0.005227 0.009152 0.000000 0.002250 0.000000
# 4 0.000000 0.000000 0.000000 0.000886 0.000000 0.030403
# 5 0.020333 -0.003135 0.002250 0.000000 0.046815 0.000000
# 6 0.000000 0.000000 0.000000 0.030403 0.000000 0.007321
#
#
# Mechanical properties :
#
#
# Convention : Reuss Voigt Hill
#
# Bulk Modulus (GPa) = 34.30670 62.72247 48.51458
# Shear Modulus (GPa) = 31.73035 16.14491 23.93763
#
# Velocity S-wave (km/s) = 4.01237 2.86208 3.48501
# Velocity P-wave (km/s) = 6.23472 6.53801 6.38817
#
# Compressibility (1/GPa) = 0.02914882
#
# Stress axis : x y z
#
# Youngs Moduli (GPa) = 32.52500 47.40113 109.26752
#
# Poissons Ratio (x) = 0.32917 0.40988
# Poissons Ratio (y) = 0.22586 0.57115
# Poissons Ratio (z) = 0.12201 0.24777
#
# Static dielectric constant tensor:
#      x y z
#    x 1.662840 0.000000 -0.017410 
#    y 0.000000 1.692250 0.000000 
#    z -0.017410 0.000000 1.782100 
# 
# From -- ./inp_files/225667.got.cif
#   From: 2010.05.17/outbox.cif.g08.bks.cpg/sg12_113_cif.got.tgz:225667.got - 2010.06.03 13:09:07.
