data_PCOD9182247
_publ_section_title
;
Structure prediction by ZEFSAII (Michael W. Deem and Ramdas Pophale) SiO2 
 PCOD9182247
Probable space group: C 2/M
;
_chemical_formula_sum "Si O2"
_cell_formula_units_Z 48
_cell_length_a 21.070989
_cell_length_b 8.429904
_cell_length_c 21.775179
_cell_angle_alpha 90.000000
_cell_angle_beta 138.349522
_cell_angle_gamma 90.000000
_cell_volume 2570.512191
_symmetry_space_group_name_H-M "C 2/M"
_symmetry_group_IT_number 12
_symmetry_cell_setting 'monoclinic'
loop_
_space_group_symop_operation_xyz
x,y,z
-x,y,-z
-x,-y,-z
x,-y,z
1/2+x,1/2+y,z
1/2-x,1/2+y,-z
1/2-x,1/2-y,-z
1/2+x,1/2-y,z
loop_
_atom_site_type_symbol
_atom_site_label
_atom_site_fract_x
_atom_site_fract_y
_atom_site_fract_z
Si Si1 0.223512 0.806152 0.788083
Si Si2 0.266491 0.808174 0.680184
Si Si3 0.014034 0.308126 0.185881
Si Si4 0.919954 0.306421 0.991644
Si Si5 0.669581 0.811636 0.488987
Si Si6 0.972427 0.189932 0.290907
O O1 0.236576 0.757027 0.726790
O O2 0.315856 0.754725 0.893878
O O3 0.124303 0.753199 0.746063
O O4 0.223951 0.000000 0.788558
O O5 0.375790 0.759513 0.745384
O O6 0.198906 0.744560 0.577895
O O7 0.264185 0.000000 0.676887
O O8 0.012882 0.500000 0.186752
O O9 0.977751 0.245202 0.224401
O O10 0.951484 0.255595 0.082278
O O11 0.920104 0.500000 0.991789
O O12 0.000000 0.257767 0.000000
O O13 0.750000 0.750000 0.500000
O O14 0.566870 0.749420 0.393633
O O15 0.669363 0.000000 0.485942
O O16 0.972757 0.000000 0.292511
#
# Coordination Sequence:
#
# PCOD9182247 Si02
#       6
#     8   8   8   8   8   8
#     4   9  19  35  56  85 119 154 192 234 280 333
#     4  10  19  35  60  87 113 147 193 237 278 331
#     4  10  19  32  58  88 113 146 192 239 281 331
#     4   9  15  29  56  88 114 144 192 240 277 326
#     4  12  24  39  60  85 112 147 191 236 286 343
#     4  11  23  38  56  82 120 156 188 233 285 339
#
# _framework density 18.673321999999999
#
# number of rings (size 3 to 8) (size 9 to 14) (size 15 to 20)
#    0.000    1.833    3.333    2.000    0.000    1.333 
#    0.000    5.000    0.000    2.500    0.000    0.000 
#    0.000    0.000    0.000    0.000    0.000    0.000 
#
# Total GULP energy -134048.218046 kJ/mol
# GULP energy per Si atom -5585.342419 kJ/mol
# Density = 1.863082 g / cm^3
# Si number density = 18.673322 Si / 1000 Ang^3
#
#
#
# Elastic Constant Matrix: (Units=GPa)
#
#
# Indices 1 2 3 4 5 6 
#
# 1 179.8539 28.8103 112.6016 0.0000 1.3046 0.0000
# 2 28.8103 23.0878 27.0962 0.0000 -2.3968 0.0000
# 3 112.6016 27.0962 203.8170 0.0000 -8.6728 0.0000
# 4 0.0000 0.0000 0.0000 19.5743 0.0000 -7.5011
# 5 1.3046 -2.3968 -8.6728 0.0000 37.9292 0.0000
# 6 0.0000 0.0000 0.0000 -7.5011 0.0000 22.9778
#
#
#
# Elastic Compliance Matrix: (Units=1/GPa)
#
#
# Indices 1 2 3 4 5 6 
#
# 1 0.009388 -0.006780 -0.004360 0.000000 -0.001748 0.000000
# 2 -0.006780 0.056325 -0.003616 0.000000 0.002966 0.000000
# 3 -0.004360 -0.003616 0.007869 0.000000 0.001721 0.000000
# 4 0.000000 0.000000 0.000000 0.058392 0.000000 0.019062
# 5 -0.001748 0.002966 0.001721 0.000000 0.027006 0.000000
# 6 0.000000 0.000000 0.000000 0.019062 0.000000 0.049743
#
#
# Mechanical properties :
#
#
# Convention : Reuss Voigt Hill
#
# Bulk Modulus (GPa) = 22.69088 82.64166 52.66627
# Shear Modulus (GPa) = 19.76862 31.97963 25.87412
#
# Velocity S-wave (km/s) = 3.25723 4.14283 3.72643
# Velocity P-wave (km/s) = 5.13069 8.19979 6.83961
#
# Compressibility (1/GPa) = 0.04407057
#
# Stress axis : x y z
#
# Youngs Moduli (GPa) = 106.51488 17.75401 127.08221
#
# Poissons Ratio (x) = 0.12038 0.55405
# Poissons Ratio (y) = 0.72219 0.45954
# Poissons Ratio (z) = 0.46438 0.06420
#
# Static dielectric constant tensor:
#      x y z
#    x 1.610220 0.000000 -0.007800 
#    y 0.000000 1.652330 0.000000 
#    z -0.007800 0.000000 1.619840 
# 
# From -- ./inp_files/230401.got.cif
#   From: 2010.05.17/outbox.cif.g08.bks.cpg/sg12_116_cif.got.tgz:230401.got - 2010.06.03 13:09:07.
