data_PCOD9182108
_publ_section_title
;
Structure prediction by ZEFSAII (Michael W. Deem and Ramdas Pophale) SiO2 
 PCOD9182108
Probable space group: C 2/M
;
_chemical_formula_sum "Si O2"
_cell_formula_units_Z 52
_cell_length_a 20.892086
_cell_length_b 13.408002
_cell_length_c 16.318377
_cell_angle_alpha 90.000000
_cell_angle_beta 149.767895
_cell_angle_gamma 90.000000
_cell_volume 2301.579024
_symmetry_space_group_name_H-M "C 2/M"
_symmetry_group_IT_number 12
_symmetry_cell_setting 'monoclinic'
loop_
_space_group_symop_operation_xyz
x,y,z
-x,y,-z
-x,-y,-z
x,-y,z
1/2+x,1/2+y,z
1/2-x,1/2+y,-z
1/2-x,1/2-y,-z
1/2+x,1/2-y,z
loop_
_atom_site_type_symbol
_atom_site_label
_atom_site_fract_x
_atom_site_fract_y
_atom_site_fract_z
Si Si1 0.771382 0.795059 0.934728
Si Si2 0.226591 0.391182 0.179675
Si Si3 0.556077 0.608082 0.469027
Si Si4 0.000000 0.698471 0.000000
Si Si5 0.008501 0.330432 0.608004
Si Si6 0.566721 0.295766 0.231774
Si Si7 0.832805 0.609462 0.554405
O O1 0.741174 0.704524 0.838231
O O2 0.650540 0.866742 0.787835
O O3 0.750000 0.750000 0.000000
O O4 0.918706 0.826033 0.084524
O O5 0.254642 0.500000 0.174510
O O6 0.295469 0.385898 0.344053
O O7 0.080312 0.374058 0.032561
O O8 0.500000 0.603682 0.500000
O O9 0.528974 0.500000 0.399346
O O10 0.511776 0.713487 0.386110
O O11 0.923611 0.769533 0.853915
O O12 0.898683 0.384565 0.537511
O O13 0.000000 0.334935 0.500000
O O14 0.681642 0.369005 0.382523
O O15 0.599428 0.194807 0.317442
O O16 0.854524 0.500000 0.613326
#
# Coordination Sequence:
#
# PCOD9182108 Si02
#       7
#     8   8   8   4   8   8   8
#     4  11  21  39  60  94 130 167 206 264 331 378
#     4  10  19  32  55  90 125 157 198 250 312 382
#     4   9  16  29  53  88 121 155 196 240 300 373
#     4  10  21  38  65  92 124 162 206 262 328 390
#     4  11  21  39  68  93 133 175 218 264 319 386
#     4  10  24  44  70  95 130 173 213 269 337 386
#     4  11  25  47  68  92 130 177 225 269 322 395
#
# _framework density 22.593184999999998
#
# number of rings (size 3 to 8) (size 9 to 14) (size 15 to 20)
#    0.000    1.692    4.615    1.154    2.154    3.385 
#    0.000    6.538    0.000    0.000    0.000    0.000 
#    0.000    0.000    0.000    0.000    0.000    0.000 
#
# Total GULP energy -144918.613439 kJ/mol
# GULP energy per Si atom -5573.792825 kJ/mol
# Density = 2.254176 g / cm^3
# Si number density = 22.593185 Si / 1000 Ang^3
#
#
#
# Elastic Constant Matrix: (Units=GPa)
#
#
# Indices 1 2 3 4 5 6 
#
# 1 56.9775 6.5483 17.6371 0.0000 2.1078 0.0000
# 2 6.5483 65.0879 1.5266 0.0000 13.2359 0.0000
# 3 17.6371 1.5266 111.5639 0.0000 18.8950 0.0000
# 4 0.0000 0.0000 0.0000 11.7445 0.0000 -3.0915
# 5 2.1078 13.2359 18.8950 0.0000 42.9644 0.0000
# 6 0.0000 0.0000 0.0000 -3.0915 0.0000 5.4939
#
#
#
# Elastic Compliance Matrix: (Units=1/GPa)
#
#
# Indices 1 2 3 4 5 6 
#
# 1 0.018707 -0.002028 -0.003112 0.000000 0.001075 0.000000
# 2 -0.002028 0.016659 0.001021 0.000000 -0.005481 0.000000
# 3 -0.003112 0.001021 0.010231 0.000000 -0.004661 0.000000
# 4 0.000000 0.000000 0.000000 0.099952 0.000000 0.056245
# 5 0.001075 -0.005481 -0.004661 0.000000 0.026961 0.000000
# 6 0.000000 0.000000 0.000000 0.056245 0.000000 0.213669
#
#
# Mechanical properties :
#
#
# Convention : Reuss Voigt Hill
#
# Bulk Modulus (GPa) = 26.76694 31.67258 29.21976
# Shear Modulus (GPa) = 12.28897 25.90172 19.09534
#
# Velocity S-wave (km/s) = 2.33475 3.38958 2.91035
# Velocity P-wave (km/s) = 4.37506 5.41924 4.92490
#
# Compressibility (1/GPa) = 0.03735952
#
# Stress axis : x y z
#
# Youngs Moduli (GPa) = 53.45504 60.02910 97.74307
#
# Poissons Ratio (x) = 0.12173 0.30416
# Poissons Ratio (y) = 0.10840 -0.09980
# Poissons Ratio (z) = 0.16634 -0.06129
#
# Static dielectric constant tensor:
#      x y z
#    x 1.884350 0.000000 0.054120 
#    y 0.000000 1.838820 0.000000 
#    z 0.054120 0.000000 1.994850 
# 
# From -- ./inp_files/284317.got.cif
#   From: 2010.05.17/outbox.cif.g08.bks.cpg/sg12_143_cif.got.tgz:284317.got - 2010.06.03 13:09:07.
