data_PCOD9182543
_publ_section_title
;
Structure prediction by ZEFSAII (Michael W. Deem and Ramdas Pophale) SiO2 
 PCOD9182543
Probable space group: C 2/M
;
_chemical_formula_sum "Si O2"
_cell_formula_units_Z 56
_cell_length_a 10.295579
_cell_length_b 24.921860
_cell_length_c 16.304358
_cell_angle_alpha 90.000000
_cell_angle_beta 129.636000
_cell_angle_gamma 90.000000
_cell_volume 3221.730072
_symmetry_space_group_name_H-M "C 2/M"
_symmetry_group_IT_number 12
_symmetry_cell_setting 'monoclinic'
loop_
_space_group_symop_operation_xyz
x,y,z
-x,y,-z
-x,-y,-z
x,-y,z
1/2+x,1/2+y,z
1/2-x,1/2+y,-z
1/2-x,1/2-y,-z
1/2+x,1/2-y,z
loop_
_atom_site_type_symbol
_atom_site_label
_atom_site_fract_x
_atom_site_fract_y
_atom_site_fract_z
Si Si1 0.542261 0.344531 0.165768
Si Si2 0.172640 0.169376 0.523805
Si Si3 0.724342 0.211682 0.862639
Si Si4 0.759544 0.439881 0.324141
Si Si5 0.414099 0.737286 0.671559
Si Si6 0.346577 0.822045 0.992782
Si Si7 0.850061 0.560885 0.553122
O O1 0.638494 0.327762 0.121395
O O2 0.631778 0.396401 0.238970
O O3 0.580384 0.295175 0.242138
O O4 0.339067 0.349540 0.082298
O O5 0.278693 0.215603 0.611389
O O6 0.129541 0.194739 0.417268
O O7 0.269514 0.113050 0.561013
O O8 0.000000 0.160545 0.500000
O O9 0.595760 0.233394 0.741742
O O10 0.813570 0.263558 0.938683
O O11 0.619627 0.185975 0.896523
O O12 0.701564 0.500000 0.281327
O O13 0.788526 0.436584 0.433657
O O14 0.947733 0.432909 0.363909
O O15 0.500000 0.845756 0.000000
O O16 0.809642 0.500000 0.566600
#
# Coordination Sequence:
#
# PCOD9182543 Si02
#       7
#     8   8   8   8   8   8   8
#     4  11  19  33  56  78 100 138 179 217 261 312
#     4  11  21  32  46  75 112 145 175 209 263 321
#     4  10  19  33  52  74 101 139 179 209 250 312
#     4   9  18  34  56  77  97 130 179 226 263 302
#     4  10  21  32  46  75 111 145 171 214 261 311
#     4  10  20  33  50  76 108 135 167 212 260 321
#     4   9  18  34  53  73 100 136 179 222 258 303
#
# _framework density 17.381965000000001
#
# number of rings (size 3 to 8) (size 9 to 14) (size 15 to 20)
#    0.000    2.000    1.429    5.571    0.000    2.571 
#    0.000    0.000    0.000    2.143    0.000    0.000 
#    0.000    0.000    0.000    0.000    0.000    0.000 
#
# Total GULP energy -156051.312067 kJ/mol
# GULP energy per Si atom -5573.261145 kJ/mol
# Density = 1.734240 g / cm^3
# Si number density = 17.381965 Si / 1000 Ang^3
#
#
#
# Elastic Constant Matrix: (Units=GPa)
#
#
# Indices 1 2 3 4 5 6 
#
# 1 82.0315 43.9943 7.6143 0.0000 9.6500 0.0000
# 2 43.9943 104.9642 19.2283 0.0000 14.8673 0.0000
# 3 7.6143 19.2283 48.0876 0.0000 12.9026 0.0000
# 4 0.0000 0.0000 0.0000 17.4988 0.0000 9.0551
# 5 9.6500 14.8673 12.9026 0.0000 16.7275 0.0000
# 6 0.0000 0.0000 0.0000 9.0551 0.0000 22.4453
#
#
#
# Elastic Compliance Matrix: (Units=1/GPa)
#
#
# Indices 1 2 3 4 5 6 
#
# 1 0.015980 -0.006270 0.001204 0.000000 -0.004575 0.000000
# 2 -0.006270 0.013550 -0.002729 0.000000 -0.006321 0.000000
# 3 0.001204 -0.002729 0.026772 0.000000 -0.018920 0.000000
# 4 0.000000 0.000000 0.000000 0.072225 0.000000 -0.029138
# 5 -0.004575 -0.006321 -0.018920 0.000000 0.082632 0.000000
# 6 0.000000 0.000000 0.000000 -0.029138 0.000000 0.056308
#
#
# Mechanical properties :
#
#
# Convention : Reuss Voigt Hill
#
# Bulk Modulus (GPa) = 24.56285 41.86189 33.21237
# Shear Modulus (GPa) = 16.85610 22.28407 19.57008
#
# Velocity S-wave (km/s) = 3.11745 3.58442 3.35906
# Velocity P-wave (km/s) = 5.20768 6.42390 5.84750
#
# Compressibility (1/GPa) = 0.04071190
#
# Stress axis : x y z
#
# Youngs Moduli (GPa) = 62.57979 73.79810 37.35177
#
# Poissons Ratio (x) = 0.46274 -0.04499
# Poissons Ratio (y) = 0.39239 0.10195
# Poissons Ratio (z) = -0.07537 0.20143
#
# Static dielectric constant tensor:
#      x y z
#    x 1.618800 0.000000 0.001200 
#    y 0.000000 1.571570 0.000000 
#    z 0.001200 0.000000 1.613930 
# 
# From -- ./inp_files/198972.got.cif
#   From: 2010.05.17/outbox.cif.g08.bks.cpg/sg12_100_cif.got.tgz:198972.got - 2010.06.03 13:09:07.
