data_PCOD9182285
_publ_section_title
;
Structure prediction by ZEFSAII (Michael W. Deem and Ramdas Pophale) SiO2 
 PCOD9182285
Probable space group: C 2/M
;
_chemical_formula_sum "Si O2"
_cell_formula_units_Z 52
_cell_length_a 10.924947
_cell_length_b 20.427424
_cell_length_c 12.313778
_cell_angle_alpha 90.000000
_cell_angle_beta 58.282907
_cell_angle_gamma 90.000000
_cell_volume 2337.638587
_symmetry_space_group_name_H-M "C 2/M"
_symmetry_group_IT_number 12
_symmetry_cell_setting 'monoclinic'
loop_
_space_group_symop_operation_xyz
x,y,z
-x,y,-z
-x,-y,-z
x,-y,z
1/2+x,1/2+y,z
1/2-x,1/2+y,-z
1/2-x,1/2-y,-z
1/2+x,1/2-y,z
loop_
_atom_site_type_symbol
_atom_site_label
_atom_site_fract_x
_atom_site_fract_y
_atom_site_fract_z
Si Si1 0.741095 0.500000 0.897013
Si Si2 0.674794 0.500000 0.185717
Si Si3 0.306629 0.362798 0.094177
Si Si4 0.913578 0.500000 0.264055
Si Si5 0.578610 0.738554 0.574048
Si Si6 0.580349 0.357591 0.195490
Si Si7 0.857723 0.279208 0.137737
Si Si8 0.024650 0.641728 0.723273
O O1 0.680596 0.435925 0.865781
O O2 0.913334 0.500000 0.824868
O O3 0.704045 0.500000 0.042310
O O4 0.816698 0.500000 0.198771
O O5 0.594182 0.430612 0.238233
O O6 0.324684 0.297469 0.154141
O O7 0.134108 0.363487 0.148410
O O8 0.409984 0.360421 0.940462
O O9 0.897519 0.571573 0.327345
O O10 0.500000 0.715151 0.500000
O O11 0.750000 0.750000 0.500000
O O12 0.535722 0.685932 0.687146
O O13 0.510945 0.810707 0.627581
O O14 0.725923 0.316760 0.147033
O O15 0.882526 0.314374 0.238968
O O16 0.000000 0.287783 0.000000
#
# Coordination Sequence:
#
# PCOD9182285 Si02
#       8
#     4   4   8   4   8   8   8   8
#     4   8  19  32  51  90 141 173 213 257 340 419
#     4  10  19  32  64  93 135 172 213 285 337 400
#     4  10  20  36  60  95 130 169 210 274 337 409
#     4  10  19  32  60  96 130 174 211 278 339 410
#     4  12  28  48  69  96 135 181 234 291 338 396
#     4  11  21  40  61 100 136 169 225 273 348 405
#     4  12  20  31  59  97 132 174 210 268 333 410
#     4  11  22  39  63  96 131 168 220 270 346 407
#
# _framework density 22.244671
#
# number of rings (size 3 to 8) (size 9 to 14) (size 15 to 20)
#    0.000    1.231    4.615    2.538    0.000    0.000 
#    0.000    1.923    0.000    0.923    0.000    0.000 
#    0.000    0.000    0.000    0.000    0.000    0.000 
#
# Total GULP energy -144945.132081 kJ/mol
# GULP energy per Si atom -5574.812772 kJ/mol
# Density = 2.219404 g / cm^3
# Si number density = 22.244671 Si / 1000 Ang^3
#
#
#
# Elastic Constant Matrix: (Units=GPa)
#
#
# Indices 1 2 3 4 5 6 
#
# 1 71.9973 37.3275 23.8011 0.0000 -11.9652 0.0000
# 2 37.3275 227.8343 39.7926 0.0000 -2.9418 0.0000
# 3 23.8011 39.7926 69.6774 0.0000 -12.9347 0.0000
# 4 0.0000 0.0000 0.0000 19.7275 0.0000 -2.2108
# 5 -11.9652 -2.9418 -12.9347 0.0000 36.2640 0.0000
# 6 0.0000 0.0000 0.0000 -2.2108 0.0000 39.0959
#
#
#
# Elastic Compliance Matrix: (Units=1/GPa)
#
#
# Indices 1 2 3 4 5 6 
#
# 1 0.016893 -0.002042 -0.003856 0.000000 0.004033 0.000000
# 2 -0.002042 0.005136 -0.002445 0.000000 -0.001129 0.000000
# 3 -0.003856 -0.002445 0.017983 0.000000 0.004944 0.000000
# 4 0.000000 0.000000 0.000000 0.051014 0.000000 0.002885
# 5 0.004033 -0.001129 0.004944 0.000000 0.030578 0.000000
# 6 0.000000 0.000000 0.000000 0.002885 0.000000 0.025741
#
#
# Mechanical properties :
#
#
# Convention : Reuss Voigt Hill
#
# Bulk Modulus (GPa) = 42.87022 63.48350 53.17686
# Shear Modulus (GPa) = 29.10237 36.92331 33.01284
#
# Velocity S-wave (km/s) = 3.62095 4.07857 3.85655
# Velocity P-wave (km/s) = 6.06594 7.12603 6.61725
#
# Compressibility (1/GPa) = 0.02332622
#
# Stress axis : x y z
#
# Youngs Moduli (GPa) = 59.19608 194.69429 55.60760
#
# Poissons Ratio (x) = 0.39761 0.21440
# Poissons Ratio (y) = 0.12089 0.13598
# Poissons Ratio (z) = 0.22823 0.47610
#
# Static dielectric constant tensor:
#      x y z
#    x 1.950520 0.000000 0.020850 
#    y 0.000000 1.865800 0.000000 
#    z 0.020850 0.000000 1.846470 
# 
# From -- ./inp_files/207635.got.cif
#   From: 2010.05.17/outbox.cif.g08.bks.cpg/sg12_104_cif.got.tgz:207635.got - 2010.06.03 13:09:07.
