data_PCOD9182736
_publ_section_title
;
Structure prediction by ZEFSAII (Michael W. Deem and Ramdas Pophale) SiO2 
 PCOD9182736
Probable space group: C 2/M
;
_chemical_formula_sum "Si O2"
_cell_formula_units_Z 56
_cell_length_a 13.205895
_cell_length_b 27.720599
_cell_length_c 12.135704
_cell_angle_alpha 90.000000
_cell_angle_beta 48.528384
_cell_angle_gamma 90.000000
_cell_volume 3328.754901
_symmetry_space_group_name_H-M "C 2/M"
_symmetry_group_IT_number 12
_symmetry_cell_setting 'monoclinic'
loop_
_space_group_symop_operation_xyz
x,y,z
-x,y,-z
-x,-y,-z
x,-y,z
1/2+x,1/2+y,z
1/2-x,1/2+y,-z
1/2-x,1/2-y,-z
1/2+x,1/2-y,z
loop_
_atom_site_type_symbol
_atom_site_label
_atom_site_fract_x
_atom_site_fract_y
_atom_site_fract_z
Si Si1 0.170651 0.270493 0.254154
Si Si2 0.387632 0.878074 0.319900
Si Si3 0.141009 0.442555 0.456314
Si Si4 0.161547 0.944771 0.887322
Si Si5 0.369632 0.780025 0.465709
Si Si6 0.662432 0.828044 0.866807
Si Si7 0.700032 0.863127 0.076148
O O1 0.159794 0.290521 0.385690
O O2 0.270005 0.224835 0.189931
O O3 0.206786 0.313245 0.142672
O O4 0.015315 0.254770 0.343170
O O5 0.337579 0.919280 0.438989
O O6 0.376871 0.829789 0.398059
O O7 0.321522 0.863244 0.250500
O O8 0.547890 0.884302 0.187902
O O9 0.128382 0.500000 0.478456
O O10 0.262755 0.433232 0.282784
O O11 0.000000 0.425036 0.500000
O O12 0.207426 0.904056 0.939104
O O13 0.203763 0.000000 0.885832
O O14 0.000000 0.944239 0.000000
O O15 0.250000 0.750000 0.500000
O O16 0.500000 0.822050 0.000000
O O17 0.725593 0.850734 0.931000
#
# Coordination Sequence:
#
# PCOD9182736 Si02
#       7
#     8   8   8   8   8   8   8
#     4  10  20  34  52  77 104 142 190 224 265 328
#     4  10  19  34  55  79 108 138 182 228 268 323
#     4  10  19  34  61  86 106 137 179 228 272 320
#     4  10  21  38  57  83 113 138 173 227 283 328
#     4  10  19  33  53  74 107 142 178 231 280 311
#     4  10  21  36  51  73 111 148 177 225 274 320
#     4  10  20  35  53  76 106 145 182 223 272 323
#
# _framework density 16.823105999999999
#
# number of rings (size 3 to 8) (size 9 to 14) (size 15 to 20)
#    0.000    2.000    2.857    1.286    2.000    0.571 
#    5.143    0.714    0.000    2.571    0.000    3.000 
#    0.000    0.000    0.000    0.000    0.000    0.000 
#
# Total GULP energy -155970.480680 kJ/mol
# GULP energy per Si atom -5570.374310 kJ/mol
# Density = 1.678482 g / cm^3
# Si number density = 16.823106 Si / 1000 Ang^3
#
#
#
# Elastic Constant Matrix: (Units=GPa)
#
#
# Indices 1 2 3 4 5 6 
#
# 1 94.4049 48.1420 47.9223 0.0000 19.3348 0.0000
# 2 48.1420 56.6378 38.7476 0.0000 9.7877 0.0000
# 3 47.9223 38.7476 90.8348 0.0000 18.8256 0.0000
# 4 0.0000 0.0000 0.0000 19.9730 0.0000 -1.4762
# 5 19.3348 9.7877 18.8256 0.0000 30.9488 0.0000
# 6 0.0000 0.0000 0.0000 -1.4762 0.0000 12.3391
#
#
#
# Elastic Compliance Matrix: (Units=1/GPa)
#
#
# Indices 1 2 3 4 5 6 
#
# 1 0.021050 -0.014257 -0.003699 0.000000 -0.006392 0.000000
# 2 -0.014257 0.034660 -0.007824 0.000000 0.002705 0.000000
# 3 -0.003699 -0.007824 0.017514 0.000000 -0.005868 0.000000
# 4 0.000000 0.000000 0.000000 0.050514 0.000000 0.006043
# 5 -0.006392 0.002705 -0.005868 0.000000 0.039019 0.000000
# 6 0.000000 0.000000 0.000000 0.006043 0.000000 0.081766
#
#
# Mechanical properties :
#
#
# Convention : Reuss Voigt Hill
#
# Bulk Modulus (GPa) = 46.15976 56.83348 51.49662
# Shear Modulus (GPa) = 16.48512 19.78989 18.13750
#
# Velocity S-wave (km/s) = 3.13375 3.43352 3.28705
# Velocity P-wave (km/s) = 6.37116 7.04096 6.71442
#
# Compressibility (1/GPa) = 0.02166389
#
# Stress axis : x y z
#
# Youngs Moduli (GPa) = 47.50596 28.85201 57.09691
#
# Poissons Ratio (x) = 0.41135 0.21120
# Poissons Ratio (y) = 0.67730 0.44670
# Poissons Ratio (z) = 0.17573 0.22573
#
# Static dielectric constant tensor:
#      x y z
#    x 1.514920 0.000000 0.053950 
#    y 0.000000 1.494510 0.000000 
#    z 0.053950 0.000000 1.554940 
# 
# From -- ./inp_files/136946.got.cif
#   From: 2010.05.17/outbox.cif.g08.bks.cpg/sg12_69_cif.got.tgz:136946.got - 2010.06.03 13:09:07.
