data_PCOD9182626
_publ_section_title
;
Structure prediction by ZEFSAII (Michael W. Deem and Ramdas Pophale) SiO2 
 PCOD9182626
Probable space group: C 2/M
;
_chemical_formula_sum "Si O2"
_cell_formula_units_Z 56
_cell_length_a 21.001286
_cell_length_b 8.769997
_cell_length_c 20.222360
_cell_angle_alpha 90.000000
_cell_angle_beta 58.543478
_cell_angle_gamma 90.000000
_cell_volume 3177.201357
_symmetry_space_group_name_H-M "C 2/M"
_symmetry_group_IT_number 12
_symmetry_cell_setting 'monoclinic'
loop_
_space_group_symop_operation_xyz
x,y,z
-x,y,-z
-x,-y,-z
x,-y,z
1/2+x,1/2+y,z
1/2-x,1/2+y,-z
1/2-x,1/2-y,-z
1/2+x,1/2-y,z
loop_
_atom_site_type_symbol
_atom_site_label
_atom_site_fract_x
_atom_site_fract_y
_atom_site_fract_z
Si Si1 0.848966 0.680182 0.166225
Si Si2 0.045433 0.685798 0.410615
Si Si3 0.508397 0.683625 0.834429
Si Si4 0.962755 0.683236 0.320550
Si Si5 0.296842 0.682543 0.414270
Si Si6 0.919796 0.175568 0.006023
Si Si7 0.217681 0.316807 0.317540
O O1 0.854684 0.500000 0.171127
O O2 0.866050 0.727096 0.081401
O O3 0.769747 0.739847 0.234638
O O4 0.913819 0.757475 0.175974
O O5 0.045352 0.500000 0.412819
O O6 0.131725 0.733752 0.364095
O O7 0.000000 0.738088 0.500000
O O8 0.005013 0.730342 0.364611
O O9 0.511559 0.500000 0.831524
O O10 0.500897 0.749725 0.765491
O O11 0.441701 0.728716 0.920710
O O12 0.962253 0.500000 0.317317
O O13 0.878436 0.744170 0.368721
O O14 0.302990 0.500000 0.417024
O O15 0.250000 0.750000 0.500000
O O16 0.254452 0.716190 0.368734
O O17 0.893953 0.000000 0.018106
O O18 0.000000 0.175706 0.000000
O O19 0.219716 0.500000 0.306991
#
# Coordination Sequence:
#
# PCOD9182626 Si02
#       7
#     8   8   8   8   8   8   8
#     4  11  20  30  50  81 113 141 177 226 273 315
#     4   9  19  37  58  79 104 142 187 225 267 327
#     4  10  19  33  52  77 110 147 182 216 267 329
#     4  11  21  34  56  83 110 138 179 231 275 320
#     4  11  22  35  55  79 106 140 178 224 276 326
#     4   8  16  30  49  73 106 145 180 215 262 326
#     4  10  20  36  57  77 106 147 184 218 266 331
#
# _framework density 17.625575000000001
#
# number of rings (size 3 to 8) (size 9 to 14) (size 15 to 20)
#    0.000    2.000    1.429    4.286    0.000    6.000 
#    0.000    1.429    0.000    3.857    0.000    0.000 
#    0.000    0.000    0.000    0.000    0.000    0.000 
#
# Total GULP energy -156278.293799 kJ/mol
# GULP energy per Si atom -5581.367636 kJ/mol
# Density = 1.758546 g / cm^3
# Si number density = 17.625575 Si / 1000 Ang^3
#
#
#
# Elastic Constant Matrix: (Units=GPa)
#
#
# Indices 1 2 3 4 5 6 
#
# 1 111.5042 42.4471 79.6861 -0.0001 2.6513 -0.0007
# 2 42.4471 52.1529 59.0801 -0.0002 1.4185 -0.0009
# 3 79.6861 59.0801 193.1324 -0.0001 11.4372 0.0000
# 4 -0.0001 -0.0002 -0.0001 27.1198 0.0001 5.9343
# 5 2.6513 1.4185 11.4372 0.0001 24.0971 0.0000
# 6 -0.0007 -0.0009 0.0000 5.9343 0.0000 14.4266
#
#
#
# Elastic Compliance Matrix: (Units=1/GPa)
#
#
# Indices 1 2 3 4 5 6 
#
# 1 0.014492 -0.007648 -0.003675 0.000000 0.000600 0.000000
# 2 -0.007648 0.033538 -0.007241 0.000000 0.002304 0.000002
# 3 -0.003675 -0.007241 0.009116 0.000000 -0.003496 -0.000001
# 4 0.000000 0.000000 0.000000 0.040521 0.000000 -0.016668
# 5 0.000600 0.002304 -0.003496 0.000000 0.042957 0.000000
# 6 0.000000 0.000002 -0.000001 -0.016668 0.000000 0.076173
#
#
# Mechanical properties :
#
#
# Convention : Reuss Voigt Hill
#
# Bulk Modulus (GPa) = 49.95183 79.91291 64.93237
# Shear Modulus (GPa) = 19.18672 24.83379 22.01025
#
# Velocity S-wave (km/s) = 3.30293 3.75769 3.53762
# Velocity P-wave (km/s) = 6.55346 8.01652 7.32163
#
# Compressibility (1/GPa) = 0.02001929
#
# Stress axis : x y z
#
# Youngs Moduli (GPa) = 69.00394 29.81653 109.69429
#
# Poissons Ratio (x) = 0.22803 0.40317
# Poissons Ratio (y) = 0.52772 0.79425
# Poissons Ratio (z) = 0.25362 0.21589
#
# Static dielectric constant tensor:
#      x y z
#    x 1.577540 0.000000 0.010480 
#    y 0.000000 1.594690 0.000000 
#    z 0.010480 0.000000 1.616490 
# 
# From -- ./inp_files/319702.got.cif
#   From: 2010.05.17/outbox.cif.g08.bks.cpg/sg12_160_cif.got.tgz:319702.got - 2010.06.03 13:09:07.
