data_PCOD9182276
_publ_section_title
;
Structure prediction by ZEFSAII (Michael W. Deem and Ramdas Pophale) SiO2 
 PCOD9182276
Probable space group: C 2/M
;
_chemical_formula_sum "Si O2"
_cell_formula_units_Z 48
_cell_length_a 9.331305
_cell_length_b 26.381331
_cell_length_c 15.430410
_cell_angle_alpha 90.000000
_cell_angle_beta 36.811581
_cell_angle_gamma 90.000000
_cell_volume 2276.029055
_symmetry_space_group_name_H-M "C 2/M"
_symmetry_group_IT_number 12
_symmetry_cell_setting 'monoclinic'
loop_
_space_group_symop_operation_xyz
x,y,z
-x,y,-z
-x,-y,-z
x,-y,z
1/2+x,1/2+y,z
1/2-x,1/2+y,-z
1/2-x,1/2-y,-z
1/2+x,1/2-y,z
loop_
_atom_site_type_symbol
_atom_site_label
_atom_site_fract_x
_atom_site_fract_y
_atom_site_fract_z
Si Si1 0.734739 0.814820 0.663948
Si Si2 0.484810 0.265115 0.106924
Si Si3 0.681804 0.136976 0.242934
Si Si4 0.187677 0.400106 0.833316
Si Si5 0.388207 0.558341 0.258803
Si Si6 0.795644 0.446118 0.915044
O O1 0.669547 0.763528 0.745999
O O2 0.549463 0.830206 0.676350
O O3 0.721975 0.856201 0.746873
O O4 0.000000 0.812851 0.500000
O O5 0.397270 0.323147 0.150269
O O6 0.500000 0.248457 0.000000
O O7 0.750000 0.250000 0.000000
O O8 0.689344 0.098613 0.321625
O O9 0.714610 0.100132 0.145099
O O10 0.439660 0.419598 0.748911
O O11 0.036584 0.442368 0.854952
O O12 0.000000 0.384071 0.000000
O O13 0.310910 0.500000 0.313660
O O14 0.577069 0.556079 0.087420
O O15 0.791387 0.500000 0.869704
#
# Coordination Sequence:
#
# PCOD9182276 Si02
#       6
#     8   8   8   8   8   8
#     4  11  26  45  64  91 128 172 216 259 316 381
#     4  12  25  43  70  99 127 164 210 267 318 384
#     4  11  23  38  60  91 131 165 212 254 323 377
#     4   9  19  35  64  94 128 166 210 258 314 375
#     4  10  19  32  59  97 129 160 207 269 321 367
#     4   9  17  31  56  92 132 163 202 261 319 375
#
# _framework density 21.089362999999999
#
# number of rings (size 3 to 8) (size 9 to 14) (size 15 to 20)
#    0.000    1.667    1.667    3.000    7.000    4.000 
#    0.000    0.833    0.000   19.000    0.000    0.000 
#    0.000    0.000    0.000    0.000    0.000    0.000 
#
# Total GULP energy -133831.860058 kJ/mol
# GULP energy per Si atom -5576.327502 kJ/mol
# Density = 2.104136 g / cm^3
# Si number density = 21.089363 Si / 1000 Ang^3
#
#
#
# Elastic Constant Matrix: (Units=GPa)
#
#
# Indices 1 2 3 4 5 6 
#
# 1 146.9967 48.7409 10.8946 0.0000 -0.9580 0.0000
# 2 48.7409 131.4419 35.7563 0.0000 -2.6163 0.0000
# 3 10.8946 35.7563 59.1430 0.0000 1.1471 0.0000
# 4 0.0000 0.0000 0.0000 -18.0217 0.0000 -11.4710
# 5 -0.9580 -2.6163 1.1471 0.0000 9.5146 0.0000
# 6 0.0000 0.0000 0.0000 -11.4710 0.0000 22.1456
#
#
#
# Elastic Compliance Matrix: (Units=1/GPa)
#
#
# Indices 1 2 3 4 5 6 
#
# 1 0.007763 -0.002982 0.000375 0.000000 -0.000084 0.000000
# 2 -0.002982 0.010348 -0.005769 0.000000 0.003241 0.000000
# 3 0.000375 -0.005769 0.020405 0.000000 -0.004009 0.000000
# 4 0.000000 0.000000 0.000000 -0.041730 0.000000 -0.021615
# 5 -0.000084 0.003241 -0.004009 0.000000 0.106467 0.000000
# 6 0.000000 0.000000 0.000000 -0.021615 0.000000 0.033959
#
#
# Mechanical properties :
#
#
# Convention : Reuss Voigt Hill
#
# Bulk Modulus (GPa) = 45.95221 58.70723 52.32972
# Shear Modulus (GPa) = 31.01331 18.87371 24.94351
#
# Velocity S-wave (km/s) = 3.83896 2.99480 3.44285
# Velocity P-wave (km/s) = 6.44102 6.31318 6.37742
#
# Compressibility (1/GPa) = 0.02176174
#
# Stress axis : x y z
#
# Youngs Moduli (GPa) = 128.80852 96.63863 49.00758
#
# Poissons Ratio (x) = 0.28821 -0.01836
# Poissons Ratio (y) = 0.38416 0.28275
# Poissons Ratio (z) = -0.04825 0.55756
#
# Static dielectric constant tensor:
#      x y z
#    x 1.790910 0.000000 -0.019430 
#    y 0.000000 1.796280 0.000000 
#    z -0.019430 0.000000 1.717280 
# 
# From -- ./inp_files/200157.got.cif
#   From: 2010.05.17/outbox.cif.g08.bks.cpg/sg12_101_cif.got.tgz:200157.got - 2010.06.03 13:09:07.
