data_PCOD9182703
_publ_section_title
;
Structure prediction by ZEFSAII (Michael W. Deem and Ramdas Pophale) SiO2 
 PCOD9182703
Probable space group: C 2/M
;
_chemical_formula_sum "Si O2"
_cell_formula_units_Z 64
_cell_length_a 25.935659
_cell_length_b 7.430121
_cell_length_c 14.702665
_cell_angle_alpha 90.000000
_cell_angle_beta 100.988210
_cell_angle_gamma 90.000000
_cell_volume 2781.334186
_symmetry_space_group_name_H-M "C 2/M"
_symmetry_group_IT_number 12
_symmetry_cell_setting 'monoclinic'
loop_
_space_group_symop_operation_xyz
x,y,z
-x,y,-z
-x,-y,-z
x,-y,z
1/2+x,1/2+y,z
1/2-x,1/2+y,-z
1/2-x,1/2-y,-z
1/2+x,1/2-y,z
loop_
_atom_site_type_symbol
_atom_site_label
_atom_site_fract_x
_atom_site_fract_y
_atom_site_fract_z
Si Si1 0.078107 0.220186 0.178717
Si Si2 0.964150 0.205147 0.122897
Si Si3 0.924847 0.217684 0.612590
Si Si4 0.348430 0.279018 0.075524
Si Si5 0.186207 0.783285 0.124781
Si Si6 0.138457 0.205150 0.574332
Si Si7 0.041883 0.709900 0.667910
Si Si8 0.203319 0.211521 0.756432
O O1 0.082765 0.274836 0.285818
O O2 0.130232 0.276983 0.144808
O O3 0.021643 0.283267 0.121527
O O4 0.075995 0.000000 0.176092
O O5 0.908022 0.282850 0.076188
O O6 0.961180 0.205040 0.232542
O O7 0.964323 0.000000 0.088613
O O8 0.881864 0.286745 0.526888
O O9 0.983977 0.271620 0.606295
O O10 0.923486 0.000000 0.610302
O O11 0.349563 0.500000 0.078428
O O12 0.327669 0.215467 0.165959
O O13 0.311609 0.224444 0.979517
O O14 0.235565 0.726704 0.200898
O O15 0.186017 0.000000 0.125546
O O16 0.086798 0.205506 0.621299
O O17 0.183169 0.287888 0.653891
O O18 0.154248 0.000000 0.558048
O O19 0.054177 0.500000 0.683340
O O20 0.189960 0.000000 0.748210
#
# Coordination Sequence:
#
# PCOD9182703 Si02
#       8
#     8   8   8   8   8   8   8   8
#     4   8  16  31  52  76 102 129 168 210 248 294
#     4   9  16  32  54  74 101 137 171 206 244 296
#     4   9  18  33  53  73  96 135 174 204 241 296
#     4   9  17  31  54  78 101 127 168 213 253 298
#     4  10  20  34  52  76 102 133 167 211 261 300
#     4  10  19  33  53  72  96 133 176 209 242 293
#     4  11  20  29  46  77 112 135 157 200 258 308
#     4  10  20  35  52  73 100 132 172 214 247 296
#
# _framework density 23.010538
#
# number of rings (size 3 to 8) (size 9 to 14) (size 15 to 20)
#    0.000    2.500    1.250    2.625    0.000    3.000 
#    0.000    6.250    0.000    0.000    0.000    4.375 
#    0.000    0.000    0.000    0.000    0.000    0.000 
#
# Total GULP energy -178721.622476 kJ/mol
# GULP energy per Si atom -5585.050702 kJ/mol
# Density = 2.295817 g / cm^3
# Si number density = 23.010538 Si / 1000 Ang^3
#
#
#
# Elastic Constant Matrix: (Units=GPa)
#
#
# Indices 1 2 3 4 5 6 
#
# 1 91.1411 -9.5381 23.3138 0.0000 14.9842 0.0000
# 2 -9.5381 83.1514 -5.3005 0.0000 -2.5175 0.0000
# 3 23.3138 -5.3005 96.6935 0.0000 30.6201 0.0000
# 4 0.0000 0.0000 0.0000 -15.8686 0.0000 28.1651
# 5 14.9842 -2.5175 30.6201 0.0000 31.0120 0.0000
# 6 0.0000 0.0000 0.0000 28.1651 0.0000 -18.0590
#
#
#
# Elastic Compliance Matrix: (Units=1/GPa)
#
#
# Indices 1 2 3 4 5 6 
#
# 1 0.012189 0.001171 -0.001513 0.000000 -0.004300 0.000000
# 2 0.001171 0.012186 0.000366 0.000000 0.000062 0.000000
# 3 -0.001513 0.000366 0.015256 0.000000 -0.014303 0.000000
# 4 0.000000 0.000000 0.000000 0.035640 0.000000 0.055585
# 5 -0.004300 0.000062 -0.014303 0.000000 0.048450 0.000000
# 6 0.000000 0.000000 0.000000 0.055585 0.000000 0.031317
#
#
# Mechanical properties :
#
#
# Convention : Reuss Voigt Hill
#
# Bulk Modulus (GPa) = 25.20177 31.99294 28.59735
# Shear Modulus (GPa) = 29.72380 16.91760 23.32070
#
# Velocity S-wave (km/s) = 3.59799 2.71442 3.18697
# Velocity P-wave (km/s) = 5.31382 4.87421 5.09876
#
# Compressibility (1/GPa) = 0.03967976
#
# Stress axis : x y z
#
# Youngs Moduli (GPa) = 82.04400 82.06247 65.54816
#
# Poissons Ratio (x) = -0.09614 0.09916
# Poissons Ratio (y) = -0.09611 -0.02399
# Poissons Ratio (z) = 0.12411 -0.03003
#
# Static dielectric constant tensor:
#      x y z
#    x 1.827780 0.000000 0.022240 
#    y 0.000000 1.948330 0.000000 
#    z 0.022240 0.000000 1.881320 
# 
# From -- ./inp_files/244239.got.cif
#   From: 2010.05.17/outbox.cif.g08.bks.cpg/sg12_123_cif.got.tgz:244239.got - 2010.06.03 13:09:07.
