data_PCOD9182378
_publ_section_title
;
Structure prediction by ZEFSAII (Michael W. Deem and Ramdas Pophale) SiO2 
 PCOD9182378
Probable space group: C 2/M
;
_chemical_formula_sum "Si O2"
_cell_formula_units_Z 64
_cell_length_a 18.377868
_cell_length_b 25.117585
_cell_length_c 22.931012
_cell_angle_alpha 90.000000
_cell_angle_beta 159.916134
_cell_angle_gamma 90.000000
_cell_volume 3634.883542
_symmetry_space_group_name_H-M "C 2/M"
_symmetry_group_IT_number 12
_symmetry_cell_setting 'monoclinic'
loop_
_space_group_symop_operation_xyz
x,y,z
-x,y,-z
-x,-y,-z
x,-y,z
1/2+x,1/2+y,z
1/2-x,1/2+y,-z
1/2-x,1/2-y,-z
1/2+x,1/2-y,z
loop_
_atom_site_type_symbol
_atom_site_label
_atom_site_fract_x
_atom_site_fract_y
_atom_site_fract_z
Si Si1 0.991323 0.310738 0.083561
Si Si2 0.153959 0.217437 0.732592
Si Si3 0.539024 0.276179 0.219037
Si Si4 0.174000 0.562345 0.722860
Si Si5 0.447003 0.171102 0.558211
Si Si6 0.884676 0.938753 0.008720
Si Si7 0.671427 0.138110 0.938039
Si Si8 0.176079 0.686537 0.400868
O O1 0.905033 0.362940 0.052328
O O2 0.209584 0.314683 0.212492
O O3 0.039542 0.267581 0.169472
O O4 0.808306 0.287202 0.904387
O O5 0.113609 0.279165 0.682918
O O6 0.922690 0.192623 0.570501
O O7 0.745939 0.312358 0.368623
O O8 0.572902 0.243689 0.305068
O O9 0.329238 0.310928 0.057257
O O10 0.101979 0.500000 0.663106
O O11 0.374093 0.569360 0.830484
O O12 0.023424 0.612506 0.599055
O O13 0.253617 0.569937 0.849871
O O14 0.367998 0.171400 0.566019
O O15 0.859465 0.000000 0.005310
O O16 0.804813 0.905008 0.003083
O O17 0.458425 0.146660 0.740293
#
# Coordination Sequence:
#
# PCOD9182378 Si02
#       8
#     8   8   8   8   8   8   8   8
#     4  10  21  34  49  76 107 141 171 216 257 320
#     4  10  21  34  52  75 108 139 182 209 256 319
#     4  10  21  31  46  73 109 137 172 213 258 313
#     4   9  19  35  54  78 104 137 185 224 257 306
#     4  11  19  32  53  74 103 145 179 211 264 308
#     4   9  19  35  55  78 103 135 181 226 262 310
#     4  11  19  33  53  74 106 137 174 217 272 301
#     4  10  19  33  50  74 105 141 178 213 252 318
#
# _framework density 17.607167
#
# number of rings (size 3 to 8) (size 9 to 14) (size 15 to 20)
#    0.000    2.000    1.250    6.000    1.750    5.500 
#    0.000    0.625    0.000    1.500    0.000    4.375 
#    0.000    0.000    0.000    0.000    0.000    0.000 
#
# Total GULP energy -178302.602924 kJ/mol
# GULP energy per Si atom -5571.956341 kJ/mol
# Density = 1.756709 g / cm^3
# Si number density = 17.607167 Si / 1000 Ang^3
#
#
#
# Elastic Constant Matrix: (Units=GPa)
#
#
# Indices 1 2 3 4 5 6 
#
# 1 93.7327 37.5966 32.1731 -0.0246 18.9393 0.0078
# 2 37.5966 77.9587 34.0357 -0.0238 15.6650 0.0101
# 3 32.1731 34.0357 87.6728 -0.0135 8.1092 -0.0012
# 4 -0.0246 -0.0238 -0.0135 23.8530 -0.0285 7.3901
# 5 18.9393 15.6650 8.1092 -0.0285 24.9283 0.0060
# 6 0.0078 0.0101 -0.0012 7.3901 0.0060 26.1153
#
#
#
# Elastic Compliance Matrix: (Units=1/GPa)
#
#
# Indices 1 2 3 4 5 6 
#
# 1 0.015034 -0.004346 -0.003120 0.000001 -0.007676 -0.000001
# 2 -0.004346 0.018419 -0.004939 0.000005 -0.006666 -0.000006
# 3 -0.003120 -0.004939 0.014395 0.000000 0.000791 0.000003
# 4 0.000001 0.000005 0.000000 0.045952 0.000052 -0.013004
# 5 -0.007676 -0.006666 0.000791 0.000052 0.049879 -0.000021
# 6 -0.000001 -0.000006 0.000003 -0.013004 -0.000021 0.041971
#
#
# Mechanical properties :
#
#
# Convention : Reuss Voigt Hill
#
# Bulk Modulus (GPa) = 43.40575 51.88612 47.64594
# Shear Modulus (GPa) = 22.92118 25.34990 24.13554
#
# Velocity S-wave (km/s) = 3.61197 3.79852 3.70642
# Velocity P-wave (km/s) = 6.48853 6.98363 6.74062
#
# Compressibility (1/GPa) = 0.02303842
#
# Stress axis : x y z
#
# Youngs Moduli (GPa) = 66.51791 54.29198 69.46767
#
# Poissons Ratio (x) = 0.23593 0.21673
# Poissons Ratio (y) = 0.28906 0.34311
# Poissons Ratio (z) = 0.20752 0.26816
#
# Static dielectric constant tensor:
#      x y z
#    x 1.677470 -0.000010 0.004040 
#    y -0.000010 1.602420 -0.000030 
#    z 0.004040 -0.000030 1.643780 
# 
# From -- ./inp_files/345047.got.cif
#   From: 2010.05.17/outbox.cif.g08.bks.cpg/sg12_173_cif.got.tgz:345047.got - 2010.06.03 13:09:07.
