data_PCOD9182914
_publ_section_title
;
Structure prediction by ZEFSAII (Michael W. Deem and Ramdas Pophale) SiO2 
 PCOD9182914
Probable space group: C 2/M
;
_chemical_formula_sum "Si O2"
_cell_formula_units_Z 64
_cell_length_a 20.424002
_cell_length_b 13.738376
_cell_length_c 9.445858
_cell_angle_alpha 90.000000
_cell_angle_beta 87.469318
_cell_angle_gamma 90.000000
_cell_volume 2647.853115
_symmetry_space_group_name_H-M "C 2/M"
_symmetry_group_IT_number 12
_symmetry_cell_setting 'monoclinic'
loop_
_space_group_symop_operation_xyz
x,y,z
-x,y,-z
-x,-y,-z
x,-y,z
1/2+x,1/2+y,z
1/2-x,1/2+y,-z
1/2-x,1/2-y,-z
1/2+x,1/2-y,z
loop_
_atom_site_type_symbol
_atom_site_label
_atom_site_fract_x
_atom_site_fract_y
_atom_site_fract_z
Si Si1 0.794613 0.797182 0.174790
Si Si2 0.358563 0.887686 0.307345
Si Si3 0.468826 0.733830 0.863282
Si Si4 0.844412 0.884335 0.903674
Si Si5 0.343555 0.383332 0.574086
Si Si6 0.489829 0.888133 0.663637
Si Si7 0.921574 0.885487 0.311737
Si Si8 0.214596 0.384084 0.410369
O O1 0.819945 0.689578 0.214923
O O2 0.853565 0.865216 0.235091
O O3 0.729182 0.828763 0.263883
O O4 0.795661 0.827576 0.011179
O O5 0.436485 0.883306 0.277501
O O6 0.344621 0.865214 0.475377
O O7 0.336197 0.000000 0.287060
O O8 0.416110 0.658359 0.927845
O O9 0.444713 0.817993 0.760455
O O10 0.520952 0.673731 0.766122
O O11 0.500000 0.780310 0.000000
O O12 0.838743 0.861817 0.738324
O O13 0.839649 0.000000 0.925043
O O14 0.346718 0.500000 0.564607
O O15 0.405238 0.351173 0.473691
O O16 0.277092 0.355424 0.501805
O O17 0.500000 0.860188 0.500000
O O18 0.467070 0.000000 0.668287
O O19 0.936733 0.000000 0.308218
O O20 0.215810 0.500000 0.383031
#
# Coordination Sequence:
#
# PCOD9182914 Si02
#       8
#     8   8   8   8   8   8   8   8
#     4  11  19  34  55  85 114 153 190 231 287 337
#     4  10  20  37  60  86 110 144 198 244 283 335
#     4  12  23  35  54  85 114 154 195 227 283 337
#     4  11  22  34  53  83 123 156 186 230 284 346
#     4   8  18  34  51  79 114 154 185 222 282 334
#     4  10  23  42  62  84 112 147 192 247 290 325
#     4  10  19  33  53  78 115 151 190 228 269 336
#     4   9  18  34  60  85 113 149 189 233 280 346
#
# _framework density 24.170524
#
# number of rings (size 3 to 8) (size 9 to 14) (size 15 to 20)
#    0.000    1.875    2.500    2.625    1.750    0.750 
#    0.000    3.125    0.000    1.500    0.000   13.125 
#    0.000    0.000    0.000    0.000    0.000    0.000 
#
# Total GULP energy -179044.776563 kJ/mol
# GULP energy per Si atom -5595.149268 kJ/mol
# Density = 2.411551 g / cm^3
# Si number density = 24.170524 Si / 1000 Ang^3
#
#
#
# Elastic Constant Matrix: (Units=GPa)
#
#
# Indices 1 2 3 4 5 6 
#
# 1 37.6651 18.6048 12.9506 0.0000 -16.2080 0.0000
# 2 18.6048 158.3152 61.0626 0.0000 -17.8742 0.0000
# 3 12.9506 61.0626 159.1853 0.0000 -23.2844 0.0000
# 4 0.0000 0.0000 0.0000 31.3228 0.0000 -10.7491
# 5 -16.2080 -17.8742 -23.2844 0.0000 26.9623 0.0000
# 6 0.0000 0.0000 0.0000 -10.7491 0.0000 19.1180
#
#
#
# Elastic Compliance Matrix: (Units=1/GPa)
#
#
# Indices 1 2 3 4 5 6 
#
# 1 0.036493 -0.002277 0.001021 0.000000 0.021310 0.000000
# 2 -0.002277 0.007747 -0.002559 0.000000 0.001557 0.000000
# 3 0.001021 -0.002559 0.008037 0.000000 0.005859 0.000000
# 4 0.000000 0.000000 0.000000 0.039558 0.000000 0.022242
# 5 0.021310 0.001557 0.005859 0.000000 0.055991 0.000000
# 6 0.000000 0.000000 0.000000 0.022242 0.000000 0.064812
#
#
# Mechanical properties :
#
#
# Convention : Reuss Voigt Hill
#
# Bulk Modulus (GPa) = 22.39641 60.04461 41.22051
# Shear Modulus (GPa) = 21.26303 32.98377 27.12340
#
# Velocity S-wave (km/s) = 2.96921 3.69809 3.35351
# Velocity P-wave (km/s) = 4.58705 6.56738 5.66443
#
# Compressibility (1/GPa) = 0.04465001
#
# Stress axis : x y z
#
# Youngs Moduli (GPa) = 27.40225 129.08638 124.41934
#
# Poissons Ratio (x) = 0.29388 -0.12709
# Poissons Ratio (y) = 0.06238 0.31834
# Poissons Ratio (z) = -0.02799 0.33028
#
# Static dielectric constant tensor:
#      x y z
#    x 1.965120 0.000000 0.023000 
#    y 0.000000 1.908410 0.000000 
#    z 0.023000 0.000000 1.967910 
# 
# From -- ./inp_files/104560.got.cif
#   From: 2010.05.17/outbox.cif.g08.bks.cpg/sg12_53_cif.got.tgz:104560.got - 2010.06.03 13:09:07.
