data_PCOD9182989
_publ_section_title
;
Structure prediction by ZEFSAII (Michael W. Deem and Ramdas Pophale) SiO2 
 PCOD9182989
Probable space group: C 2/M
;
_chemical_formula_sum "Si O2"
_cell_formula_units_Z 40
_cell_length_a 17.670226
_cell_length_b 13.434935
_cell_length_c 15.659758
_cell_angle_alpha 90.000000
_cell_angle_beta 23.251427
_cell_angle_gamma 90.000000
_cell_volume 1467.585036
_symmetry_space_group_name_H-M "C 2/M"
_symmetry_group_IT_number 12
_symmetry_cell_setting 'monoclinic'
loop_
_space_group_symop_operation_xyz
x,y,z
-x,y,-z
-x,-y,-z
x,-y,z
1/2+x,1/2+y,z
1/2-x,1/2+y,-z
1/2-x,1/2-y,-z
1/2+x,1/2-y,z
loop_
_atom_site_type_symbol
_atom_site_label
_atom_site_fract_x
_atom_site_fract_y
_atom_site_fract_z
Si Si1 0.704201 0.676392 0.643076
Si Si2 0.796095 0.891345 0.537801
Si Si3 0.864077 0.616459 0.835908
Si Si4 0.207358 0.112923 0.187361
Si Si5 0.272300 0.817188 0.754216
O O1 0.665387 0.794665 0.684756
O O2 0.629977 0.619283 0.637187
O O3 0.674166 0.641234 0.770600
O O4 0.935634 0.672396 0.387041
O O5 0.976961 0.887391 0.413008
O O6 0.703968 0.000000 0.641785
O O7 0.909651 0.500000 0.787417
O O8 0.735487 0.637950 0.885842
O O9 0.779611 0.638406 0.016380
O O10 0.262418 0.199674 0.195054
O O11 0.263612 0.000000 0.151844
O O12 0.500000 0.832309 0.500000
#
# Coordination Sequence:
#
# PCOD9182989 Si02
#       5
#     8   8   8   8   8
#     4  10  21  35  55  81 107 146 179 222 269 315
#     4  10  20  35  55  80 110 142 179 220 271 324
#     4  10  20  34  55  80 108 145 182 218 264 321
#     4  10  20  35  58  82 108 141 179 224 270 317
#     4  10  19  33  53  82 109 137 180 224 264 313
#
# _framework density 27.255662000000001
#
# number of rings (size 3 to 8) (size 9 to 14) (size 15 to 20)
#    0.000    2.000    4.000    1.200    0.000    5.600 
#    0.000    1.000    0.000    3.600    0.000    7.000 
#    0.000    0.000    0.000    0.000    0.000    0.000 
#
# Total GULP energy -111972.006381 kJ/mol
# GULP energy per Si atom -5598.600319 kJ/mol
# Density = 2.719363 g / cm^3
# Si number density = 27.255662 Si / 1000 Ang^3
#
#
#
# Elastic Constant Matrix: (Units=GPa)
#
#
# Indices 1 2 3 4 5 6 
#
# 1 136.5614 -4.0575 6.0231 -0.0103 15.7537 0.0034
# 2 -4.0575 80.7137 -17.6102 -0.0304 -7.7649 0.0199
# 3 6.0231 -17.6102 84.0986 -0.0238 8.6151 0.0185
# 4 -0.0103 -0.0304 -0.0238 5.0712 0.0141 8.1184
# 5 15.7537 -7.7649 8.6151 0.0141 37.9831 -0.0100
# 6 0.0034 0.0199 0.0185 8.1184 -0.0100 7.4515
#
#
#
# Elastic Compliance Matrix: (Units=1/GPa)
#
#
# Indices 1 2 3 4 5 6 
#
# 1 0.007695 0.000037 -0.000222 -0.000047 -0.003134 0.000044
# 2 0.000037 0.013146 0.002535 -0.000197 0.002097 0.000176
# 3 -0.000222 0.002535 0.012669 -0.000197 -0.002263 0.000173
# 4 -0.000047 -0.000197 -0.000197 -0.264983 0.000198 0.288699
# 5 -0.003134 0.002097 -0.002263 0.000198 0.028569 -0.000176
# 6 0.000044 0.000176 0.000173 0.288699 -0.000176 -0.180336
#
#
# Mechanical properties :
#
#
# Convention : Reuss Voigt Hill
#
# Bulk Modulus (GPa) = 26.17136 30.00939 28.09037
# Shear Modulus (GPa) = -13.32614 31.23571 8.95478
#
# Velocity S-wave (km/s) = -2.21358 3.38897 1.81455
# Velocity P-wave (km/s) = 1.75778 5.13301 3.83651
#
# Compressibility (1/GPa) = 0.03820971
#
# Stress axis : x y z
#
# Youngs Moduli (GPa) = 129.95275 76.06820 78.93084
#
# Poissons Ratio (x) = -0.00280 0.01756
# Poissons Ratio (y) = -0.00478 -0.20011
# Poissons Ratio (z) = 0.02890 -0.19285
#
# Static dielectric constant tensor:
#      x y z
#    x 2.159150 0.000000 -0.055160 
#    y 0.000000 2.076180 0.000010 
#    z -0.055160 0.000010 2.190560 
# 
# From -- ./inp_files/72352.got.cif
#   From: 2010.05.17/outbox.cif.g08.bks.cpg/sg12_37_cif.got.tgz:72352.got - 2010.06.03 13:09:07.
