data_PCOD9182669
_publ_section_title
;
Structure prediction by ZEFSAII (Michael W. Deem and Ramdas Pophale) SiO2 
 PCOD9182669
Probable space group: C 2/M
;
_chemical_formula_sum "Si O2"
_cell_formula_units_Z 52
_cell_length_a 26.741938
_cell_length_b 19.782492
_cell_length_c 9.580593
_cell_angle_alpha 90.000000
_cell_angle_beta 143.594974
_cell_angle_gamma 90.000000
_cell_volume 3008.010166
_symmetry_space_group_name_H-M "C 2/M"
_symmetry_group_IT_number 12
_symmetry_cell_setting 'monoclinic'
loop_
_space_group_symop_operation_xyz
x,y,z
-x,y,-z
-x,-y,-z
x,-y,z
1/2+x,1/2+y,z
1/2-x,1/2+y,-z
1/2-x,1/2-y,-z
1/2+x,1/2-y,z
loop_
_atom_site_type_symbol
_atom_site_label
_atom_site_fract_x
_atom_site_fract_y
_atom_site_fract_z
Si Si1 0.824217 0.864861 0.808107
Si Si2 0.915066 0.745121 0.887472
Si Si3 0.434682 0.500000 0.718971
Si Si4 0.856502 0.644996 0.519049
Si Si5 0.597523 0.000000 0.266500
Si Si6 0.996317 0.114686 0.650800
Si Si7 0.477566 0.229897 0.607656
Si Si8 0.772480 0.000000 0.529255
O O1 0.847962 0.804490 0.755805
O O2 0.743382 0.848099 0.718899
O O3 0.800089 0.932865 0.673648
O O4 0.907652 0.876334 0.084252
O O5 0.881962 0.684323 0.718827
O O6 0.000000 0.771194 0.000000
O O7 0.945612 0.722149 0.109270
O O8 0.454198 0.564773 0.666630
O O9 0.336559 0.500000 0.542964
O O10 0.500000 0.500000 0.000000
O O11 0.884220 0.567655 0.603441
O O12 0.904820 0.682965 0.504964
O O13 0.669830 0.000000 0.305705
O O14 0.500000 0.000000 0.000000
O O15 0.000000 0.089504 0.500000
O O16 0.956270 0.189879 0.563014
O O17 0.500000 0.212923 0.500000
#
# Coordination Sequence:
#
# PCOD9182669 Si02
#       8
#     8   8   4   8   4   8   8   4
#     4  10  19  33  52  81 109 140 184 221 269 319
#     4   9  18  31  53  79 105 141 179 220 271 320
#     4  12  21  32  59  84 113 145 179 225 269 312
#     4  10  20  34  58  78 103 139 183 230 272 323
#     4  10  20  38  57  77 110 136 175 223 286 314
#     4  10  21  36  54  77 115 154 176 211 275 336
#     4   9  19  35  54  76 108 141 184 221 269 328
#     4  10  22  30  52  91 106 137 180 227 260 325
#
# _framework density 17.287175000000001
#
# number of rings (size 3 to 8) (size 9 to 14) (size 15 to 20)
#    0.000    2.154    1.538    2.077    6.462    0.000 
#    0.000    7.308    3.385    0.000    0.000    0.000 
#    0.000    0.000    0.000    0.000    0.000    0.000 
#
# Total GULP energy -144905.820167 kJ/mol
# GULP energy per Si atom -5573.300776 kJ/mol
# Density = 1.724783 g / cm^3
# Si number density = 17.287175 Si / 1000 Ang^3
#
#
#
# Elastic Constant Matrix: (Units=GPa)
#
#
# Indices 1 2 3 4 5 6 
#
# 1 145.3965 73.2876 61.7275 0.0000 7.6943 0.0000
# 2 73.2876 111.7100 29.3305 0.0000 11.3798 0.0000
# 3 61.7275 29.3305 45.6857 0.0000 11.1719 0.0000
# 4 0.0000 0.0000 0.0000 15.2385 0.0000 4.8451
# 5 7.6943 11.3798 11.1719 0.0000 42.0331 0.0000
# 6 0.0000 0.0000 0.0000 4.8451 0.0000 35.4192
#
#
#
# Elastic Compliance Matrix: (Units=1/GPa)
#
#
# Indices 1 2 3 4 5 6 
#
# 1 0.020938 -0.007804 -0.024448 0.000000 0.004778 0.000000
# 2 -0.007804 0.013728 0.002450 0.000000 -0.002939 0.000000
# 3 -0.024448 0.002450 0.056060 0.000000 -0.011088 0.000000
# 4 0.000000 0.000000 0.000000 0.068607 0.000000 -0.009385
# 5 0.004778 -0.002939 -0.011088 0.000000 0.026659 0.000000
# 6 0.000000 0.000000 0.000000 -0.009385 0.000000 0.029517
#
#
# Mechanical properties :
#
#
# Convention : Reuss Voigt Hill
#
# Bulk Modulus (GPa) = 32.13284 70.16481 51.14883
# Shear Modulus (GPa) = 17.51397 27.76796 22.64097
#
# Velocity S-wave (km/s) = 3.18641 4.01218 3.62290
# Velocity P-wave (km/s) = 5.67147 7.88285 6.86677
#
# Compressibility (1/GPa) = 0.03112081
#
# Stress axis : x y z
#
# Youngs Moduli (GPa) = 47.76055 72.84478 17.83811
#
# Poissons Ratio (x) = 0.56848 0.43610
# Poissons Ratio (y) = 0.37272 -0.04370
# Poissons Ratio (z) = 1.16765 -0.17844
#
# Static dielectric constant tensor:
#      x y z
#    x 1.599280 0.000000 0.014780 
#    y 0.000000 1.603650 0.000000 
#    z 0.014780 0.000000 1.587030 
# 
# From -- ./inp_files/99051.got.cif
#   From: 2010.05.17/outbox.cif.g08.bks.cpg/sg12_50_cif.got.tgz:99051.got - 2010.06.03 13:09:07.
