data_PCOD9182396
_publ_section_title
;
Structure prediction by ZEFSAII (Michael W. Deem and Ramdas Pophale) SiO2 
 PCOD9182396
Probable space group: C 2/M
;
_chemical_formula_sum "Si O2"
_cell_formula_units_Z 64
_cell_length_a 26.010671
_cell_length_b 15.103173
_cell_length_c 8.662524
_cell_angle_alpha 90.000000
_cell_angle_beta 113.223416
_cell_angle_gamma 90.000000
_cell_volume 3127.285656
_symmetry_space_group_name_H-M "C 2/M"
_symmetry_group_IT_number 12
_symmetry_cell_setting 'monoclinic'
loop_
_space_group_symop_operation_xyz
x,y,z
-x,y,-z
-x,-y,-z
x,-y,z
1/2+x,1/2+y,z
1/2-x,1/2+y,-z
1/2-x,1/2-y,-z
1/2+x,1/2-y,z
loop_
_atom_site_type_symbol
_atom_site_label
_atom_site_fract_x
_atom_site_fract_y
_atom_site_fract_z
Si Si1 0.332289 0.827107 0.195300
Si Si2 0.151096 0.738350 0.288837
Si Si3 0.092009 0.776486 0.928194
Si Si4 0.783768 0.403362 0.842923
Si Si5 0.978407 0.403038 0.152677
Si Si6 0.176479 0.174963 0.610412
Si Si7 0.094143 0.600449 0.454704
Si Si8 0.437041 0.605539 0.373476
O O1 0.353773 0.750450 0.106355
O O2 0.303028 0.768859 0.291750
O O3 0.382977 0.874697 0.347956
O O4 0.297012 0.887951 0.039655
O O5 0.187672 0.672639 0.226904
O O6 0.180796 0.809707 0.432950
O O7 0.119171 0.672601 0.367829
O O8 0.108531 0.787771 0.124151
O O9 0.056718 0.685891 0.875507
O O10 0.067110 0.858003 0.806114
O O11 0.805936 0.500000 0.825472
O O12 0.718313 0.396391 0.728977
O O13 0.949980 0.500000 0.139675
O O14 0.028396 0.398591 0.336831
O O15 0.000000 0.403472 0.000000
O O16 0.112365 0.152336 0.584116
O O17 0.113183 0.500000 0.443938
O O18 0.500000 0.628653 0.500000
O O19 0.429758 0.500000 0.374251
#
# Coordination Sequence:
#
# PCOD9182396 Si02
#       8
#     8   8   8   8   8   8   8   8
#     4   9  21  35  54  82 111 154 192 238 287 343
#     4  10  21  36  56  87 114 155 187 237 288 357
#     4  10  21  35  58  82 118 150 195 239 294 347
#     4  11  21  36  59  85 117 152 194 240 290 352
#     4  10  20  31  51  83 121 162 194 234 282 344
#     4  10  21  40  62  83 113 152 195 241 297 347
#     4  10  19  33  50  79 120 156 196 234 279 338
#     4  10  23  42  64  87 113 148 197 252 305 353
#
# _framework density 20.465029999999999
#
# number of rings (size 3 to 8) (size 9 to 14) (size 15 to 20)
#    0.000    2.000    1.250    1.875    5.250    2.500 
#    0.000    2.500    0.000    1.875    0.000    0.000 
#    0.000    0.000    0.000    0.000    0.000    0.000 
#
# Total GULP energy -178300.487617 kJ/mol
# GULP energy per Si atom -5571.890238 kJ/mol
# Density = 2.041845 g / cm^3
# Si number density = 20.465030 Si / 1000 Ang^3
#
#
#
# Elastic Constant Matrix: (Units=GPa)
#
#
# Indices 1 2 3 4 5 6 
#
# 1 39.4046 8.2724 31.3421 0.0000 2.7241 0.0000
# 2 8.2724 52.5581 43.3665 0.0000 2.9386 0.0000
# 3 31.3421 43.3665 182.0545 0.0000 6.5191 0.0000
# 4 0.0000 0.0000 0.0000 154.5413 0.0000 15.6164
# 5 2.7241 2.9386 6.5191 0.0000 21.6547 0.0000
# 6 0.0000 0.0000 0.0000 15.6164 0.0000 25.3350
#
#
#
# Elastic Compliance Matrix: (Units=1/GPa)
#
#
# Indices 1 2 3 4 5 6 
#
# 1 0.029518 -0.000492 -0.004887 0.000000 -0.002175 0.000000
# 2 -0.000492 0.023740 -0.005516 0.000000 -0.001499 0.000000
# 3 -0.004887 -0.005516 0.007682 0.000000 -0.000949 0.000000
# 4 0.000000 0.000000 0.000000 0.006901 0.000000 -0.004253
# 5 -0.002175 -0.001499 -0.000949 0.000000 0.046942 0.000000
# 6 0.000000 0.000000 0.000000 -0.004253 0.000000 0.042093
#
#
# Mechanical properties :
#
#
# Convention : Reuss Voigt Hill
#
# Bulk Modulus (GPa) = 25.54339 48.88658 37.21499
# Shear Modulus (GPa) = 26.08018 53.04195 39.56106
#
# Velocity S-wave (km/s) = 3.57372 5.09653 4.40148
# Velocity P-wave (km/s) = 5.43481 7.65327 6.63738
#
# Compressibility (1/GPa) = 0.03914908
#
# Stress axis : x y z
#
# Youngs Moduli (GPa) = 33.87733 42.12367 130.17135
#
# Poissons Ratio (x) = 0.02074 0.63610
# Poissons Ratio (y) = 0.01668 0.71809
# Poissons Ratio (z) = 0.16555 0.23237
#
# Static dielectric constant tensor:
#      x y z
#    x 1.785900 0.000000 0.017210 
#    y 0.000000 1.745140 0.000000 
#    z 0.017210 0.000000 1.781100 
# 
# From -- ./inp_files/111689.got.cif
#   From: 2010.05.17/outbox.cif.g08.bks.cpg/sg12_56_cif.got.tgz:111689.got - 2010.06.03 13:09:07.
