data_PCOD9182127
_publ_section_title
;
Structure prediction by ZEFSAII (Michael W. Deem and Ramdas Pophale) SiO2 
 PCOD9182127
Probable space group: C 2/M
;
_chemical_formula_sum "Si O2"
_cell_formula_units_Z 56
_cell_length_a 19.635923
_cell_length_b 19.634665
_cell_length_c 9.247348
_cell_angle_alpha 90.000000
_cell_angle_beta 108.351596
_cell_angle_gamma 90.000000
_cell_volume 3383.945525
_symmetry_space_group_name_H-M "C 2/M"
_symmetry_group_IT_number 12
_symmetry_cell_setting 'monoclinic'
loop_
_space_group_symop_operation_xyz
x,y,z
-x,y,-z
-x,-y,-z
x,-y,z
1/2+x,1/2+y,z
1/2-x,1/2+y,-z
1/2-x,1/2-y,-z
1/2+x,1/2-y,z
loop_
_atom_site_type_symbol
_atom_site_label
_atom_site_fract_x
_atom_site_fract_y
_atom_site_fract_z
Si Si1 0.693785 0.819944 0.615811
Si Si2 0.216500 0.920624 0.793009
Si Si3 0.579617 0.809388 0.112449
Si Si4 0.082786 0.080130 0.511353
Si Si5 0.143602 0.201999 0.375410
Si Si6 0.654087 0.080185 0.344147
Si Si7 0.203231 0.317724 0.957288
O O1 0.778915 0.813879 0.642169
O O2 0.659142 0.751790 0.522888
O O3 0.664304 0.883325 0.504168
O O4 0.681321 0.827372 0.776929
O O5 0.137229 0.905111 0.680827
O O6 0.271604 0.908965 0.695913
O O7 0.219784 0.000000 0.832093
O O8 0.246138 0.876739 0.944330
O O9 0.599400 0.746496 0.230583
O O10 0.594900 0.877819 0.215272
O O11 0.500000 0.805549 0.000000
O O12 0.635307 0.811186 0.017018
O O13 0.105166 0.133513 0.402905
O O14 0.000000 0.088543 0.500000
O O15 0.094192 0.000000 0.479864
O O16 0.640392 0.000000 0.343835
O O17 0.250000 0.250000 0.000000
#
# Coordination Sequence:
#
# PCOD9182127 Si02
#       7
#     8   8   8   8   8   8   8
#     4  10  19  32  56  82 105 134 184 233 272 317
#     4   9  18  33  52  75 105 139 182 222 266 327
#     4  10  22  37  54  81 115 146 182 222 282 336
#     4  10  20  34  55  80 109 147 187 229 278 333
#     4  10  19  35  53  78 106 142 183 228 270 326
#     4   9  18  35  59  80 104 145 185 222 270 329
#     4  11  20  33  55  81 107 142 179 230 275 323
#
# _framework density 16.548729000000002
#
# number of rings (size 3 to 8) (size 9 to 14) (size 15 to 20)
#    0.000    2.143    2.857    0.857    0.000    3.143 
#    0.000    2.143    0.000    1.286    0.000    0.000 
#    0.000    0.000    0.000    0.000    0.000    0.000 
#
# Total GULP energy -156182.946921 kJ/mol
# GULP energy per Si atom -5577.962390 kJ/mol
# Density = 1.651106 g / cm^3
# Si number density = 16.548729 Si / 1000 Ang^3
#
#
#
# Elastic Constant Matrix: (Units=GPa)
#
#
# Indices 1 2 3 4 5 6 
#
# 1 76.9876 52.9426 65.6245 0.0000 18.6755 0.0000
# 2 52.9426 103.1099 72.5447 0.0000 -1.4089 0.0000
# 3 65.6245 72.5447 151.9572 0.0000 -0.1393 0.0000
# 4 0.0000 0.0000 0.0000 17.5693 0.0000 -4.7732
# 5 18.6755 -1.4089 -0.1393 0.0000 32.1982 0.0000
# 6 0.0000 0.0000 0.0000 -4.7732 0.0000 21.1664
#
#
#
# Elastic Compliance Matrix: (Units=1/GPa)
#
#
# Indices 1 2 3 4 5 6 
#
# 1 0.032878 -0.010761 -0.009079 0.000000 -0.019580 0.000000
# 2 -0.010761 0.018138 -0.004005 0.000000 0.007018 0.000000
# 3 -0.009079 -0.004005 0.012419 0.000000 0.005145 0.000000
# 4 0.000000 0.000000 0.000000 0.060632 0.000000 0.013673
# 5 -0.019580 0.007018 0.005145 0.000000 0.042744 0.000000
# 6 0.000000 0.000000 0.000000 0.013673 0.000000 0.050328
#
#
# Mechanical properties :
#
#
# Convention : Reuss Voigt Hill
#
# Bulk Modulus (GPa) = 63.52006 79.36424 71.44215
# Shear Modulus (GPa) = 18.51315 23.58297 21.04806
#
# Velocity S-wave (km/s) = 3.34833 3.77909 3.57022
# Velocity P-wave (km/s) = 7.30859 8.19171 7.76272
#
# Compressibility (1/GPa) = 0.01574306
#
# Stress axis : x y z
#
# Youngs Moduli (GPa) = 30.41504 55.13409 80.52400
#
# Poissons Ratio (x) = 0.59331 0.73112
# Poissons Ratio (y) = 0.32730 0.32251
# Poissons Ratio (z) = 0.27615 0.22082
#
# Static dielectric constant tensor:
#      x y z
#    x 1.533610 0.000000 0.006720 
#    y 0.000000 1.566150 0.000000 
#    z 0.006720 0.000000 1.540280 
# 
# From -- ./inp_files/76815.got.cif
#   From: 2010.05.17/outbox.cif.g08.bks.cpg/sg12_39_cif.got.tgz:76815.got - 2010.06.03 13:09:07.
