data_PCOD9182612
_publ_section_title
;
Structure prediction by ZEFSAII (Michael W. Deem and Ramdas Pophale) SiO2 
 PCOD9182612
Probable space group: C 2/M
;
_chemical_formula_sum "Si O2"
_cell_formula_units_Z 48
_cell_length_a 16.158822
_cell_length_b 18.082650
_cell_length_c 14.242296
_cell_angle_alpha 90.000000
_cell_angle_beta 44.121078
_cell_angle_gamma 90.000000
_cell_volume 2897.152865
_symmetry_space_group_name_H-M "C 2/M"
_symmetry_group_IT_number 12
_symmetry_cell_setting 'monoclinic'
loop_
_space_group_symop_operation_xyz
x,y,z
-x,y,-z
-x,-y,-z
x,-y,z
1/2+x,1/2+y,z
1/2-x,1/2+y,-z
1/2-x,1/2-y,-z
1/2+x,1/2-y,z
loop_
_atom_site_type_symbol
_atom_site_label
_atom_site_fract_x
_atom_site_fract_y
_atom_site_fract_z
Si Si1 0.836074 0.150622 0.708463
Si Si2 0.040550 0.412038 0.253474
Si Si3 0.088979 0.088387 0.550196
Si Si4 0.280291 0.912439 0.551410
Si Si5 0.600758 0.089225 0.991881
Si Si6 0.366995 0.821198 0.651720
O O1 0.842798 0.112979 0.600004
O O2 0.825713 0.238282 0.704125
O O3 0.962877 0.129774 0.651533
O O4 0.727078 0.119830 0.856449
O O5 0.062949 0.500000 0.244573
O O6 0.066429 0.389451 0.125764
O O7 0.119103 0.367676 0.264310
O O8 0.902461 0.400311 0.393639
O O9 0.169717 0.105314 0.574418
O O10 0.069270 0.000000 0.562165
O O11 0.289337 0.864074 0.637699
O O12 0.276522 0.000000 0.577742
O O13 0.605550 0.000000 0.985261
O O14 0.500000 0.113194 0.000000
O O15 0.500000 0.816485 0.500000
#
# Coordination Sequence:
#
# PCOD9182612 Si02
#       6
#     8   8   8   8   8   8
#     4  11  20  33  50  78 106 137 164 208 267 311
#     4   9  18  33  54  76 101 137 175 214 252 298
#     4  10  19  33  52  77 104 136 173 212 254 305
#     4   9  18  33  56  80 102 133 175 217 252 299
#     4  10  20  35  54  76 100 133 176 214 252 303
#     4  10  19  34  51  78 108 136 170 209 262 306
#
# _framework density 16.567990999999999
#
# number of rings (size 3 to 8) (size 9 to 14) (size 15 to 20)
#    0.000    2.167    1.667    3.500    0.000    6.000 
#    3.000    0.000    0.000    0.000    0.000    4.667 
#    0.000    0.000    0.000    0.000    0.000    0.000 
#
# Total GULP energy -133904.631974 kJ/mol
# GULP energy per Si atom -5579.359666 kJ/mol
# Density = 1.653028 g / cm^3
# Si number density = 16.567991 Si / 1000 Ang^3
#
#
#
# Elastic Constant Matrix: (Units=GPa)
#
#
# Indices 1 2 3 4 5 6 
#
# 1 145.5114 68.3091 54.7879 0.0000 14.6803 0.0000
# 2 68.3091 66.6986 39.8634 0.0000 8.0172 0.0000
# 3 54.7879 39.8634 79.8216 0.0000 16.9057 0.0000
# 4 0.0000 0.0000 0.0000 11.5752 0.0000 4.5602
# 5 14.6803 8.0172 16.9057 0.0000 19.3313 0.0000
# 6 0.0000 0.0000 0.0000 4.5602 0.0000 2.6281
#
#
#
# Elastic Compliance Matrix: (Units=1/GPa)
#
#
# Indices 1 2 3 4 5 6 
#
# 1 0.014022 -0.012299 -0.002832 0.000000 -0.003071 0.000000
# 2 -0.012299 0.032165 -0.008314 0.000000 0.003271 0.000000
# 3 -0.002832 -0.008314 0.021402 0.000000 -0.013118 0.000001
# 4 0.000000 0.000000 0.000000 0.273044 0.000001 -0.473779
# 5 -0.003071 0.003271 -0.013118 0.000001 0.064177 -0.000002
# 6 0.000000 0.000000 0.000001 -0.473779 -0.000002 1.202587
#
#
# Mechanical properties :
#
#
# Convention : Reuss Voigt Hill
#
# Bulk Modulus (GPa) = 48.31223 68.66138 58.48680
# Shear Modulus (GPa) = 3.00990 15.31167 9.16078
#
# Velocity S-wave (km/s) = 1.34931 3.04332 2.35398
# Velocity P-wave (km/s) = 5.62590 7.34038 6.53957
#
# Compressibility (1/GPa) = 0.02069869
#
# Stress axis : x y z
#
# Youngs Moduli (GPa) = 71.31633 31.08991 46.72422
#
# Poissons Ratio (x) = 0.38237 0.13231
# Poissons Ratio (y) = 0.87712 0.38848
# Poissons Ratio (z) = 0.20195 0.25849
#
# Static dielectric constant tensor:
#      x y z
#    x 1.552480 0.000000 0.000210 
#    y 0.000000 1.548220 0.000000 
#    z 0.000210 0.000000 1.527780 
# 
# From -- ./inp_files/143907.got.cif
#   From: 2010.05.17/outbox.cif.g08.bks.cpg/sg12_72_cif.got.tgz:143907.got - 2010.06.03 13:09:07.
