data_PCOD9182996
_publ_section_title
;
Structure prediction by ZEFSAII (Michael W. Deem and Ramdas Pophale) SiO2 
 PCOD9182996
Probable space group: C 2/M
;
_chemical_formula_sum "Si O2"
_cell_formula_units_Z 56
_cell_length_a 13.944068
_cell_length_b 13.779705
_cell_length_c 14.425350
_cell_angle_alpha 90.000000
_cell_angle_beta 60.210910
_cell_angle_gamma 90.000000
_cell_volume 2405.500647
_symmetry_space_group_name_H-M "C 2/M"
_symmetry_group_IT_number 12
_symmetry_cell_setting 'monoclinic'
loop_
_space_group_symop_operation_xyz
x,y,z
-x,y,-z
-x,-y,-z
x,-y,z
1/2+x,1/2+y,z
1/2-x,1/2+y,-z
1/2-x,1/2-y,-z
1/2+x,1/2-y,z
loop_
_atom_site_type_symbol
_atom_site_label
_atom_site_fract_x
_atom_site_fract_y
_atom_site_fract_z
Si Si1 0.504635 0.398081 0.387112
Si Si2 0.764862 0.389494 0.236751
Si Si3 0.039831 0.310235 0.327456
Si Si4 0.813036 0.389963 0.419079
Si Si5 0.752491 0.382012 0.650867
Si Si6 0.091344 0.110817 0.885915
Si Si7 0.233854 0.278104 0.111982
O O1 0.500000 0.402840 0.500000
O O2 0.455049 0.500000 0.374007
O O3 0.632624 0.399048 0.296354
O O4 0.473236 0.288723 0.379282
O O5 0.810565 0.500000 0.202186
O O6 0.790976 0.349245 0.327194
O O7 0.788173 0.307959 0.148676
O O8 0.138841 0.334810 0.351961
O O9 0.106943 0.293393 0.200675
O O10 0.944389 0.388707 0.371628
O O11 0.772077 0.500000 0.427564
O O12 0.757033 0.354242 0.540593
O O13 0.766026 0.500000 0.650878
O O14 0.639670 0.357722 0.761897
O O15 0.202426 0.123684 0.892679
O O16 0.055681 0.000000 0.888616
O O17 0.000000 0.156545 0.000000
O O18 0.250000 0.250000 0.000000
#
# Coordination Sequence:
#
# PCOD9182996 Si02
#       7
#     8   8   8   8   8   8   8
#     4   9  17  32  52  73 105 148 188 224 265 323
#     4   9  20  38  57  82 114 145 183 233 287 339
#     4  10  19  33  53  82 114 148 190 232 280 339
#     4  10  19  33  57  87 119 149 177 226 293 350
#     4   9  17  31  54  85 118 150 186 227 279 346
#     4   9  19  37  59  83 112 145 186 235 278 322
#     4  10  22  39  59  80 106 147 193 237 282 336
#
# _framework density 23.279976999999999
#
# number of rings (size 3 to 8) (size 9 to 14) (size 15 to 20)
#    0.000    2.571    0.000    1.714    0.000    3.429 
#    0.000   14.286    0.000   13.286    0.000    0.000 
#    0.000    0.000    0.000    0.000    0.000    0.000 
#
# Total GULP energy -156060.054866 kJ/mol
# GULP energy per Si atom -5573.573388 kJ/mol
# Density = 2.322699 g / cm^3
# Si number density = 23.279977 Si / 1000 Ang^3
#
#
#
# Elastic Constant Matrix: (Units=GPa)
#
#
# Indices 1 2 3 4 5 6 
#
# 1 67.1524 18.7212 46.9952 0.0000 -2.5591 0.0000
# 2 18.7212 95.2124 37.1234 0.0000 4.5465 0.0000
# 3 46.9952 37.1234 189.4114 0.0000 17.8776 0.0000
# 4 0.0000 0.0000 0.0000 24.1070 0.0000 2.4297
# 5 -2.5591 4.5465 17.8776 0.0000 43.2430 0.0000
# 6 0.0000 0.0000 0.0000 2.4297 0.0000 21.5028
#
#
#
# Elastic Compliance Matrix: (Units=1/GPa)
#
#
# Indices 1 2 3 4 5 6 
#
# 1 0.018780 -0.002069 -0.004557 0.000000 0.003213 0.000000
# 2 -0.002069 0.011603 -0.001700 0.000000 -0.000639 0.000000
# 3 -0.004557 -0.001700 0.007026 0.000000 -0.002996 0.000000
# 4 0.000000 0.000000 0.000000 0.041960 0.000000 -0.004741
# 5 0.003213 -0.000639 -0.002996 0.000000 0.024621 0.000000
# 6 0.000000 0.000000 0.000000 -0.004741 0.000000 0.047041
#
#
# Mechanical properties :
#
#
# Convention : Reuss Voigt Hill
#
# Bulk Modulus (GPa) = 48.17927 61.93952 55.05940
# Shear Modulus (GPa) = 28.63625 34.36632 31.50128
#
# Velocity S-wave (km/s) = 3.51106 3.84633 3.68251
# Velocity P-wave (km/s) = 6.09731 6.81100 6.46401
#
# Compressibility (1/GPa) = 0.02075581
#
# Stress axis : x y z
#
# Youngs Moduli (GPa) = 53.24776 86.18303 142.32342
#
# Poissons Ratio (x) = 0.17833 0.64861
# Poissons Ratio (y) = 0.11018 0.24201
# Poissons Ratio (z) = 0.24267 0.14655
#
# Static dielectric constant tensor:
#      x y z
#    x 1.866620 0.000000 0.030060 
#    y 0.000000 2.032950 0.000000 
#    z 0.030060 0.000000 1.914200 
# 
# From -- ./inp_files/225188.got.cif
#   From: 2010.05.17/outbox.cif.g08.bks.cpg/sg12_113_cif.got.tgz:225188.got - 2010.06.03 13:09:07.
