data_PCOD9182509
_publ_section_title
;
Structure prediction by ZEFSAII (Michael W. Deem and Ramdas Pophale) SiO2 
 PCOD9182509
Probable space group: C 2/M
;
_chemical_formula_sum "Si O2"
_cell_formula_units_Z 64
_cell_length_a 16.498515
_cell_length_b 15.198472
_cell_length_c 16.298131
_cell_angle_alpha 90.000000
_cell_angle_beta 53.227496
_cell_angle_gamma 90.000000
_cell_volume 3273.597412
_symmetry_space_group_name_H-M "C 2/M"
_symmetry_group_IT_number 12
_symmetry_cell_setting 'monoclinic'
loop_
_space_group_symop_operation_xyz
x,y,z
-x,y,-z
-x,-y,-z
x,-y,z
1/2+x,1/2+y,z
1/2-x,1/2+y,-z
1/2-x,1/2-y,-z
1/2+x,1/2-y,z
loop_
_atom_site_type_symbol
_atom_site_label
_atom_site_fract_x
_atom_site_fract_y
_atom_site_fract_z
Si Si1 0.529555 0.097084 0.623813
Si Si2 0.528844 0.103116 0.824169
Si Si3 0.248281 0.336224 0.446450
Si Si4 0.130017 0.743564 0.073883
Si Si5 0.680395 0.736820 0.771812
Si Si6 0.510172 0.397598 0.872118
Si Si7 0.105080 0.246322 0.282700
Si Si8 0.461968 0.594633 0.343051
O O1 0.534895 0.100598 0.720612
O O2 0.639784 0.119163 0.521667
O O3 0.445989 0.167383 0.648805
O O4 0.498317 0.000000 0.618200
O O5 0.425208 0.151918 0.917891
O O6 0.613967 0.174718 0.798931
O O7 0.537357 0.000000 0.845524
O O8 0.250000 0.250000 0.500000
O O9 0.224101 0.197743 0.660540
O O10 0.158071 0.106753 0.577003
O O11 0.100703 0.747986 0.187194
O O12 0.082160 0.829296 0.058804
O O13 0.250000 0.750000 0.000000
O O14 0.606975 0.657435 0.846384
O O15 0.778286 0.760607 0.764996
O O16 0.501463 0.500000 0.904048
O O17 0.520863 0.401301 0.766139
O O18 0.028869 0.167033 0.347643
O O19 0.494639 0.500000 0.353092
#
# Coordination Sequence:
#
# PCOD9182509 Si02
#       8
#     8   8   8   8   8   8   8   8
#     4  10  19  33  52  72  98 135 174 209 244 291
#     4   9  18  34  53  74 101 135 168 199 245 302
#     4  11  17  32  51  71  95 130 175 203 231 282
#     4   9  18  34  56  77  96 126 166 204 244 297
#     4  10  20  32  51  73 103 135 160 204 251 289
#     4   8  16  32  52  72  95 129 167 196 237 293
#     4  10  20  34  49  74 104 128 159 206 259 296
#     4   9  17  31  51  70  94 129 168 205 238 284
#
# _framework density 19.550357999999999
#
# number of rings (size 3 to 8) (size 9 to 14) (size 15 to 20)
#    0.000    2.500    2.500    1.875    0.000    2.500 
#    0.000    3.125    0.000    2.250    0.000    0.000 
#    0.000    0.000    0.000    0.000    0.000    0.000 
#
# Total GULP energy -178207.292859 kJ/mol
# GULP energy per Si atom -5568.977902 kJ/mol
# Density = 1.950586 g / cm^3
# Si number density = 19.550358 Si / 1000 Ang^3
#
#
#
# Elastic Constant Matrix: (Units=GPa)
#
#
# Indices 1 2 3 4 5 6 
#
# 1 70.1593 44.9479 13.2865 0.0000 -23.6937 0.0000
# 2 44.9479 166.5659 46.9862 0.0000 -22.3785 0.0000
# 3 13.2865 46.9862 57.4417 0.0000 -26.5887 0.0000
# 4 0.0000 0.0000 0.0000 7.2607 0.0000 -5.0635
# 5 -23.6937 -22.3785 -26.5887 0.0000 32.0315 0.0000
# 6 0.0000 0.0000 0.0000 -5.0635 0.0000 -11.5246
#
#
#
# Elastic Compliance Matrix: (Units=1/GPa)
#
#
# Indices 1 2 3 4 5 6 
#
# 1 0.023413 -0.006126 0.009144 0.000000 0.020629 0.000000
# 2 -0.006126 0.009408 -0.008662 0.000000 -0.005149 0.000000
# 3 0.009144 -0.008662 0.036879 0.000000 0.031325 0.000000
# 4 0.000000 0.000000 0.000000 0.105425 0.000000 -0.046320
# 5 0.020629 -0.005149 0.031325 0.000000 0.068884 0.000000
# 6 0.000000 0.000000 0.000000 -0.046320 0.000000 -0.066419
#
#
# Mechanical properties :
#
#
# Convention : Reuss Voigt Hill
#
# Bulk Modulus (GPa) = 17.11948 56.06756 36.59352
# Shear Modulus (GPa) = 23.99818 18.14992 21.07405
#
# Velocity S-wave (km/s) = 3.50738 3.05022 3.28676
# Velocity P-wave (km/s) = 5.01776 6.41451 5.75864
#
# Compressibility (1/GPa) = 0.05841300
#
# Stress axis : x y z
#
# Youngs Moduli (GPa) = 42.71138 106.28689 27.11563
#
# Poissons Ratio (x) = 0.65110 -0.24795
# Poissons Ratio (y) = 0.26165 0.23488
# Poissons Ratio (z) = -0.39057 0.92068
#
# Static dielectric constant tensor:
#      x y z
#    x 1.713140 0.000000 0.011180 
#    y 0.000000 1.732870 0.000000 
#    z 0.011180 0.000000 1.667290 
# 
# From -- ./inp_files/270669.got.cif
#   From: 2010.05.17/outbox.cif.g08.bks.cpg/sg12_136_cif.got.tgz:270669.got - 2010.06.03 13:09:07.
