data_PCOD9182846
_publ_section_title
;
Structure prediction by ZEFSAII (Michael W. Deem and Ramdas Pophale) SiO2 
 PCOD9182846
Probable space group: C 2/M
;
_chemical_formula_sum "Si O2"
_cell_formula_units_Z 48
_cell_length_a 15.270641
_cell_length_b 9.579870
_cell_length_c 16.695703
_cell_angle_alpha 90.000000
_cell_angle_beta 118.377565
_cell_angle_gamma 90.000000
_cell_volume 2148.932138
_symmetry_space_group_name_H-M "C 2/M"
_symmetry_group_IT_number 12
_symmetry_cell_setting 'monoclinic'
loop_
_space_group_symop_operation_xyz
x,y,z
-x,y,-z
-x,-y,-z
x,-y,z
1/2+x,1/2+y,z
1/2-x,1/2+y,-z
1/2-x,1/2-y,-z
1/2+x,1/2-y,z
loop_
_atom_site_type_symbol
_atom_site_label
_atom_site_fract_x
_atom_site_fract_y
_atom_site_fract_z
Si Si1 0.899527 0.836124 0.304183
Si Si2 0.731840 0.665374 0.611076
Si Si3 0.406303 0.166403 0.570805
Si Si4 0.588274 0.156190 0.106242
Si Si5 0.478771 0.653177 0.167116
Si Si6 0.309909 0.653439 0.966083
O O1 0.798702 0.809388 0.310032
O O2 0.907483 0.817755 0.211808
O O3 0.987198 0.739147 0.376044
O O4 0.923537 0.000000 0.328820
O O5 0.714318 0.500000 0.587241
O O6 0.656968 0.759574 0.526344
O O7 0.841249 0.693898 0.623249
O O8 0.414347 0.000000 0.562451
O O9 0.546972 0.218224 0.170918
O O10 0.665946 0.264929 0.103686
O O11 0.628559 0.000000 0.132938
O O12 0.500000 0.146751 0.000000
O O13 0.527547 0.500000 0.202601
O O14 0.412791 0.636678 0.058934
O O15 0.265081 0.500000 0.934893
O O16 0.250000 0.750000 0.000000
#
# Coordination Sequence:
#
# PCOD9182846 Si02
#       6
#     8   8   8   8   8   8
#     4  10  20  36  56  77 108 146 182 216 269 333
#     4   9  19  36  56  77 106 146 184 219 264 326
#     4  10  20  34  54  82 110 139 182 229 271 313
#     4   9  17  31  52  74  97 129 169 211 256 308
#     4   9  19  35  53  74 103 138 174 215 265 323
#     4  10  19  33  53  77 104 136 177 220 264 316
#
# _framework density 22.336676000000001
#
# number of rings (size 3 to 8) (size 9 to 14) (size 15 to 20)
#    0.000    2.500    0.000    2.000    0.000    6.667 
#    3.000    0.000    0.000    0.000    0.000    0.000 
#    0.000    0.000    0.000    0.000    0.000    0.000 
#
# Total GULP energy -133906.889010 kJ/mol
# GULP energy per Si atom -5579.453709 kJ/mol
# Density = 2.228584 g / cm^3
# Si number density = 22.336676 Si / 1000 Ang^3
#
#
#
# Elastic Constant Matrix: (Units=GPa)
#
#
# Indices 1 2 3 4 5 6 
#
# 1 85.8833 47.3367 24.9881 0.0000 -40.1713 0.0000
# 2 47.3367 118.8135 34.1980 0.0000 -28.7764 0.0000
# 3 24.9881 34.1980 91.0324 0.0000 -26.2761 0.0000
# 4 0.0000 0.0000 0.0000 19.0739 0.0000 -9.9347
# 5 -40.1713 -28.7764 -26.2761 0.0000 46.4901 0.0000
# 6 0.0000 0.0000 0.0000 -9.9347 0.0000 29.9294
#
#
#
# Elastic Compliance Matrix: (Units=1/GPa)
#
#
# Indices 1 2 3 4 5 6 
#
# 1 0.021677 -0.004913 0.000507 0.000000 0.015976 0.000000
# 2 -0.004913 0.011446 -0.002547 0.000000 0.001400 0.000000
# 3 0.000507 -0.002547 0.013711 0.000000 0.006611 0.000000
# 4 0.000000 0.000000 0.000000 0.063386 0.000000 0.021040
# 5 0.015976 0.001400 0.006611 0.000000 0.039918 0.000000
# 6 0.000000 0.000000 0.000000 0.021040 0.000000 0.040396
#
#
# Mechanical properties :
#
#
# Convention : Reuss Voigt Hill
#
# Bulk Modulus (GPa) = 30.36979 56.53054 43.45017
# Shear Modulus (GPa) = 23.21089 31.71244 27.46167
#
# Velocity S-wave (km/s) = 3.22706 3.77204 3.51015
# Velocity P-wave (km/s) = 5.24511 6.65841 5.99356
#
# Compressibility (1/GPa) = 0.03292745
#
# Stress axis : x y z
#
# Youngs Moduli (GPa) = 46.13246 87.36553 72.93388
#
# Poissons Ratio (x) = 0.42921 -0.03696
# Poissons Ratio (y) = 0.22664 0.18578
# Poissons Ratio (z) = -0.02338 0.22254
#
# Static dielectric constant tensor:
#      x y z
#    x 1.872130 0.000000 0.018010 
#    y 0.000000 1.777980 0.000000 
#    z 0.018010 0.000000 1.848030 
# 
# From -- ./inp_files/273696.got.cif
#   From: 2010.05.17/outbox.cif.g08.bks.cpg/sg12_137_cif.got.tgz:273696.got - 2010.06.03 13:09:07.
