data_PCOD9182992
_publ_section_title
;
Structure prediction by ZEFSAII (Michael W. Deem and Ramdas Pophale) SiO2 
 PCOD9182992
Probable space group: C 2/M
;
_chemical_formula_sum "Si O2"
_cell_formula_units_Z 64
_cell_length_a 18.037900
_cell_length_b 15.015858
_cell_length_c 18.090149
_cell_angle_alpha 90.000000
_cell_angle_beta 138.050290
_cell_angle_gamma 90.000000
_cell_volume 3275.408236
_symmetry_space_group_name_H-M "C 2/M"
_symmetry_group_IT_number 12
_symmetry_cell_setting 'monoclinic'
loop_
_space_group_symop_operation_xyz
x,y,z
-x,y,-z
-x,-y,-z
x,-y,z
1/2+x,1/2+y,z
1/2-x,1/2+y,-z
1/2-x,1/2-y,-z
1/2+x,1/2-y,z
loop_
_atom_site_type_symbol
_atom_site_label
_atom_site_fract_x
_atom_site_fract_y
_atom_site_fract_z
Si Si1 0.729186 0.642252 0.900893
Si Si2 0.049096 0.893891 0.959613
Si Si3 0.697038 0.147205 0.886149
Si Si4 0.292432 0.895747 0.658699
Si Si5 0.962777 0.599604 0.646553
Si Si6 0.637614 0.722384 0.457585
Si Si7 0.985208 0.100128 0.752603
Si Si8 0.113694 0.605921 0.117807
O O1 0.697434 0.746178 0.881114
O O2 0.613497 0.593311 0.824922
O O3 0.791966 0.620518 0.872882
O O4 0.804799 0.621673 0.028483
O O5 0.991379 0.861013 0.840881
O O6 0.029967 0.000000 0.943670
O O7 0.181388 0.880176 0.052884
O O8 0.000000 0.858730 0.000000
O O9 0.590695 0.109097 0.765803
O O10 0.384139 0.893229 0.661152
O O11 0.183379 0.839446 0.557050
O O12 0.348560 0.859433 0.774790
O O13 0.262421 0.000000 0.645850
O O14 0.944511 0.500000 0.601582
O O15 0.927792 0.686400 0.573235
O O16 0.750000 0.750000 0.500000
O O17 0.571635 0.663629 0.348861
O O18 0.935842 0.000000 0.715764
O O19 0.097005 0.500000 0.116064
O O20 0.000000 0.643377 0.000000
#
# Coordination Sequence:
#
# PCOD9182992 Si02
#       8
#     8   8   8   8   8   8   8   8
#     4  10  20  33  52  82 116 149 190 225 271 342
#     4   9  19  35  54  82 114 145 186 235 288 339
#     4  10  19  33  53  82 113 148 191 232 275 333
#     4   9  19  35  57  86 117 149 184 229 283 336
#     4  10  19  34  58  83 110 147 190 235 283 329
#     4  10  20  36  56  82 113 141 194 240 271 333
#     4  10  19  35  60  82 110 149 186 232 283 333
#     4  10  20  35  55  85 123 152 178 220 282 350
#
# _framework density 19.539549000000001
#
# number of rings (size 3 to 8) (size 9 to 14) (size 15 to 20)
#    0.000    2.250    1.250    1.875    0.000    3.500 
#    4.500    0.625    0.000    2.250    0.000    0.875 
#    0.000    0.500    0.000    0.000    0.000    0.000 
#
# Total GULP energy -178459.727066 kJ/mol
# GULP energy per Si atom -5576.866471 kJ/mol
# Density = 1.949508 g / cm^3
# Si number density = 19.539549 Si / 1000 Ang^3
#
#
#
# Elastic Constant Matrix: (Units=GPa)
#
#
# Indices 1 2 3 4 5 6 
#
# 1 44.6009 5.5929 21.6751 0.0000 -11.6045 0.0000
# 2 5.5929 87.4401 61.4071 0.0000 -3.2221 0.0000
# 3 21.6751 61.4071 128.5876 0.0000 -3.5576 0.0000
# 4 0.0000 0.0000 0.0000 -0.7509 0.0000 1.0714
# 5 -11.6045 -3.2221 -3.5576 0.0000 18.4330 0.0000
# 6 0.0000 0.0000 0.0000 1.0714 0.0000 8.2877
#
#
#
# Elastic Compliance Matrix: (Units=1/GPa)
#
#
# Indices 1 2 3 4 5 6 
#
# 1 0.029597 0.002895 -0.005873 0.000000 0.018005 0.000000
# 2 0.002895 0.017528 -0.008770 0.000000 0.003194 0.000000
# 3 -0.005873 -0.008770 0.012879 0.000000 -0.002745 0.000000
# 4 0.000000 0.000000 0.000000 -1.124327 0.000000 0.145346
# 5 0.018005 0.003194 -0.002745 0.000000 0.065614 0.000000
# 6 0.000000 0.000000 0.000000 0.145346 0.000000 0.101871
#
#
# Mechanical properties :
#
#
# Convention : Reuss Voigt Hill
#
# Bulk Modulus (GPa) = 27.39177 48.66431 38.02804
# Shear Modulus (GPa) = -5.80604 16.65753 5.42575
#
# Velocity S-wave (km/s) = -1.72565 2.92293 1.66818
# Velocity P-wave (km/s) = 3.17467 6.02918 4.81817
#
# Compressibility (1/GPa) = 0.03650732
#
# Stress axis : x y z
#
# Youngs Moduli (GPa) = 33.78712 57.05165 77.64532
#
# Poissons Ratio (x) = -0.16517 0.45604
# Poissons Ratio (y) = -0.09782 0.68096
# Poissons Ratio (z) = 0.19844 0.50035
#
# Static dielectric constant tensor:
#      x y z
#    x 1.673870 0.000000 -0.060890 
#    y 0.000000 1.742670 0.000000 
#    z -0.060890 0.000000 1.835860 
# 
# From -- ./inp_files/278200.got.cif
#   From: 2010.05.17/outbox.cif.g08.bks.cpg/sg12_140_cif.got.tgz:278200.got - 2010.06.03 13:09:07.
