data_PCOD9182937
_publ_section_title
;
Structure prediction by ZEFSAII (Michael W. Deem and Ramdas Pophale) SiO2 
 PCOD9182937
Probable space group: C 2/M
;
_chemical_formula_sum "Si O2"
_cell_formula_units_Z 52
_cell_length_a 5.600883
_cell_length_b 27.860189
_cell_length_c 16.708797
_cell_angle_alpha 90.000000
_cell_angle_beta 88.390520
_cell_angle_gamma 90.000000
_cell_volume 2606.239787
_symmetry_space_group_name_H-M "C 2/M"
_symmetry_group_IT_number 12
_symmetry_cell_setting 'monoclinic'
loop_
_space_group_symop_operation_xyz
x,y,z
-x,y,-z
-x,-y,-z
x,-y,z
1/2+x,1/2+y,z
1/2-x,1/2+y,-z
1/2-x,1/2-y,-z
1/2+x,1/2-y,z
loop_
_atom_site_type_symbol
_atom_site_label
_atom_site_fract_x
_atom_site_fract_y
_atom_site_fract_z
Si Si1 0.716924 0.236336 0.220651
Si Si2 0.551895 0.446186 0.341486
Si Si3 0.139467 0.773448 0.400477
Si Si4 0.087294 0.448682 0.811210
Si Si5 0.676086 0.128354 0.272533
Si Si6 0.744120 0.500000 0.048089
Si Si7 0.672428 0.127040 0.574357
O O1 0.460042 0.243164 0.180316
O O2 0.667534 0.265281 0.304306
O O3 0.754088 0.180472 0.242531
O O4 0.458284 0.500000 0.357110
O O5 0.739145 0.449105 0.266572
O O6 0.363231 0.406975 0.313472
O O7 0.691031 0.423008 0.414920
O O8 0.386520 0.749164 0.426660
O O9 0.147125 0.828581 0.425146
O O10 0.946548 0.500000 0.809683
O O11 0.238587 0.454753 0.890806
O O12 0.927708 0.402377 0.800476
O O13 0.481003 0.136196 0.343755
O O14 0.500000 0.500000 0.000000
O O15 0.000000 0.500000 0.000000
O O16 0.500000 0.127878 0.500000
#
# Coordination Sequence:
#
# PCOD9182937 Si02
#       7
#     8   8   8   8   8   4   8
#     4  10  19  33  53  79 112 144 190 250 303 347
#     4  10  21  38  58  76 108 151 207 244 293 351
#     4  10  19  36  54  78 107 140 185 244 319 370
#     4   8  20  35  57  90 119 158 187 220 285 344
#     4  11  20  35  59  76 111 156 200 246 296 365
#     4  10  22  38  64  98 139 158 175 226 280 346
#     4  11  24  37  51  76 106 149 204 263 316 359
#
# _framework density 19.952117000000001
#
# number of rings (size 3 to 8) (size 9 to 14) (size 15 to 20)
#    0.462    1.538    3.077    2.308    4.308    2.154 
#    0.000    0.769    0.000    0.000    0.000    0.000 
#    0.000    3.692    0.000    0.000    0.000    0.000 
#
# Total GULP energy -144946.113407 kJ/mol
# GULP energy per Si atom -5574.850516 kJ/mol
# Density = 1.990671 g / cm^3
# Si number density = 19.952117 Si / 1000 Ang^3
#
#
#
# Elastic Constant Matrix: (Units=GPa)
#
#
# Indices 1 2 3 4 5 6 
#
# 1 89.5733 38.9052 10.7130 0.0000 17.3766 0.0000
# 2 38.9052 146.2917 21.0971 0.0000 15.2514 0.0000
# 3 10.7130 21.0971 64.1360 0.0000 21.5660 0.0000
# 4 0.0000 0.0000 0.0000 6.2760 0.0000 10.6949
# 5 17.3766 15.2514 21.5660 0.0000 24.7411 0.0000
# 6 0.0000 0.0000 0.0000 10.6949 0.0000 29.2012
#
#
#
# Elastic Compliance Matrix: (Units=1/GPa)
#
#
# Indices 1 2 3 4 5 6 
#
# 1 0.014134 -0.003019 0.001902 0.000000 -0.009724 0.000000
# 2 -0.003019 0.008023 -0.001676 0.000000 -0.001364 0.000000
# 3 0.001902 -0.001676 0.022531 0.000000 -0.019942 0.000000
# 4 0.000000 0.000000 0.000000 0.423917 0.000000 -0.155260
# 5 -0.009724 -0.001364 -0.019942 0.000000 0.065472 0.000000
# 6 0.000000 0.000000 0.000000 -0.155260 0.000000 0.091109
#
#
# Mechanical properties :
#
#
# Convention : Reuss Voigt Hill
#
# Bulk Modulus (GPa) = 25.57487 49.04794 37.31141
# Shear Modulus (GPa) = 7.76630 27.32938 17.54784
#
# Velocity S-wave (km/s) = 1.97507 3.70503 2.96885
# Velocity P-wave (km/s) = 4.24820 6.55280 5.52206
#
# Compressibility (1/GPa) = 0.03910088
#
# Stress axis : x y z
#
# Youngs Moduli (GPa) = 70.74954 124.64864 44.38291
#
# Poissons Ratio (x) = 0.37638 -0.08441
# Poissons Ratio (y) = 0.21363 0.07439
# Poissons Ratio (z) = -0.13456 0.20891
#
# Static dielectric constant tensor:
#      x y z
#    x 1.807520 0.000000 0.027440 
#    y 0.000000 1.751850 0.000000 
#    z 0.027440 0.000000 1.715190 
# 
# From -- ./inp_files/253486.got.cif
#   From: 2010.05.17/outbox.cif.g08.bks.cpg/sg12_127_cif.got.tgz:253486.got - 2010.06.03 13:09:07.
