data_PCOD9182258
_publ_section_title
;
Structure prediction by ZEFSAII (Michael W. Deem and Ramdas Pophale) SiO2 
 PCOD9182258
Probable space group: C 2/M
;
_chemical_formula_sum "Si O2"
_cell_formula_units_Z 52
_cell_length_a 29.548235
_cell_length_b 18.753617
_cell_length_c 16.066517
_cell_angle_alpha 90.000000
_cell_angle_beta 17.243907
_cell_angle_gamma 90.000000
_cell_volume 2639.217299
_symmetry_space_group_name_H-M "C 2/M"
_symmetry_group_IT_number 12
_symmetry_cell_setting 'monoclinic'
loop_
_space_group_symop_operation_xyz
x,y,z
-x,y,-z
-x,-y,-z
x,-y,z
1/2+x,1/2+y,z
1/2-x,1/2+y,-z
1/2-x,1/2-y,-z
1/2+x,1/2-y,z
loop_
_atom_site_type_symbol
_atom_site_label
_atom_site_fract_x
_atom_site_fract_y
_atom_site_fract_z
Si Si1 0.054875 0.710382 0.719004
Si Si2 0.374480 0.920580 0.982504
Si Si3 0.919888 0.914462 0.882630
Si Si4 0.750896 0.287039 0.768906
Si Si5 0.911975 0.158894 0.568357
Si Si6 0.000000 0.319031 0.000000
Si Si7 0.771117 0.079209 0.578452
O O1 0.206795 0.727583 0.401967
O O2 0.043094 0.719919 0.838279
O O3 0.014782 0.629692 0.760929
O O4 0.916061 0.754701 0.924264
O O5 0.250806 0.882565 0.140576
O O6 0.284324 0.925234 0.228552
O O7 0.415118 0.000000 0.883923
O O8 0.987172 0.881982 0.678552
O O9 0.051010 0.901194 0.723436
O O10 0.900983 0.000000 0.909628
O O11 0.770112 0.869213 0.169741
O O12 0.868444 0.238659 0.614162
O O13 0.000000 0.159720 0.500000
O O14 0.849448 0.367801 0.250186
O O15 0.758749 0.000000 0.562601
#
# Coordination Sequence:
#
# PCOD9182258 Si02
#       7
#     8   8   8   8   8   4   8
#     4  10  22  37  59  83 119 161 204 248 307 358
#     4   8  16  32  54  83 116 149 190 243 299 356
#     4  10  21  39  62  87 123 163 202 250 304 357
#     4  11  22  42  59  85 123 165 203 244 307 375
#     4  10  20  36  64  90 117 159 208 248 297 367
#     4  10  19  32  58  92 113 152 210 264 286 348
#     4   8  15  31  54  81 116 154 189 237 299 355
#
# _framework density 19.702811000000001
#
# number of rings (size 3 to 8) (size 9 to 14) (size 15 to 20)
#    0.000    2.462    1.538    2.538    0.000    3.692 
#    0.000    0.000    0.000    2.308    0.000    0.000 
#    0.000    0.000    0.000    0.000    0.000    0.000 
#
# Total GULP energy -144805.344521 kJ/mol
# GULP energy per Si atom -5569.436328 kJ/mol
# Density = 1.965797 g / cm^3
# Si number density = 19.702811 Si / 1000 Ang^3
#
#
#
# Elastic Constant Matrix: (Units=GPa)
#
#
# Indices 1 2 3 4 5 6 
#
# 1 87.7604 27.3461 13.0917 -0.0001 -6.1338 0.0000
# 2 27.3461 93.7791 24.6025 -0.0009 -4.1117 0.0008
# 3 13.0917 24.6025 50.9554 -0.0001 14.0553 0.0002
# 4 -0.0001 -0.0009 -0.0001 25.6847 0.0003 0.7219
# 5 -6.1338 -4.1117 14.0553 0.0003 19.1662 -0.0004
# 6 0.0000 0.0008 0.0002 0.7219 -0.0004 13.7511
#
#
#
# Elastic Compliance Matrix: (Units=1/GPa)
#
#
# Indices 1 2 3 4 5 6 
#
# 1 0.013243 -0.002515 -0.004022 0.000000 0.006648 0.000000
# 2 -0.002515 0.013967 -0.008401 0.000000 0.008353 0.000000
# 3 -0.004022 -0.008401 0.032050 0.000000 -0.026593 -0.000001
# 4 0.000000 0.000000 0.000000 0.038991 -0.000001 -0.002047
# 5 0.006648 0.008353 -0.026593 -0.000001 0.075597 0.000002
# 6 0.000000 0.000000 -0.000001 -0.002047 0.000002 0.072829
#
#
# Mechanical properties :
#
#
# Convention : Reuss Voigt Hill
#
# Bulk Modulus (GPa) = 34.03280 40.28616 37.15948
# Shear Modulus (GPa) = 17.46129 22.88405 20.17267
#
# Velocity S-wave (km/s) = 2.98020 3.41172 3.20323
# Velocity P-wave (km/s) = 5.39932 6.00092 5.70805
#
# Compressibility (1/GPa) = 0.02938342
#
# Stress axis : x y z
#
# Youngs Moduli (GPa) = 75.51175 71.59721 31.20122
#
# Poissons Ratio (x) = 0.18007 0.12549
# Poissons Ratio (y) = 0.18992 0.26213
# Poissons Ratio (z) = 0.30370 0.60151
#
# Static dielectric constant tensor:
#      x y z
#    x 1.671290 0.000000 -0.007740 
#    y 0.000000 1.793570 0.000000 
#    z -0.007740 0.000000 1.717810 
# 
# From -- ./inp_files/247176.got.cif
#   From: 2010.05.17/outbox.cif.g08.bks.cpg/sg12_124_cif.got.tgz:247176.got - 2010.06.03 13:09:07.
