data_PCOD9182851
_publ_section_title
;
Structure prediction by ZEFSAII (Michael W. Deem and Ramdas Pophale) SiO2 
 PCOD9182851
Probable space group: C 2/M
;
_chemical_formula_sum "Si O2"
_cell_formula_units_Z 64
_cell_length_a 21.029378
_cell_length_b 8.973569
_cell_length_c 20.420885
_cell_angle_alpha 90.000000
_cell_angle_beta 103.421683
_cell_angle_gamma 90.000000
_cell_volume 3748.347090
_symmetry_space_group_name_H-M "C 2/M"
_symmetry_group_IT_number 12
_symmetry_cell_setting 'monoclinic'
loop_
_space_group_symop_operation_xyz
x,y,z
-x,y,-z
-x,-y,-z
x,-y,z
1/2+x,1/2+y,z
1/2-x,1/2+y,-z
1/2-x,1/2-y,-z
1/2+x,1/2-y,z
loop_
_atom_site_type_symbol
_atom_site_label
_atom_site_fract_x
_atom_site_fract_y
_atom_site_fract_z
Si Si1 0.943215 0.179651 0.035532
Si Si2 0.675248 0.321925 0.674650
Si Si3 0.798058 0.820078 0.957975
Si Si4 0.556061 0.821619 0.459663
Si Si5 0.806496 0.821642 0.469891
Si Si6 0.782837 0.321584 0.185316
Si Si7 0.070738 0.322211 0.829300
Si Si8 0.462966 0.179266 0.321830
O O1 0.951060 0.241648 0.110373
O O2 0.944476 0.000000 0.038488
O O3 0.872048 0.224967 0.991361
O O4 0.000000 0.229636 0.000000
O O5 0.671662 0.500000 0.678769
O O6 0.700975 0.282074 0.608786
O O7 0.717261 0.257687 0.744756
O O8 0.602534 0.254646 0.665980
O O9 0.772795 0.778065 0.879637
O O10 0.793534 0.000000 0.961311
O O11 0.750000 0.750000 0.000000
O O12 0.500000 0.788124 0.500000
O O13 0.622675 0.737385 0.490798
O O14 0.524345 0.783537 0.381879
O O15 0.567902 0.000000 0.465034
O O16 0.750000 0.750000 0.500000
O O17 0.804297 0.000000 0.474922
O O18 0.780960 0.500000 0.194845
O O19 0.853113 0.287331 0.168444
O O20 0.066078 0.500000 0.837338
O O21 0.032287 0.281218 0.753642
O O22 0.453250 0.000000 0.323163
#
# Coordination Sequence:
#
# PCOD9182851 Si02
#       8
#     8   8   8   8   8   8   8   8
#     4  10  21  35  51  74 106 140 171 211 265 319
#     4  10  20  33  52  80 109 138 176 225 272 315
#     4  10  19  33  53  77 105 136 175 221 262 311
#     4  10  19  34  59  85 110 145 184 222 270 326
#     4  11  24  39  56  80 113 149 185 229 276 328
#     4   9  18  32  52  77 104 135 174 220 266 318
#     4   9  17  31  51  76 105 136 173 214 257 308
#     4   9  18  33  54  81 111 141 174 217 267 323
#
# _framework density 17.074192
#
# number of rings (size 3 to 8) (size 9 to 14) (size 15 to 20)
#    0.000    2.250    2.500    1.500    0.000    5.000 
#    0.000    1.250    0.000    3.000    0.000    0.000 
#    0.000    0.000    0.000    0.000    0.000    0.000 
#
# Total GULP energy -178510.947600 kJ/mol
# GULP energy per Si atom -5578.467113 kJ/mol
# Density = 1.703533 g / cm^3
# Si number density = 17.074192 Si / 1000 Ang^3
#
#
#
# Elastic Constant Matrix: (Units=GPa)
#
#
# Indices 1 2 3 4 5 6 
#
# 1 106.6071 37.9218 84.7874 0.0000 -8.1989 0.0000
# 2 37.9218 25.5425 52.5655 0.0000 -5.4246 0.0000
# 3 84.7874 52.5655 187.1899 0.0000 -5.6242 0.0000
# 4 0.0000 0.0000 0.0000 30.7390 0.0000 -3.2610
# 5 -8.1989 -5.4246 -5.6242 0.0000 24.1769 0.0000
# 6 0.0000 0.0000 0.0000 -3.2610 0.0000 19.7421
#
#
#
# Elastic Compliance Matrix: (Units=1/GPa)
#
#
# Indices 1 2 3 4 5 6 
#
# 1 0.020115 -0.026134 -0.001756 0.000000 0.000549 0.000000
# 2 -0.026134 0.132326 -0.024869 0.000000 0.015042 0.000000
# 3 -0.001756 -0.024869 0.013027 0.000000 -0.003145 0.000000
# 4 0.000000 0.000000 0.000000 0.033112 0.000000 0.005469
# 5 0.000549 0.015042 -0.003145 0.000000 0.044191 0.000000
# 6 0.000000 0.000000 0.000000 0.005469 0.000000 0.051557
#
#
# Mechanical properties :
#
#
# Convention : Reuss Voigt Hill
#
# Bulk Modulus (GPa) = 16.68095 74.43210 45.55652
# Shear Modulus (GPa) = 11.90960 24.53593 18.22276
#
# Velocity S-wave (km/s) = 2.64393 3.79491 3.27045
# Velocity P-wave (km/s) = 4.37165 7.93031 6.40317
#
# Compressibility (1/GPa) = 0.05994863
#
# Stress axis : x y z
#
# Youngs Moduli (GPa) = 49.71339 7.55712 76.76556
#
# Poissons Ratio (x) = 0.19750 0.13479
# Poissons Ratio (y) = 1.29922 1.90912
# Poissons Ratio (z) = 0.08729 0.18794
#
# Static dielectric constant tensor:
#      x y z
#    x 1.546490 0.000000 0.013200 
#    y 0.000000 1.571560 0.000000 
#    z 0.013200 0.000000 1.591750 
# 
# From -- ./inp_files/319200.got.cif
#   From: 2010.05.17/outbox.cif.g08.bks.cpg/sg12_160_cif.got.tgz:319200.got - 2010.06.03 13:09:07.
