data_PCOD9182643
_publ_section_title
;
Structure prediction by ZEFSAII (Michael W. Deem and Ramdas Pophale) SiO2 
 PCOD9182643
Probable space group: C 2/M
;
_chemical_formula_sum "Si O2"
_cell_formula_units_Z 56
_cell_length_a 22.479327
_cell_length_b 21.757036
_cell_length_c 6.087867
_cell_angle_alpha 90.000000
_cell_angle_beta 48.579104
_cell_angle_gamma 90.000000
_cell_volume 2232.719039
_symmetry_space_group_name_H-M "C 2/M"
_symmetry_group_IT_number 12
_symmetry_cell_setting 'monoclinic'
loop_
_space_group_symop_operation_xyz
x,y,z
-x,y,-z
-x,-y,-z
x,-y,z
1/2+x,1/2+y,z
1/2-x,1/2+y,-z
1/2-x,1/2-y,-z
1/2+x,1/2-y,z
loop_
_atom_site_type_symbol
_atom_site_label
_atom_site_fract_x
_atom_site_fract_y
_atom_site_fract_z
Si Si1 0.577491 0.732453 0.704478
Si Si2 0.411541 0.070012 0.844335
Si Si3 0.731353 0.600718 0.319759
Si Si4 0.721626 0.176715 0.421199
Si Si5 0.373521 0.341606 0.796465
Si Si6 0.420640 0.402855 0.084860
Si Si7 0.896584 0.425225 0.384110
O O1 0.652761 0.775202 0.550115
O O2 0.576397 0.709114 0.456435
O O3 0.583087 0.667469 0.816095
O O4 0.500000 0.762983 0.000000
O O5 0.314597 0.069036 0.072332
O O6 0.428160 0.092562 0.057794
O O7 0.437756 0.000000 0.793659
O O8 0.432462 0.092636 0.540561
O O9 0.760105 0.663383 0.369825
O O10 0.678073 0.617887 0.244498
O O11 0.665204 0.570336 0.641238
O O12 0.686516 0.111723 0.418850
O O13 0.804320 0.191564 0.104151
O O14 0.422472 0.389343 0.823524
O O15 0.500000 0.429601 0.000000
O O16 0.890169 0.500000 0.400343
#
# Coordination Sequence:
#
# PCOD9182643 Si02
#       7
#     8   8   8   8   8   8   8
#     4  10  22  35  49  73 107 146 181 219 271 325
#     4   9  16  29  49  78 109 136 171 223 280 329
#     4   9  18  30  50  78 102 132 175 224 271 317
#     4  10  19  33  52  78 109 135 181 228 272 320
#     4  10  19  34  54  74 100 138 185 224 270 319
#     4   9  20  35  50  69  99 138 179 220 265 323
#     4   9  17  30  52  79 109 138 174 227 281 327
#
# _framework density 25.081524999999999
#
# number of rings (size 3 to 8) (size 9 to 14) (size 15 to 20)
#    0.000    2.571    1.429    0.429    0.000   11.429 
#    0.000    0.000    0.000    0.857    0.000    1.000 
#    0.000    6.857    0.000    0.000    0.000    1.143 
#
# Total GULP energy -155996.215385 kJ/mol
# GULP energy per Si atom -5571.293407 kJ/mol
# Density = 2.502444 g / cm^3
# Si number density = 25.081525 Si / 1000 Ang^3
#
#
#
# Elastic Constant Matrix: (Units=GPa)
#
#
# Indices 1 2 3 4 5 6 
#
# 1 170.4729 29.0160 62.3359 0.0000 28.5286 0.0000
# 2 29.0160 62.1244 20.7569 0.0000 -1.5346 0.0000
# 3 62.3359 20.7569 186.4050 0.0000 3.5804 0.0000
# 4 0.0000 0.0000 0.0000 9.1672 0.0000 -1.0274
# 5 28.5286 -1.5346 3.5804 0.0000 43.0200 0.0000
# 6 0.0000 0.0000 0.0000 -1.0274 0.0000 8.2239
#
#
#
# Elastic Compliance Matrix: (Units=1/GPa)
#
#
# Indices 1 2 3 4 5 6 
#
# 1 0.008121 -0.003169 -0.002261 0.000000 -0.005310 0.000000
# 2 -0.003169 0.017980 -0.000997 0.000000 0.002826 0.000000
# 3 -0.002261 -0.000997 0.006214 0.000000 0.000947 0.000000
# 4 0.000000 0.000000 0.000000 0.110633 0.000000 0.013821
# 5 -0.005310 0.002826 0.000947 0.000000 0.026788 0.000000
# 6 0.000000 0.000000 0.000000 0.013821 0.000000 0.123323
#
#
# Mechanical properties :
#
#
# Convention : Reuss Voigt Hill
#
# Bulk Modulus (GPa) = 51.38395 71.46887 61.42641
# Shear Modulus (GPa) = 16.00520 32.54180 24.27350
#
# Velocity S-wave (km/s) = 2.52886 3.60591 3.11430
# Velocity P-wave (km/s) = 5.39055 6.77446 6.12174
#
# Compressibility (1/GPa) = 0.01946133
#
# Stress axis : x y z
#
# Youngs Moduli (GPa) = 123.14174 55.61881 160.93950
#
# Poissons Ratio (x) = 0.17624 0.36386
# Poissons Ratio (y) = 0.39020 0.16041
# Poissons Ratio (z) = 0.27840 0.05544
#
# Static dielectric constant tensor:
#      x y z
#    x 2.097430 0.000000 0.024390 
#    y 0.000000 1.942640 0.000000 
#    z 0.024390 0.000000 2.218910 
# 
# From -- ./inp_files/29746.got.cif
#   From: 2010.05.17/outbox.cif.g08.bks.cpg/sg12_15_cif.got.tgz:29746.got - 2010.06.03 13:09:07.
