data_PCOD9182105
_publ_section_title
;
Structure prediction by ZEFSAII (Michael W. Deem and Ramdas Pophale) SiO2 
 PCOD9182105
Probable space group: C 2/M
;
_chemical_formula_sum "Si O2"
_cell_formula_units_Z 40
_cell_length_a 21.278165
_cell_length_b 7.791468
_cell_length_c 22.628396
_cell_angle_alpha 90.000000
_cell_angle_beta 143.539636
_cell_angle_gamma 90.000000
_cell_volume 2229.402695
_symmetry_space_group_name_H-M "C 2/M"
_symmetry_group_IT_number 12
_symmetry_cell_setting 'monoclinic'
loop_
_space_group_symop_operation_xyz
x,y,z
-x,y,-z
-x,-y,-z
x,-y,z
1/2+x,1/2+y,z
1/2-x,1/2+y,-z
1/2-x,1/2-y,-z
1/2+x,1/2-y,z
loop_
_atom_site_type_symbol
_atom_site_label
_atom_site_fract_x
_atom_site_fract_y
_atom_site_fract_z
Si Si1 0.603613 0.500000 0.659830
Si Si2 0.163620 0.203835 0.984425
Si Si3 0.836632 0.706574 0.205205
Si Si4 0.738777 0.692722 0.423546
Si Si5 0.355108 0.500000 0.446178
Si Si6 0.492512 0.197806 0.769085
O O1 0.639769 0.330472 0.722660
O O2 0.476536 0.500000 0.559143
O O3 0.646880 0.500000 0.626095
O O4 0.056127 0.284208 0.878688
O O5 0.149247 0.000000 0.973907
O O6 0.250000 0.250000 0.000000
O O7 0.222577 0.250746 0.089684
O O8 0.839394 0.500000 0.218862
O O9 0.925894 0.742068 0.222214
O O10 0.780965 0.500000 0.448246
O O11 0.750000 0.750000 0.500000
O O12 0.798479 0.831758 0.429145
O O13 0.614380 0.696514 0.314414
O O14 0.462324 0.000000 0.737650
#
# Coordination Sequence:
#
# PCOD9182105 Si02
#       6
#     4   8   8   8   4   8
#     4  11  24  40  65  75 119 159 193 239 282 353
#     4   9  17  28  47  83 120 150 189 235 289 339
#     4   9  20  34  56  88 117 153 195 234 285 345
#     4  12  23  39  62  86 119 149 187 241 292 347
#     4  11  26  44  55  93 111 150 203 235 290 348
#     4  10  19  32  55  89 123 149 188 241 295 344
#
# _framework density 17.942024
#
# number of rings (size 3 to 8) (size 9 to 14) (size 15 to 20)
#    0.000    1.800    2.000    3.600    8.400    3.200 
#    0.000    2.000    0.000    2.400    0.000    4.200 
#    0.000    0.000    0.000    0.000    0.000    0.000 
#
# Total GULP energy -111582.388921 kJ/mol
# GULP energy per Si atom -5579.119446 kJ/mol
# Density = 1.790119 g / cm^3
# Si number density = 17.942024 Si / 1000 Ang^3
#
#
#
# Elastic Constant Matrix: (Units=GPa)
#
#
# Indices 1 2 3 4 5 6 
#
# 1 77.1630 57.9116 57.0854 0.0000 -12.2781 0.0000
# 2 57.9116 116.6137 53.1034 0.0000 -13.4191 0.0000
# 3 57.0854 53.1034 127.5522 0.0000 -17.8505 0.0000
# 4 0.0000 0.0000 0.0000 30.5518 0.0000 -2.3692
# 5 -12.2781 -13.4191 -17.8505 0.0000 23.5162 0.0000
# 6 0.0000 0.0000 0.0000 -2.3692 0.0000 23.1601
#
#
#
# Elastic Compliance Matrix: (Units=1/GPa)
#
#
# Indices 1 2 3 4 5 6 
#
# 1 0.025602 -0.009083 -0.007308 0.000000 0.002637 0.000000
# 2 -0.009083 0.013998 -0.001464 0.000000 0.002134 0.000000
# 3 -0.007308 -0.001464 0.012385 0.000000 0.004750 0.000000
# 4 0.000000 0.000000 0.000000 0.032993 0.000000 0.003375
# 5 0.002637 0.002134 0.004750 0.000000 0.048724 0.000000
# 6 0.000000 0.000000 0.000000 0.003375 0.000000 0.043523
#
#
# Mechanical properties :
#
#
# Convention : Reuss Voigt Hill
#
# Bulk Modulus (GPa) = 61.44120 73.05887 67.25004
# Shear Modulus (GPa) = 22.89786 25.66085 24.27935
#
# Velocity S-wave (km/s) = 3.57629 3.78591 3.68259
# Velocity P-wave (km/s) = 7.16741 7.74071 7.45957
#
# Compressibility (1/GPa) = 0.01627572
#
# Stress axis : x y z
#
# Youngs Moduli (GPa) = 39.05879 71.43649 80.74466
#
# Poissons Ratio (x) = 0.64887 0.59005
# Poissons Ratio (y) = 0.35478 0.11822
# Poissons Ratio (z) = 0.28543 0.10459
#
# Static dielectric constant tensor:
#      x y z
#    x 1.575090 0.000000 0.002650 
#    y 0.000000 1.626000 0.000000 
#    z 0.002650 0.000000 1.647320 
# 
# From -- ./inp_files/314550.got.cif
#   From: 2010.05.17/outbox.cif.g08.bks.cpg/sg12_158_cif.got.tgz:314550.got - 2010.06.03 13:09:07.
