data_PCOD9182564
_publ_section_title
;
Structure prediction by ZEFSAII (Michael W. Deem and Ramdas Pophale) SiO2 
 PCOD9182564
Probable space group: C 2/M
;
_chemical_formula_sum "Si O2"
_cell_formula_units_Z 56
_cell_length_a 9.936674
_cell_length_b 26.085400
_cell_length_c 16.054938
_cell_angle_alpha 90.000000
_cell_angle_beta 55.862651
_cell_angle_gamma 90.000000
_cell_volume 3444.429888
_symmetry_space_group_name_H-M "C 2/M"
_symmetry_group_IT_number 12
_symmetry_cell_setting 'monoclinic'
loop_
_space_group_symop_operation_xyz
x,y,z
-x,y,-z
-x,-y,-z
x,-y,z
1/2+x,1/2+y,z
1/2-x,1/2+y,-z
1/2-x,1/2-y,-z
1/2+x,1/2-y,z
loop_
_atom_site_type_symbol
_atom_site_label
_atom_site_fract_x
_atom_site_fract_y
_atom_site_fract_z
Si Si1 0.257126 0.334838 0.784306
Si Si2 0.375116 0.943125 0.912429
Si Si3 0.586346 0.821532 0.559200
Si Si4 0.564149 0.846992 0.217806
Si Si5 0.559369 0.297748 0.573916
Si Si6 0.260980 0.942698 0.134856
Si Si7 0.189626 0.759461 0.927742
O O1 0.414011 0.315756 0.681569
O O2 0.304369 0.390685 0.803097
O O3 0.207785 0.294143 0.872203
O O4 0.101617 0.336872 0.776915
O O5 0.365245 0.898937 0.847575
O O6 0.556737 0.943552 0.889235
O O7 0.343098 0.000000 0.889589
O O8 0.268010 0.935410 0.032666
O O9 0.500000 0.826316 0.500000
O O10 0.492638 0.850132 0.666260
O O11 0.588998 0.761725 0.586449
O O12 0.777514 0.831536 0.478884
O O13 0.695102 0.801854 0.156172
O O14 0.500000 0.298265 0.500000
O O15 0.192425 0.000000 0.175472
O O16 0.250000 0.750000 0.000000
O O17 0.000000 0.774626 0.000000
#
# Coordination Sequence:
#
# PCOD9182564 Si02
#       7
#     8   8   8   8   8   8   8
#     4  11  20  32  54  76 108 143 173 213 267 314
#     4   8  15  29  51  75 100 135 178 213 250 310
#     4  10  21  33  51  73 104 136 180 219 254 310
#     4  11  20  34  53  76 106 142 173 215 267 313
#     4  10  19  33  52  74  99 137 180 219 256 306
#     4   8  15  28  48  76 105 134 171 215 259 305
#     4  12  24  34  49  78 114 142 172 209 261 318
#
# _framework density 16.258133999999998
#
# number of rings (size 3 to 8) (size 9 to 14) (size 15 to 20)
#    0.000    2.000    4.286    1.714    2.000    1.143 
#    0.000    0.000    0.000    2.143    0.000    2.000 
#    0.000    0.000    0.000    0.000    0.000    0.000 
#
# Total GULP energy -155919.486162 kJ/mol
# GULP energy per Si atom -5568.553077 kJ/mol
# Density = 1.622113 g / cm^3
# Si number density = 16.258134 Si / 1000 Ang^3
#
#
#
# Elastic Constant Matrix: (Units=GPa)
#
#
# Indices 1 2 3 4 5 6 
#
# 1 51.0569 12.5391 25.8329 0.0000 -6.0946 0.0000
# 2 12.5391 81.0415 36.4390 0.0000 4.5333 0.0000
# 3 25.8329 36.4390 88.5992 0.0000 -1.0723 0.0000
# 4 0.0000 0.0000 0.0000 73.9380 0.0000 19.5985
# 5 -6.0946 4.5333 -1.0723 0.0000 28.4805 0.0000
# 6 0.0000 0.0000 0.0000 19.5985 0.0000 15.3820
#
#
#
# Elastic Compliance Matrix: (Units=1/GPa)
#
#
# Indices 1 2 3 4 5 6 
#
# 1 0.023686 -0.001063 -0.006409 0.000000 0.004996 0.000000
# 2 -0.001063 0.015388 -0.006054 0.000000 -0.002905 0.000000
# 3 -0.006409 -0.006054 0.015648 0.000000 0.000181 0.000000
# 4 0.000000 0.000000 0.000000 0.020422 0.000000 -0.026020
# 5 0.004996 -0.002905 0.000181 0.000000 0.036650 0.000000
# 6 0.000000 0.000000 0.000000 -0.026020 0.000000 0.098164
#
#
# Mechanical properties :
#
#
# Convention : Reuss Voigt Hill
#
# Bulk Modulus (GPa) = 36.13921 41.14662 38.64291
# Shear Modulus (GPa) = 20.30601 33.28587 26.79594
#
# Velocity S-wave (km/s) = 3.53792 4.52966 4.06415
# Velocity P-wave (km/s) = 6.24226 7.26088 6.77075
#
# Compressibility (1/GPa) = 0.02767078
#
# Stress axis : x y z
#
# Youngs Moduli (GPa) = 42.21915 64.98365 63.90793
#
# Poissons Ratio (x) = 0.06906 0.40956
# Poissons Ratio (y) = 0.04487 0.38691
# Poissons Ratio (z) = 0.27056 0.39343
#
# Static dielectric constant tensor:
#      x y z
#    x 1.785200 0.000000 -0.011160 
#    y 0.000000 1.563750 0.000000 
#    z -0.011160 0.000000 1.542960 
# 
# From -- ./inp_files/199671.got.cif
#   From: 2010.05.17/outbox.cif.g08.bks.cpg/sg12_100_cif.got.tgz:199671.got - 2010.06.03 13:09:07.
