data_PCOD9182421
_publ_section_title
;
Structure prediction by ZEFSAII (Michael W. Deem and Ramdas Pophale) SiO2 
 PCOD9182421
Probable space group: C 2/M
;
_chemical_formula_sum "Si O2"
_cell_formula_units_Z 56
_cell_length_a 34.524655
_cell_length_b 7.577399
_cell_length_c 15.607386
_cell_angle_alpha 90.000000
_cell_angle_beta 46.131583
_cell_angle_gamma 90.000000
_cell_volume 2943.572356
_symmetry_space_group_name_H-M "C 2/M"
_symmetry_group_IT_number 12
_symmetry_cell_setting 'monoclinic'
loop_
_space_group_symop_operation_xyz
x,y,z
-x,y,-z
-x,-y,-z
x,-y,z
1/2+x,1/2+y,z
1/2-x,1/2+y,-z
1/2-x,1/2-y,-z
1/2+x,1/2-y,z
loop_
_atom_site_type_symbol
_atom_site_label
_atom_site_fract_x
_atom_site_fract_y
_atom_site_fract_z
Si Si1 0.923484 0.212383 0.555160
Si Si2 0.458500 0.283843 0.685383
Si Si3 0.149559 0.291364 0.485469
Si Si4 0.119571 0.214728 0.841189
Si Si5 0.060780 0.292182 0.755170
Si Si6 0.059860 0.796156 0.099587
Si Si7 0.239105 0.788428 0.616209
O O1 0.926268 0.270554 0.649730
O O2 0.873878 0.268261 0.573207
O O3 0.979450 0.270546 0.424850
O O4 0.924459 0.000000 0.554267
O O5 0.458847 0.500000 0.686808
O O6 0.437252 0.219152 0.809142
O O7 0.152541 0.500000 0.499186
O O8 0.105360 0.219575 0.620380
O O9 0.209102 0.220027 0.411350
O O10 0.083491 0.268603 0.815601
O O11 0.180508 0.277935 0.733120
O O12 0.119174 0.000000 0.842642
O O13 0.094271 0.280379 0.968963
O O14 0.053591 0.500000 0.749233
O O15 0.002751 0.207984 0.830766
O O16 0.076914 0.000000 0.081182
O O17 0.250000 0.750000 0.500000
O O18 0.236723 0.000000 0.630534
#
# Coordination Sequence:
#
# PCOD9182421 Si02
#       7
#     8   8   8   8   8   8   8
#     4   9  16  29  50  73  93 122 158 195 238 282
#     4   8  15  28  48  72  97 120 152 197 239 278
#     4  10  20  32  47  70 100 127 155 195 242 285
#     4  10  21  34  51  71  93 128 170 200 232 280
#     4  11  21  32  47  71 102 133 158 190 241 292
#     4  10  19  33  51  72  98 128 160 198 238 284
#     4  10  20  35  51  69  94 126 165 204 237 275
#
# _framework density 19.024501999999998
#
# number of rings (size 3 to 8) (size 9 to 14) (size 15 to 20)
#    0.000    2.286    2.857    1.714    0.000    3.429 
#    0.000    2.143    0.000    0.857    0.000    0.000 
#    0.000    0.000    0.000    0.000    0.000    0.000 
#
# Total GULP energy -156254.847640 kJ/mol
# GULP energy per Si atom -5580.530273 kJ/mol
# Density = 1.898120 g / cm^3
# Si number density = 19.024502 Si / 1000 Ang^3
#
#
#
# Elastic Constant Matrix: (Units=GPa)
#
#
# Indices 1 2 3 4 5 6 
#
# 1 128.9556 -15.9433 62.8470 -0.0002 20.5307 -0.0001
# 2 -15.9433 41.2871 -5.0177 -0.0006 -1.6697 -0.0016
# 3 62.8470 -5.0177 128.6283 0.0002 18.1813 0.0003
# 4 -0.0002 -0.0006 0.0002 1.5231 0.0001 0.3339
# 5 20.5307 -1.6697 18.1813 0.0001 24.9231 0.0000
# 6 -0.0001 -0.0016 0.0003 0.3339 0.0000 17.7543
#
#
#
# Elastic Compliance Matrix: (Units=1/GPa)
#
#
# Indices 1 2 3 4 5 6 
#
# 1 0.011355 0.003593 -0.004593 0.000004 -0.005762 0.000000
# 2 0.003593 0.025498 -0.000651 0.000010 -0.000777 0.000002
# 3 -0.004593 -0.000651 0.010553 -0.000002 -0.003958 0.000000
# 4 0.000004 0.000010 -0.000002 0.659263 -0.000002 -0.012397
# 5 -0.005762 -0.000777 -0.003958 -0.000002 0.047705 0.000000
# 6 0.000000 0.000002 0.000000 -0.012397 0.000000 0.056557
#
#
# Mechanical properties :
#
#
# Convention : Reuss Voigt Hill
#
# Bulk Modulus (GPa) = 22.67421 42.51591 32.59506
# Shear Modulus (GPa) = 6.03184 25.97243 16.00214
#
# Velocity S-wave (km/s) = 1.78254 3.69888 2.90338
# Velocity P-wave (km/s) = 4.02255 6.37486 5.33009
#
# Compressibility (1/GPa) = 0.04410296
#
# Stress axis : x y z
#
# Youngs Moduli (GPa) = 88.06855 39.21923 94.76322
#
# Poissons Ratio (x) = -0.14093 0.43527
# Poissons Ratio (y) = -0.31647 0.06172
# Poissons Ratio (z) = 0.40452 0.02554
#
# Static dielectric constant tensor:
#      x y z
#    x 1.651540 0.000000 0.006770 
#    y 0.000000 1.718710 0.000000 
#    z 0.006770 0.000000 1.664910 
# 
# From -- ./inp_files/242983.got.cif
#   From: 2010.05.17/outbox.cif.g08.bks.cpg/sg12_122_cif.got.tgz:242983.got - 2010.06.03 13:09:07.
