data_PCOD9182792
_publ_section_title
;
Structure prediction by ZEFSAII (Michael W. Deem and Ramdas Pophale) SiO2 
 PCOD9182792
Probable space group: C 2/M
;
_chemical_formula_sum "Si O2"
_cell_formula_units_Z 64
_cell_length_a 9.947131
_cell_length_b 12.800561
_cell_length_c 19.642383
_cell_angle_alpha 90.000000
_cell_angle_beta 73.735426
_cell_angle_gamma 90.000000
_cell_volume 2400.947082
_symmetry_space_group_name_H-M "C 2/M"
_symmetry_group_IT_number 12
_symmetry_cell_setting 'monoclinic'
loop_
_space_group_symop_operation_xyz
x,y,z
-x,y,-z
-x,-y,-z
x,-y,z
1/2+x,1/2+y,z
1/2-x,1/2+y,-z
1/2-x,1/2-y,-z
1/2+x,1/2-y,z
loop_
_atom_site_type_symbol
_atom_site_label
_atom_site_fract_x
_atom_site_fract_y
_atom_site_fract_z
Si Si1 0.171771 0.337884 0.362003
Si Si2 0.456527 0.840416 0.759630
Si Si3 0.800650 0.377313 0.494370
Si Si4 0.082777 0.173351 0.887169
Si Si5 0.452771 0.384126 0.254621
Si Si6 0.235779 0.385288 0.652447
Si Si7 0.202399 0.118385 0.015864
Si Si8 0.019775 0.618471 0.093258
O O1 0.110347 0.380453 0.300461
O O2 0.124854 0.376936 0.442348
O O3 0.337412 0.363928 0.329537
O O4 0.159133 0.211818 0.363727
O O5 0.445081 0.714676 0.760160
O O6 0.620995 0.867166 0.726847
O O7 0.413537 0.878782 0.839915
O O8 0.732270 0.500000 0.507488
O O9 0.750000 0.250000 0.500000
O O10 0.844660 0.380826 0.409093
O O11 0.104095 0.297680 0.885138
O O12 0.121218 0.125827 0.809475
O O13 0.140570 0.124839 0.947704
O O14 0.913454 0.164772 0.917916
O O15 0.511601 0.500000 0.251400
O O16 0.299482 0.500000 0.649506
O O17 0.362804 0.150105 0.979428
O O18 0.208724 0.000000 0.036156
O O19 0.978018 0.500000 0.086358
#
# Coordination Sequence:
#
# PCOD9182792 Si02
#       8
#     8   8   8   8   8   8   8   8
#     4  10  20  34  53  77 103 135 172 213 256 304
#     4  10  21  34  51  76 104 133 170 211 254 302
#     4   9  18  33  53  77 105 137 174 217 264 312
#     4  10  19  33  53  76 101 128 166 210 248 293
#     4  10  20  34  52  75 103 134 168 209 255 304
#     4   9  19  35  53  74 103 136 170 210 258 308
#     4  10  19  33  55  78  98 128 167 205 247 295
#     4  10  21  35  51  72 102 135 165 202 250 298
#
# _framework density 26.656148000000002
#
# number of rings (size 3 to 8) (size 9 to 14) (size 15 to 20)
#    0.000    2.250    0.000    3.375    0.000    4.000 
#    0.000    2.500    0.000    9.000    0.000   12.250 
#    0.000    0.000    0.000    0.000    0.000    0.000 
#
# Total GULP energy -178364.479564 kJ/mol
# GULP energy per Si atom -5573.889986 kJ/mol
# Density = 2.659548 g / cm^3
# Si number density = 26.656148 Si / 1000 Ang^3
#
#
#
# Elastic Constant Matrix: (Units=GPa)
#
#
# Indices 1 2 3 4 5 6 
#
# 1 37.5820 25.8880 24.2921 0.0000 17.3293 0.0000
# 2 25.8880 153.4278 26.0245 0.0000 -16.4310 0.0000
# 3 24.2921 26.0245 192.9684 0.0000 11.6391 0.0000
# 4 0.0000 0.0000 0.0000 22.6522 0.0000 1.6618
# 5 17.3293 -16.4310 11.6391 0.0000 53.4347 0.0000
# 6 0.0000 0.0000 0.0000 1.6618 0.0000 -2.2112
#
#
#
# Elastic Compliance Matrix: (Units=1/GPa)
#
#
# Indices 1 2 3 4 5 6 
#
# 1 0.041173 -0.008026 -0.003188 0.000000 -0.015126 0.000000
# 2 -0.008026 0.008520 -0.000460 0.000000 0.005323 0.000000
# 3 -0.003188 -0.000460 0.005666 0.000000 -0.000342 0.000000
# 4 0.000000 0.000000 0.000000 0.041839 0.000000 0.031443
# 5 -0.015126 0.005323 -0.000342 0.000000 0.025331 0.000000
# 6 0.000000 0.000000 0.000000 0.031443 0.000000 -0.428610
#
#
# Mechanical properties :
#
#
# Convention : Reuss Voigt Hill
#
# Bulk Modulus (GPa) = 31.23967 59.59858 45.41913
# Shear Modulus (GPa) = -18.37819 35.29339 8.45760
#
# Velocity S-wave (km/s) = -2.62859 3.64266 1.78318
# Velocity P-wave (km/s) = 1.59131 6.33236 4.61688
#
# Compressibility (1/GPa) = 0.03201058
#
# Stress axis : x y z
#
# Youngs Moduli (GPa) = 24.28782 117.37053 176.48636
#
# Poissons Ratio (x) = 0.94204 0.56269
# Poissons Ratio (y) = 0.19494 0.08113
# Poissons Ratio (z) = 0.07744 0.05396
#
# Static dielectric constant tensor:
#      x y z
#    x 2.246600 0.000000 0.048060 
#    y 0.000000 2.097000 0.000000 
#    z 0.048060 0.000000 1.973420 
# 
# From -- ./inp_files/309900.got.cif
#   From: 2010.05.17/outbox.cif.g08.bks.cpg/sg12_155_cif.got.tgz:309900.got - 2010.06.03 13:09:07.
