data_PCOD9182926
_publ_section_title
;
Structure prediction by ZEFSAII (Michael W. Deem and Ramdas Pophale) SiO2 
 PCOD9182926
Probable space group: C 2/M
;
_chemical_formula_sum "Si O2"
_cell_formula_units_Z 40
_cell_length_a 20.787640
_cell_length_b 7.484946
_cell_length_c 23.764577
_cell_angle_alpha 90.000000
_cell_angle_beta 150.228951
_cell_angle_gamma 90.000000
_cell_volume 1836.006374
_symmetry_space_group_name_H-M "C 2/M"
_symmetry_group_IT_number 12
_symmetry_cell_setting 'monoclinic'
loop_
_space_group_symop_operation_xyz
x,y,z
-x,y,-z
-x,-y,-z
x,-y,z
1/2+x,1/2+y,z
1/2-x,1/2+y,-z
1/2-x,1/2-y,-z
1/2+x,1/2-y,z
loop_
_atom_site_type_symbol
_atom_site_label
_atom_site_fract_x
_atom_site_fract_y
_atom_site_fract_z
Si Si1 0.118481 0.219039 0.629827
Si Si2 0.381422 0.718168 0.240959
Si Si3 0.667604 0.785670 0.993883
Si Si4 0.123844 0.294427 0.233556
Si Si5 0.636933 0.287918 0.370171
O O1 0.103540 0.274515 0.683214
O O2 0.256346 0.282621 0.710231
O O3 0.000000 0.275814 0.500000
O O4 0.118380 0.000000 0.628621
O O5 0.382500 0.500000 0.241912
O O6 0.502454 0.776812 0.294944
O O7 0.250613 0.776621 0.110439
O O8 0.520719 0.714934 0.880344
O O9 0.659164 0.000000 0.990872
O O10 0.750000 0.750000 0.000000
O O11 0.112977 0.500000 0.206290
O O12 0.161147 0.292722 0.327548
O O13 0.626905 0.500000 0.354422
O O14 0.750000 0.250000 0.500000
#
# Coordination Sequence:
#
# PCOD9182926 Si02
#       5
#     8   8   8   8   8
#     4   9  17  31  51  76 108 141 177 222 267 314
#     4   9  18  32  52  77 105 141 178 218 269 314
#     4  10  19  33  53  79 109 138 177 224 267 317
#     4  10  20  33  54  81 106 138 178 222 269 317
#     4  11  21  34  54  78 106 140 180 222 265 317
#
# _framework density 21.786417
#
# number of rings (size 3 to 8) (size 9 to 14) (size 15 to 20)
#    0.000    2.200    2.000    1.800    0.000    4.000 
#    0.000    4.000    0.000    7.800    0.000    2.800 
#    0.000    0.000    0.000    0.000    0.000    0.000 
#
# Total GULP energy -111743.525581 kJ/mol
# GULP energy per Si atom -5587.176279 kJ/mol
# Density = 2.173683 g / cm^3
# Si number density = 21.786417 Si / 1000 Ang^3
#
#
#
# Elastic Constant Matrix: (Units=GPa)
#
#
# Indices 1 2 3 4 5 6 
#
# 1 74.1737 -0.3497 -16.2457 0.0000 -2.6543 0.0000
# 2 -0.3497 65.8661 0.1476 0.0000 5.6348 -0.0001
# 3 -16.2457 0.1476 82.3341 0.0001 -4.6391 0.0000
# 4 0.0000 0.0000 0.0001 6.8149 0.0000 -2.3223
# 5 -2.6543 5.6348 -4.6391 0.0000 43.6067 0.0000
# 6 0.0000 -0.0001 0.0000 -2.3223 0.0000 12.2627
#
#
#
# Elastic Compliance Matrix: (Units=1/GPa)
#
#
# Indices 1 2 3 4 5 6 
#
# 1 0.014150 -0.000031 0.002858 0.000000 0.001169 0.000000
# 2 -0.000031 0.015354 -0.000146 0.000000 -0.002001 0.000000
# 3 0.002858 -0.000146 0.012797 0.000000 0.001554 0.000000
# 4 0.000000 0.000000 0.000000 0.156861 0.000000 0.029707
# 5 0.001169 -0.002001 0.001554 0.000000 0.023427 0.000000
# 6 0.000000 0.000000 0.000000 0.029707 0.000000 0.087174
#
#
# Mechanical properties :
#
#
# Convention : Reuss Voigt Hill
#
# Bulk Modulus (GPa) = 20.98166 21.05315 21.01741
# Shear Modulus (GPa) = 15.61087 28.45831 22.03459
#
# Velocity S-wave (km/s) = 2.67973 3.61812 3.18369
# Velocity P-wave (km/s) = 4.38476 5.20949 4.81482
#
# Compressibility (1/GPa) = 0.04766066
#
# Stress axis : x y z
#
# Youngs Moduli (GPa) = 70.67387 65.13090 78.14110
#
# Poissons Ratio (x) = 0.00204 -0.22331
# Poissons Ratio (y) = 0.00221 0.01145
# Poissons Ratio (z) = -0.20197 0.00954
#
# Static dielectric constant tensor:
#      x y z
#    x 1.742090 0.000000 0.019110 
#    y 0.000000 1.885570 0.000000 
#    z 0.019110 0.000000 1.783470 
# 
# From -- ./inp_files/94128.got.cif
#   From: 2010.05.17/outbox.cif.g08.bks.cpg/sg12_48_cif.got.tgz:94128.got - 2010.06.03 13:09:07.
