data_PCOD9182251
_publ_section_title
;
Structure prediction by ZEFSAII (Michael W. Deem and Ramdas Pophale) SiO2 
 PCOD9182251
Probable space group: C 2/M
;
_chemical_formula_sum "Si O2"
_cell_formula_units_Z 56
_cell_length_a 25.952308
_cell_length_b 13.899081
_cell_length_c 12.052359
_cell_angle_alpha 90.000000
_cell_angle_beta 41.208109
_cell_angle_gamma 90.000000
_cell_volume 2864.079358
_symmetry_space_group_name_H-M "C 2/M"
_symmetry_group_IT_number 12
_symmetry_cell_setting 'monoclinic'
loop_
_space_group_symop_operation_xyz
x,y,z
-x,y,-z
-x,-y,-z
x,-y,z
1/2+x,1/2+y,z
1/2-x,1/2+y,-z
1/2-x,1/2-y,-z
1/2+x,1/2-y,z
loop_
_atom_site_type_symbol
_atom_site_label
_atom_site_fract_x
_atom_site_fract_y
_atom_site_fract_z
Si Si1 0.950342 0.233460 0.395496
Si Si2 0.149111 0.227367 0.231827
Si Si3 0.584730 0.111015 0.201332
Si Si4 0.730773 0.889440 0.824854
Si Si5 0.413354 0.386699 0.119361
Si Si6 0.692383 0.688448 0.517842
Si Si7 0.594770 0.386165 0.107644
O O1 0.918365 0.207531 0.568680
O O2 0.874282 0.246890 0.442131
O O3 0.007276 0.325244 0.311126
O O4 0.004105 0.146516 0.263928
O O5 0.135511 0.337437 0.216282
O O6 0.226012 0.189204 0.168004
O O7 0.136834 0.166854 0.140147
O O8 0.568438 0.000000 0.252441
O O9 0.639402 0.116254 0.003322
O O10 0.758006 0.868028 0.655631
O O11 0.755030 0.000000 0.813788
O O12 0.424345 0.500000 0.083129
O O13 0.357391 0.372930 0.313775
O O14 0.500000 0.344069 0.000000
O O15 0.378985 0.351656 0.057246
O O16 0.750000 0.750000 0.500000
O O17 0.603699 0.500000 0.105317
#
# Coordination Sequence:
#
# PCOD9182251 Si02
#       7
#     8   8   8   8   8   8   8
#     4  10  22  38  57  87 116 153 201 244 293 353
#     4  10  21  36  60  91 122 152 196 244 299 356
#     4  10  21  39  62  86 119 160 199 242 295 355
#     4  10  22  40  62  89 123 158 194 247 305 358
#     4  10  20  36  58  83 112 151 193 239 296 355
#     4  11  24  38  59  85 116 159 199 246 302 349
#     4  10  19  32  58  89 119 149 186 239 297 358
#
# _framework density 19.552529
#
# number of rings (size 3 to 8) (size 9 to 14) (size 15 to 20)
#    0.000    1.857    1.429    3.000    4.000    4.571 
#    0.000    1.429    0.000    2.571    0.000    0.000 
#    0.000    0.000    0.000    0.000    0.000    0.000 
#
# Total GULP energy -156141.760789 kJ/mol
# GULP energy per Si atom -5576.491457 kJ/mol
# Density = 1.950803 g / cm^3
# Si number density = 19.552529 Si / 1000 Ang^3
#
#
#
# Elastic Constant Matrix: (Units=GPa)
#
#
# Indices 1 2 3 4 5 6 
#
# 1 89.5956 22.7991 22.9594 0.0000 17.9497 0.0000
# 2 22.7991 81.4196 -8.0674 0.0000 4.5723 0.0000
# 3 22.9594 -8.0674 70.9609 0.0000 21.0791 0.0000
# 4 0.0000 0.0000 0.0000 24.7291 0.0000 5.1923
# 5 17.9497 4.5723 21.0791 0.0000 35.5087 0.0000
# 6 0.0000 0.0000 0.0000 5.1923 0.0000 17.6869
#
#
#
# Elastic Compliance Matrix: (Units=1/GPa)
#
#
# Indices 1 2 3 4 5 6 
#
# 1 0.014013 -0.004045 -0.003696 0.000000 -0.004369 0.000000
# 2 -0.004045 0.013851 0.003407 0.000000 -0.001761 0.000000
# 3 -0.003696 0.003407 0.018516 0.000000 -0.009562 0.000000
# 4 0.000000 0.000000 0.000000 0.043095 0.000000 -0.012651
# 5 -0.004369 -0.001761 -0.009562 0.000000 0.036273 0.000000
# 6 0.000000 0.000000 0.000000 -0.012651 0.000000 0.060253
#
#
# Mechanical properties :
#
#
# Convention : Reuss Voigt Hill
#
# Bulk Modulus (GPa) = 26.51725 35.26201 30.88963
# Shear Modulus (GPa) = 24.12665 29.20395 26.66530
#
# Velocity S-wave (km/s) = 3.51656 3.86892 3.69694
# Velocity P-wave (km/s) = 5.48450 6.16699 5.83573
#
# Compressibility (1/GPa) = 0.03771131
#
# Stress axis : x y z
#
# Youngs Moduli (GPa) = 71.36306 72.19639 54.00802
#
# Poissons Ratio (x) = 0.29202 0.19961
# Poissons Ratio (y) = 0.28865 -0.18398
# Poissons Ratio (z) = 0.26376 -0.24594
#
# Static dielectric constant tensor:
#      x y z
#    x 1.717360 0.000000 -0.002190 
#    y 0.000000 1.686710 0.000000 
#    z -0.002190 0.000000 1.720800 
# 
# From -- ./inp_files/183485.got.cif
#   From: 2010.05.17/outbox.cif.g08.bks.cpg/sg12_92_cif.got.tgz:183485.got - 2010.06.03 13:09:07.
