data_PCOD9182823
_publ_section_title
;
Structure prediction by ZEFSAII (Michael W. Deem and Ramdas Pophale) SiO2 
 PCOD9182823
Probable space group: C 2/M
;
_chemical_formula_sum "Si O2"
_cell_formula_units_Z 56
_cell_length_a 20.738184
_cell_length_b 13.169378
_cell_length_c 12.124883
_cell_angle_alpha 90.000000
_cell_angle_beta 111.902645
_cell_angle_gamma 90.000000
_cell_volume 3072.393384
_symmetry_space_group_name_H-M "C 2/M"
_symmetry_group_IT_number 12
_symmetry_cell_setting 'monoclinic'
loop_
_space_group_symop_operation_xyz
x,y,z
-x,y,-z
-x,-y,-z
x,-y,z
1/2+x,1/2+y,z
1/2-x,1/2+y,-z
1/2-x,1/2-y,-z
1/2+x,1/2-y,z
loop_
_atom_site_type_symbol
_atom_site_label
_atom_site_fract_x
_atom_site_fract_y
_atom_site_fract_z
Si Si1 0.049645 0.616193 0.137988
Si Si2 0.528294 0.734274 0.765956
Si Si3 0.575372 0.338153 0.578725
Si Si4 0.890461 0.879225 0.635772
Si Si5 0.786137 0.109992 0.220505
Si Si6 0.677948 0.729146 0.210175
Si Si7 0.650641 0.381132 0.966422
O O1 0.069865 0.500000 0.170419
O O2 0.115268 0.689272 0.162744
O O3 0.005013 0.664029 0.208550
O O4 0.000000 0.620427 0.000000
O O5 0.553058 0.745673 0.654921
O O6 0.467164 0.649451 0.729647
O O7 0.589135 0.691002 0.882072
O O8 0.500000 0.386543 0.500000
O O9 0.610615 0.321946 0.482755
O O10 0.634559 0.394510 0.685895
O O11 0.835880 0.835871 0.688716
O O12 0.883276 0.000000 0.614205
O O13 0.747132 0.203436 0.250795
O O14 0.790686 0.125029 0.091496
O O15 0.753470 0.000000 0.223108
O O16 0.674348 0.657839 0.100388
O O17 0.629329 0.500000 0.958086
#
# Coordination Sequence:
#
# PCOD9182823 Si02
#       7
#     8   8   8   8   8   8   8
#     4  10  19  33  53  76 107 146 183 214 251 306
#     4   9  18  33  54  82 108 136 176 222 265 309
#     4   9  19  36  58  79 104 131 173 221 265 314
#     4  10  20  32  53  81 108 140 176 219 270 316
#     4  10  21  35  54  76 102 139 178 218 265 317
#     4  11  21  34  50  76 113 142 176 218 261 317
#     4  10  19  33  53  78 108 139 172 217 272 322
#
# _framework density 18.226834
#
# number of rings (size 3 to 8) (size 9 to 14) (size 15 to 20)
#    0.000    2.143    1.429    2.143    0.000    7.429 
#    0.000    2.143    0.000   15.000    0.000    0.000 
#    0.000    0.000    0.000    0.000    0.000    0.000 
#
# Total GULP energy -155870.236965 kJ/mol
# GULP energy per Si atom -5566.794177 kJ/mol
# Density = 1.818535 g / cm^3
# Si number density = 18.226834 Si / 1000 Ang^3
#
#
#
# Elastic Constant Matrix: (Units=GPa)
#
#
# Indices 1 2 3 4 5 6 
#
# 1 61.7979 23.2363 37.0024 0.0000 -18.3725 0.0000
# 2 23.2363 60.6194 24.0327 0.0000 -10.7066 0.0000
# 3 37.0024 24.0327 91.0088 0.0000 -29.2859 0.0000
# 4 0.0000 0.0000 0.0000 -4.3243 0.0000 7.4692
# 5 -18.3725 -10.7066 -29.2859 0.0000 29.4346 0.0000
# 6 0.0000 0.0000 0.0000 7.4692 0.0000 12.6281
#
#
#
# Elastic Compliance Matrix: (Units=1/GPa)
#
#
# Indices 1 2 3 4 5 6 
#
# 1 0.023946 -0.005563 -0.006043 0.000000 0.006911 0.000000
# 2 -0.005563 0.019869 -0.002614 0.000000 0.001155 0.000000
# 3 -0.006043 -0.002614 0.018557 0.000000 0.013740 0.000000
# 4 0.000000 0.000000 0.000000 -0.114389 0.000000 0.067658
# 5 0.006911 0.001155 0.013740 0.000000 0.052378 0.000000
# 6 0.000000 0.000000 0.000000 0.067658 0.000000 0.039171
#
#
# Mechanical properties :
#
#
# Convention : Reuss Voigt Hill
#
# Bulk Modulus (GPa) = 29.47005 42.44100 35.95552
# Shear Modulus (GPa) = 63.06644 16.15800 39.61222
#
# Velocity S-wave (km/s) = 5.88863 2.98064 4.66691
# Velocity P-wave (km/s) = 7.90179 5.93136 6.98639
#
# Compressibility (1/GPa) = 0.03393276
#
# Stress axis : x y z
#
# Youngs Moduli (GPa) = 41.75979 50.33058 53.88885
#
# Poissons Ratio (x) = 0.27996 0.32568
# Poissons Ratio (y) = 0.23229 0.14084
# Poissons Ratio (z) = 0.25237 0.13154
#
# Static dielectric constant tensor:
#      x y z
#    x 1.652120 0.000000 -0.014050 
#    y 0.000000 1.602560 0.000000 
#    z -0.014050 0.000000 1.650120 
# 
# From -- ./inp_files/165707.got.cif
#   From: 2010.05.17/outbox.cif.g08.bks.cpg/sg12_83_cif.got.tgz:165707.got - 2010.06.03 13:09:07.
