data_PCOD9182345
_publ_section_title
;
Structure prediction by ZEFSAII (Michael W. Deem and Ramdas Pophale) SiO2 
 PCOD9182345
Probable space group: C 2/M
;
_chemical_formula_sum "Si O2"
_cell_formula_units_Z 64
_cell_length_a 30.961040
_cell_length_b 8.785921
_cell_length_c 15.476688
_cell_angle_alpha 90.000000
_cell_angle_beta 101.073335
_cell_angle_gamma 90.000000
_cell_volume 4131.607138
_symmetry_space_group_name_H-M "C 2/M"
_symmetry_group_IT_number 12
_symmetry_cell_setting 'monoclinic'
loop_
_space_group_symop_operation_xyz
x,y,z
-x,y,-z
-x,-y,-z
x,-y,z
1/2+x,1/2+y,z
1/2-x,1/2+y,-z
1/2-x,1/2-y,-z
1/2+x,1/2-y,z
loop_
_atom_site_type_symbol
_atom_site_label
_atom_site_fract_x
_atom_site_fract_y
_atom_site_fract_z
Si Si1 0.041895 0.816179 0.131188
Si Si2 0.189298 0.816525 0.121714
Si Si3 0.625670 0.182231 0.243784
Si Si4 0.284570 0.318393 0.391728
Si Si5 0.687149 0.183006 0.422170
Si Si6 0.055653 0.815256 0.936570
Si Si7 0.789136 0.682155 0.207247
Si Si8 0.651309 0.683962 0.919713
O O1 0.077014 0.745392 0.209108
O O2 0.991000 0.768075 0.121924
O O3 0.044076 0.000000 0.137108
O O4 0.055263 0.772711 0.037866
O O5 0.156659 0.744280 0.178946
O O6 0.239466 0.771497 0.160705
O O7 0.185696 0.000000 0.127434
O O8 0.174985 0.774655 0.019200
O O9 0.648083 0.228611 0.342885
O O10 0.625486 0.000000 0.240212
O O11 0.287170 0.500000 0.386522
O O12 0.312270 0.259687 0.484092
O O13 0.233644 0.276875 0.393977
O O14 0.297524 0.244543 0.306271
O O15 0.686648 0.000000 0.432392
O O16 0.100465 0.765244 0.908529
O O17 0.055716 0.000000 0.936014
O O18 0.790752 0.500000 0.208298
O O19 0.823157 0.746271 0.150735
O O20 0.652163 0.500000 0.913388
#
# Coordination Sequence:
#
# PCOD9182345 Si02
#       8
#     8   8   8   8   8   8   8   8
#     4   9  16  30  50  70  94 125 163 199 239 286
#     4  10  20  33  48  66  94 133 172 201 228 276
#     4  11  20  30  47  73 102 129 156 194 245 289
#     4  10  19  33  51  70  92 125 162 199 239 282
#     4   9  19  33  48  69  97 125 156 197 242 286
#     4   8  15  29  50  70  91 125 165 204 237 276
#     4  11  22  33  47  70  98 130 165 202 243 282
#     4  10  19  33  50  68  93 130 172 205 235 274
#
# _framework density 15.490339000000001
#
# number of rings (size 3 to 8) (size 9 to 14) (size 15 to 20)
#    0.000    2.250    2.500    2.250    0.000    2.500 
#    0.000    1.875    0.000    0.000    0.000    0.875 
#    0.000    7.000    0.000    0.000    0.000    0.000 
#
# Total GULP energy -178491.648888 kJ/mol
# GULP energy per Si atom -5577.864028 kJ/mol
# Density = 1.545508 g / cm^3
# Si number density = 15.490339 Si / 1000 Ang^3
#
#
#
# Elastic Constant Matrix: (Units=GPa)
#
#
# Indices 1 2 3 4 5 6 
#
# 1 103.6021 28.3557 78.9562 0.0000 11.1542 0.0000
# 2 28.3557 20.7626 37.4931 0.0000 2.3256 0.0000
# 3 78.9562 37.4931 136.0157 0.0000 11.5521 0.0000
# 4 0.0000 0.0000 0.0000 24.0760 0.0000 -0.9134
# 5 11.1542 2.3256 11.5521 0.0000 24.9022 0.0000
# 6 0.0000 0.0000 0.0000 -0.9134 0.0000 21.2856
#
#
#
# Elastic Compliance Matrix: (Units=1/GPa)
#
#
# Indices 1 2 3 4 5 6 
#
# 1 0.019027 -0.012355 -0.007301 0.000000 -0.003982 0.000000
# 2 -0.012355 0.104207 -0.022066 0.000000 0.006039 0.000000
# 3 -0.007301 -0.022066 0.017926 0.000000 -0.002985 0.000000
# 4 0.000000 0.000000 0.000000 0.041603 0.000000 0.001785
# 5 -0.003982 0.006039 -0.002985 0.000000 0.042761 0.000000
# 6 0.000000 0.000000 0.000000 0.001785 0.000000 0.047057
#
#
# Mechanical properties :
#
#
# Convention : Reuss Voigt Hill
#
# Bulk Modulus (GPa) = 17.32602 61.11003 39.21802
# Shear Modulus (GPa) = 13.32396 21.75779 17.54087
#
# Velocity S-wave (km/s) = 2.93601 3.75187 3.36873
# Velocity P-wave (km/s) = 4.76475 7.63576 6.36426
#
# Compressibility (1/GPa) = 0.05771668
#
# Stress axis : x y z
#
# Youngs Moduli (GPa) = 52.55786 9.59626 55.78351
#
# Poissons Ratio (x) = 0.11856 0.40728
# Poissons Ratio (y) = 0.64933 1.23093
# Poissons Ratio (z) = 0.38373 0.21175
#
# Static dielectric constant tensor:
#      x y z
#    x 1.514020 0.000000 0.020730 
#    y 0.000000 1.518960 0.000000 
#    z 0.020730 0.000000 1.496430 
# 
# From -- ./inp_files/248491.got.cif
#   From: 2010.05.17/outbox.cif.g08.bks.cpg/sg12_125_cif.got.tgz:248491.got - 2010.06.03 13:09:07.
