data_PCOD9182149
_publ_section_title
;
Structure prediction by ZEFSAII (Michael W. Deem and Ramdas Pophale) SiO2 
 PCOD9182149
Probable space group: C 2/M
;
_chemical_formula_sum "Si O2"
_cell_formula_units_Z 48
_cell_length_a 16.470471
_cell_length_b 15.153173
_cell_length_c 21.605333
_cell_angle_alpha 90.000000
_cell_angle_beta 25.758959
_cell_angle_gamma 90.000000
_cell_volume 2343.399781
_symmetry_space_group_name_H-M "C 2/M"
_symmetry_group_IT_number 12
_symmetry_cell_setting 'monoclinic'
loop_
_space_group_symop_operation_xyz
x,y,z
-x,y,-z
-x,-y,-z
x,-y,z
1/2+x,1/2+y,z
1/2-x,1/2+y,-z
1/2-x,1/2-y,-z
1/2+x,1/2-y,z
loop_
_atom_site_type_symbol
_atom_site_label
_atom_site_fract_x
_atom_site_fract_y
_atom_site_fract_z
Si Si1 0.326867 0.354347 0.584640
Si Si2 0.086546 0.640027 0.149581
Si Si3 0.073587 0.396573 0.300610
Si Si4 0.802751 0.340622 0.658639
Si Si5 0.849734 0.895765 0.432518
Si Si6 0.555582 0.646793 0.169616
O O1 0.500000 0.399794 0.500000
O O2 0.305971 0.260096 0.632627
O O3 0.379047 0.345267 0.476548
O O4 0.119493 0.395173 0.726073
O O5 0.131184 0.616312 0.189888
O O6 0.070062 0.746606 0.158836
O O7 0.250995 0.612157 0.990904
O O8 0.085059 0.500000 0.307699
O O9 0.191489 0.346331 0.271361
O O10 0.854493 0.369569 0.453412
O O11 0.618851 0.381094 0.753900
O O12 0.000000 0.381117 0.500000
O O13 0.002856 0.879701 0.275236
O O14 0.840430 0.000000 0.453564
#
# Coordination Sequence:
#
# PCOD9182149 Si02
#       6
#     8   8   8   8   8   8
#     4   9  20  36  59  82 104 144 192 237 273 321
#     4   9  21  37  56  81 113 150 187 226 277 329
#     4  10  21  36  57  86 118 149 182 224 276 336
#     4  10  19  32  56  85 111 146 186 225 269 325
#     4  10  21  36  58  85 112 146 187 229 278 332
#     4  10  20  36  56  81 114 150 187 228 271 328
#
# _framework density 20.483059999999998
#
# number of rings (size 3 to 8) (size 9 to 14) (size 15 to 20)
#    0.000    2.333    1.667    0.000    4.667    4.667 
#    0.000    1.667    0.000    1.000    0.000    0.000 
#    0.000    0.000    0.000    0.000    0.000    0.000 
#
# Total GULP energy -133962.493026 kJ/mol
# GULP energy per Si atom -5581.770543 kJ/mol
# Density = 2.043644 g / cm^3
# Si number density = 20.483060 Si / 1000 Ang^3
#
#
#
# Elastic Constant Matrix: (Units=GPa)
#
#
# Indices 1 2 3 4 5 6 
#
# 1 162.9732 36.3608 68.1737 0.0103 9.1506 0.0166
# 2 36.3608 61.7267 20.4310 -0.0854 5.2153 -0.1143
# 3 68.1737 20.4310 153.8559 -0.1376 12.3762 -0.1761
# 4 0.0103 -0.0854 -0.1376 -388.7508 0.1544 -491.7142
# 5 9.1506 5.2153 12.3762 0.1544 27.0310 0.1931
# 6 0.0166 -0.1143 -0.1761 -491.7142 0.1931 -611.1922
#
#
#
# Elastic Compliance Matrix: (Units=1/GPa)
#
#
# Indices 1 2 3 4 5 6 
#
# 1 0.008335 -0.003818 -0.003134 0.000009 -0.000650 -0.000006
# 2 -0.003818 0.018836 -0.000645 -0.000020 -0.002046 0.000012
# 3 -0.003134 -0.000645 0.008180 -0.000006 -0.002560 0.000002
# 4 0.000009 -0.000020 -0.000006 0.146168 0.000008 -0.117595
# 5 -0.000650 -0.002046 -0.002560 0.000008 0.038781 0.000007
# 6 -0.000006 0.000012 0.000002 -0.117595 0.000007 0.092971
#
#
# Mechanical properties :
#
#
# Convention : Reuss Voigt Hill
#
# Bulk Modulus (GPa) = 49.61009 69.83186 59.72097
# Shear Modulus (GPa) = 14.91718 -177.67638 -81.37960
#
# Velocity S-wave (km/s) = 2.70157 -9.32370 -6.31003
# Velocity P-wave (km/s) = 5.83129 9.04113 4.88559
#
# Compressibility (1/GPa) = 0.02015719
#
# Stress axis : x y z
#
# Youngs Moduli (GPa) = 119.97199 53.09074 122.25127
#
# Poissons Ratio (x) = 0.20268 0.38315
# Poissons Ratio (y) = 0.45802 0.07885
# Poissons Ratio (z) = 0.37601 0.03424
#
# Static dielectric constant tensor:
#      x y z
#    x 1.735080 0.000000 -0.021080 
#    y 0.000000 1.747540 0.000010 
#    z -0.021080 0.000010 1.740130 
# 
# From -- ./inp_files/271593.got.cif
#   From: 2010.05.17/outbox.cif.g08.bks.cpg/sg12_136_cif.got.tgz:271593.got - 2010.06.03 13:09:07.
