data_PCOD9182340
_publ_section_title
;
Structure prediction by ZEFSAII (Michael W. Deem and Ramdas Pophale) SiO2 
 PCOD9182340
Probable space group: C 2/M
;
_chemical_formula_sum "Si O2"
_cell_formula_units_Z 64
_cell_length_a 22.937472
_cell_length_b 7.592356
_cell_length_c 20.305330
_cell_angle_alpha 90.000000
_cell_angle_beta 120.354231
_cell_angle_gamma 90.000000
_cell_volume 3051.416610
_symmetry_space_group_name_H-M "C 2/M"
_symmetry_group_IT_number 12
_symmetry_cell_setting 'monoclinic'
loop_
_space_group_symop_operation_xyz
x,y,z
-x,y,-z
-x,-y,-z
x,-y,z
1/2+x,1/2+y,z
1/2-x,1/2+y,-z
1/2-x,1/2-y,-z
1/2+x,1/2-y,z
loop_
_atom_site_type_symbol
_atom_site_label
_atom_site_fract_x
_atom_site_fract_y
_atom_site_fract_z
Si Si1 0.886816 0.792144 0.972038
Si Si2 0.854256 0.788616 0.586772
Si Si3 0.401308 0.712805 0.838534
Si Si4 0.732729 0.216209 0.880204
Si Si5 0.758984 0.287494 0.260663
Si Si6 0.104943 0.705858 0.881677
Si Si7 0.218876 0.288907 0.583594
Si Si8 0.971539 0.787127 0.745887
O O1 0.918874 0.722698 0.922420
O O2 0.809728 0.724615 0.935947
O O3 0.880626 0.000000 0.956613
O O4 0.920471 0.774080 0.062197
O O5 0.839471 0.747559 0.502429
O O6 0.789241 0.722243 0.591397
O O7 0.923608 0.725405 0.659232
O O8 0.853676 0.000000 0.592466
O O9 0.410173 0.500000 0.841710
O O10 0.321422 0.748269 0.784426
O O11 0.439435 0.780597 0.796241
O O12 0.714440 0.271980 0.795130
O O13 0.676963 0.281183 0.899696
O O14 0.732540 0.000000 0.882192
O O15 0.765795 0.500000 0.263828
O O16 0.789402 0.221669 0.346770
O O17 0.113657 0.500000 0.896177
O O18 0.049443 0.735611 0.793825
O O19 0.225625 0.500000 0.591856
O O20 0.969386 0.000000 0.744788
#
# Coordination Sequence:
#
# PCOD9182340 Si02
#       8
#     8   8   8   8   8   8   8   8
#     4   9  17  32  54  73  87 113 155 200 237 273
#     4   9  17  28  44  69  99 124 146 181 226 274
#     4   8  14  27  49  72  90 113 155 199 227 259
#     4   8  16  30  50  72  92 116 153 199 236 265
#     4   8  12  24  48  74  93 113 149 196 234 264
#     4  11  22  33  45  67  97 126 153 189 236 278
#     4   9  15  25  47  75  97 116 144 185 232 276
#     4  10  19  33  50  66  91 128 163 189 216 268
#
# _framework density 20.973863999999999
#
# number of rings (size 3 to 8) (size 9 to 14) (size 15 to 20)
#    0.000    3.000    1.250    2.250    0.000    1.000 
#    0.000    3.750    0.000    5.250    0.000    5.250 
#    0.000    0.000    0.000    0.000    0.000    0.000 
#
# Total GULP energy -178398.070996 kJ/mol
# GULP energy per Si atom -5574.939719 kJ/mol
# Density = 2.092613 g / cm^3
# Si number density = 20.973864 Si / 1000 Ang^3
#
#
#
# Elastic Constant Matrix: (Units=GPa)
#
#
# Indices 1 2 3 4 5 6 
#
# 1 15.1204 -1.5074 5.9472 0.0000 -8.2850 0.0000
# 2 -1.5074 42.8962 -6.7008 -0.0001 -1.4607 -0.0001
# 3 5.9472 -6.7008 130.4521 0.0000 -13.1970 0.0000
# 4 0.0000 -0.0001 0.0000 18.2714 0.0000 0.9824
# 5 -8.2850 -1.4607 -13.1970 0.0000 24.8590 0.0000
# 6 0.0000 -0.0001 0.0000 0.9824 0.0000 4.9933
#
#
#
# Elastic Compliance Matrix: (Units=1/GPa)
#
#
# Indices 1 2 3 4 5 6 
#
# 1 0.081602 0.003661 -0.000802 0.000000 0.026986 0.000000
# 2 0.003661 0.023773 0.001394 0.000000 0.003357 0.000001
# 3 -0.000802 0.001394 0.008195 0.000000 0.004165 0.000000
# 4 0.000000 0.000000 0.000000 0.055315 0.000000 -0.010883
# 5 0.026986 0.003357 0.004165 0.000000 0.051629 0.000000
# 6 0.000000 0.000001 0.000000 -0.010883 0.000000 0.202411
#
#
# Mechanical properties :
#
#
# Convention : Reuss Voigt Hill
#
# Bulk Modulus (GPa) = 8.19161 20.43852 14.31506
# Shear Modulus (GPa) = 10.98631 22.34006 16.66319
#
# Velocity S-wave (km/s) = 2.29117 3.26719 2.82170
# Velocity P-wave (km/s) = 3.30354 4.89883 4.17804
#
# Compressibility (1/GPa) = 0.12207620
#
# Stress axis : x y z
#
# Youngs Moduli (GPa) = 12.25453 42.06487 122.02306
#
# Poissons Ratio (x) = -0.15401 0.09788
# Poissons Ratio (y) = -0.04487 -0.17008
# Poissons Ratio (z) = 0.00983 -0.05863
#
# Static dielectric constant tensor:
#      x y z
#    x 1.749890 0.000000 -0.020500 
#    y 0.000000 1.804060 0.000000 
#    z -0.020500 0.000000 1.789600 
# 
# From -- ./inp_files/324271.got.cif
#   From: 2010.05.17/outbox.cif.g08.bks.cpg/sg12_163_cif.got.tgz:324271.got - 2010.06.03 13:09:07.
