data_PCOD9182461
_publ_section_title
;
Structure prediction by ZEFSAII (Michael W. Deem and Ramdas Pophale) SiO2 
 PCOD9182461
Probable space group: C 2/M
;
_chemical_formula_sum "Si O2"
_cell_formula_units_Z 64
_cell_length_a 23.896293
_cell_length_b 7.437273
_cell_length_c 15.417088
_cell_angle_alpha 90.000000
_cell_angle_beta 92.537821
_cell_angle_gamma 90.000000
_cell_volume 2737.287720
_symmetry_space_group_name_H-M "C 2/M"
_symmetry_group_IT_number 12
_symmetry_cell_setting 'monoclinic'
loop_
_space_group_symop_operation_xyz
x,y,z
-x,y,-z
-x,-y,-z
x,-y,z
1/2+x,1/2+y,z
1/2-x,1/2+y,-z
1/2-x,1/2-y,-z
1/2+x,1/2-y,z
loop_
_atom_site_type_symbol
_atom_site_label
_atom_site_fract_x
_atom_site_fract_y
_atom_site_fract_z
Si Si1 0.222267 0.282382 0.851158
Si Si2 0.482823 0.707561 0.092485
Si Si3 0.864766 0.717904 0.021221
Si Si4 0.850627 0.293531 0.832874
Si Si5 0.684469 0.785072 0.511111
Si Si6 0.362680 0.779690 0.307144
Si Si7 0.393383 0.778652 0.651659
Si Si8 0.511446 0.207838 0.712495
O O1 0.226168 0.500000 0.851148
O O2 0.193191 0.224932 0.938950
O O3 0.283801 0.210147 0.839094
O O4 0.179633 0.227316 0.772146
O O5 0.499892 0.500000 0.093884
O O6 0.415725 0.723582 0.084868
O O7 0.502239 0.786121 0.185282
O O8 0.500000 0.788296 0.000000
O O9 0.864737 0.500000 0.019410
O O10 0.873272 0.786920 0.924270
O O11 0.869971 0.500000 0.833180
O O12 0.867760 0.216807 0.741755
O O13 0.750000 0.750000 0.500000
O O14 0.662599 0.720620 0.602697
O O15 0.645279 0.718204 0.430191
O O16 0.678117 0.000000 0.512227
O O17 0.426566 0.715508 0.298288
O O18 0.363853 0.000000 0.304668
O O19 0.458094 0.718713 0.657037
O O20 0.392782 0.000000 0.650712
O O21 0.515541 0.000000 0.687116
#
# Coordination Sequence:
#
# PCOD9182461 Si02
#       8
#     8   8   8   8   8   8   8   8
#     4  10  19  33  51  76 106 139 181 226 271 326
#     4  11  23  36  52  79 113 145 182 227 273 326
#     4  10  20  35  54  75 104 142 187 226 266 324
#     4  10  20  33  50  77 107 141 183 226 270 322
#     4  10  20  36  57  84 114 144 180 225 273 328
#     4   9  18  33  56  82 108 139 183 230 273 321
#     4   9  19  34  55  82 109 138 183 228 267 321
#     4  10  19  37  60  79 106 145 185 229 274 320
#
# _framework density 23.380808999999999
#
# number of rings (size 3 to 8) (size 9 to 14) (size 15 to 20)
#    0.000    2.125    1.250    2.250    0.000    3.500 
#    0.000    4.375    0.000    0.000    0.000    1.750 
#    0.000    0.000    0.000    0.000    0.000    0.000 
#
# Total GULP energy -178874.131534 kJ/mol
# GULP energy per Si atom -5589.816610 kJ/mol
# Density = 2.332759 g / cm^3
# Si number density = 23.380809 Si / 1000 Ang^3
#
#
#
# Elastic Constant Matrix: (Units=GPa)
#
#
# Indices 1 2 3 4 5 6 
#
# 1 109.5149 -4.3899 32.5163 0.0000 15.2612 0.0000
# 2 -4.3899 74.7227 3.8042 0.0000 -1.0749 0.0000
# 3 32.5163 3.8042 123.0903 0.0000 10.5566 0.0000
# 4 0.0000 0.0000 0.0000 -3.4643 0.0000 -5.3922
# 5 15.2612 -1.0749 10.5566 0.0000 45.5125 0.0000
# 6 0.0000 0.0000 0.0000 -5.3922 0.0000 15.9219
#
#
#
# Elastic Compliance Matrix: (Units=1/GPa)
#
#
# Indices 1 2 3 4 5 6 
#
# 1 0.010298 0.000691 -0.002497 0.000000 -0.002858 0.000000
# 2 0.000691 0.013458 -0.000618 0.000000 0.000230 0.000000
# 3 -0.002497 -0.000618 0.008909 0.000000 -0.001244 0.000000
# 4 0.000000 0.000000 0.000000 -0.189020 0.000000 -0.064015
# 5 -0.002858 0.000230 -0.001244 0.000000 0.023224 0.000000
# 6 0.000000 0.000000 0.000000 -0.064015 0.000000 0.041127
#
#
# Mechanical properties :
#
#
# Convention : Reuss Voigt Hill
#
# Bulk Modulus (GPa) = 35.94756 41.24321 38.59538
# Shear Modulus (GPa) = -64.19924 29.95386 -17.12269
#
# Velocity S-wave (km/s) = -5.24573 3.58317 -2.70911
# Velocity P-wave (km/s) = 4.61325 5.89889 2.59950
#
# Compressibility (1/GPa) = 0.02781830
#
# Stress axis : x y z
#
# Youngs Moduli (GPa) = 97.10208 74.30423 112.24016
#
# Poissons Ratio (x) = -0.05135 0.28024
# Poissons Ratio (y) = -0.06710 0.06938
# Poissons Ratio (z) = 0.24244 0.04593
#
# Static dielectric constant tensor:
#      x y z
#    x 1.868380 0.000000 -0.011410 
#    y 0.000000 1.901690 0.000000 
#    z -0.011410 0.000000 1.858150 
# 
# From -- ./inp_files/238603.got.cif
#   From: 2010.05.17/outbox.cif.g08.bks.cpg/sg12_120_cif.got.tgz:238603.got - 2010.06.03 13:09:07.
