data_PCOD9182943
_publ_section_title
;
Structure prediction by ZEFSAII (Michael W. Deem and Ramdas Pophale) SiO2 
 PCOD9182943
Probable space group: C 2/M
;
_chemical_formula_sum "Si O2"
_cell_formula_units_Z 64
_cell_length_a 24.630864
_cell_length_b 7.933121
_cell_length_c 15.624388
_cell_angle_alpha 90.000000
_cell_angle_beta 93.615868
_cell_angle_gamma 90.000000
_cell_volume 3046.921942
_symmetry_space_group_name_H-M "C 2/M"
_symmetry_group_IT_number 12
_symmetry_cell_setting 'monoclinic'
loop_
_space_group_symop_operation_xyz
x,y,z
-x,y,-z
-x,-y,-z
x,-y,z
1/2+x,1/2+y,z
1/2-x,1/2+y,-z
1/2-x,1/2-y,-z
1/2+x,1/2-y,z
loop_
_atom_site_type_symbol
_atom_site_label
_atom_site_fract_x
_atom_site_fract_y
_atom_site_fract_z
Si Si1 0.649359 0.793544 0.983495
Si Si2 0.563331 0.300881 0.512720
Si Si3 0.785763 0.698312 0.175055
Si Si4 0.104005 0.689396 0.338277
Si Si5 0.618313 0.299345 0.690326
Si Si6 0.030922 0.308600 0.914829
Si Si7 0.833772 0.696165 0.820660
Si Si8 0.000500 0.812864 0.252774
O O1 0.693465 0.740899 0.916607
O O2 0.591112 0.743090 0.939419
O O3 0.650363 0.000000 0.985664
O O4 0.655140 0.734454 0.082264
O O5 0.500000 0.236066 0.500000
O O6 0.557217 0.500000 0.529639
O O7 0.597130 0.276726 0.429064
O O8 0.599819 0.233058 0.595067
O O9 0.773561 0.500000 0.166345
O O10 0.832842 0.720870 0.250621
O O11 0.730887 0.791054 0.196255
O O12 0.124829 0.500000 0.354472
O O13 0.136987 0.768773 0.261396
O O14 0.041967 0.687824 0.299512
O O15 0.629968 0.500000 0.685499
O O16 0.562325 0.277453 0.736613
O O17 0.035106 0.500000 0.879681
O O18 0.995154 0.199044 0.847880
O O19 0.000000 0.319256 0.000000
O O20 0.851754 0.500000 0.824989
O O21 0.012829 0.000000 0.287498
#
# Coordination Sequence:
#
# PCOD9182943 Si02
#       8
#     8   8   8   8   8   8   8   8
#     4   9  18  34  56  83 114 151 195 239 283 340
#     4  10  20  39  63  88 119 153 190 235 293 355
#     4  11  22  37  60  88 116 149 199 252 286 329
#     4  11  23  38  60  89 119 154 195 241 293 351
#     4  10  21  38  60  85 116 154 188 229 293 353
#     4  10  19  33  53  79 117 159 194 235 293 351
#     4  10  22  41  60  81 116 158 197 236 291 353
#     4  11  21  35  56  83 118 155 193 236 286 348
#
# _framework density 21.004804
#
# number of rings (size 3 to 8) (size 9 to 14) (size 15 to 20)
#    0.000    1.750    2.500    2.250    0.000    4.500 
#    0.000    1.875    0.000    0.000    0.000    0.000 
#    0.000    0.000    0.000    0.000    0.000    0.000 
#
# Total GULP energy -178489.797328 kJ/mol
# GULP energy per Si atom -5577.806166 kJ/mol
# Density = 2.095700 g / cm^3
# Si number density = 21.004804 Si / 1000 Ang^3
#
#
#
# Elastic Constant Matrix: (Units=GPa)
#
#
# Indices 1 2 3 4 5 6 
#
# 1 36.7958 -1.7959 18.4271 0.0000 -3.5569 0.0000
# 2 -1.7959 26.2431 7.6617 0.0000 -3.2463 0.0000
# 3 18.4271 7.6617 145.3968 0.0000 -4.1651 0.0000
# 4 0.0000 0.0000 0.0000 -13.8768 0.0000 14.3663
# 5 -3.5569 -3.2463 -4.1651 0.0000 26.0330 0.0000
# 6 0.0000 0.0000 0.0000 14.3663 0.0000 12.7292
#
#
#
# Elastic Compliance Matrix: (Units=1/GPa)
#
#
# Indices 1 2 3 4 5 6 
#
# 1 0.029652 0.003631 -0.003838 0.000000 0.003890 0.000000
# 2 0.003631 0.039682 -0.002406 0.000000 0.005059 0.000000
# 3 -0.003838 -0.002406 0.007502 0.000000 0.000376 0.000000
# 4 0.000000 0.000000 0.000000 -0.033233 0.000000 0.037507
# 5 0.003890 0.005059 0.000376 0.000000 0.039635 0.000000
# 6 0.000000 0.000000 0.000000 0.037507 0.000000 0.036229
#
#
# Mechanical properties :
#
#
# Convention : Reuss Voigt Hill
#
# Bulk Modulus (GPa) = 13.96464 28.55794 21.26129
# Shear Modulus (GPa) = 33.65559 17.25328 25.45444
#
# Velocity S-wave (km/s) = 4.00719 2.86911 3.48492
# Velocity P-wave (km/s) = 5.29838 4.95996 5.13196
#
# Compressibility (1/GPa) = 0.07160943
#
# Stress axis : x y z
#
# Youngs Moduli (GPa) = 33.72426 25.20028 133.30314
#
# Poissons Ratio (x) = -0.09150 0.51161
# Poissons Ratio (y) = -0.12245 0.32077
# Poissons Ratio (z) = 0.12943 0.06064
#
# Static dielectric constant tensor:
#      x y z
#    x 1.734610 0.000000 -0.022260 
#    y 0.000000 1.911330 0.000000 
#    z -0.022260 0.000000 1.808410 
# 
# From -- ./inp_files/238562.got.cif
#   From: 2010.05.17/outbox.cif.g08.bks.cpg/sg12_120_cif.got.tgz:238562.got - 2010.06.03 13:09:07.
