data_PCOD9182956
_publ_section_title
;
Structure prediction by ZEFSAII (Michael W. Deem and Ramdas Pophale) SiO2 
 PCOD9182956
Probable space group: C 2/M
;
_chemical_formula_sum "Si O2"
_cell_formula_units_Z 64
_cell_length_a 21.022449
_cell_length_b 8.786660
_cell_length_c 22.445923
_cell_angle_alpha 90.000000
_cell_angle_beta 118.245654
_cell_angle_gamma 90.000000
_cell_volume 3652.450515
_symmetry_space_group_name_H-M "C 2/M"
_symmetry_group_IT_number 12
_symmetry_cell_setting 'monoclinic'
loop_
_space_group_symop_operation_xyz
x,y,z
-x,y,-z
-x,-y,-z
x,-y,z
1/2+x,1/2+y,z
1/2-x,1/2+y,-z
1/2-x,1/2-y,-z
1/2+x,1/2-y,z
loop_
_atom_site_type_symbol
_atom_site_label
_atom_site_fract_x
_atom_site_fract_y
_atom_site_fract_z
Si Si1 0.948325 0.681883 0.673382
Si Si2 0.711839 0.317615 0.041252
Si Si3 0.173363 0.818722 0.823359
Si Si4 0.416021 0.317014 0.454978
Si Si5 0.479118 0.317013 0.181238
Si Si6 0.399874 0.818351 0.321282
Si Si7 0.669982 0.317460 0.463259
Si Si8 0.544823 0.685553 0.962647
O O1 0.941830 0.500000 0.670572
O O2 0.878227 0.755003 0.612416
O O3 0.967164 0.740627 0.747818
O O4 0.018813 0.723828 0.664558
O O5 0.713996 0.500000 0.039076
O O6 0.757315 0.260042 0.117569
O O7 0.750000 0.250000 0.000000
O O8 0.628397 0.269227 0.005329
O O9 0.102608 0.783000 0.832573
O O10 0.153821 0.758623 0.749437
O O11 0.182221 0.000000 0.827425
O O12 0.500000 0.274280 0.500000
O O13 0.412684 0.500000 0.446611
O O14 0.388299 0.239360 0.382727
O O15 0.371455 0.274710 0.493953
O O16 0.487888 0.500000 0.188448
O O17 0.485367 0.267291 0.115392
O O18 0.393680 0.000000 0.314934
O O19 0.672882 0.500000 0.461323
O O20 0.750000 0.250000 0.500000
O O21 0.543298 0.500000 0.961679
O O22 0.500000 0.737913 0.000000
#
# Coordination Sequence:
#
# PCOD9182956 Si02
#       8
#     8   8   8   8   8   8   8   8
#     4  10  20  34  54  82 112 144 184 230 277 327
#     4  11  20  33  54  81 109 141 181 227 279 330
#     4  10  19  33  53  80 111 145 185 229 279 332
#     4  10  20  36  58  83 111 145 183 225 278 333
#     4   9  17  32  54  79 105 140 184 225 274 328
#     4  10  20  33  54  85 115 145 184 233 280 325
#     4  11  23  39  59  83 114 150 187 229 278 333
#     4   9  18  34  55  80 109 142 183 227 271 325
#
# _framework density 17.522483000000001
#
# number of rings (size 3 to 8) (size 9 to 14) (size 15 to 20)
#    0.000    2.000    2.500    1.875    0.000    2.750 
#    0.000    1.250    0.000    7.875    0.000    0.000 
#    0.000    0.000    0.000    0.000    0.000    0.000 
#
# Total GULP energy -178637.770161 kJ/mol
# GULP energy per Si atom -5582.430318 kJ/mol
# Density = 1.748260 g / cm^3
# Si number density = 17.522483 Si / 1000 Ang^3
#
#
#
# Elastic Constant Matrix: (Units=GPa)
#
#
# Indices 1 2 3 4 5 6 
#
# 1 111.7534 37.7228 82.3347 0.0000 1.5431 0.0000
# 2 37.7228 36.3380 49.9918 0.0000 3.3891 0.0000
# 3 82.3347 49.9918 177.3375 0.0000 2.0611 0.0000
# 4 0.0000 0.0000 0.0000 33.5433 0.0000 3.9636
# 5 1.5431 3.3891 2.0611 0.0000 28.8458 0.0000
# 6 0.0000 0.0000 0.0000 3.9636 0.0000 19.4554
#
#
#
# Elastic Compliance Matrix: (Units=1/GPa)
#
#
# Indices 1 2 3 4 5 6 
#
# 1 0.015624 -0.010279 -0.004364 0.000000 0.000684 0.000000
# 2 -0.010279 0.052276 -0.009908 0.000000 -0.004884 0.000000
# 3 -0.004364 -0.009908 0.010451 0.000000 0.000651 0.000000
# 4 0.000000 0.000000 0.000000 0.030548 0.000000 -0.006223
# 5 0.000684 -0.004884 0.000651 0.000000 0.035158 0.000000
# 6 0.000000 0.000000 0.000000 -0.006223 0.000000 0.052667
#
#
# Mechanical properties :
#
#
# Convention : Reuss Voigt Hill
#
# Bulk Modulus (GPa) = 34.18939 73.94751 54.06845
# Shear Modulus (GPa) = 19.56379 26.72756 23.14567
#
# Velocity S-wave (km/s) = 3.34503 3.90978 3.63838
# Velocity P-wave (km/s) = 5.87137 7.91675 6.96951
#
# Compressibility (1/GPa) = 0.02924884
#
# Stress axis : x y z
#
# Youngs Moduli (GPa) = 64.00465 19.12927 95.68874
#
# Poissons Ratio (x) = 0.19663 0.41760
# Poissons Ratio (y) = 0.65791 0.94804
# Poissons Ratio (z) = 0.27933 0.18952
#
# Static dielectric constant tensor:
#      x y z
#    x 1.580610 0.000000 -0.006000 
#    y 0.000000 1.583070 0.000000 
#    z -0.006000 0.000000 1.589730 
# 
# From -- ./inp_files/320029.got.cif
#   From: 2010.05.17/outbox.cif.g08.bks.cpg/sg12_161_cif.got.tgz:320029.got - 2010.06.03 13:09:07.
