data_PCOD9182189
_publ_section_title
;
Structure prediction by ZEFSAII (Michael W. Deem and Ramdas Pophale) SiO2 
 PCOD9182189
Probable space group: C 2/M
;
_chemical_formula_sum "Si O2"
_cell_formula_units_Z 56
_cell_length_a 20.888343
_cell_length_b 8.733388
_cell_length_c 17.637633
_cell_angle_alpha 90.000000
_cell_angle_beta 105.561631
_cell_angle_gamma 90.000000
_cell_volume 3099.614895
_symmetry_space_group_name_H-M "C 2/M"
_symmetry_group_IT_number 12
_symmetry_cell_setting 'monoclinic'
loop_
_space_group_symop_operation_xyz
x,y,z
-x,y,-z
-x,-y,-z
x,-y,z
1/2+x,1/2+y,z
1/2-x,1/2+y,-z
1/2-x,1/2-y,-z
1/2+x,1/2-y,z
loop_
_atom_site_type_symbol
_atom_site_label
_atom_site_fract_x
_atom_site_fract_y
_atom_site_fract_z
Si Si1 0.576151 0.317459 0.999328
Si Si2 0.062734 0.818141 0.264009
Si Si3 0.199112 0.683798 0.762332
Si Si4 0.156724 0.681877 0.163092
Si Si5 0.289816 0.183272 0.406870
Si Si6 0.349283 0.818122 0.583114
Si Si7 0.077084 0.316255 0.832169
O O1 0.586476 0.500000 0.005887
O O2 0.624404 0.235697 0.074058
O O3 0.500000 0.286606 0.000000
O O4 0.585782 0.256908 0.917643
O O5 0.114667 0.760558 0.216896
O O6 0.092932 0.768164 0.354122
O O7 0.992180 0.741886 0.224253
O O8 0.056875 0.000000 0.256801
O O9 0.208958 0.500000 0.771318
O O10 0.267274 0.765144 0.806990
O O11 0.185530 0.718427 0.669524
O O12 0.138031 0.726137 0.796689
O O13 0.151567 0.500000 0.169575
O O14 0.340026 0.219824 0.491311
O O15 0.220868 0.269610 0.401364
O O16 0.276466 0.000000 0.407045
O O17 0.358557 0.000000 0.594214
O O18 0.075001 0.500000 0.838504
#
# Coordination Sequence:
#
# PCOD9182189 Si02
#       7
#     8   8   8   8   8   8   8
#     4  11  23  40  63  89 119 157 195 241 297 352
#     4  12  23  38  59  86 120 159 199 245 299 351
#     4  10  22  41  62  88 123 160 194 239 301 357
#     4  12  24  38  63  92 118 153 199 248 291 348
#     4   9  18  34  57  85 121 157 192 241 299 351
#     4  10  19  32  56  90 118 151 200 248 291 345
#     4  11  24  41  63  89 119 156 199 246 294 352
#
# _framework density 18.066759000000001
#
# number of rings (size 3 to 8) (size 9 to 14) (size 15 to 20)
#    0.000    1.286    2.857    3.857    0.000    2.857 
#    0.000    0.714    0.000    4.286    0.000    0.000 
#    0.000    0.000    0.000    0.000    0.000    0.000 
#
# Total GULP energy -156506.837357 kJ/mol
# GULP energy per Si atom -5589.529906 kJ/mol
# Density = 1.802564 g / cm^3
# Si number density = 18.066759 Si / 1000 Ang^3
#
#
#
# Elastic Constant Matrix: (Units=GPa)
#
#
# Indices 1 2 3 4 5 6 
#
# 1 90.7434 26.3614 38.0374 0.0000 -6.9237 0.0000
# 2 26.3614 38.2153 17.6475 0.0000 -8.4839 0.0000
# 3 38.0374 17.6475 111.8125 0.0000 -5.3067 0.0000
# 4 0.0000 0.0000 0.0000 29.0197 0.0000 3.5811
# 5 -6.9237 -8.4839 -5.3067 0.0000 28.5896 0.0000
# 6 0.0000 0.0000 0.0000 3.5811 0.0000 25.6075
#
#
#
# Elastic Compliance Matrix: (Units=1/GPa)
#
#
# Indices 1 2 3 4 5 6 
#
# 1 0.015132 -0.008606 -0.003770 0.000000 0.000411 0.000000
# 2 -0.008606 0.034864 -0.002202 0.000000 0.007853 0.000000
# 3 -0.003770 -0.002202 0.010593 0.000000 0.000400 0.000000
# 4 0.000000 0.000000 0.000000 0.035064 0.000000 -0.004904
# 5 0.000411 0.007853 0.000400 0.000000 0.037482 0.000000
# 6 0.000000 0.000000 0.000000 -0.004904 0.000000 0.039737
#
#
# Mechanical properties :
#
#
# Convention : Reuss Voigt Hill
#
# Bulk Modulus (GPa) = 31.81425 44.98485 38.39955
# Shear Modulus (GPa) = 23.52880 27.22502 25.37691
#
# Velocity S-wave (km/s) = 3.61269 3.88611 3.75189
# Velocity P-wave (km/s) = 5.92027 6.71484 6.33003
#
# Compressibility (1/GPa) = 0.03143245
#
# Stress axis : x y z
#
# Youngs Moduli (GPa) = 66.08623 28.68255 94.40573
#
# Poissons Ratio (x) = 0.24684 0.35590
# Poissons Ratio (y) = 0.56873 0.20791
# Poissons Ratio (z) = 0.24914 0.06317
#
# Static dielectric constant tensor:
#      x y z
#    x 1.579070 0.000000 -0.004980 
#    y 0.000000 1.604140 0.000000 
#    z -0.004980 0.000000 1.622630 
# 
# From -- ./inp_files/275593.got.cif
#   From: 2010.05.17/outbox.cif.g08.bks.cpg/sg12_138_cif.got.tgz:275593.got - 2010.06.03 13:09:07.
