data_PCOD9182817
_publ_section_title
;
Structure prediction by ZEFSAII (Michael W. Deem and Ramdas Pophale) SiO2 
 PCOD9182817
Probable space group: C 2/M
;
_chemical_formula_sum "Si O2"
_cell_formula_units_Z 64
_cell_length_a 19.898520
_cell_length_b 8.326110
_cell_length_c 21.265012
_cell_angle_alpha 90.000000
_cell_angle_beta 94.336652
_cell_angle_gamma 90.000000
_cell_volume 3513.042218
_symmetry_space_group_name_H-M "C 2/M"
_symmetry_group_IT_number 12
_symmetry_cell_setting 'monoclinic'
loop_
_space_group_symop_operation_xyz
x,y,z
-x,y,-z
-x,-y,-z
x,-y,z
1/2+x,1/2+y,z
1/2-x,1/2+y,-z
1/2-x,1/2-y,-z
1/2+x,1/2-y,z
loop_
_atom_site_type_symbol
_atom_site_label
_atom_site_fract_x
_atom_site_fract_y
_atom_site_fract_z
Si Si1 0.276773 0.306737 0.707548
Si Si2 0.965166 0.695064 0.225845
Si Si3 0.488651 0.308496 0.428189
Si Si4 0.678394 0.192162 0.023108
Si Si5 0.767467 0.193225 0.849494
Si Si6 0.581695 0.191389 0.322310
Si Si7 0.379278 0.803981 0.106672
Si Si8 0.370526 0.193881 0.337110
O O1 0.272922 0.500000 0.709789
O O2 0.281024 0.248050 0.780114
O O3 0.343622 0.258815 0.675939
O O4 0.206468 0.250870 0.672439
O O5 0.968385 0.500000 0.223372
O O6 0.939344 0.752207 0.156211
O O7 0.908445 0.734099 0.274243
O O8 0.035559 0.752150 0.260438
O O9 0.500000 0.250377 0.500000
O O10 0.496564 0.500000 0.427870
O O11 0.541784 0.236200 0.382596
O O12 0.415203 0.264402 0.396101
O O13 0.678815 0.253450 0.094292
O O14 0.677902 0.000000 0.024558
O O15 0.750000 0.250000 0.000000
O O16 0.624310 0.246145 0.966670
O O17 0.692287 0.243524 0.866596
O O18 0.766640 0.000000 0.848892
O O19 0.584750 0.000000 0.318171
O O20 0.380600 0.000000 0.107148
O O21 0.372245 0.000000 0.342319
#
# Coordination Sequence:
#
# PCOD9182817 Si02
#       8
#     8   8   8   8   8   8   8   8
#     4  10  19  33  53  76 106 140 171 208 259 310
#     4   8  13  26  47  70  94 123 166 211 251 296
#     4  10  21  38  59  81 107 137 166 201 247 299
#     4   9  16  24  38  62  93 126 162 210 259 307
#     4   9  16  27  45  66  93 131 167 204 254 308
#     4  10  21  34  53  79 106 135 170 212 251 298
#     4   8  12  22  42  65  89 120 163 208 251 299
#     4   9  17  31  55  81 102 132 172 211 249 296
#
# _framework density 18.217828000000001
#
# number of rings (size 3 to 8) (size 9 to 14) (size 15 to 20)
#    0.000    2.875    1.250    2.625    0.000    2.000 
#    0.000    0.625    0.000    3.000    0.000    5.250 
#    0.000    0.000    0.000    0.000    0.000    0.000 
#
# Total GULP energy -178253.502621 kJ/mol
# GULP energy per Si atom -5570.421957 kJ/mol
# Density = 1.817636 g / cm^3
# Si number density = 18.217828 Si / 1000 Ang^3
#
#
#
# Elastic Constant Matrix: (Units=GPa)
#
#
# Indices 1 2 3 4 5 6 
#
# 1 99.2437 6.3700 44.9834 0.0000 15.5987 0.0000
# 2 6.3700 8.8718 6.0157 0.0000 3.1395 0.0000
# 3 44.9834 6.0157 115.6434 0.0000 30.4433 0.0000
# 4 0.0000 0.0000 0.0000 23.1233 0.0000 2.3340
# 5 15.5987 3.1395 30.4433 0.0000 21.7338 0.0000
# 6 0.0000 0.0000 0.0000 2.3340 0.0000 17.5832
#
#
#
# Elastic Compliance Matrix: (Units=1/GPa)
#
#
# Indices 1 2 3 4 5 6 
#
# 1 0.012631 -0.005431 -0.003883 0.000000 -0.002843 0.000000
# 2 -0.005431 0.121632 -0.000975 0.000000 -0.012307 0.000000
# 3 -0.003883 -0.000975 0.014951 0.000000 -0.018014 0.000000
# 4 0.000000 0.000000 0.000000 0.043834 0.000000 -0.005819
# 5 -0.002843 -0.012307 -0.018014 0.000000 0.075063 0.000000
# 6 0.000000 0.000000 0.000000 -0.005819 0.000000 0.057645
#
#
# Mechanical properties :
#
#
# Convention : Reuss Voigt Hill
#
# Bulk Modulus (GPa) = 7.77379 37.61080 22.69229
# Shear Modulus (GPa) = 12.84651 23.58072 18.21361
#
# Velocity S-wave (km/s) = 2.65837 3.60165 3.16534
# Velocity P-wave (km/s) = 3.70121 6.16325 5.08353
#
# Compressibility (1/GPa) = 0.12863735
#
# Stress axis : x y z
#
# Youngs Moduli (GPa) = 79.16772 8.22152 66.88724
#
# Poissons Ratio (x) = 0.04465 0.25969
# Poissons Ratio (y) = 0.42994 0.06522
# Poissons Ratio (z) = 0.30737 0.00802
#
# Static dielectric constant tensor:
#      x y z
#    x 1.617600 0.000000 0.031480 
#    y 0.000000 1.633120 0.000000 
#    z 0.031480 0.000000 1.649030 
# 
# From -- ./inp_files/314129.got.cif
#   From: 2010.05.17/outbox.cif.g08.bks.cpg/sg12_158_cif.got.tgz:314129.got - 2010.06.03 13:09:07.
