data_PCOD9182708
_publ_section_title
;
Structure prediction by ZEFSAII (Michael W. Deem and Ramdas Pophale) SiO2 
 PCOD9182708
Probable space group: C 2/M
;
_chemical_formula_sum "Si O2"
_cell_formula_units_Z 64
_cell_length_a 12.168553
_cell_length_b 14.365852
_cell_length_c 20.099648
_cell_angle_alpha 90.000000
_cell_angle_beta 49.224852
_cell_angle_gamma 90.000000
_cell_volume 2660.812978
_symmetry_space_group_name_H-M "C 2/M"
_symmetry_group_IT_number 12
_symmetry_cell_setting 'monoclinic'
loop_
_space_group_symop_operation_xyz
x,y,z
-x,y,-z
-x,-y,-z
x,-y,z
1/2+x,1/2+y,z
1/2-x,1/2+y,-z
1/2-x,1/2-y,-z
1/2+x,1/2-y,z
loop_
_atom_site_type_symbol
_atom_site_label
_atom_site_fract_x
_atom_site_fract_y
_atom_site_fract_z
Si Si1 0.758249 0.142030 0.509735
Si Si2 0.948546 0.394004 0.589129
Si Si3 0.736686 0.613941 0.785203
Si Si4 0.715340 0.388364 0.353105
Si Si5 0.987686 0.893472 0.683056
Si Si6 0.888851 0.386155 0.986571
Si Si7 0.538650 0.113832 0.191997
Si Si8 0.437597 0.614045 0.851535
O O1 0.750000 0.250000 0.500000
O O2 0.595134 0.103434 0.574733
O O3 0.829421 0.126893 0.553110
O O4 0.852387 0.104183 0.411476
O O5 0.904921 0.500000 0.589496
O O6 0.000000 0.347245 0.500000
O O7 0.819474 0.356181 0.684897
O O8 0.740564 0.500000 0.783711
O O9 0.832204 0.644253 0.810140
O O10 0.569650 0.642904 0.847131
O O11 0.716394 0.500000 0.345222
O O12 0.611675 0.350859 0.335872
O O13 0.880018 0.354799 0.278417
O O14 0.974336 0.853596 0.761900
O O15 0.938490 0.000000 0.710936
O O16 0.890091 0.500000 0.987426
O O17 0.723752 0.356573 0.065550
O O18 0.936289 0.358238 0.893974
O O19 0.000000 0.355144 0.000000
O O20 0.538167 0.000000 0.193941
O O21 0.438770 0.500000 0.852286
#
# Coordination Sequence:
#
# PCOD9182708 Si02
#       8
#     8   8   8   8   8   8   8   8
#     4  12  24  35  50  76 109 140 174 223 276 324
#     4  10  19  33  53  72  97 138 183 221 259 313
#     4   9  16  27  44  68 100 135 176 219 259 317
#     4  10  19  35  57  78 105 140 183 226 265 323
#     4  10  20  35  56  78 104 142 183 225 269 319
#     4   9  16  26  42  70 107 140 171 213 270 327
#     4   9  16  27  47  73 103 139 174 215 269 321
#     4   9  17  29  46  73 106 136 173 218 268 321
#
# _framework density 24.052799
#
# number of rings (size 3 to 8) (size 9 to 14) (size 15 to 20)
#    0.000    2.250    1.250    3.000    0.000    7.500 
#    0.000    2.500    0.000    0.000    0.000    0.875 
#    0.000    0.250    0.000    0.000    0.000    0.000 
#
# Total GULP energy -178954.485116 kJ/mol
# GULP energy per Si atom -5592.327660 kJ/mol
# Density = 2.399805 g / cm^3
# Si number density = 24.052799 Si / 1000 Ang^3
#
#
#
# Elastic Constant Matrix: (Units=GPa)
#
#
# Indices 1 2 3 4 5 6 
#
# 1 113.1940 -2.1204 31.0917 0.0000 -9.1707 0.0000
# 2 -2.1204 69.8470 -12.0143 0.0000 -3.7615 0.0000
# 3 31.0917 -12.0143 108.3913 0.0000 0.4846 0.0000
# 4 0.0000 0.0000 0.0000 -22.5789 0.0000 -17.7538
# 5 -9.1707 -3.7615 0.4846 0.0000 42.5528 0.0000
# 6 0.0000 0.0000 0.0000 -17.7538 0.0000 -9.3760
#
#
#
# Elastic Compliance Matrix: (Units=1/GPa)
#
#
# Indices 1 2 3 4 5 6 
#
# 1 0.009781 -0.000074 -0.002823 0.000000 0.002134 0.000000
# 2 -0.000074 0.014665 0.001641 0.000000 0.001262 0.000000
# 3 -0.002823 0.001641 0.010220 0.000000 -0.000580 0.000000
# 4 0.000000 0.000000 0.000000 0.090592 0.000000 -0.171539
# 5 0.002134 0.001262 -0.000580 0.000000 0.024078 0.000000
# 6 0.000000 0.000000 0.000000 -0.171539 0.000000 0.218160
#
#
# Mechanical properties :
#
#
# Convention : Reuss Voigt Hill
#
# Bulk Modulus (GPa) = 31.10024 36.14957 33.62491
# Shear Modulus (GPa) = 13.13274 20.41791 16.77532
#
# Velocity S-wave (km/s) = 2.33919 2.91671 2.64377
# Velocity P-wave (km/s) = 4.50042 5.13856 4.83004
#
# Compressibility (1/GPa) = 0.03215409
#
# Stress axis : x y z
#
# Youngs Moduli (GPa) = 102.23465 68.18961 97.84519
#
# Poissons Ratio (x) = 0.00503 0.27626
# Poissons Ratio (y) = 0.00755 -0.16057
# Poissons Ratio (z) = 0.28866 -0.11190
#
# Static dielectric constant tensor:
#      x y z
#    x 1.920790 0.000000 0.006070 
#    y 0.000000 1.937980 0.000000 
#    z 0.006070 0.000000 1.878920 
# 
# From -- ./inp_files/306170.got.cif
#   From: 2010.05.17/outbox.cif.g08.bks.cpg/sg12_154_cif.got.tgz:306170.got - 2010.06.03 13:09:07.
