data_PCOD9182434
_publ_section_title
;
Structure prediction by ZEFSAII (Michael W. Deem and Ramdas Pophale) SiO2 
 PCOD9182434
Probable space group: C 2/M
;
_chemical_formula_sum "Si O2"
_cell_formula_units_Z 36
_cell_length_a 7.358827
_cell_length_b 17.283771
_cell_length_c 10.302831
_cell_angle_alpha 90.000000
_cell_angle_beta 77.526079
_cell_angle_gamma 90.000000
_cell_volume 1279.466626
_symmetry_space_group_name_H-M "C 2/M"
_symmetry_group_IT_number 12
_symmetry_cell_setting 'monoclinic'
loop_
_space_group_symop_operation_xyz
x,y,z
-x,y,-z
-x,-y,-z
x,-y,z
1/2+x,1/2+y,z
1/2-x,1/2+y,-z
1/2-x,1/2-y,-z
1/2+x,1/2-y,z
loop_
_atom_site_type_symbol
_atom_site_label
_atom_site_fract_x
_atom_site_fract_y
_atom_site_fract_z
Si Si1 0.774849 0.500000 0.508928
Si Si2 0.896934 0.331508 0.878347
Si Si3 0.219553 0.661745 0.468437
Si Si4 0.472064 0.335487 0.175080
Si Si5 0.973693 0.000000 0.190418
Si Si6 0.089135 0.500000 0.128507
O O1 0.722460 0.584405 0.459107
O O2 0.656767 0.500000 0.660847
O O3 0.000000 0.500000 0.500000
O O4 0.937439 0.247415 0.811845
O O5 0.957966 0.414560 0.808051
O O6 0.672567 0.332092 0.924261
O O7 0.000000 0.329784 0.000000
O O8 0.250000 0.750000 0.500000
O O9 0.321209 0.656225 0.315026
O O10 0.000000 0.655371 0.500000
O O11 0.577091 0.417792 0.167498
O O12 0.814332 0.000000 0.102794
O O13 0.000000 0.500000 0.000000
#
# Coordination Sequence:
#
# PCOD9182434 Si02
#       6
#     4   8   8   8   4   4
#     4   8  16  30  49  69  92 126 166 197 233 288
#     4  10  19  33  52  75 100 129 163 202 243 287
#     4  10  19  33  52  74  98 128 164 203 243 288
#     4  10  19  33  51  73  99 130 164 201 242 289
#     4   8  16  30  48  67  95 130 161 193 238 290
#     4   8  16  30  49  70  95 126 163 200 235 278
#
# _framework density 28.136721000000001
#
# number of rings (size 3 to 8) (size 9 to 14) (size 15 to 20)
#    0.000    2.667    0.000    2.000    0.000    1.778 
#    0.000    2.222    0.000    0.000    0.000    0.000 
#    0.000    0.000    0.000    0.000    0.000    0.000 
#
# Total GULP energy -100433.665607 kJ/mol
# GULP energy per Si atom -5579.648089 kJ/mol
# Density = 2.807268 g / cm^3
# Si number density = 28.136721 Si / 1000 Ang^3
#
#
#
# Elastic Constant Matrix: (Units=GPa)
#
#
# Indices 1 2 3 4 5 6 
#
# 1 101.2913 34.0753 4.2951 0.0000 -4.7266 0.0000
# 2 34.0753 439.7127 36.5683 0.0000 -12.1106 0.0000
# 3 4.2951 36.5683 37.7352 0.0000 -4.6832 0.0000
# 4 0.0000 0.0000 0.0000 30.5597 0.0000 -4.6937
# 5 -4.7266 -12.1106 -4.6832 0.0000 33.3520 0.0000
# 6 0.0000 0.0000 0.0000 -4.6937 0.0000 32.7349
#
#
#
# Elastic Compliance Matrix: (Units=1/GPa)
#
#
# Indices 1 2 3 4 5 6 
#
# 1 0.010185 -0.000732 -0.000309 0.000000 0.001134 0.000000
# 2 -0.000732 0.002537 -0.002314 0.000000 0.000492 0.000000
# 3 -0.000309 -0.002314 0.029177 0.000000 0.003213 0.000000
# 4 0.000000 0.000000 0.000000 0.033460 0.000000 0.004798
# 5 0.001134 0.000492 0.003213 0.000000 0.030774 0.000000
# 6 0.000000 0.000000 0.000000 0.004798 0.000000 0.031236
#
#
# Mechanical properties :
#
#
# Convention : Reuss Voigt Hill
#
# Bulk Modulus (GPa) = 28.41855 80.95741 54.68798
# Shear Modulus (GPa) = 32.09068 52.91603 42.50336
#
# Velocity S-wave (km/s) = 3.38083 4.34138 3.89086
# Velocity P-wave (km/s) = 5.03608 7.34612 6.29792
#
# Compressibility (1/GPa) = 0.03518829
#
# Stress axis : x y z
#
# Youngs Moduli (GPa) = 98.18457 394.17015 34.27377
#
# Poissons Ratio (x) = 0.28867 0.01058
# Poissons Ratio (y) = 0.07191 0.07931
# Poissons Ratio (z) = 0.03032 0.91213
#
# Static dielectric constant tensor:
#      x y z
#    x 2.179470 0.000000 0.047990 
#    y 0.000000 2.257820 0.000000 
#    z 0.047990 0.000000 2.464440 
# 
# From -- ./inp_files/118793.got.cif
#   From: 2010.05.17/outbox.cif.g08.bks.cpg/sg12_60_cif.got.tgz:118793.got - 2010.06.03 13:09:07.
