data_PCOD9182563
_publ_section_title
;
Structure prediction by ZEFSAII (Michael W. Deem and Ramdas Pophale) SiO2 
 PCOD9182563
Probable space group: C 2/M
;
_chemical_formula_sum "Si O2"
_cell_formula_units_Z 52
_cell_length_a 16.033329
_cell_length_b 7.403495
_cell_length_c 19.527163
_cell_angle_alpha 90.000000
_cell_angle_beta 117.315312
_cell_angle_gamma 90.000000
_cell_volume 2059.465163
_symmetry_space_group_name_H-M "C 2/M"
_symmetry_group_IT_number 12
_symmetry_cell_setting 'monoclinic'
loop_
_space_group_symop_operation_xyz
x,y,z
-x,y,-z
-x,-y,-z
x,-y,z
1/2+x,1/2+y,z
1/2-x,1/2+y,-z
1/2-x,1/2-y,-z
1/2+x,1/2-y,z
loop_
_atom_site_type_symbol
_atom_site_label
_atom_site_fract_x
_atom_site_fract_y
_atom_site_fract_z
Si Si1 0.266304 0.218237 0.745851
Si Si2 0.954661 0.721273 0.756554
Si Si3 0.548846 0.786744 0.653600
Si Si4 0.884002 0.700439 0.505572
Si Si5 0.699360 0.788835 0.088774
Si Si6 0.391280 0.781307 0.079845
Si Si7 0.760472 0.500000 0.565576
O O1 0.347222 0.278981 0.724430
O O2 0.159313 0.263353 0.692159
O O3 0.294041 0.285243 0.832415
O O4 0.270753 0.000000 0.746745
O O5 0.954055 0.500000 0.753962
O O6 0.008951 0.787625 0.710244
O O7 0.014499 0.773570 0.846092
O O8 0.484768 0.724048 0.566711
O O9 0.531619 0.000000 0.648907
O O10 0.889021 0.500000 0.473765
O O11 0.832370 0.654007 0.559260
O O12 0.816459 0.842149 0.444708
O O13 0.802001 0.773467 0.092502
O O14 0.675874 0.000000 0.088138
O O15 0.628262 0.715040 0.004552
O O16 0.390543 0.000000 0.077432
#
# Coordination Sequence:
#
# PCOD9182563 Si02
#       7
#     8   8   8   8   8   8   4
#     4  10  20  32  47  72 101 128 167 214 252 299
#     4   9  18  32  49  70  98 131 170 208 250 308
#     4  10  19  33  52  74  99 137 166 199 251 306
#     4   8  15  27  48  77 108 131 172 215 249 304
#     4   9  17  28  45  69  93 120 164 215 254 295
#     4   9  16  29  48  65  88 128 167 204 254 305
#     4   8  14  28  48  80 106 130 174 212 248 302
#
# _framework density 25.249272000000001
#
# number of rings (size 3 to 8) (size 9 to 14) (size 15 to 20)
#    0.462    2.462    1.538    0.000    1.077    0.615 
#    0.000    4.615    0.000    0.000    0.000   11.846 
#    0.000    0.000    0.000    0.000    0.000    0.000 
#
# Total GULP energy -144816.535713 kJ/mol
# GULP energy per Si atom -5569.866758 kJ/mol
# Density = 2.519180 g / cm^3
# Si number density = 25.249272 Si / 1000 Ang^3
#
#
#
# Elastic Constant Matrix: (Units=GPa)
#
#
# Indices 1 2 3 4 5 6 
#
# 1 150.2987 1.7673 101.1393 0.0000 13.6974 0.0000
# 2 1.7673 91.6937 15.2277 0.0000 -0.3773 0.0000
# 3 101.1393 15.2277 139.0741 0.0000 4.4920 0.0000
# 4 0.0000 0.0000 0.0000 7.2325 0.0000 11.1576
# 5 13.6974 -0.3773 4.4920 0.0000 30.2644 0.0000
# 6 0.0000 0.0000 0.0000 11.1576 0.0000 21.2454
#
#
#
# Elastic Compliance Matrix: (Units=1/GPa)
#
#
# Indices 1 2 3 4 5 6 
#
# 1 0.013844 0.001385 -0.010066 0.000000 -0.004754 0.000000
# 2 0.001385 0.011250 -0.002234 0.000000 -0.000155 0.000000
# 3 -0.010066 -0.002234 0.014679 0.000000 0.002349 0.000000
# 4 0.000000 0.000000 0.000000 0.728448 0.000000 -0.382565
# 5 -0.004754 -0.000155 0.002349 0.000000 0.034843 0.000000
# 6 0.000000 0.000000 0.000000 -0.382565 0.000000 0.247984
#
#
# Mechanical properties :
#
#
# Convention : Reuss Voigt Hill
#
# Bulk Modulus (GPa) = 55.73088 68.59278 62.16183
# Shear Modulus (GPa) = 4.63453 29.27728 16.95590
#
# Velocity S-wave (km/s) = 1.35628 3.40888 2.59422
# Velocity P-wave (km/s) = 4.95710 6.53599 5.80052
#
# Compressibility (1/GPa) = 0.01794337
#
# Stress axis : x y z
#
# Youngs Moduli (GPa) = 72.23335 88.89237 68.12242
#
# Poissons Ratio (x) = -0.12314 0.68572
# Poissons Ratio (y) = -0.10006 0.15220
# Poissons Ratio (z) = 0.72710 0.19860
#
# Static dielectric constant tensor:
#      x y z
#    x 1.995490 0.000000 -0.041840 
#    y 0.000000 3.995240 0.000000 
#    z -0.041840 0.000000 2.050560 
# 
# From -- ./inp_files/359454.got.cif
#   From: 2010.05.17/outbox.cif.g08.bks.cpg/sg12_180_cif.got.tgz:359454.got - 2010.06.03 13:09:07.
