data_PCOD9182670
_publ_section_title
;
Structure prediction by ZEFSAII (Michael W. Deem and Ramdas Pophale) SiO2 
 PCOD9182670
Probable space group: C 2/M
;
_chemical_formula_sum "Si O2"
_cell_formula_units_Z 58
_cell_length_a 17.890181
_cell_length_b 10.669707
_cell_length_c 14.304465
_cell_angle_alpha 90.000000
_cell_angle_beta 81.175424
_cell_angle_gamma 90.000000
_cell_volume 2698.157460
_symmetry_space_group_name_H-M "C 2/M"
_symmetry_group_IT_number 12
_symmetry_cell_setting 'monoclinic'
loop_
_space_group_symop_operation_xyz
x,y,z
-x,y,-z
-x,-y,-z
x,-y,z
1/2+x,1/2+y,z
1/2-x,1/2+y,-z
1/2-x,1/2-y,-z
1/2+x,1/2-y,z
loop_
_atom_site_type_symbol
_atom_site_label
_atom_site_fract_x
_atom_site_fract_y
_atom_site_fract_z
Si Si1 0.858828 0.643768 0.928029
Si Si2 0.500000 0.000000 0.500000
Si Si3 0.084453 0.860176 0.346162
Si Si4 0.215750 0.859408 0.633194
Si Si5 0.132057 0.707039 0.505848
Si Si6 0.507395 0.144889 0.249685
Si Si7 0.230069 0.783849 0.202301
Si Si8 0.609357 0.139901 0.876512
O O1 0.833398 0.500000 0.950853
O O2 0.923447 0.638059 0.836871
O O3 0.795614 0.727072 0.891393
O O4 0.891138 0.696030 0.019497
O O5 0.564807 0.108802 0.510948
O O6 0.109836 0.825831 0.445728
O O7 0.031159 0.747292 0.320969
O O8 0.159772 0.850268 0.266675
O O9 0.052841 0.000000 0.345246
O O10 0.157954 0.757979 0.601516
O O11 0.292040 0.849898 0.555929
O O12 0.243302 0.824779 0.731647
O O13 0.185599 0.000000 0.634844
O O14 0.438746 0.193439 0.199257
O O15 0.497107 0.000000 0.288761
O O16 0.304065 0.864527 0.170959
O O17 0.576312 0.000000 0.892946
#
# Coordination Sequence:
#
# PCOD9182670 Si02
#       8
#     8   2   8   8   8   8   8   8
#     4   9  17  32  55  80 111 153 200 246 300 358
#     4  12  24  44  62 100 120 154 216 268 296 364
#     4  10  21  39  60  84 119 164 199 241 304 375
#     4  10  20  41  63  89 121 164 202 246 311 383
#     4  10  23  39  65  91 122 159 201 255 308 370
#     4   9  19  34  57  84 114 157 203 250 301 362
#     4  10  20  33  56  86 116 154 198 248 295 361
#     4  10  19  33  52  81 114 148 198 258 300 346
#
# _framework density 21.496151000000001
#
# number of rings (size 3 to 8) (size 9 to 14) (size 15 to 20)
#    0.000    2.207    0.690    2.069    0.966    4.414 
#    4.966    4.138    0.000    8.276    0.000    0.000 
#    0.000    0.000    0.000    0.000    0.000    0.000 
#
# Total GULP energy -161660.385955 kJ/mol
# GULP energy per Si atom -5574.496067 kJ/mol
# Density = 2.144722 g / cm^3
# Si number density = 21.496151 Si / 1000 Ang^3
#
#
#
# Elastic Constant Matrix: (Units=GPa)
#
#
# Indices 1 2 3 4 5 6 
#
# 1 94.0809 30.0301 8.2636 0.0000 22.2574 0.0000
# 2 30.0301 101.2246 22.9817 0.0000 12.5426 0.0000
# 3 8.2636 22.9817 74.2611 0.0000 16.7555 0.0000
# 4 0.0000 0.0000 0.0000 9.7927 0.0000 5.8004
# 5 22.2574 12.5426 16.7555 0.0000 30.8662 0.0000
# 6 0.0000 0.0000 0.0000 5.8004 0.0000 25.8450
#
#
#
# Elastic Compliance Matrix: (Units=1/GPa)
#
#
# Indices 1 2 3 4 5 6 
#
# 1 0.013777 -0.003280 0.001621 0.000000 -0.009482 0.000000
# 2 -0.003280 0.011637 -0.003080 0.000000 -0.000691 0.000000
# 3 0.001621 -0.003080 0.016205 0.000000 -0.008714 0.000000
# 4 0.000000 0.000000 0.000000 0.117773 0.000000 -0.026432
# 5 -0.009482 -0.000691 -0.008714 0.000000 0.044246 0.000000
# 6 0.000000 0.000000 0.000000 -0.026432 0.000000 0.044624
#
#
# Mechanical properties :
#
#
# Convention : Reuss Voigt Hill
#
# Bulk Modulus (GPa) = 31.11337 43.56860 37.34098
# Shear Modulus (GPa) = 18.62505 27.18687 22.90596
#
# Velocity S-wave (km/s) = 2.94672 3.56017 3.26787
# Velocity P-wave (km/s) = 5.10714 6.10015 5.62560
#
# Compressibility (1/GPa) = 0.03214052
#
# Stress axis : x y z
#
# Youngs Moduli (GPa) = 72.58483 85.93106 61.70908
#
# Poissons Ratio (x) = 0.28189 -0.10006
# Poissons Ratio (y) = 0.23811 0.19009
# Poissons Ratio (z) = -0.11770 0.26470
#
# Static dielectric constant tensor:
#      x y z
#    x 1.792420 0.000000 0.004400 
#    y 0.000000 1.711300 0.000000 
#    z 0.004400 0.000000 1.835530 
# 
# From -- ./inp_files/223235.got.cif
#   From: 2010.05.17/outbox.cif.g08.bks.cpg/sg12_112_cif.got.tgz:223235.got - 2010.06.03 13:09:07.
