data_PCOD9182815
_publ_section_title
;
Structure prediction by ZEFSAII (Michael W. Deem and Ramdas Pophale) SiO2 
 PCOD9182815
Probable space group: C 2/M
;
_chemical_formula_sum "Si O2"
_cell_formula_units_Z 64
_cell_length_a 28.372680
_cell_length_b 12.035437
_cell_length_c 13.838305
_cell_angle_alpha 90.000000
_cell_angle_beta 139.621775
_cell_angle_gamma 90.000000
_cell_volume 3061.304074
_symmetry_space_group_name_H-M "C 2/M"
_symmetry_group_IT_number 12
_symmetry_cell_setting 'monoclinic'
loop_
_space_group_symop_operation_xyz
x,y,z
-x,y,-z
-x,-y,-z
x,-y,z
1/2+x,1/2+y,z
1/2-x,1/2+y,-z
1/2-x,1/2-y,-z
1/2+x,1/2-y,z
loop_
_atom_site_type_symbol
_atom_site_label
_atom_site_fract_x
_atom_site_fract_y
_atom_site_fract_z
Si Si1 0.828272 0.869958 0.217356
Si Si2 0.774927 0.375445 0.781227
Si Si3 0.911260 0.128621 0.167194
Si Si4 0.068162 0.288650 0.984040
Si Si5 0.579233 0.186029 0.323421
Si Si6 0.460501 0.256235 0.529905
Si Si7 0.103800 0.124704 0.211317
Si Si8 0.262019 0.817143 0.421456
O O1 0.750610 0.860317 0.147808
O O2 0.842858 0.839570 0.128866
O O3 0.885741 0.805096 0.373030
O O4 0.848137 0.000000 0.252145
O O5 0.750646 0.500000 0.712875
O O6 0.739903 0.274602 0.666404
O O7 0.861037 0.365414 0.900553
O O8 0.919789 0.208613 0.089747
O O9 0.982252 0.149574 0.345351
O O10 0.906253 0.000000 0.130240
O O11 0.991585 0.350857 0.847600
O O12 0.070436 0.206036 0.078523
O O13 0.555783 0.189054 0.398443
O O14 0.594660 0.308622 0.298698
O O15 0.658364 0.129618 0.444728
O O16 0.500000 0.198605 0.500000
O O17 0.187379 0.115343 0.304519
O O18 0.074150 0.000000 0.173081
O O19 0.250000 0.750000 0.500000
#
# Coordination Sequence:
#
# PCOD9182815 Si02
#       8
#     8   8   8   8   8   8   8   8
#     4   9  16  27  46  72 102 136 174 212 259 312
#     4  10  20  35  53  73 103 141 179 217 258 304
#     4   9  17  28  45  73 109 139 168 212 263 313
#     4  10  21  34  50  75 107 140 173 212 255 312
#     4  10  19  33  53  76 105 136 173 213 261 306
#     4   9  16  27  46  76 109 133 163 211 263 316
#     4  10  21  35  53  76 104 137 171 209 260 317
#     4   9  19  35  53  76 102 130 172 219 254 306
#
# _framework density 20.906123999999998
#
# number of rings (size 3 to 8) (size 9 to 14) (size 15 to 20)
#    0.000    2.500    1.250    1.125    0.000    7.500 
#    0.000    0.625    0.000    9.750    0.000    0.000 
#    0.000    5.750    0.000    0.000    0.000    0.000 
#
# Total GULP energy -178170.597083 kJ/mol
# GULP energy per Si atom -5567.831159 kJ/mol
# Density = 2.085854 g / cm^3
# Si number density = 20.906124 Si / 1000 Ang^3
#
#
#
# Elastic Constant Matrix: (Units=GPa)
#
#
# Indices 1 2 3 4 5 6 
#
# 1 112.9786 7.2635 19.0709 0.0000 6.2351 0.0000
# 2 7.2635 47.2010 2.5126 0.0000 -3.4127 0.0000
# 3 19.0709 2.5126 71.8235 0.0000 14.1081 0.0000
# 4 0.0000 0.0000 0.0000 -16.1687 0.0000 -6.1297
# 5 6.2351 -3.4127 14.1081 0.0000 41.1161 0.0000
# 6 0.0000 0.0000 0.0000 -6.1297 0.0000 9.9688
#
#
#
# Elastic Compliance Matrix: (Units=1/GPa)
#
#
# Indices 1 2 3 4 5 6 
#
# 1 0.009368 -0.001374 -0.002292 0.000000 -0.000748 0.000000
# 2 -0.001374 0.021608 -0.000841 0.000000 0.002290 0.000000
# 3 -0.002292 -0.000841 0.015555 0.000000 -0.005060 0.000000
# 4 0.000000 0.000000 0.000000 -0.050156 0.000000 -0.030840
# 5 -0.000748 0.002290 -0.005060 0.000000 0.026361 0.000000
# 6 0.000000 0.000000 0.000000 -0.030840 0.000000 0.081349
#
#
# Mechanical properties :
#
#
# Convention : Reuss Voigt Hill
#
# Bulk Modulus (GPa) = 26.65503 32.18855 29.42179
# Shear Modulus (GPa) = 39.80752 20.52698 30.16725
#
# Velocity S-wave (km/s) = 4.36834 3.13687 3.80279
# Velocity P-wave (km/s) = 6.18229 5.34323 5.77801
#
# Compressibility (1/GPa) = 0.03751637
#
# Stress axis : x y z
#
# Youngs Moduli (GPa) = 106.74880 46.27967 64.28814
#
# Poissons Ratio (x) = 0.06357 0.14737
# Poissons Ratio (y) = 0.14663 0.05407
# Poissons Ratio (z) = 0.24471 0.03892
#
# Static dielectric constant tensor:
#      x y z
#    x 1.705370 0.000000 0.130130 
#    y 0.000000 1.695310 0.000000 
#    z 0.130130 0.000000 1.745280 
# 
# From -- ./inp_files/250845.got.cif
#   From: 2010.05.17/outbox.cif.g08.bks.cpg/sg12_126_cif.got.tgz:250845.got - 2010.06.03 13:09:07.
