data_PCOD9182067
_publ_section_title
;
Structure prediction by ZEFSAII (Michael W. Deem and Ramdas Pophale) SiO2 
 PCOD9182067
Probable space group: C 2/M
;
_chemical_formula_sum "Si O2"
_cell_formula_units_Z 64
_cell_length_a 15.225960
_cell_length_b 22.485074
_cell_length_c 9.916488
_cell_angle_alpha 90.000000
_cell_angle_beta 90.682800
_cell_angle_gamma 90.000000
_cell_volume 3394.736399
_symmetry_space_group_name_H-M "C 2/M"
_symmetry_group_IT_number 12
_symmetry_cell_setting 'monoclinic'
loop_
_space_group_symop_operation_xyz
x,y,z
-x,y,-z
-x,-y,-z
x,-y,z
1/2+x,1/2+y,z
1/2-x,1/2+y,-z
1/2-x,1/2-y,-z
1/2+x,1/2-y,z
loop_
_atom_site_type_symbol
_atom_site_label
_atom_site_fract_x
_atom_site_fract_y
_atom_site_fract_z
Si Si1 0.443590 0.429846 0.702348
Si Si2 0.398761 0.641235 0.950680
Si Si3 0.029170 0.345670 0.352382
Si Si4 0.289440 0.110976 0.959123
Si Si5 0.914868 0.279525 0.903871
Si Si6 0.060903 0.431108 0.865231
Si Si7 0.314359 0.068215 0.668160
Si Si8 0.376107 0.429440 0.397480
O O1 0.444886 0.500000 0.737140
O O2 0.391831 0.392810 0.809534
O O3 0.403822 0.424436 0.552903
O O4 0.543874 0.406619 0.691343
O O5 0.389169 0.711650 0.928842
O O6 0.500000 0.630025 0.000000
O O7 0.315354 0.618035 0.033988
O O8 0.058744 0.293655 0.250320
O O9 0.109630 0.390091 0.382925
O O10 0.000000 0.324996 0.500000
O O11 0.966185 0.386566 0.255610
O O12 0.337355 0.174677 0.939483
O O13 0.315601 0.071872 0.830166
O O14 0.339449 0.081916 0.086587
O O15 0.000000 0.290843 0.000000
O O16 0.049274 0.500000 0.824640
O O17 0.000000 0.422331 0.000000
O O18 0.220071 0.094691 0.626848
O O19 0.323520 0.000000 0.623481
O O20 0.370548 0.500000 0.366634
#
# Coordination Sequence:
#
# PCOD9182067 Si02
#       8
#     8   8   8   8   8   8   8   8
#     4   9  18  35  54  77 112 149 183 232 290 341
#     4  11  24  36  58  88 110 145 200 247 288 342
#     4  11  22  37  58  84 123 153 190 246 296 338
#     4  11  20  36  60  83 114 153 192 245 285 343
#     4  10  20  43  62  79 110 159 199 239 296 350
#     4  11  20  36  62  90 118 157 197 231 289 361
#     4  10  19  32  55  85 116 151 190 229 289 360
#     4   8  16  33  55  74 108 156 184 212 280 356
#
# _framework density 18.852716000000001
#
# number of rings (size 3 to 8) (size 9 to 14) (size 15 to 20)
#    0.000    1.875    3.750    2.625    0.000    3.250 
#    2.250    1.250    0.000    2.250    0.000    0.000 
#    0.000    0.000    0.000    0.000    0.000    0.000 
#
# Total GULP energy -178391.973975 kJ/mol
# GULP energy per Si atom -5574.749187 kJ/mol
# Density = 1.880981 g / cm^3
# Si number density = 18.852716 Si / 1000 Ang^3
#
#
#
# Elastic Constant Matrix: (Units=GPa)
#
#
# Indices 1 2 3 4 5 6 
#
# 1 80.3356 -11.9624 -0.5330 0.0000 7.9007 0.0000
# 2 -11.9624 21.9259 -11.7561 0.0000 -4.0693 0.0000
# 3 -0.5330 -11.7561 37.2886 0.0000 -10.1732 0.0000
# 4 0.0000 0.0000 0.0000 17.0418 0.0000 12.0800
# 5 7.9007 -4.0693 -10.1732 0.0000 28.4209 0.0000
# 6 0.0000 0.0000 0.0000 12.0800 0.0000 39.1180
#
#
#
# Elastic Compliance Matrix: (Units=1/GPa)
#
#
# Indices 1 2 3 4 5 6 
#
# 1 0.013912 0.008552 0.002409 0.000000 -0.001781 0.000000
# 2 0.008552 0.067157 0.025788 0.000000 0.016469 0.000000
# 3 0.002409 0.025788 0.039682 0.000000 0.017227 0.000000
# 4 0.000000 0.000000 0.000000 0.075124 0.000000 -0.023199
# 5 -0.001781 0.016469 0.017227 0.000000 0.044205 0.000000
# 6 0.000000 0.000000 0.000000 -0.023199 0.000000 0.032728
#
#
# Mechanical properties :
#
#
# Convention : Reuss Voigt Hill
#
# Bulk Modulus (GPa) = 5.14801 10.11634 7.63218
# Shear Modulus (GPa) = 18.93507 27.83624 23.38565
#
# Velocity S-wave (km/s) = 3.17261 3.84671 3.52581
# Velocity P-wave (km/s) = 4.01960 5.01071 4.54227
#
# Compressibility (1/GPa) = 0.19424970
#
# Stress axis : x y z
#
# Youngs Moduli (GPa) = 71.87902 14.89041 25.20006
#
# Poissons Ratio (x) = -0.12734 -0.06071
# Poissons Ratio (y) = -0.61467 -0.64986
# Poissons Ratio (z) = -0.17316 -0.38400
#
# Static dielectric constant tensor:
#      x y z
#    x 1.707870 0.000000 0.004960 
#    y 0.000000 1.643160 0.000000 
#    z 0.004960 0.000000 1.654290 
# 
# From -- ./inp_files/65891.got.cif
#   From: 2010.05.17/outbox.cif.g08.bks.cpg/sg12_33_cif.got.tgz:65891.got - 2010.06.03 13:09:07.
