data_PCOD9182143
_publ_section_title
;
Structure prediction by ZEFSAII (Michael W. Deem and Ramdas Pophale) SiO2 
 PCOD9182143
Probable space group: C 2/M
;
_chemical_formula_sum "Si O2"
_cell_formula_units_Z 48
_cell_length_a 15.094050
_cell_length_b 8.633417
_cell_length_c 19.933931
_cell_angle_alpha 90.000000
_cell_angle_beta 52.618325
_cell_angle_gamma 90.000000
_cell_volume 2064.119536
_symmetry_space_group_name_H-M "C 2/M"
_symmetry_group_IT_number 12
_symmetry_cell_setting 'monoclinic'
loop_
_space_group_symop_operation_xyz
x,y,z
-x,y,-z
-x,-y,-z
x,-y,z
1/2+x,1/2+y,z
1/2-x,1/2+y,-z
1/2-x,1/2-y,-z
1/2+x,1/2-y,z
loop_
_atom_site_type_symbol
_atom_site_label
_atom_site_fract_x
_atom_site_fract_y
_atom_site_fract_z
Si Si1 0.095583 0.827425 0.795311
Si Si2 0.418544 0.818269 0.690964
Si Si3 0.371377 0.811223 0.569212
Si Si4 0.083115 0.500000 0.862797
Si Si5 0.155762 0.500000 0.982970
Si Si6 0.644680 0.669463 0.146131
Si Si7 0.655576 0.323715 0.609292
O O1 0.127107 0.663163 0.813667
O O2 0.130318 0.829256 0.701500
O O3 0.960386 0.819592 0.854394
O O4 0.127936 0.000000 0.808285
O O5 0.351918 0.763077 0.655721
O O6 0.363453 0.784470 0.788134
O O7 0.545469 0.757151 0.632250
O O8 0.427484 0.000000 0.678705
O O9 0.500000 0.768035 0.500000
O O10 0.280648 0.752134 0.556851
O O11 0.364340 0.000000 0.567288
O O12 0.110454 0.500000 0.928357
O O13 0.947546 0.500000 0.919806
O O14 0.239340 0.646597 0.945492
O O15 0.629191 0.500000 0.188114
O O16 0.659800 0.500000 0.582603
#
# Coordination Sequence:
#
# PCOD9182143 Si02
#       7
#     8   8   8   4   4   8   8
#     4   9  19  36  57  85 111 148 199 237 278 343
#     4  10  19  32  56  85 106 142 196 235 274 342
#     4   9  19  35  54  80 113 149 185 227 288 351
#     4  11  22  36  62  84 115 155 190 233 300 342
#     4   9  22  40  52  84 117 147 182 233 300 348
#     4   8  18  37  54  73 111 145 177 233 281 328
#     4   9  19  35  55  80 111 146 188 236 288 336
#
# _framework density 23.254467000000002
#
# number of rings (size 3 to 8) (size 9 to 14) (size 15 to 20)
#    0.500    2.333    0.000    1.500    7.000    1.333 
#    0.000    4.167    0.000    3.500    0.000    0.000 
#    0.000    0.000    0.000    0.000    0.000    0.000 
#
# Total GULP energy -133710.853077 kJ/mol
# GULP energy per Si atom -5571.285545 kJ/mol
# Density = 2.320154 g / cm^3
# Si number density = 23.254467 Si / 1000 Ang^3
#
#
#
# Elastic Constant Matrix: (Units=GPa)
#
#
# Indices 1 2 3 4 5 6 
#
# 1 119.6612 30.5902 7.6676 0.0000 -14.3227 0.0000
# 2 30.5902 89.4331 24.4279 0.0000 12.5209 0.0000
# 3 7.6676 24.4279 57.6677 0.0000 -22.0068 0.0000
# 4 0.0000 0.0000 0.0000 25.9926 0.0000 5.0670
# 5 -14.3227 12.5209 -22.0068 0.0000 41.9791 0.0000
# 6 0.0000 0.0000 0.0000 5.0670 0.0000 17.4492
#
#
#
# Elastic Compliance Matrix: (Units=1/GPa)
#
#
# Indices 1 2 3 4 5 6 
#
# 1 0.010400 -0.005571 0.003707 0.000000 0.007153 0.000000
# 2 -0.005571 0.018398 -0.012341 0.000000 -0.013858 0.000000
# 3 0.003707 -0.012341 0.029956 0.000000 0.020649 0.000000
# 4 0.000000 0.000000 0.000000 0.040781 0.000000 -0.011842
# 5 0.007153 -0.013858 0.020649 0.000000 0.041220 0.000000
# 6 0.000000 0.000000 0.000000 -0.011842 0.000000 0.060748
#
#
# Mechanical properties :
#
#
# Convention : Reuss Voigt Hill
#
# Bulk Modulus (GPa) = 32.95657 43.57039 38.26348
# Shear Modulus (GPa) = 20.83092 30.68927 25.76009
#
# Velocity S-wave (km/s) = 2.99621 3.63673 3.33190
# Velocity P-wave (km/s) = 5.11592 6.03419 5.59393
#
# Compressibility (1/GPa) = 0.03034296
#
# Stress axis : x y z
#
# Youngs Moduli (GPa) = 96.15542 54.35322 33.38278
#
# Poissons Ratio (x) = 0.30281 -0.12375
# Poissons Ratio (y) = 0.53570 0.41198
# Poissons Ratio (z) = -0.35645 0.67078
#
# Static dielectric constant tensor:
#      x y z
#    x 1.927880 0.000000 -0.073070 
#    y 0.000000 1.860390 0.000000 
#    z -0.073070 0.000000 1.953370 
# 
# From -- ./inp_files/341910.got.cif
#   From: 2010.05.17/outbox.cif.g08.bks.cpg/sg12_171_cif.got.tgz:341910.got - 2010.06.03 13:09:07.
