data_PCOD9182540
_publ_section_title
;
Structure prediction by ZEFSAII (Michael W. Deem and Ramdas Pophale) SiO2 
 PCOD9182540
Probable space group: C 2/M
;
_chemical_formula_sum "Si O2"
_cell_formula_units_Z 56
_cell_length_a 19.645948
_cell_length_b 7.833483
_cell_length_c 19.303262
_cell_angle_alpha 90.000000
_cell_angle_beta 118.679238
_cell_angle_gamma 90.000000
_cell_volume 2606.253715
_symmetry_space_group_name_H-M "C 2/M"
_symmetry_group_IT_number 12
_symmetry_cell_setting 'monoclinic'
loop_
_space_group_symop_operation_xyz
x,y,z
-x,y,-z
-x,-y,-z
x,-y,z
1/2+x,1/2+y,z
1/2-x,1/2+y,-z
1/2-x,1/2-y,-z
1/2+x,1/2-y,z
loop_
_atom_site_type_symbol
_atom_site_label
_atom_site_fract_x
_atom_site_fract_y
_atom_site_fract_z
Si Si1 0.012998 0.793990 0.583869
Si Si2 0.174193 0.192622 0.005075
Si Si3 0.827070 0.705529 0.262863
Si Si4 0.925511 0.695608 0.922990
Si Si5 0.330013 0.700534 0.747849
Si Si6 0.094037 0.297361 0.835568
Si Si7 0.935010 0.207206 0.681978
O O1 0.097435 0.747209 0.654711
O O2 0.000000 0.728629 0.500000
O O3 0.950323 0.735039 0.610762
O O4 0.008748 0.000000 0.579784
O O5 0.107560 0.205596 0.914355
O O6 0.185844 0.000000 0.035284
O O7 0.250000 0.250000 0.000000
O O8 0.145140 0.297256 0.056644
O O9 0.821406 0.500000 0.255210
O O10 0.749065 0.775227 0.259372
O O11 0.844802 0.763910 0.193117
O O12 0.944966 0.500000 0.914808
O O13 0.896223 0.781868 0.838722
O O14 0.000000 0.770025 0.000000
O O15 0.315399 0.500000 0.729826
O O16 0.361935 0.770478 0.690709
O O17 0.103987 0.500000 0.852081
O O18 0.010890 0.263412 0.761615
O O19 0.933328 0.000000 0.680880
#
# Coordination Sequence:
#
# PCOD9182540 Si02
#       7
#     8   8   8   8   8   8   8
#     4   9  18  34  56  81 108 138 173 212 256 313
#     4  12  24  37  54  76 104 139 181 228 277 324
#     4   9  19  34  53  77 104 136 172 214 264 316
#     4  11  24  39  55  78 109 145 185 230 278 326
#     4  10  20  35  54  76 104 139 180 223 268 321
#     4  10  19  33  52  74 101 133 174 221 267 318
#     4   9  18  33  54  77 102 137 176 213 259 316
#
# _framework density 21.486778999999999
#
# number of rings (size 3 to 8) (size 9 to 14) (size 15 to 20)
#    0.000    2.000    0.000    3.857    0.000    6.571 
#    0.000    0.714    0.000    0.000    0.000    0.000 
#    0.000    0.000    0.000    0.000    0.000    0.000 
#
# Total GULP energy -156406.463097 kJ/mol
# GULP energy per Si atom -5585.945111 kJ/mol
# Density = 2.143787 g / cm^3
# Si number density = 21.486779 Si / 1000 Ang^3
#
#
#
# Elastic Constant Matrix: (Units=GPa)
#
#
# Indices 1 2 3 4 5 6 
#
# 1 128.9074 -0.1008 32.4696 0.0000 -33.7506 0.0000
# 2 -0.1008 33.7469 -7.8206 0.0000 -3.2385 0.0000
# 3 32.4696 -7.8206 88.8229 0.0000 -29.6659 0.0000
# 4 0.0000 0.0000 0.0000 14.3650 0.0000 8.1425
# 5 -33.7506 -3.2385 -29.6659 0.0000 30.8178 0.0000
# 6 0.0000 0.0000 0.0000 8.1425 0.0000 8.5286
#
#
#
# Elastic Compliance Matrix: (Units=1/GPa)
#
#
# Indices 1 2 3 4 5 6 
#
# 1 0.010926 0.001270 0.000234 0.000000 0.012325 0.000000
# 2 0.001270 0.031973 0.005803 0.000000 0.010337 0.000000
# 3 0.000234 0.005803 0.017646 0.000000 0.017853 0.000000
# 4 0.000000 0.000000 0.000000 0.151718 0.000000 -0.144850
# 5 0.012325 0.010337 0.017853 0.000000 0.064218 0.000000
# 6 0.000000 0.000000 0.000000 -0.144850 0.000000 0.255545
#
#
# Mechanical properties :
#
#
# Convention : Reuss Voigt Hill
#
# Bulk Modulus (GPa) = 13.30499 33.39706 23.35103
# Shear Modulus (GPa) = 9.21714 25.87088 17.54401
#
# Velocity S-wave (km/s) = 2.07340 3.47369 2.86055
# Velocity P-wave (km/s) = 3.45508 5.62721 4.66921
#
# Compressibility (1/GPa) = 0.07515978
#
# Stress axis : x y z
#
# Youngs Moduli (GPa) = 91.52068 31.27639 56.66853
#
# Poissons Ratio (x) = -0.03971 -0.01326
# Poissons Ratio (y) = -0.11619 -0.32887
# Poissons Ratio (z) = -0.02141 -0.18151
#
# Static dielectric constant tensor:
#      x y z
#    x 1.846880 0.000000 -0.018460 
#    y 0.000000 1.788340 0.000000 
#    z -0.018460 0.000000 1.753820 
# 
# From -- ./inp_files/275539.got.cif
#   From: 2010.05.17/outbox.cif.g08.bks.cpg/sg12_138_cif.got.tgz:275539.got - 2010.06.03 13:09:07.
