data_PCOD9182088
_publ_section_title
;
Structure prediction by ZEFSAII (Michael W. Deem and Ramdas Pophale) SiO2 
 PCOD9182088
Probable space group: C 2/M
;
_chemical_formula_sum "Si O2"
_cell_formula_units_Z 40
_cell_length_a 21.064132
_cell_length_b 12.812017
_cell_length_c 8.130461
_cell_angle_alpha 90.000000
_cell_angle_beta 95.887406
_cell_angle_gamma 90.000000
_cell_volume 2182.626617
_symmetry_space_group_name_H-M "C 2/M"
_symmetry_group_IT_number 12
_symmetry_cell_setting 'monoclinic'
loop_
_space_group_symop_operation_xyz
x,y,z
-x,y,-z
-x,-y,-z
x,-y,z
1/2+x,1/2+y,z
1/2-x,1/2+y,-z
1/2-x,1/2-y,-z
1/2+x,1/2-y,z
loop_
_atom_site_type_symbol
_atom_site_label
_atom_site_fract_x
_atom_site_fract_y
_atom_site_fract_z
Si Si1 0.782858 0.382235 0.673082
Si Si2 0.176439 0.287913 0.991866
Si Si3 0.833412 0.283490 0.369117
Si Si4 0.572264 0.622139 0.072197
Si Si5 0.573251 0.383743 0.466577
O O1 0.758424 0.500000 0.672396
O O2 0.821076 0.362007 0.515029
O O3 0.726454 0.296959 0.655129
O O4 0.824662 0.359582 0.846784
O O5 0.160830 0.334441 0.808774
O O6 0.250000 0.250000 0.000000
O O7 0.127011 0.193112 0.007161
O O8 0.891477 0.208260 0.430428
O O9 0.580864 0.500000 0.029236
O O10 0.578352 0.630644 0.271392
O O11 0.500000 0.651454 0.000000
O O12 0.500000 0.383757 0.500000
O O13 0.599407 0.500000 0.512228
#
# Coordination Sequence:
#
# PCOD9182088 Si02
#       5
#     8   8   8   8   8
#     4  10  21  37  56  80 112 149 192 235 279 336
#     4  10  21  36  55  84 118 155 191 232 290 345
#     4  10  20  36  56  83 112 148 187 233 286 334
#     4  10  20  35  57  88 122 153 189 237 295 355
#     4  10  19  32  55  87 118 149 185 231 292 351
#
# _framework density 18.326542
#
# number of rings (size 3 to 8) (size 9 to 14) (size 15 to 20)
#    0.000    2.000    2.000    1.800    0.000    6.400 
#    0.000    0.000    0.000    1.200    0.000    0.000 
#    0.000    0.000    0.000    0.000    0.000    0.000 
#
# Total GULP energy -111511.981293 kJ/mol
# GULP energy per Si atom -5575.599065 kJ/mol
# Density = 1.828483 g / cm^3
# Si number density = 18.326542 Si / 1000 Ang^3
#
#
#
# Elastic Constant Matrix: (Units=GPa)
#
#
# Indices 1 2 3 4 5 6 
#
# 1 75.1028 12.0716 22.1016 0.0000 -1.7031 0.0000
# 2 12.0716 38.7168 27.0458 0.0000 -0.2519 0.0000
# 3 22.1016 27.0458 137.7740 0.0000 -7.2008 0.0000
# 4 0.0000 0.0000 0.0000 4.0536 0.0000 -5.6067
# 5 -1.7031 -0.2519 -7.2008 0.0000 29.0441 0.0000
# 6 0.0000 0.0000 0.0000 -5.6067 0.0000 10.3448
#
#
#
# Elastic Compliance Matrix: (Units=1/GPa)
#
#
# Indices 1 2 3 4 5 6 
#
# 1 0.014338 -0.003333 -0.001624 0.000000 0.000409 0.000000
# 2 -0.003333 0.030750 -0.005570 0.000000 -0.001310 0.000000
# 3 -0.001624 -0.005570 0.008718 0.000000 0.002018 0.000000
# 4 0.000000 0.000000 0.000000 0.985358 0.000000 0.534044
# 5 0.000409 -0.001310 0.002018 0.000000 0.034943 0.000000
# 6 0.000000 0.000000 0.000000 0.534044 0.000000 0.386108
#
#
# Mechanical properties :
#
#
# Convention : Reuss Voigt Hill
#
# Bulk Modulus (GPa) = 30.53360 41.55905 36.04633
# Shear Modulus (GPa) = 3.35078 21.38014 12.36546
#
# Velocity S-wave (km/s) = 1.35364 3.41929 2.60037
# Velocity P-wave (km/s) = 4.37495 6.18991 5.35981
#
# Compressibility (1/GPa) = 0.03275081
#
# Stress axis : x y z
#
# Youngs Moduli (GPa) = 69.74398 32.51993 114.70813
#
# Poissons Ratio (x) = 0.10839 0.18633
# Poissons Ratio (y) = 0.23246 0.63895
# Poissons Ratio (z) = 0.11329 0.18114
#
# Static dielectric constant tensor:
#      x y z
#    x 1.603610 0.000000 -0.006910 
#    y 0.000000 1.603670 0.000000 
#    z -0.006910 0.000000 1.684000 
# 
# From -- ./inp_files/71411.got.cif
#   From: 2010.05.17/outbox.cif.g08.bks.cpg/sg12_36_cif.got.tgz:71411.got - 2010.06.03 13:09:07.
