data_PCOD9182727
_publ_section_title
;
Structure prediction by ZEFSAII (Michael W. Deem and Ramdas Pophale) SiO2 
 PCOD9182727
Probable space group: C 2/M
;
_chemical_formula_sum "Si O2"
_cell_formula_units_Z 56
_cell_length_a 21.988967
_cell_length_b 8.035888
_cell_length_c 20.866372
_cell_angle_alpha 90.000000
_cell_angle_beta 52.249611
_cell_angle_gamma 90.000000
_cell_volume 2915.341114
_symmetry_space_group_name_H-M "C 2/M"
_symmetry_group_IT_number 12
_symmetry_cell_setting 'monoclinic'
loop_
_space_group_symop_operation_xyz
x,y,z
-x,y,-z
-x,-y,-z
x,-y,z
1/2+x,1/2+y,z
1/2-x,1/2+y,-z
1/2-x,1/2-y,-z
1/2+x,1/2-y,z
loop_
_atom_site_type_symbol
_atom_site_label
_atom_site_fract_x
_atom_site_fract_y
_atom_site_fract_z
Si Si1 0.976945 0.306539 0.584272
Si Si2 0.717345 0.701284 0.615807
Si Si3 0.733476 0.697891 0.937779
Si Si4 0.333510 0.195717 0.755638
Si Si5 0.869431 0.196061 0.457480
Si Si6 0.584308 0.190560 0.957535
Si Si7 0.176507 0.194938 0.780545
O O1 0.955151 0.500000 0.585819
O O2 0.907816 0.231712 0.671453
O O3 0.000000 0.231710 0.500000
O O4 0.054525 0.294791 0.574842
O O5 0.724123 0.500000 0.612077
O O6 0.802591 0.772927 0.552561
O O7 0.668104 0.749650 0.585590
O O8 0.677352 0.752613 0.707173
O O9 0.739521 0.500000 0.930838
O O10 0.796819 0.766207 0.845437
O O11 0.647918 0.739178 0.966091
O O12 0.750000 0.750000 0.000000
O O13 0.263322 0.202155 0.750922
O O14 0.351151 0.000000 0.757142
O O15 0.886945 0.000000 0.443112
O O16 0.625118 0.203097 0.862370
O O17 0.572065 0.000000 0.985268
O O18 0.500000 0.269224 0.000000
O O19 0.153010 0.000000 0.799035
#
# Coordination Sequence:
#
# PCOD9182727 Si02
#       7
#     8   8   8   8   8   8   8
#     4  10  19  33  53  74 100 138 178 212 258 318
#     4   9  18  34  53  72 100 139 177 213 260 318
#     4  10  20  37  60  83 111 148 189 231 281 335
#     4   8  16  31  52  77 101 131 174 218 258 314
#     4  10  20  32  48  74 107 136 171 219 263 306
#     4  10  21  37  56  82 115 144 179 228 279 334
#     4   9  17  33  57  78  99 133 179 222 262 315
#
# _framework density 19.208729999999999
#
# number of rings (size 3 to 8) (size 9 to 14) (size 15 to 20)
#    0.000    2.571    0.000    3.000    0.000    4.857 
#    2.571    3.571    0.000    0.000    0.000    0.000 
#    0.000    0.000    0.000    0.000    0.000    0.000 
#
# Total GULP energy -156010.890179 kJ/mol
# GULP energy per Si atom -5571.817506 kJ/mol
# Density = 1.916501 g / cm^3
# Si number density = 19.208730 Si / 1000 Ang^3
#
#
#
# Elastic Constant Matrix: (Units=GPa)
#
#
# Indices 1 2 3 4 5 6 
#
# 1 77.8161 8.4848 75.6954 -0.0001 -3.3709 0.0002
# 2 8.4848 19.3086 10.4346 -0.0002 0.1798 0.0002
# 3 75.6954 10.4346 123.1679 -0.0001 1.5251 0.0001
# 4 -0.0001 -0.0002 -0.0001 17.2757 0.0001 0.7151
# 5 -3.3709 0.1798 1.5251 0.0001 33.4015 -0.0001
# 6 0.0002 0.0002 0.0001 0.7151 -0.0001 20.0384
#
#
#
# Elastic Compliance Matrix: (Units=1/GPa)
#
#
# Indices 1 2 3 4 5 6 
#
# 1 0.032781 -0.003698 -0.019885 0.000000 0.004236 0.000000
# 2 -0.003698 0.054693 -0.002354 0.000001 -0.000560 0.000000
# 3 -0.019885 -0.002354 0.020576 0.000000 -0.002934 0.000000
# 4 0.000000 0.000001 0.000000 0.057970 0.000000 -0.002069
# 5 0.004236 -0.000560 -0.002934 0.000000 0.030503 0.000000
# 6 0.000000 0.000000 0.000000 -0.002069 0.000000 0.049978
#
#
# Mechanical properties :
#
#
# Convention : Reuss Voigt Hill
#
# Bulk Modulus (GPa) = 17.80160 45.50246 31.65203
# Shear Modulus (GPa) = 15.76787 22.52163 19.14475
#
# Velocity S-wave (km/s) = 2.86819 3.42785 3.16043
# Velocity P-wave (km/s) = 4.50070 6.27748 5.46182
#
# Compressibility (1/GPa) = 0.05617473
#
# Stress axis : x y z
#
# Youngs Moduli (GPa) = 30.50547 18.28400 48.60103
#
# Poissons Ratio (x) = 0.06762 0.96645
# Poissons Ratio (y) = 0.11281 0.11439
# Poissons Ratio (z) = 0.60661 0.04304
#
# Static dielectric constant tensor:
#      x y z
#    x 1.659660 0.000000 0.009250 
#    y 0.000000 1.699840 0.000000 
#    z 0.009250 0.000000 1.698040 
# 
# From -- ./inp_files/319693.got.cif
#   From: 2010.05.17/outbox.cif.g08.bks.cpg/sg12_160_cif.got.tgz:319693.got - 2010.06.03 13:09:07.
