data_PCOD9182901
_publ_section_title
;
Structure prediction by ZEFSAII (Michael W. Deem and Ramdas Pophale) SiO2 
 PCOD9182901
Probable space group: C 2/M
;
_chemical_formula_sum "Si O2"
_cell_formula_units_Z 64
_cell_length_a 15.491405
_cell_length_b 17.294432
_cell_length_c 12.057269
_cell_angle_alpha 90.000000
_cell_angle_beta 110.689311
_cell_angle_gamma 90.000000
_cell_volume 3022.000112
_symmetry_space_group_name_H-M "C 2/M"
_symmetry_group_IT_number 12
_symmetry_cell_setting 'monoclinic'
loop_
_space_group_symop_operation_xyz
x,y,z
-x,y,-z
-x,-y,-z
x,-y,z
1/2+x,1/2+y,z
1/2-x,1/2+y,-z
1/2-x,1/2-y,-z
1/2+x,1/2-y,z
loop_
_atom_site_type_symbol
_atom_site_label
_atom_site_fract_x
_atom_site_fract_y
_atom_site_fract_z
Si Si1 0.657668 0.585235 0.736652
Si Si2 0.856326 0.588920 0.943302
Si Si3 0.776535 0.679321 0.094056
Si Si4 0.919282 0.291399 0.796231
Si Si5 0.085323 0.128742 0.103688
Si Si6 0.551928 0.584180 0.322503
Si Si7 0.570928 0.752532 0.432121
Si Si8 0.294826 0.743671 0.334856
O O1 0.663763 0.500000 0.686431
O O2 0.748480 0.592269 0.854255
O O3 0.558595 0.588761 0.750868
O O4 0.661186 0.658641 0.658844
O O5 0.884192 0.500000 0.960600
O O6 0.913248 0.637479 0.877963
O O7 0.850990 0.629607 0.060212
O O8 0.679627 0.636715 0.077800
O O9 0.812541 0.710880 0.228168
O O10 0.750000 0.750000 0.000000
O O11 0.950079 0.214495 0.874274
O O12 0.961117 0.297787 0.692859
O O13 0.813860 0.269808 0.715610
O O14 0.103022 0.087571 0.228291
O O15 0.000000 0.092593 0.000000
O O16 0.568008 0.500000 0.383832
O O17 0.575613 0.662263 0.398186
O O18 0.500000 0.760916 0.500000
O O19 0.665306 0.779258 0.534870
#
# Coordination Sequence:
#
# PCOD9182901 Si02
#       8
#     8   8   8   8   8   8   8   8
#     4   9  16  28  49  77 111 147 176 208 253 314
#     4  10  19  34  58  82 107 140 182 223 275 329
#     4  11  19  34  56  84 109 141 177 229 274 319
#     4   9  20  36  52  79 107 139 181 232 267 312
#     4  10  20  31  54  80 112 149 186 218 267 326
#     4  10  21  33  46  76 122 156 180 214 259 317
#     4  11  21  34  54  79 104 148 192 223 261 319
#     4  10  19  33  53  78 109 142 185 224 267 306
#
# _framework density 21.178027
#
# number of rings (size 3 to 8) (size 9 to 14) (size 15 to 20)
#    0.000    2.000    5.000    1.125    0.000    1.500 
#    0.000    0.000    0.000    1.500    0.000    0.000 
#    0.000    0.000    0.000    0.000    0.000    0.000 
#
# Total GULP energy -178523.781399 kJ/mol
# GULP energy per Si atom -5578.868169 kJ/mol
# Density = 2.112982 g / cm^3
# Si number density = 21.178027 Si / 1000 Ang^3
#
#
#
# Elastic Constant Matrix: (Units=GPa)
#
#
# Indices 1 2 3 4 5 6 
#
# 1 62.7892 6.3803 34.5131 0.0000 -14.7049 0.0000
# 2 6.3803 97.7378 34.7060 0.0000 -13.6871 0.0000
# 3 34.5131 34.7060 121.8198 0.0000 -17.8853 0.0000
# 4 0.0000 0.0000 0.0000 8.0492 0.0000 -2.9659
# 5 -14.7049 -13.6871 -17.8853 0.0000 37.9401 0.0000
# 6 0.0000 0.0000 0.0000 -2.9659 0.0000 18.0412
#
#
#
# Elastic Compliance Matrix: (Units=1/GPa)
#
#
# Indices 1 2 3 4 5 6 
#
# 1 0.020004 0.001352 -0.005203 0.000000 0.005788 0.000000
# 2 0.001352 0.011752 -0.003257 0.000000 0.003228 0.000000
# 3 -0.005203 -0.003257 0.010896 0.000000 0.001945 0.000000
# 4 0.000000 0.000000 0.000000 0.132247 0.000000 0.021741
# 5 0.005788 0.003228 0.001945 0.000000 0.030682 0.000000
# 6 0.000000 0.000000 0.000000 0.021741 0.000000 0.059003
#
#
# Mechanical properties :
#
#
# Convention : Reuss Voigt Hill
#
# Bulk Modulus (GPa) = 35.16549 48.17171 41.66860
# Shear Modulus (GPa) = 17.34429 26.58926 21.96678
#
# Velocity S-wave (km/s) = 2.86488 3.54716 3.22412
# Velocity P-wave (km/s) = 5.25206 6.29062 5.79466
#
# Compressibility (1/GPa) = 0.02843697
#
# Stress axis : x y z
#
# Youngs Moduli (GPa) = 49.98902 85.09285 91.77314
#
# Poissons Ratio (x) = -0.11507 0.47749
# Poissons Ratio (y) = -0.06760 0.29892
# Poissons Ratio (z) = 0.26009 0.27717
#
# Static dielectric constant tensor:
#      x y z
#    x 1.847910 0.000000 -0.009380 
#    y 0.000000 1.769620 0.000000 
#    z -0.009380 0.000000 1.817050 
# 
# From -- ./inp_files/157881.got.cif
#   From: 2010.05.17/outbox.cif.g08.bks.cpg/sg12_79_cif.got.tgz:157881.got - 2010.06.03 13:09:07.
