data_PCOD9182268
_publ_section_title
;
Structure prediction by ZEFSAII (Michael W. Deem and Ramdas Pophale) SiO2 
 PCOD9182268
Probable space group: C 2/M
;
_chemical_formula_sum "Si O2"
_cell_formula_units_Z 56
_cell_length_a 23.149150
_cell_length_b 28.506762
_cell_length_c 10.431782
_cell_angle_alpha 90.000000
_cell_angle_beta 153.535545
_cell_angle_gamma 90.000000
_cell_volume 3067.807276
_symmetry_space_group_name_H-M "C 2/M"
_symmetry_group_IT_number 12
_symmetry_cell_setting 'monoclinic'
loop_
_space_group_symop_operation_xyz
x,y,z
-x,y,-z
-x,-y,-z
x,-y,z
1/2+x,1/2+y,z
1/2-x,1/2+y,-z
1/2-x,1/2-y,-z
1/2+x,1/2-y,z
loop_
_atom_site_type_symbol
_atom_site_label
_atom_site_fract_x
_atom_site_fract_y
_atom_site_fract_z
Si Si1 0.613498 0.629513 0.559250
Si Si2 0.709464 0.556264 0.542039
Si Si3 0.869371 0.230817 0.325035
Si Si4 0.062458 0.328582 0.482490
Si Si5 0.673742 0.613468 0.961118
Si Si6 0.480459 0.892730 0.101651
Si Si7 0.251300 0.445366 0.663559
O O1 0.640975 0.593794 0.498725
O O2 0.668988 0.682561 0.680153
O O3 0.661530 0.604354 0.785711
O O4 0.459695 0.637559 0.263338
O O5 0.690149 0.500000 0.528661
O O6 0.676993 0.566203 0.327824
O O7 0.860690 0.571288 0.858739
O O8 0.909215 0.274488 0.493430
O O9 0.000000 0.222357 0.500000
O O10 0.750000 0.250000 0.000000
O O11 0.974237 0.355272 0.203652
O O12 0.000000 0.330391 0.500000
O O13 0.200783 0.354730 0.765718
O O14 0.682641 0.569587 0.073480
O O15 0.611988 0.921097 0.385078
O O16 0.500000 0.870138 0.000000
O O17 0.231175 0.500000 0.619865
#
# Coordination Sequence:
#
# PCOD9182268 Si02
#       7
#     8   8   8   8   8   8   8
#     4  11  21  36  55  78 114 146 181 233 274 324
#     4  10  21  36  56  83 111 146 188 228 274 333
#     4  11  20  35  59  85 111 149 189 229 280 342
#     4  10  19  32  59  86 105 141 185 228 275 333
#     4  10  20  36  52  78 113 141 179 226 278 325
#     4   9  18  34  57  82 115 139 178 234 284 326
#     4   9  19  36  58  78 105 148 188 225 277 334
#
# _framework density 18.254079999999998
#
# number of rings (size 3 to 8) (size 9 to 14) (size 15 to 20)
#    0.000    2.000    2.857    1.286    2.000    3.429 
#    0.000    2.857    3.143    7.286    0.000    0.000 
#    0.000    0.000    0.000    0.000    0.000    0.000 
#
# Total GULP energy -155907.579499 kJ/mol
# GULP energy per Si atom -5568.127839 kJ/mol
# Density = 1.821253 g / cm^3
# Si number density = 18.254080 Si / 1000 Ang^3
#
#
#
# Elastic Constant Matrix: (Units=GPa)
#
#
# Indices 1 2 3 4 5 6 
#
# 1 88.9177 61.6978 18.8238 0.0000 -10.6249 0.0000
# 2 61.6978 96.6632 10.3083 0.0000 -21.2587 0.0000
# 3 18.8238 10.3083 43.4070 0.0000 -1.9423 0.0000
# 4 0.0000 0.0000 0.0000 11.1508 0.0000 2.0979
# 5 -10.6249 -21.2587 -1.9423 0.0000 30.7585 0.0000
# 6 0.0000 0.0000 0.0000 2.0979 0.0000 25.2131
#
#
#
# Elastic Compliance Matrix: (Units=1/GPa)
#
#
# Indices 1 2 3 4 5 6 
#
# 1 0.021890 -0.013825 -0.006317 0.000000 -0.002392 0.000000
# 2 -0.013825 0.021213 0.001404 0.000000 0.009975 0.000000
# 3 -0.006317 0.001404 0.025462 0.000000 0.000396 0.000000
# 4 0.000000 0.000000 0.000000 0.091106 0.000000 -0.007580
# 5 -0.002392 0.009975 0.000396 0.000000 0.038604 0.000000
# 6 0.000000 0.000000 0.000000 -0.007580 0.000000 0.040293
#
#
# Mechanical properties :
#
#
# Convention : Reuss Voigt Hill
#
# Bulk Modulus (GPa) = 32.16515 45.62754 38.89634
# Shear Modulus (GPa) = 17.45775 22.63500 20.04637
#
# Velocity S-wave (km/s) = 3.09589 3.52518 3.31748
# Velocity P-wave (km/s) = 5.51710 6.45130 6.00240
#
# Compressibility (1/GPa) = 0.03108955
#
# Stress axis : x y z
#
# Youngs Moduli (GPa) = 45.68240 47.14079 39.27498
#
# Poissons Ratio (x) = 0.65170 0.24810
# Poissons Ratio (y) = 0.63154 -0.05513
# Poissons Ratio (z) = 0.28857 -0.06617
#
# Static dielectric constant tensor:
#      x y z
#    x 1.661800 0.000000 0.005330 
#    y 0.000000 1.628780 0.000000 
#    z 0.005330 0.000000 1.663810 
# 
# From -- ./inp_files/91642.got.cif
#   From: 2010.05.17/outbox.cif.g08.bks.cpg/sg12_46_cif.got.tgz:91642.got - 2010.06.03 13:09:07.
