data_PCOD9182911
_publ_section_title
;
Structure prediction by ZEFSAII (Michael W. Deem and Ramdas Pophale) SiO2 
 PCOD9182911
Probable space group: C 2/M
;
_chemical_formula_sum "Si O2"
_cell_formula_units_Z 48
_cell_length_a 25.086897
_cell_length_b 20.347087
_cell_length_c 14.686342
_cell_angle_alpha 90.000000
_cell_angle_beta 19.593977
_cell_angle_gamma 90.000000
_cell_volume 2513.995079
_symmetry_space_group_name_H-M "C 2/M"
_symmetry_group_IT_number 12
_symmetry_cell_setting 'monoclinic'
loop_
_space_group_symop_operation_xyz
x,y,z
-x,y,-z
-x,-y,-z
x,-y,z
1/2+x,1/2+y,z
1/2-x,1/2+y,-z
1/2-x,1/2-y,-z
1/2+x,1/2-y,z
loop_
_atom_site_type_symbol
_atom_site_label
_atom_site_fract_x
_atom_site_fract_y
_atom_site_fract_z
Si Si1 0.177188 0.078159 0.241263
Si Si2 0.410011 0.733057 0.852111
Si Si3 0.119576 0.424738 0.719596
Si Si4 0.354433 0.841165 0.080267
Si Si5 0.213220 0.805472 0.484157
Si Si6 0.127697 0.345437 0.222244
O O1 0.221298 0.105253 0.270244
O O2 0.000000 0.100649 0.500000
O O3 0.181022 0.000000 0.234704
O O4 0.307679 0.105678 0.959853
O O5 0.555158 0.707705 0.679873
O O6 0.448280 0.780438 0.704328
O O7 0.325149 0.784418 0.055530
O O8 0.286764 0.678898 0.017385
O O9 0.153044 0.500000 0.639459
O O10 0.269590 0.378707 0.501779
O O11 0.000000 0.428526 0.000000
O O12 0.018663 0.381430 0.810000
O O13 0.345292 0.807368 0.192424
O O14 0.250000 0.750000 0.500000
O O15 0.000000 0.371768 0.500000
#
# Coordination Sequence:
#
# PCOD9182911 Si02
#       6
#     8   8   8   8   8   8
#     4  10  21  37  59  86 116 156 202 252 306 371
#     4  10  20  34  55  81 116 153 193 247 299 356
#     4   9  18  32  50  75 110 147 185 234 293 352
#     4  10  19  33  53  78 113 149 193 243 297 355
#     4  11  20  32  53  84 114 148 196 250 301 347
#     4  10  21  37  57  85 119 157 197 248 310 363
#
# _framework density 19.093115999999998
#
# number of rings (size 3 to 8) (size 9 to 14) (size 15 to 20)
#    0.000    2.000    1.667    2.500    0.000    5.667 
#    0.000    0.833    0.000    0.000    0.000    2.333 
#    0.000    0.000    0.000    0.000    0.000    0.000 
#
# Total GULP energy -133628.125803 kJ/mol
# GULP energy per Si atom -5567.838575 kJ/mol
# Density = 1.904966 g / cm^3
# Si number density = 19.093116 Si / 1000 Ang^3
#
#
#
# Elastic Constant Matrix: (Units=GPa)
#
#
# Indices 1 2 3 4 5 6 
#
# 1 100.1577 32.2605 30.4942 0.0008 -18.1927 -0.0003
# 2 32.2605 87.5901 25.9721 0.0034 -6.7676 -0.0001
# 3 30.4942 25.9721 59.4361 0.0018 -11.1653 -0.0006
# 4 0.0008 0.0034 0.0018 21.8536 0.0008 -10.7080
# 5 -18.1927 -6.7676 -11.1653 0.0008 46.0860 0.0006
# 6 -0.0003 -0.0001 -0.0006 -10.7080 0.0006 23.5177
#
#
#
# Elastic Compliance Matrix: (Units=1/GPa)
#
#
# Indices 1 2 3 4 5 6 
#
# 1 0.013066 -0.003157 -0.004654 0.000000 0.003567 0.000000
# 2 -0.003157 0.013893 -0.004507 -0.000002 -0.000298 -0.000001
# 3 -0.004654 -0.004507 0.021700 -0.000001 0.002758 0.000000
# 4 0.000000 -0.000002 -0.000001 0.058900 -0.000002 0.026818
# 5 0.003567 -0.000298 0.002758 -0.000002 0.023731 -0.000001
# 6 0.000000 -0.000001 0.000000 0.026818 -0.000001 0.054732
#
#
# Mechanical properties :
#
#
# Convention : Reuss Voigt Hill
#
# Bulk Modulus (GPa) = 41.62687 47.18194 44.40440
# Shear Modulus (GPa) = 22.86597 28.85527 25.86062
#
# Velocity S-wave (km/s) = 3.46439 3.89175 3.68427
# Velocity P-wave (km/s) = 6.15240 6.70518 6.43473
#
# Compressibility (1/GPa) = 0.02402295
#
# Stress axis : x y z
#
# Youngs Moduli (GPa) = 76.53521 71.97909 46.08226
#
# Poissons Ratio (x) = 0.22722 0.21447
# Poissons Ratio (y) = 0.24160 0.20770
# Poissons Ratio (z) = 0.35621 0.32443
#
# Static dielectric constant tensor:
#      x y z
#    x 1.753870 0.000000 -0.016340 
#    y 0.000000 1.676310 0.000000 
#    z -0.016340 0.000000 1.712590 
# 
# From -- ./inp_files/131791.got.cif
#   From: 2010.05.17/outbox.cif.g08.bks.cpg/sg12_66_cif.got.tgz:131791.got - 2010.06.03 13:09:07.
