data_PCOD9182894
_publ_section_title
;
Structure prediction by ZEFSAII (Michael W. Deem and Ramdas Pophale) SiO2 
 PCOD9182894
Probable space group: C 2/M
;
_chemical_formula_sum "Si O2"
_cell_formula_units_Z 56
_cell_length_a 26.034988
_cell_length_b 14.645156
_cell_length_c 12.884237
_cell_angle_alpha 90.000000
_cell_angle_beta 140.725025
_cell_angle_gamma 90.000000
_cell_volume 3109.876756
_symmetry_space_group_name_H-M "C 2/M"
_symmetry_group_IT_number 12
_symmetry_cell_setting 'monoclinic'
loop_
_space_group_symop_operation_xyz
x,y,z
-x,y,-z
-x,-y,-z
x,-y,z
1/2+x,1/2+y,z
1/2-x,1/2+y,-z
1/2-x,1/2-y,-z
1/2+x,1/2-y,z
loop_
_atom_site_type_symbol
_atom_site_label
_atom_site_fract_x
_atom_site_fract_y
_atom_site_fract_z
Si Si1 0.394935 0.607658 0.532531
Si Si2 0.596072 0.604092 0.680723
Si Si3 0.083262 0.891725 0.070447
Si Si4 0.564256 0.710778 0.828279
Si Si5 0.554374 0.889490 0.920360
Si Si6 0.219323 0.146885 0.453039
Si Si7 0.107888 0.397446 0.223918
O O1 0.420671 0.500000 0.577245
O O2 0.362413 0.623863 0.364973
O O3 0.471443 0.673518 0.672025
O O4 0.328706 0.623357 0.517121
O O5 0.500000 0.606475 0.500000
O O6 0.614639 0.500000 0.741592
O O7 0.608296 0.672258 0.794741
O O8 0.158270 0.874715 0.264723
O O9 0.076280 0.000000 0.038039
O O10 0.093196 0.837520 0.979356
O O11 0.000000 0.864166 0.000000
O O12 0.572356 0.819515 0.855903
O O13 0.463913 0.859038 0.817732
O O14 0.559189 0.000000 0.905970
O O15 0.608970 0.863177 0.106960
O O16 0.250000 0.250000 0.500000
O O17 0.305851 0.098730 0.587999
O O18 0.079512 0.500000 0.163880
#
# Coordination Sequence:
#
# PCOD9182894 Si02
#       7
#     8   8   8   8   8   8   8
#     4  10  19  33  53  78 108 139 179 226 265 314
#     4   8  16  30  50  75 101 136 180 222 263 311
#     4  11  22  33  50  80 118 148 170 213 281 339
#     4  11  18  30  53  77 108 141 179 218 272 328
#     4   9  19  33  51  74 102 141 185 228 267 312
#     4  12  22  32  49  80 112 144 176 211 266 328
#     4   9  18  33  48  66  99 139 180 218 254 306
#
# _framework density 18.007144
#
# number of rings (size 3 to 8) (size 9 to 14) (size 15 to 20)
#    0.000    2.000    1.429    6.000    2.000    0.000 
#    0.000    0.000    0.000    7.286    0.000    2.000 
#    0.000    0.000    0.000    0.000    0.000    0.429 
#
# Total GULP energy -155954.989433 kJ/mol
# GULP energy per Si atom -5569.821051 kJ/mol
# Density = 1.796616 g / cm^3
# Si number density = 18.007144 Si / 1000 Ang^3
#
#
#
# Elastic Constant Matrix: (Units=GPa)
#
#
# Indices 1 2 3 4 5 6 
#
# 1 44.2883 22.8039 39.3820 0.0000 -28.0489 0.0000
# 2 22.8039 108.3682 32.8941 0.0000 -26.2603 0.0000
# 3 39.3820 32.8941 105.4609 0.0000 -5.8839 0.0000
# 4 0.0000 0.0000 0.0000 27.0865 0.0000 -5.4587
# 5 -28.0489 -26.2603 -5.8839 0.0000 34.1398 0.0000
# 6 0.0000 0.0000 0.0000 -5.4587 0.0000 20.6600
#
#
#
# Elastic Compliance Matrix: (Units=1/GPa)
#
#
# Indices 1 2 3 4 5 6 
#
# 1 0.111239 0.011274 -0.039856 0.000000 0.093195 0.000000
# 2 0.011274 0.013570 -0.007415 0.000000 0.018423 0.000000
# 3 -0.039856 -0.007415 0.024771 0.000000 -0.034180 0.000000
# 4 0.000000 0.000000 0.000000 0.038995 0.000000 0.010303
# 5 0.093195 0.018423 -0.034180 0.000000 0.114140 0.000000
# 6 0.000000 0.000000 0.000000 0.010303 0.000000 0.051125
#
#
# Mechanical properties :
#
#
# Convention : Reuss Voigt Hill
#
# Bulk Modulus (GPa) = 12.88900 49.80859 31.34879
# Shear Modulus (GPa) = 11.06935 27.24642 19.15789
#
# Velocity S-wave (km/s) = 2.48204 3.89407 3.26529
# Velocity P-wave (km/s) = 3.92267 6.92379 5.62699
#
# Compressibility (1/GPa) = 0.07758555
#
# Stress axis : x y z
#
# Youngs Moduli (GPa) = 8.98967 73.68933 40.36904
#
# Poissons Ratio (x) = -0.83075 1.60897
# Poissons Ratio (y) = -0.10135 0.29933
# Poissons Ratio (z) = 0.35830 0.54639
#
# Static dielectric constant tensor:
#      x y z
#    x 1.671050 0.000000 0.012250 
#    y 0.000000 1.607830 0.000000 
#    z 0.012250 0.000000 1.653260 
# 
# From -- ./inp_files/183570.got.cif
#   From: 2010.05.17/outbox.cif.g08.bks.cpg/sg12_92_cif.got.tgz:183570.got - 2010.06.03 13:09:07.
