data_PCOD9182114
_publ_section_title
;
Structure prediction by ZEFSAII (Michael W. Deem and Ramdas Pophale) SiO2 
 PCOD9182114
Probable space group: C 2/M
;
_chemical_formula_sum "Si O2"
_cell_formula_units_Z 60
_cell_length_a 13.266897
_cell_length_b 13.514925
_cell_length_c 30.052055
_cell_angle_alpha 90.000000
_cell_angle_beta 43.500916
_cell_angle_gamma 90.000000
_cell_volume 3709.169607
_symmetry_space_group_name_H-M "C 2/M"
_symmetry_group_IT_number 12
_symmetry_cell_setting 'monoclinic'
loop_
_space_group_symop_operation_xyz
x,y,z
-x,y,-z
-x,-y,-z
x,-y,z
1/2+x,1/2+y,z
1/2-x,1/2+y,-z
1/2-x,1/2-y,-z
1/2+x,1/2-y,z
loop_
_atom_site_type_symbol
_atom_site_label
_atom_site_fract_x
_atom_site_fract_y
_atom_site_fract_z
Si Si1 0.973196 0.113741 0.927963
Si Si2 0.034032 0.117298 0.660174
Si Si3 0.135603 0.382152 0.424729
Si Si4 0.490918 0.729041 0.766079
Si Si5 0.708861 0.115750 0.217816
Si Si6 0.791821 0.116085 0.899454
Si Si7 0.000000 0.262569 0.000000
Si Si8 0.676880 0.231136 0.319774
O O1 0.843558 0.123751 0.933926
O O2 0.124731 0.129347 0.852349
O O3 0.974974 0.000000 0.943939
O O4 0.961695 0.191418 0.971097
O O5 0.998079 0.154448 0.721686
O O6 0.933076 0.181438 0.659485
O O7 0.208623 0.137237 0.600854
O O8 0.009116 0.000000 0.663462
O O9 0.132307 0.500000 0.416147
O O10 0.129536 0.323046 0.380353
O O11 0.000000 0.357913 0.500000
O O12 0.394735 0.821496 0.781280
O O13 0.411308 0.671710 0.831205
O O14 0.654564 0.762286 0.726189
O O15 0.684993 0.156589 0.275214
O O16 0.675709 0.000000 0.226951
O O17 0.637013 0.169165 0.943466
O O18 0.786283 0.000000 0.889549
#
# Coordination Sequence:
#
# PCOD9182114 Si02
#       8
#     8   8   8   8   8   8   4   8
#     4  10  21  36  55  75  99 132 168 210 259 310
#     4   9  19  33  51  78 107 137 172 211 254 300
#     4   9  18  33  53  79 109 140 174 211 251 298
#     4  10  19  34  52  75 102 132 168 213 260 305
#     4  10  19  33  53  77  99 128 171 212 253 302
#     4  11  22  36  54  75 100 133 171 213 259 310
#     4  12  22  38  54  74 104 134 168 214 260 318
#     4  10  19  32  56  77 103 138 172 212 256 299
#
# _framework density 16.176127000000001
#
# number of rings (size 3 to 8) (size 9 to 14) (size 15 to 20)
#    0.000    2.000    2.667    1.600    0.000    2.133 
#    0.000    0.000    0.000    1.200    0.000    0.000 
#    0.000    0.000    0.000    0.000    0.000    0.000 
#
# Total GULP energy -167319.683966 kJ/mol
# GULP energy per Si atom -5577.322799 kJ/mol
# Density = 1.613931 g / cm^3
# Si number density = 16.176127 Si / 1000 Ang^3
#
#
#
# Elastic Constant Matrix: (Units=GPa)
#
#
# Indices 1 2 3 4 5 6 
#
# 1 78.1228 30.9881 7.9446 0.0000 -3.8427 0.0000
# 2 30.9881 57.7821 -0.5981 0.0000 -2.8882 0.0000
# 3 7.9446 -0.5981 31.7787 0.0000 -6.5588 0.0000
# 4 0.0000 0.0000 0.0000 19.1978 0.0000 -1.9789
# 5 -3.8427 -2.8882 -6.5588 0.0000 20.7603 0.0000
# 6 0.0000 0.0000 0.0000 -1.9789 0.0000 26.2377
#
#
#
# Elastic Compliance Matrix: (Units=1/GPa)
#
#
# Indices 1 2 3 4 5 6 
#
# 1 0.016853 -0.009057 -0.004279 0.000000 0.000508 0.000000
# 2 -0.009057 0.022318 0.003187 0.000000 0.002435 0.000000
# 3 -0.004279 0.003187 0.034794 0.000000 0.010644 0.000000
# 4 0.000000 0.000000 0.000000 0.052497 0.000000 0.003960
# 5 0.000508 0.002435 0.010644 0.000000 0.051964 0.000000
# 6 0.000000 0.000000 0.000000 0.003960 0.000000 0.038412
#
#
# Mechanical properties :
#
#
# Convention : Reuss Voigt Hill
#
# Bulk Modulus (GPa) = 18.63331 27.15030 22.89181
# Shear Modulus (GPa) = 19.60584 21.86243 20.73414
#
# Velocity S-wave (km/s) = 3.48519 3.68030 3.58407
# Velocity P-wave (km/s) = 5.26682 5.90593 5.59551
#
# Compressibility (1/GPa) = 0.05366734
#
# Stress axis : x y z
#
# Youngs Moduli (GPa) = 59.33652 44.80615 28.74055
#
# Poissons Ratio (x) = 0.40581 0.12298
# Poissons Ratio (y) = 0.53742 -0.09159
# Poissons Ratio (z) = 0.25389 -0.14279
#
# Static dielectric constant tensor:
#      x y z
#    x 1.535360 0.000000 -0.008780 
#    y 0.000000 1.516110 0.000000 
#    z -0.008780 0.000000 1.524460 
# 
# From -- ./inp_files/335921.got.cif
#   From: 2010.05.17/outbox.cif.g08.bks.cpg/sg12_168_cif.got.tgz:335921.got - 2010.06.03 13:09:07.
