data_PCOD9182772
_publ_section_title
;
Structure prediction by ZEFSAII (Michael W. Deem and Ramdas Pophale) SiO2 
 PCOD9182772
Probable space group: C 2/M
;
_chemical_formula_sum "Si O2"
_cell_formula_units_Z 56
_cell_length_a 22.071257
_cell_length_b 14.505593
_cell_length_c 9.325418
_cell_angle_alpha 90.000000
_cell_angle_beta 74.252143
_cell_angle_gamma 90.000000
_cell_volume 2873.531642
_symmetry_space_group_name_H-M "C 2/M"
_symmetry_group_IT_number 12
_symmetry_cell_setting 'monoclinic'
loop_
_space_group_symop_operation_xyz
x,y,z
-x,y,-z
-x,-y,-z
x,-y,z
1/2+x,1/2+y,z
1/2-x,1/2+y,-z
1/2-x,1/2-y,-z
1/2+x,1/2-y,z
loop_
_atom_site_type_symbol
_atom_site_label
_atom_site_fract_x
_atom_site_fract_y
_atom_site_fract_z
Si Si1 0.229062 0.647190 0.053674
Si Si2 0.484164 0.394704 0.841372
Si Si3 0.103297 0.392102 0.636932
Si Si4 0.344857 0.598760 0.805586
Si Si5 0.152700 0.712280 0.350800
Si Si6 0.400153 0.894026 0.024742
Si Si7 0.477454 0.202563 0.738708
O O1 0.289727 0.595054 0.958423
O O2 0.167651 0.617503 0.005147
O O3 0.250000 0.750000 0.000000
O O4 0.204203 0.651490 0.231964
O O5 0.503807 0.500000 0.787467
O O6 0.409683 0.387895 0.851997
O O7 0.507685 0.304725 0.739020
O O8 0.500000 0.384912 0.000000
O O9 0.116224 0.500000 0.599601
O O10 0.146149 0.324443 0.515050
O O11 0.108711 0.374146 0.802821
O O12 0.030590 0.367331 0.653877
O O13 0.348625 0.500000 0.727886
O O14 0.333837 0.681433 0.700162
O O15 0.083223 0.699607 0.324845
O O16 0.421464 0.000000 0.995110
O O17 0.448900 0.829319 0.910032
#
# Coordination Sequence:
#
# PCOD9182772 Si02
#       7
#     8   8   8   8   8   8   8
#     4   9  18  34  55  77 100 133 175 211 249 303
#     4   9  17  30  51  79 105 128 163 215 264 302
#     4  11  22  34  50  75 108 141 171 213 266 309
#     4   9  17  32  54  75  99 135 174 210 253 309
#     4   9  20  34  49  77 107 133 172 217 258 302
#     4  10  20  33  52  78 106 138 175 213 255 306
#     4  10  19  33  53  75 104 141 178 212 252 311
#
# _framework density 19.488215
#
# number of rings (size 3 to 8) (size 9 to 14) (size 15 to 20)
#    0.000    2.429    0.000    3.429    0.000    5.143 
#    0.000    3.571    0.000    4.286    0.000    6.000 
#    0.000    0.000    0.000    0.000    0.000    0.000 
#
# Total GULP energy -155955.564844 kJ/mol
# GULP energy per Si atom -5569.841602 kJ/mol
# Density = 1.944386 g / cm^3
# Si number density = 19.488215 Si / 1000 Ang^3
#
#
#
# Elastic Constant Matrix: (Units=GPa)
#
#
# Indices 1 2 3 4 5 6 
#
# 1 17.0882 8.1923 7.0387 0.0000 -8.0146 0.0000
# 2 8.1923 101.3893 52.9618 0.0000 3.6028 0.0000
# 3 7.0387 52.9618 84.5430 0.0000 -7.8794 0.0000
# 4 0.0000 0.0000 0.0000 17.2033 0.0000 4.4968
# 5 -8.0146 3.6028 -7.8794 0.0000 17.3370 0.0000
# 6 0.0000 0.0000 0.0000 4.4968 0.0000 19.0305
#
#
#
# Elastic Compliance Matrix: (Units=1/GPa)
#
#
# Indices 1 2 3 4 5 6 
#
# 1 0.081015 -0.009606 0.003080 0.000000 0.040848 0.000000
# 2 -0.009606 0.016808 -0.010932 0.000000 -0.012902 0.000000
# 3 0.003080 -0.010932 0.019595 0.000000 0.012601 0.000000
# 4 0.000000 0.000000 0.000000 0.061955 0.000000 -0.014640
# 5 0.040848 -0.012902 0.012601 0.000000 0.084971 0.000000
# 6 0.000000 0.000000 0.000000 -0.014640 0.000000 0.056006
#
#
# Mechanical properties :
#
#
# Convention : Reuss Voigt Hill
#
# Bulk Modulus (GPa) = 12.12115 37.71181 24.91648
# Shear Modulus (GPa) = 13.06275 19.70268 16.38271
#
# Velocity S-wave (km/s) = 2.59180 3.18308 2.90254
# Velocity P-wave (km/s) = 3.89741 5.73606 4.90368
#
# Compressibility (1/GPa) = 0.08250045
#
# Stress axis : x y z
#
# Youngs Moduli (GPa) = 12.34343 59.49496 51.03422
#
# Poissons Ratio (x) = 0.57153 -0.15718
# Poissons Ratio (y) = 0.11858 0.55791
# Poissons Ratio (z) = -0.03802 0.65041
#
# Static dielectric constant tensor:
#      x y z
#    x 1.681200 0.000000 0.004180 
#    y 0.000000 1.741030 0.000000 
#    z 0.004180 0.000000 1.671150 
# 
# From -- ./inp_files/104450.got.cif
#   From: 2010.05.17/outbox.cif.g08.bks.cpg/sg12_53_cif.got.tgz:104450.got - 2010.06.03 13:09:07.
