data_PCOD9182910
_publ_section_title
;
Structure prediction by ZEFSAII (Michael W. Deem and Ramdas Pophale) SiO2 
 PCOD9182910
Probable space group: C 2/M
;
_chemical_formula_sum "Si O2"
_cell_formula_units_Z 56
_cell_length_a 7.752947
_cell_length_b 25.579859
_cell_length_c 21.236662
_cell_angle_alpha 90.000000
_cell_angle_beta 46.866136
_cell_angle_gamma 90.000000
_cell_volume 3073.479101
_symmetry_space_group_name_H-M "C 2/M"
_symmetry_group_IT_number 12
_symmetry_cell_setting 'monoclinic'
loop_
_space_group_symop_operation_xyz
x,y,z
-x,y,-z
-x,-y,-z
x,-y,z
1/2+x,1/2+y,z
1/2-x,1/2+y,-z
1/2-x,1/2-y,-z
1/2+x,1/2-y,z
loop_
_atom_site_type_symbol
_atom_site_label
_atom_site_fract_x
_atom_site_fract_y
_atom_site_fract_z
Si Si1 0.198510 0.689094 0.503675
Si Si2 0.120962 0.814656 0.862748
Si Si3 0.773607 0.615106 0.089240
Si Si4 0.863995 0.862508 0.674077
Si Si5 0.542205 0.194812 0.850929
Si Si6 0.935481 0.061241 0.270525
Si Si7 0.466017 0.131560 0.679061
O O1 0.250000 0.750000 0.500000
O O2 0.435103 0.661605 0.419943
O O3 0.000000 0.682592 0.500000
O O4 0.099402 0.663853 0.592066
O O5 0.291463 0.818276 0.880788
O O6 0.045106 0.754838 0.871481
O O7 0.279108 0.831823 0.762856
O O8 0.898180 0.853441 0.915516
O O9 0.881616 0.658121 0.110442
O O10 0.615118 0.575551 0.169012
O O11 0.000000 0.589971 0.000000
O O12 0.740664 0.817646 0.747956
O O13 0.656630 0.885861 0.682957
O O14 0.974165 0.905389 0.692671
O O15 0.682562 0.084643 0.313710
O O16 0.928622 0.000000 0.284253
#
# Coordination Sequence:
#
# PCOD9182910 Si02
#       7
#     8   8   8   8   8   8   8
#     4  12  22  34  56  90 125 159 188 226 272 327
#     4  10  19  33  53  78 112 156 188 221 273 341
#     4  10  22  37  55  83 114 142 184 236 285 345
#     4  10  21  37  57  83 117 149 194 238 278 331
#     4  10  19  33  53  78 112 156 188 221 273 341
#     4  10  22  42  64  82 107 147 194 244 292 337
#     4  10  21  37  57  83 117 149 194 238 278 331
#
# _framework density 18.220395
#
# number of rings (size 3 to 8) (size 9 to 14) (size 15 to 20)
#    0.000    1.714    2.857    2.143    0.000    4.286 
#    0.000    1.429    0.000    1.714    0.000    8.000 
#    0.000    0.000    0.000    0.000    0.000    0.000 
#
# Total GULP energy -156390.003221 kJ/mol
# GULP energy per Si atom -5585.357258 kJ/mol
# Density = 1.817892 g / cm^3
# Si number density = 18.220395 Si / 1000 Ang^3
#
#
#
# Elastic Constant Matrix: (Units=GPa)
#
#
# Indices 1 2 3 4 5 6 
#
# 1 109.7739 17.8407 7.1931 0.0000 -16.1611 0.0000
# 2 17.8407 80.8106 9.4695 0.0000 -9.7899 0.0000
# 3 7.1931 9.4695 73.1720 0.0000 -21.8700 0.0000
# 4 0.0000 0.0000 0.0000 3.8949 0.0000 -2.6994
# 5 -16.1611 -9.7899 -21.8700 0.0000 22.2313 0.0000
# 6 0.0000 0.0000 0.0000 -2.6994 0.0000 14.1378
#
#
#
# Elastic Compliance Matrix: (Units=1/GPa)
#
#
# Indices 1 2 3 4 5 6 
#
# 1 0.010519 -0.001471 0.001768 0.000000 0.008739 0.000000
# 2 -0.001471 0.013278 -0.000206 0.000000 0.004575 0.000000
# 3 0.001768 -0.000206 0.019656 0.000000 0.020531 0.000000
# 4 0.000000 0.000000 0.000000 0.295899 0.000000 0.056497
# 5 0.008739 0.004575 0.020531 0.000000 0.073546 0.000000
# 6 0.000000 0.000000 0.000000 0.056497 0.000000 0.081519
#
#
# Mechanical properties :
#
#
# Convention : Reuss Voigt Hill
#
# Bulk Modulus (GPa) = 22.91773 36.97369 29.94571
# Shear Modulus (GPa) = 9.82743 23.33637 16.58190
#
# Velocity S-wave (km/s) = 2.32494 3.58269 3.02002
# Velocity P-wave (km/s) = 4.45112 6.11970 5.35085
#
# Compressibility (1/GPa) = 0.04363433
#
# Stress axis : x y z
#
# Youngs Moduli (GPa) = 95.06286 75.31396 50.87610
#
# Poissons Ratio (x) = 0.11078 -0.08996
# Poissons Ratio (y) = 0.13983 0.01050
# Poissons Ratio (z) = -0.16808 0.01554
#
# Static dielectric constant tensor:
#      x y z
#    x 1.646720 0.000000 -0.018420 
#    y 0.000000 1.569280 0.000000 
#    z -0.018420 0.000000 1.674050 
# 
# From -- ./inp_files/333969.got.cif
#   From: 2010.05.17/outbox.cif.g08.bks.cpg/sg12_167_cif.got.tgz:333969.got - 2010.06.03 13:09:07.
