data_PCOD9182497
_publ_section_title
;
Structure prediction by ZEFSAII (Michael W. Deem and Ramdas Pophale) SiO2 
 PCOD9182497
Probable space group: C 2/M
;
_chemical_formula_sum "Si O2"
_cell_formula_units_Z 48
_cell_length_a 30.152419
_cell_length_b 8.435075
_cell_length_c 8.425928
_cell_angle_alpha 90.000000
_cell_angle_beta 81.926827
_cell_angle_gamma 90.000000
_cell_volume 2121.794484
_symmetry_space_group_name_H-M "C 2/M"
_symmetry_group_IT_number 12
_symmetry_cell_setting 'monoclinic'
loop_
_space_group_symop_operation_xyz
x,y,z
-x,y,-z
-x,-y,-z
x,-y,z
1/2+x,1/2+y,z
1/2-x,1/2+y,-z
1/2-x,1/2-y,-z
1/2+x,1/2-y,z
loop_
_atom_site_type_symbol
_atom_site_label
_atom_site_fract_x
_atom_site_fract_y
_atom_site_fract_z
Si Si1 0.871312 0.817334 0.134328
Si Si2 0.780394 0.322533 0.254417
Si Si3 0.960162 0.178563 0.890440
Si Si4 0.002295 0.500000 0.187111
Si Si5 0.447435 0.000000 0.477998
Si Si6 0.807698 0.322494 0.615420
Si Si7 0.104268 0.821679 0.504489
O O1 0.825710 0.719908 0.139836
O O2 0.887147 0.807044 0.310087
O O3 0.858962 0.000000 0.113781
O O4 0.913286 0.783026 0.000320
O O5 0.766249 0.500000 0.224241
O O6 0.793888 0.316785 0.435336
O O7 0.736858 0.213156 0.262929
O O8 0.973970 0.333164 0.784304
O O9 0.957286 0.000000 0.820838
O O10 0.000000 0.166189 0.000000
O O11 0.952992 0.500000 0.283690
O O12 0.000000 0.500000 0.000000
O O13 0.500000 0.000000 0.500000
O O14 0.423460 0.165457 0.527444
O O15 0.824134 0.500000 0.639574
O O16 0.848095 0.198949 0.608148
O O17 0.086200 0.000000 0.487778
#
# Coordination Sequence:
#
# PCOD9182497 Si02
#       7
#     8   8   8   4   4   8   8
#     4   9  17  27  44  71 103 138 177 216 268 317
#     4   9  16  22  36  63  99 138 171 212 258 317
#     4   9  17  29  45  69  97 130 170 215 254 306
#     4  10  20  34  56  76  98 136 178 216 266 319
#     4  12  26  40  54  80 110 138 184 232 271 313
#     4   9  15  26  41  62  95 135 178 212 258 316
#     4  10  19  33  52  70  97 141 180 217 264 327
#
# _framework density 22.622361999999999
#
# number of rings (size 3 to 8) (size 9 to 14) (size 15 to 20)
#    0.000    2.500    0.833    3.000    2.333    6.333 
#    0.000    0.000    0.000    0.000    0.000    0.000 
#    0.000    1.333    0.000    0.000    0.000    0.000 
#
# Total GULP energy -133810.335214 kJ/mol
# GULP energy per Si atom -5575.430634 kJ/mol
# Density = 2.257087 g / cm^3
# Si number density = 22.622362 Si / 1000 Ang^3
#
#
#
# Elastic Constant Matrix: (Units=GPa)
#
#
# Indices 1 2 3 4 5 6 
#
# 1 66.9944 54.5003 26.3027 0.0000 -30.8777 0.0000
# 2 54.5003 181.2311 20.0507 0.0000 -23.6008 0.0000
# 3 26.3027 20.0507 25.4807 0.0000 -13.3741 0.0000
# 4 0.0000 0.0000 0.0000 5.9886 0.0000 -35.0440
# 5 -30.8777 -23.6008 -13.3741 0.0000 31.0755 0.0000
# 6 0.0000 0.0000 0.0000 -35.0440 0.0000 10.2849
#
#
#
# Elastic Compliance Matrix: (Units=1/GPa)
#
#
# Indices 1 2 3 4 5 6 
#
# 1 0.041789 -0.006472 -0.024325 0.000000 0.026139 0.000000
# 2 -0.006472 0.007318 0.000599 0.000000 -0.000615 0.000000
# 3 -0.024325 0.000599 0.066446 0.000000 0.004882 0.000000
# 4 0.000000 0.000000 0.000000 -0.008817 0.000000 -0.030042
# 5 0.026139 -0.000615 0.004882 0.000000 0.059786 0.000000
# 6 0.000000 0.000000 0.000000 -0.030042 0.000000 -0.005134
#
#
# Mechanical properties :
#
#
# Convention : Reuss Voigt Hill
#
# Bulk Modulus (GPa) = 18.12974 52.82372 35.47673
# Shear Modulus (GPa) = 20.81873 20.99331 20.90602
#
# Velocity S-wave (km/s) = 3.03689 3.04960 3.04325
# Velocity P-wave (km/s) = 4.50870 5.98339 5.29761
#
# Compressibility (1/GPa) = 0.05515800
#
# Stress axis : x y z
#
# Youngs Moduli (GPa) = 23.92960 136.65683 15.04993
#
# Poissons Ratio (x) = 0.88441 0.36609
# Poissons Ratio (y) = 0.15487 -0.00902
# Poissons Ratio (z) = 0.58208 -0.08192
#
# Static dielectric constant tensor:
#      x y z
#    x 1.845310 0.000000 0.043990 
#    y 0.000000 1.797650 0.000000 
#    z 0.043990 0.000000 1.931780 
# 
# From -- ./inp_files/185758.got.cif
#   From: 2010.05.17/outbox.cif.g08.bks.cpg/sg12_93_cif.got.tgz:185758.got - 2010.06.03 13:09:07.
