data_PCOD9182725
_publ_section_title
;
Structure prediction by ZEFSAII (Michael W. Deem and Ramdas Pophale) SiO2 
 PCOD9182725
Probable space group: C 2/M
;
_chemical_formula_sum "Si O2"
_cell_formula_units_Z 56
_cell_length_a 19.632612
_cell_length_b 7.989882
_cell_length_c 25.861255
_cell_angle_alpha 90.000000
_cell_angle_beta 40.012496
_cell_angle_gamma 90.000000
_cell_volume 2608.245087
_symmetry_space_group_name_H-M "C 2/M"
_symmetry_group_IT_number 12
_symmetry_cell_setting 'monoclinic'
loop_
_space_group_symop_operation_xyz
x,y,z
-x,y,-z
-x,-y,-z
x,-y,z
1/2+x,1/2+y,z
1/2-x,1/2+y,-z
1/2-x,1/2-y,-z
1/2+x,1/2-y,z
loop_
_atom_site_type_symbol
_atom_site_label
_atom_site_fract_x
_atom_site_fract_y
_atom_site_fract_z
Si Si1 0.289764 0.301233 0.755624
Si Si2 0.417352 0.203657 0.171667
Si Si3 0.443858 0.697865 0.755559
Si Si4 0.830702 0.690475 0.495961
Si Si5 0.163682 0.695710 0.667538
Si Si6 0.460946 0.796346 0.579832
Si Si7 0.634613 0.799033 0.086309
O O1 0.281609 0.500000 0.769685
O O2 0.169935 0.235091 0.818522
O O3 0.364899 0.232981 0.757471
O O4 0.352125 0.272822 0.665620
O O5 0.373043 0.248577 0.254276
O O6 0.540018 0.256250 0.102260
O O7 0.417128 0.000000 0.168832
O O8 0.460084 0.500000 0.737823
O O9 0.560180 0.779008 0.691600
O O10 0.390551 0.725477 0.842591
O O11 0.852598 0.500000 0.471391
O O12 0.750000 0.750000 0.500000
O O13 0.764091 0.706675 0.587570
O O14 0.945113 0.770583 0.437257
O O15 0.190749 0.500000 0.652398
O O16 0.500000 0.748924 0.500000
O O17 0.455079 0.000000 0.584268
O O18 0.627603 0.000000 0.095003
O O19 0.750000 0.750000 0.000000
#
# Coordination Sequence:
#
# PCOD9182725 Si02
#       7
#     8   8   8   8   8   8   8
#     4  10  20  35  55  78 104 137 179 221 261 312
#     4   8  17  34  55  78 102 133 172 211 253 304
#     4  10  20  34  55  82 110 140 175 215 262 316
#     4  11  22  34  49  70  99 134 175 223 271 318
#     4  10  19  33  53  74 100 135 177 222 264 311
#     4  10  22  37  51  72 104 141 179 223 275 319
#     4  10  20  37  61  85 111 140 173 213 256 308
#
# _framework density 21.470376000000002
#
# number of rings (size 3 to 8) (size 9 to 14) (size 15 to 20)
#    0.000    2.143    0.000    4.286    0.000    4.857 
#    0.000    4.286    0.000    4.286    0.000    0.000 
#    0.000    0.000    0.000    0.000    0.000    0.000 
#
# Total GULP energy -156315.023457 kJ/mol
# GULP energy per Si atom -5582.679409 kJ/mol
# Density = 2.142151 g / cm^3
# Si number density = 21.470376 Si / 1000 Ang^3
#
#
#
# Elastic Constant Matrix: (Units=GPa)
#
#
# Indices 1 2 3 4 5 6 
#
# 1 113.4353 -0.4786 22.0912 0.0001 -35.4263 -0.0003
# 2 -0.4786 21.9826 -16.6010 0.0005 1.2213 -0.0008
# 3 22.0912 -16.6010 76.6648 -0.0001 -30.2598 0.0000
# 4 0.0001 0.0005 -0.0001 24.8667 0.0000 3.1205
# 5 -35.4263 1.2213 -30.2598 0.0000 36.1493 0.0000
# 6 -0.0003 -0.0008 0.0000 3.1205 0.0000 16.6359
#
#
#
# Elastic Compliance Matrix: (Units=1/GPa)
#
#
# Indices 1 2 3 4 5 6 
#
# 1 0.012910 0.001183 0.002261 0.000000 0.014505 0.000000
# 2 0.001183 0.058202 0.017837 -0.000001 0.014124 0.000003
# 3 0.002261 0.017837 0.025226 0.000000 0.022729 0.000001
# 4 0.000000 -0.000001 0.000000 0.041184 0.000000 -0.007725
# 5 0.014505 0.014124 0.022729 0.000000 0.060427 0.000001
# 6 0.000000 0.000003 0.000001 -0.007725 0.000001 0.061560
#
#
# Mechanical properties :
#
#
# Convention : Reuss Voigt Hill
#
# Bulk Modulus (GPa) = 7.19947 24.67843 15.93895
# Shear Modulus (GPa) = 18.99355 29.33511 24.16433
#
# Velocity S-wave (km/s) = 2.97752 3.70037 3.35845
# Velocity P-wave (km/s) = 3.89632 5.45675 4.74117
#
# Compressibility (1/GPa) = 0.13889920
#
# Stress axis : x y z
#
# Youngs Moduli (GPa) = 77.45869 17.18159 39.64159
#
# Poissons Ratio (x) = -0.02032 -0.08963
# Poissons Ratio (y) = -0.09161 -0.70708
# Poissons Ratio (z) = -0.17514 -0.30647
#
# Static dielectric constant tensor:
#      x y z
#    x 1.896010 0.000000 -0.031310 
#    y 0.000000 1.766600 0.000000 
#    z -0.031310 0.000000 1.766880 
# 
# From -- ./inp_files/275035.got.cif
#   From: 2010.05.17/outbox.cif.g08.bks.cpg/sg12_138_cif.got.tgz:275035.got - 2010.06.03 13:09:07.
