data_PCOD9182000
_publ_section_title
;
Structure prediction by ZEFSAII (Michael W. Deem and Ramdas Pophale) SiO2 
 PCOD9182000
Probable space group: C 2/M
;
_chemical_formula_sum "Si O2"
_cell_formula_units_Z 48
_cell_length_a 19.988480
_cell_length_b 8.491827
_cell_length_c 20.720078
_cell_angle_alpha 90.000000
_cell_angle_beta 130.745113
_cell_angle_gamma 90.000000
_cell_volume 2664.551398
_symmetry_space_group_name_H-M "C 2/M"
_symmetry_group_IT_number 12
_symmetry_cell_setting 'monoclinic'
loop_
_space_group_symop_operation_xyz
x,y,z
-x,y,-z
-x,-y,-z
x,-y,z
1/2+x,1/2+y,z
1/2-x,1/2+y,-z
1/2-x,1/2-y,-z
1/2+x,1/2-y,z
loop_
_atom_site_type_symbol
_atom_site_label
_atom_site_fract_x
_atom_site_fract_y
_atom_site_fract_z
Si Si1 0.299901 0.689968 0.720125
Si Si2 0.699404 0.686787 0.531451
Si Si3 0.482461 0.689369 0.778099
Si Si4 0.520244 0.188674 0.369463
Si Si5 0.824947 0.689166 0.094783
Si Si6 0.320499 0.191612 0.240332
O O1 0.299702 0.500000 0.722106
O O2 0.243555 0.741555 0.622739
O O3 0.400932 0.739391 0.771799
O O4 0.252352 0.748203 0.755050
O O5 0.708015 0.500000 0.538334
O O6 0.750000 0.750000 0.500000
O O7 0.597335 0.735250 0.459774
O O8 0.482398 0.500000 0.772670
O O9 0.467092 0.760735 0.697154
O O10 0.578011 0.746606 0.861356
O O11 0.420073 0.236797 0.323650
O O12 0.526981 0.000000 0.378057
O O13 0.827434 0.500000 0.095412
O O14 0.807168 0.740955 0.157783
O O15 0.750000 0.750000 0.000000
O O16 0.318948 0.000000 0.239265
#
# Coordination Sequence:
#
# PCOD9182000 Si02
#       6
#     8   8   8   8   8   8
#     4  10  20  36  56  79 109 144 183 224 270 321
#     4  12  23  34  51  77 109 145 189 231 271 317
#     4  10  19  32  55  82 108 140 180 223 270 322
#     4  10  19  34  55  77 107 146 189 229 266 315
#     4  10  20  37  61  84 108 139 179 222 268 327
#     4   8  18  36  57  80 107 143 180 220 271 325
#
# _framework density 18.014289999999999
#
# number of rings (size 3 to 8) (size 9 to 14) (size 15 to 20)
#    0.000    2.000    1.667    4.000    0.000    1.333 
#    0.000    9.167    0.000    5.000    0.000    0.000 
#    0.000    0.000    0.000    0.000    0.000    0.000 
#
# Total GULP energy -133970.671660 kJ/mol
# GULP energy per Si atom -5582.111319 kJ/mol
# Density = 1.797329 g / cm^3
# Si number density = 18.014290 Si / 1000 Ang^3
#
#
#
# Elastic Constant Matrix: (Units=GPa)
#
#
# Indices 1 2 3 4 5 6 
#
# 1 166.9369 16.6915 68.7578 0.0000 15.9119 0.0000
# 2 16.6915 12.1352 -3.9517 0.0000 3.9935 0.0000
# 3 68.7578 -3.9517 116.7268 0.0000 20.3481 0.0000
# 4 0.0000 0.0000 0.0000 31.0603 0.0000 3.6181
# 5 15.9119 3.9935 20.3481 0.0000 19.7038 0.0000
# 6 0.0000 0.0000 0.0000 3.6181 0.0000 21.0800
#
#
#
# Elastic Compliance Matrix: (Units=1/GPa)
#
#
# Indices 1 2 3 4 5 6 
#
# 1 0.010478 -0.017601 -0.007213 0.000000 0.002555 0.000000
# 2 -0.017601 0.123515 0.020044 0.000000 -0.031519 0.000000
# 3 -0.007213 0.020044 0.016082 0.000000 -0.014846 0.000000
# 4 0.000000 0.000000 0.000000 0.032852 0.000000 -0.005639
# 5 0.002555 -0.031519 -0.014846 0.000000 0.070408 0.000000
# 6 0.000000 0.000000 0.000000 -0.005639 0.000000 0.048406
#
#
# Mechanical properties :
#
#
# Convention : Reuss Voigt Hill
#
# Bulk Modulus (GPa) = 7.11571 50.97714 29.04642
# Shear Modulus (GPa) = 13.96156 28.65558 21.30857
#
# Velocity S-wave (km/s) = 2.78695 3.99270 3.44302
# Velocity P-wave (km/s) = 3.78348 7.04380 5.65376
#
# Compressibility (1/GPa) = 0.14053416
#
# Stress axis : x y z
#
# Youngs Moduli (GPa) = 95.44203 8.09619 62.17972
#
# Poissons Ratio (x) = 0.14250 0.44851
# Poissons Ratio (y) = 1.67990 -1.24633
# Poissons Ratio (z) = 0.68843 -0.16228
#
# Static dielectric constant tensor:
#      x y z
#    x 1.639330 0.000000 0.007850 
#    y 0.000000 1.620450 0.000000 
#    z 0.007850 0.000000 1.603530 
# 
# From -- ./inp_files/248807.got.cif
#   From: 2010.05.17/outbox.cif.g08.bks.cpg/sg12_125_cif.got.tgz:248807.got - 2010.06.03 13:09:07.
