data_PCOD9182255
_publ_section_title
;
Structure prediction by ZEFSAII (Michael W. Deem and Ramdas Pophale) SiO2 
 PCOD9182255
Probable space group: C 2/M
;
_chemical_formula_sum "Si O2"
_cell_formula_units_Z 40
_cell_length_a 9.145347
_cell_length_b 17.913919
_cell_length_c 18.125093
_cell_angle_alpha 90.000000
_cell_angle_beta 43.021633
_cell_angle_gamma 90.000000
_cell_volume 2025.956630
_symmetry_space_group_name_H-M "C 2/M"
_symmetry_group_IT_number 12
_symmetry_cell_setting 'monoclinic'
loop_
_space_group_symop_operation_xyz
x,y,z
-x,y,-z
-x,-y,-z
x,-y,z
1/2+x,1/2+y,z
1/2-x,1/2+y,-z
1/2-x,1/2-y,-z
1/2+x,1/2-y,z
loop_
_atom_site_type_symbol
_atom_site_label
_atom_site_fract_x
_atom_site_fract_y
_atom_site_fract_z
Si Si1 0.126611 0.198171 0.650776
Si Si2 0.428444 0.355552 0.099680
Si Si3 0.286777 0.355139 0.544644
Si Si4 0.149521 0.581423 0.331379
Si Si5 0.243976 0.298498 0.897463
O O1 0.193196 0.285480 0.627541
O O2 0.138798 0.177065 0.561422
O O3 0.296310 0.148830 0.633465
O O4 0.898774 0.177666 0.772551
O O5 0.291441 0.403550 0.206676
O O6 0.614964 0.317767 0.081990
O O7 0.294656 0.287629 0.111905
O O8 0.500000 0.398925 0.000000
O O9 0.500000 0.388335 0.500000
O O10 0.095295 0.411258 0.601367
O O11 0.197327 0.500000 0.345762
O O12 0.000000 0.328168 0.000000
#
# Coordination Sequence:
#
# PCOD9182255 Si02
#       5
#     8   8   8   8   8
#     4  10  21  38  60  88 121 157 197 244 296 357
#     4  10  20  35  58  87 120 153 194 241 295 347
#     4  11  22  36  62  87 117 154 203 252 293 345
#     4  11  24  41  60  87 123 162 198 240 300 360
#     4  10  19  32  58  90 119 148 194 247 293 340
#
# _framework density 19.743760000000002
#
# number of rings (size 3 to 8) (size 9 to 14) (size 15 to 20)
#    0.000    1.600    2.000    5.400    2.800    4.000 
#    0.000    0.000    0.000    9.600    0.000    0.000 
#    0.000    0.800    0.000    0.000    0.000    0.000 
#
# Total GULP energy -111440.742265 kJ/mol
# GULP energy per Si atom -5572.037113 kJ/mol
# Density = 1.969882 g / cm^3
# Si number density = 19.743760 Si / 1000 Ang^3
#
#
#
# Elastic Constant Matrix: (Units=GPa)
#
#
# Indices 1 2 3 4 5 6 
#
# 1 66.8814 7.2215 42.7469 0.0018 -0.3273 0.0005
# 2 7.2215 49.6284 9.0858 0.0013 -0.2580 0.0002
# 3 42.7469 9.0858 129.9655 0.0042 -6.0810 0.0008
# 4 0.0018 0.0013 0.0042 -193.2377 -0.0012 -88.0397
# 5 -0.3273 -0.2580 -6.0810 -0.0012 35.6100 -0.0001
# 6 0.0005 0.0002 0.0008 -88.0397 -0.0001 -24.0578
#
#
#
# Elastic Compliance Matrix: (Units=1/GPa)
#
#
# Indices 1 2 3 4 5 6 
#
# 1 0.019092 -0.001647 -0.006206 0.000000 -0.000896 0.000000
# 2 -0.001647 0.020553 -0.000896 0.000000 -0.000019 0.000000
# 3 -0.006206 -0.000896 0.009874 0.000000 0.001623 0.000000
# 4 0.000000 0.000000 0.000000 0.007755 0.000000 -0.028381
# 5 -0.000896 -0.000019 0.001623 0.000000 0.028351 -0.000001
# 6 0.000000 0.000000 0.000000 -0.028381 -0.000001 0.062292
#
#
# Mechanical properties :
#
#
# Convention : Reuss Voigt Hill
#
# Bulk Modulus (GPa) = 31.22914 40.50931 35.86922
# Shear Modulus (GPa) = 28.39461 -23.84236 2.27612
#
# Velocity S-wave (km/s) = 3.79642 -3.47881 1.07486
# Velocity P-wave (km/s) = 5.92187 2.10379 4.44379
#
# Compressibility (1/GPa) = 0.03202138
#
# Stress axis : x y z
#
# Youngs Moduli (GPa) = 52.37792 48.65390 101.27334
#
# Poissons Ratio (x) = 0.08011 0.62854
# Poissons Ratio (y) = 0.08624 0.09076
# Poissons Ratio (z) = 0.32508 0.04360
#
# Static dielectric constant tensor:
#      x y z
#    x 1.697400 0.000000 -0.004440 
#    y 0.000000 1.691710 0.000000 
#    z -0.004440 0.000000 1.791540 
# 
# From -- ./inp_files/300582.got.cif
#   From: 2010.05.17/outbox.cif.g08.bks.cpg/sg12_151_cif.got.tgz:300582.got - 2010.06.03 13:09:07.
