data_PCOD9182760
_publ_section_title
;
Structure prediction by ZEFSAII (Michael W. Deem and Ramdas Pophale) SiO2 
 PCOD9182760
Probable space group: C 2/M
;
_chemical_formula_sum "Si O2"
_cell_formula_units_Z 56
_cell_length_a 28.564690
_cell_length_b 13.597510
_cell_length_c 12.898532
_cell_angle_alpha 90.000000
_cell_angle_beta 141.364993
_cell_angle_gamma 90.000000
_cell_volume 3127.966970
_symmetry_space_group_name_H-M "C 2/M"
_symmetry_group_IT_number 12
_symmetry_cell_setting 'monoclinic'
loop_
_space_group_symop_operation_xyz
x,y,z
-x,y,-z
-x,-y,-z
x,-y,z
1/2+x,1/2+y,z
1/2-x,1/2+y,-z
1/2-x,1/2-y,-z
1/2+x,1/2-y,z
loop_
_atom_site_type_symbol
_atom_site_label
_atom_site_fract_x
_atom_site_fract_y
_atom_site_fract_z
Si Si1 0.523454 0.613717 0.341092
Si Si2 0.869952 0.385974 0.784216
Si Si3 0.356726 0.385062 0.107159
Si Si4 0.179994 0.115827 0.724199
Si Si5 0.442667 0.710558 0.810660
Si Si6 0.197092 0.251919 0.172031
Si Si7 0.712181 0.386333 0.391583
O O1 0.526968 0.500000 0.309282
O O2 0.446679 0.623300 0.271224
O O3 0.596407 0.631004 0.536323
O O4 0.524622 0.684270 0.243974
O O5 0.889746 0.500000 0.831192
O O6 0.923358 0.324555 0.799905
O O7 0.864484 0.323180 0.880712
O O8 0.785483 0.380709 0.590646
O O9 0.340199 0.500000 0.054875
O O10 0.319492 0.360645 0.152789
O O11 0.332381 0.314810 0.972304
O O12 0.237009 0.180493 0.757559
O O13 0.197730 0.000000 0.742428
O O14 0.362988 0.654457 0.684432
O O15 0.500000 0.677723 0.000000
O O16 0.223555 0.179460 0.309478
O O17 0.700590 0.500000 0.343838
#
# Coordination Sequence:
#
# PCOD9182760 Si02
#       7
#     8   8   8   8   8   8   8
#     4  10  19  33  53  75 102 134 164 200 249 300
#     4  10  21  36  52  72 101 136 171 202 237 292
#     4  10  21  35  51  75 103 129 163 209 256 296
#     4  10  20  34  53  75  99 131 170 207 245 293
#     4  11  21  32  50  77 106 132 164 203 246 295
#     4  11  19  32  52  76 103 130 164 205 251 295
#     4  10  20  34  52  75 103 133 164 201 246 298
#
# _framework density 17.903002000000001
#
# number of rings (size 3 to 8) (size 9 to 14) (size 15 to 20)
#    0.000    1.714    0.000    7.286    0.000    6.571 
#    0.000    0.000    0.000    0.000    0.000    0.000 
#    0.000   16.000    0.000    0.000    0.000    0.000 
#
# Total GULP energy -156381.511860 kJ/mol
# GULP energy per Si atom -5585.053995 kJ/mol
# Density = 1.786225 g / cm^3
# Si number density = 17.903002 Si / 1000 Ang^3
#
#
#
# Elastic Constant Matrix: (Units=GPa)
#
#
# Indices 1 2 3 4 5 6 
#
# 1 62.1051 30.5526 -8.3942 0.0000 -9.2463 0.0000
# 2 30.5526 97.0425 7.9550 0.0000 -16.6808 0.0000
# 3 -8.3942 7.9550 30.6271 0.0000 -4.9520 0.0000
# 4 0.0000 0.0000 0.0000 22.4512 0.0000 -2.6251
# 5 -9.2463 -16.6808 -4.9520 0.0000 24.8224 0.0000
# 6 0.0000 0.0000 0.0000 -2.6251 0.0000 28.5831
#
#
#
# Elastic Compliance Matrix: (Units=1/GPa)
#
#
# Indices 1 2 3 4 5 6 
#
# 1 0.021178 -0.006454 0.008323 0.000000 0.005212 0.000000
# 2 -0.006454 0.013716 -0.004371 0.000000 0.005941 0.000000
# 3 0.008323 -0.004371 0.037297 0.000000 0.007604 0.000000
# 4 0.000000 0.000000 0.000000 0.045025 0.000000 0.004135
# 5 0.005212 0.005941 0.007604 0.000000 0.047737 0.000000
# 6 0.000000 0.000000 0.000000 0.004135 0.000000 0.035365
#
#
# Mechanical properties :
#
#
# Convention : Reuss Voigt Hill
#
# Bulk Modulus (GPa) = 14.88362 27.77792 21.33077
# Shear Modulus (GPa) = 21.95711 25.81544 23.88627
#
# Velocity S-wave (km/s) = 3.50587 3.80144 3.65664
# Velocity P-wave (km/s) = 4.97189 5.90062 5.45605
#
# Compressibility (1/GPa) = 0.06718796
#
# Stress axis : x y z
#
# Youngs Moduli (GPa) = 47.21943 72.90619 26.81200
#
# Poissons Ratio (x) = 0.47053 -0.22317
# Poissons Ratio (y) = 0.30475 0.11719
# Poissons Ratio (z) = -0.39303 0.31866
#
# Static dielectric constant tensor:
#      x y z
#    x 1.599080 0.000000 0.007840 
#    y 0.000000 1.614010 0.000000 
#    z 0.007840 0.000000 1.616110 
# 
# From -- ./inp_files/183484.got.cif
#   From: 2010.05.17/outbox.cif.g08.bks.cpg/sg12_92_cif.got.tgz:183484.got - 2010.06.03 13:09:07.
