data_PCOD9182176
_publ_section_title
;
Structure prediction by ZEFSAII (Michael W. Deem and Ramdas Pophale) SiO2 
 PCOD9182176
Probable space group: C 2/M
;
_chemical_formula_sum "Si O2"
_cell_formula_units_Z 58
_cell_length_a 18.426550
_cell_length_b 12.964866
_cell_length_c 21.764925
_cell_angle_alpha 90.000000
_cell_angle_beta 37.989823
_cell_angle_gamma 90.000000
_cell_volume 3200.460436
_symmetry_space_group_name_H-M "C 2/M"
_symmetry_group_IT_number 12
_symmetry_cell_setting 'monoclinic'
loop_
_space_group_symop_operation_xyz
x,y,z
-x,y,-z
-x,-y,-z
x,-y,z
1/2+x,1/2+y,z
1/2-x,1/2+y,-z
1/2-x,1/2-y,-z
1/2+x,1/2-y,z
loop_
_atom_site_type_symbol
_atom_site_label
_atom_site_fract_x
_atom_site_fract_y
_atom_site_fract_z
Si Si1 0.827862 0.681781 0.588467
Si Si2 0.590373 0.379489 0.676418
Si Si3 0.430537 0.123391 0.107845
Si Si4 0.645965 0.878426 0.043161
Si Si5 0.821179 0.771157 0.722716
Si Si6 0.932472 0.119160 0.452481
Si Si7 0.648559 0.748595 0.158129
Si Si8 0.500000 0.000000 0.500000
O O1 0.704494 0.654879 0.638442
O O2 0.818156 0.691762 0.668634
O O3 0.871314 0.792711 0.534073
O O4 0.922507 0.591296 0.515991
O O5 0.564961 0.500000 0.706044
O O6 0.611628 0.370984 0.588655
O O7 0.475169 0.311213 0.767417
O O8 0.516659 0.153373 0.105799
O O9 0.303038 0.171646 0.195500
O O10 0.418540 0.000000 0.115130
O O11 0.500000 0.154135 0.000000
O O12 0.657377 0.843279 0.105561
O O13 0.656976 0.000000 0.028642
O O14 0.745111 0.825512 0.934814
O O15 0.838952 0.724410 0.778652
O O16 0.929186 0.850809 0.641117
O O17 0.915554 0.000000 0.483568
#
# Coordination Sequence:
#
# PCOD9182176 Si02
#       8
#     8   8   8   8   8   8   8   2
#     4  12  23  42  62  86 120 159 202 245 296 356
#     4  10  21  38  62  85 116 155 200 238 291 355
#     4  10  19  32  56  87 116 149 183 233 290 353
#     4  10  20  37  57  80 116 152 192 239 293 343
#     4  11  21  36  58  87 119 154 193 240 293 352
#     4  10  22  39  61  92 119 151 192 253 303 350
#     4  10  21  37  57  84 113 151 196 240 290 349
#     4  12  24  44  62  84 114 168 202 240 290 360
#
# _framework density 18.122392999999999
#
# number of rings (size 3 to 8) (size 9 to 14) (size 15 to 20)
#    0.000    1.517    3.448    2.069    0.000    2.759 
#    1.241    0.690    0.000    0.000    0.000    5.310 
#    0.000    0.000    0.000    0.000    0.000    0.000 
#
# Total GULP energy -161582.777287 kJ/mol
# GULP energy per Si atom -5571.819906 kJ/mol
# Density = 1.808115 g / cm^3
# Si number density = 18.122393 Si / 1000 Ang^3
#
#
#
# Elastic Constant Matrix: (Units=GPa)
#
#
# Indices 1 2 3 4 5 6 
#
# 1 128.3581 18.5568 30.8948 0.0000 -7.9736 0.0000
# 2 18.5568 24.3934 -6.6457 0.0000 7.9507 0.0000
# 3 30.8948 -6.6457 46.7386 0.0000 -1.0381 0.0000
# 4 0.0000 0.0000 0.0000 5.0423 0.0000 -2.1391
# 5 -7.9736 7.9507 -1.0381 0.0000 36.4412 0.0000
# 6 0.0000 0.0000 0.0000 -2.1391 0.0000 19.1546
#
#
#
# Elastic Compliance Matrix: (Units=1/GPa)
#
#
# Indices 1 2 3 4 5 6 
#
# 1 0.012676 -0.014268 -0.010283 0.000000 0.005594 0.000000
# 2 -0.014268 0.061980 0.017886 0.000000 -0.016135 0.000000
# 3 -0.010283 0.017886 0.030619 0.000000 -0.005280 0.000000
# 4 0.000000 0.000000 0.000000 0.208184 0.000000 0.023249
# 5 0.005594 -0.016135 -0.005280 0.000000 0.032035 0.000000
# 6 0.000000 0.000000 0.000000 0.023249 0.000000 0.054803
#
#
# Mechanical properties :
#
#
# Convention : Reuss Voigt Hill
#
# Bulk Modulus (GPa) = 10.87616 31.67798 21.27707
# Shear Modulus (GPa) = 11.25424 22.57325 16.91375
#
# Velocity S-wave (km/s) = 2.49472 3.53313 3.05832
# Velocity P-wave (km/s) = 3.78321 5.84483 4.92314
#
# Compressibility (1/GPa) = 0.09194423
#
# Stress axis : x y z
#
# Youngs Moduli (GPa) = 78.88904 16.13412 32.65953
#
# Poissons Ratio (x) = 0.23020 0.33585
# Poissons Ratio (y) = 1.12557 -0.58414
# Poissons Ratio (z) = 0.81125 -0.28857
#
# Static dielectric constant tensor:
#      x y z
#    x 1.639080 0.000000 0.013540 
#    y 0.000000 1.585950 0.000000 
#    z 0.013540 0.000000 1.619350 
# 
# From -- ./inp_files/315939.got.cif
#   From: 2010.05.17/outbox.cif.g08.bks.cpg/sg12_158_cif.got.tgz:315939.got - 2010.06.03 13:09:07.
