data_PCOD9182069
_publ_section_title
;
Structure prediction by ZEFSAII (Michael W. Deem and Ramdas Pophale) SiO2 
 PCOD9182069
Probable space group: C 2/M
;
_chemical_formula_sum "Si O2"
_cell_formula_units_Z 56
_cell_length_a 14.666886
_cell_length_b 24.865712
_cell_length_c 8.332959
_cell_angle_alpha 90.000000
_cell_angle_beta 123.385843
_cell_angle_gamma 90.000000
_cell_volume 2537.558939
_symmetry_space_group_name_H-M "C 2/M"
_symmetry_group_IT_number 12
_symmetry_cell_setting 'monoclinic'
loop_
_space_group_symop_operation_xyz
x,y,z
-x,y,-z
-x,-y,-z
x,-y,z
1/2+x,1/2+y,z
1/2-x,1/2+y,-z
1/2-x,1/2-y,-z
1/2+x,1/2-y,z
loop_
_atom_site_type_symbol
_atom_site_label
_atom_site_fract_x
_atom_site_fract_y
_atom_site_fract_z
Si Si1 0.064042 0.659278 0.397716
Si Si2 0.648143 0.560145 0.275364
Si Si3 0.831788 0.733437 0.722341
Si Si4 0.566916 0.559307 0.729089
Si Si5 0.273547 0.339038 0.811975
Si Si6 0.639113 0.062338 0.286938
Si Si7 0.731404 0.864375 0.117703
O O1 0.062802 0.706023 0.261501
O O2 0.186353 0.660329 0.585122
O O3 0.057040 0.600818 0.307606
O O4 0.000000 0.667493 0.500000
O O5 0.659382 0.500000 0.219778
O O6 0.528790 0.566180 0.234509
O O7 0.664697 0.605348 0.158762
O O8 0.742371 0.564128 0.505556
O O9 0.750000 0.750000 0.500000
O O10 0.844387 0.785594 0.848339
O O11 0.775322 0.686129 0.770015
O O12 0.500000 0.557104 0.500000
O O13 0.620217 0.500000 0.801213
O O14 0.651945 0.607194 0.791087
O O15 0.209299 0.342297 0.917877
O O16 0.656986 0.090605 0.132051
O O17 0.607117 0.000000 0.247070
#
# Coordination Sequence:
#
# PCOD9182069 Si02
#       7
#     8   8   8   8   8   8   8
#     4   9  19  38  61  79  99 140 189 233 279 335
#     4   9  18  34  54  79 113 151 184 220 263 329
#     4   9  20  39  57  76 104 145 189 229 276 338
#     4  10  19  32  55  85 117 151 192 222 258 332
#     4  10  21  37  55  80 113 141 179 235 290 329
#     4   9  17  32  55  81 109 147 185 217 268 332
#     4  11  20  33  56  79 112 147 179 227 282 327
#
# _framework density 22.068452000000001
#
# number of rings (size 3 to 8) (size 9 to 14) (size 15 to 20)
#    0.000    2.429    1.429    1.714    0.000    2.000 
#    5.143    4.286    3.143    0.857    0.000    0.000 
#    0.000    0.000    0.000    0.000    0.000    0.000 
#
# Total GULP energy -156127.050593 kJ/mol
# GULP energy per Si atom -5575.966093 kJ/mol
# Density = 2.201822 g / cm^3
# Si number density = 22.068452 Si / 1000 Ang^3
#
#
#
# Elastic Constant Matrix: (Units=GPa)
#
#
# Indices 1 2 3 4 5 6 
#
# 1 72.9298 67.1569 10.9663 0.0000 -36.3724 0.0000
# 2 67.1569 171.7190 33.7223 0.0000 -40.9586 0.0000
# 3 10.9663 33.7223 78.3765 0.0000 -26.6614 0.0000
# 4 0.0000 0.0000 0.0000 -22.3100 0.0000 -5.8325
# 5 -36.3724 -40.9586 -26.6614 0.0000 45.8881 0.0000
# 6 0.0000 0.0000 0.0000 -5.8325 0.0000 21.6342
#
#
#
# Elastic Compliance Matrix: (Units=1/GPa)
#
#
# Indices 1 2 3 4 5 6 
#
# 1 0.030680 -0.008335 0.006275 0.000000 0.020524 0.000000
# 2 -0.008335 0.009750 -0.002886 0.000000 0.000419 0.000000
# 3 0.006275 -0.002886 0.017372 0.000000 0.012491 0.000000
# 4 0.000000 0.000000 0.000000 -0.041872 0.000000 -0.011289
# 5 0.020524 0.000419 0.012491 0.000000 0.045691 0.000000
# 6 0.000000 0.000000 0.000000 -0.011289 0.000000 0.043180
#
#
# Mechanical properties :
#
#
# Convention : Reuss Voigt Hill
#
# Bulk Modulus (GPa) = 20.87302 60.74626 40.80964
# Shear Modulus (GPa) = 38.26639 23.12109 30.69374
#
# Velocity S-wave (km/s) = 4.16863 3.24033 3.73345
# Velocity P-wave (km/s) = 5.71392 6.44870 6.09239
#
# Compressibility (1/GPa) = 0.04790874
#
# Stress axis : x y z
#
# Youngs Moduli (GPa) = 32.59494 102.56383 57.56437
#
# Poissons Ratio (x) = 0.85491 -0.36124
# Poissons Ratio (y) = 0.27169 0.16615
# Poissons Ratio (z) = -0.20454 0.29603
#
# Static dielectric constant tensor:
#      x y z
#    x 1.802520 0.000000 0.021500 
#    y 0.000000 1.857470 0.000000 
#    z 0.021500 0.000000 1.863180 
# 
# From -- ./inp_files/65417.got.cif
#   From: 2010.05.17/outbox.cif.g08.bks.cpg/sg12_33_cif.got.tgz:65417.got - 2010.06.03 13:09:07.
