data_PCOD9182026
_publ_section_title
;
Structure prediction by ZEFSAII (Michael W. Deem and Ramdas Pophale) SiO2 
 PCOD9182026
Probable space group: C 2/M
;
_chemical_formula_sum "Si O2"
_cell_formula_units_Z 56
_cell_length_a 32.055366
_cell_length_b 7.745791
_cell_length_c 12.372245
_cell_angle_alpha 90.000000
_cell_angle_beta 58.997461
_cell_angle_gamma 90.000000
_cell_volume 2633.110329
_symmetry_space_group_name_H-M "C 2/M"
_symmetry_group_IT_number 12
_symmetry_cell_setting 'monoclinic'
loop_
_space_group_symop_operation_xyz
x,y,z
-x,y,-z
-x,-y,-z
x,-y,z
1/2+x,1/2+y,z
1/2-x,1/2+y,-z
1/2-x,1/2-y,-z
1/2+x,1/2-y,z
loop_
_atom_site_type_symbol
_atom_site_label
_atom_site_fract_x
_atom_site_fract_y
_atom_site_fract_z
Si Si1 0.070113 0.200772 0.133559
Si Si2 0.101859 0.206391 0.630734
Si Si3 0.785662 0.295003 0.550014
Si Si4 0.330227 0.201909 0.905557
Si Si5 0.484292 0.711935 0.401347
Si Si6 0.744492 0.210089 0.175503
Si Si7 0.557345 0.290522 0.915554
O O1 0.118619 0.211866 0.138969
O O2 0.024633 0.272513 0.260793
O O3 0.057593 0.000000 0.133377
O O4 0.078773 0.272478 0.001533
O O5 0.158833 0.239719 0.542038
O O6 0.068036 0.267479 0.576179
O O7 0.081541 0.275013 0.772815
O O8 0.095408 0.000000 0.641716
O O9 0.786391 0.500000 0.558815
O O10 0.750000 0.250000 0.500000
O O11 0.764700 0.227365 0.691485
O O12 0.299735 0.267072 0.843367
O O13 0.339534 0.000000 0.877293
O O14 0.294173 0.227273 0.055005
O O15 0.500000 0.769401 0.500000
O O16 0.484891 0.500000 0.403651
O O17 0.745941 0.000000 0.170801
O O18 0.562457 0.500000 0.903902
O O19 0.500000 0.252291 0.000000
#
# Coordination Sequence:
#
# PCOD9182026 Si02
#       7
#     8   8   8   8   8   8   8
#     4  10  19  32  55  83 112 148 187 228 278 332
#     4  10  20  36  59  84 112 150 192 237 285 331
#     4  11  25  43  61  83 114 151 193 237 289 347
#     4  10  21  37  59  86 113 142 183 236 289 337
#     4   9  18  32  53  85 118 149 193 239 276 331
#     4   9  21  42  61  78 108 149 190 231 281 345
#     4   9  16  31  54  79 107 143 187 225 262 320
#
# _framework density 21.267624000000001
#
# number of rings (size 3 to 8) (size 9 to 14) (size 15 to 20)
#    0.000    2.286    1.429    0.857    4.000    1.714 
#    0.000    0.714    0.000    1.714    0.000    0.000 
#    0.000    0.000    0.000    0.000    0.000    0.000 
#
# Total GULP energy -156316.697322 kJ/mol
# GULP energy per Si atom -5582.739190 kJ/mol
# Density = 2.121922 g / cm^3
# Si number density = 21.267624 Si / 1000 Ang^3
#
#
#
# Elastic Constant Matrix: (Units=GPa)
#
#
# Indices 1 2 3 4 5 6 
#
# 1 144.5640 -4.7326 66.8708 0.0000 6.7659 0.0000
# 2 -4.7326 27.3983 0.9663 0.0000 7.5495 0.0000
# 3 66.8708 0.9663 116.7488 0.0000 29.0472 0.0000
# 4 0.0000 0.0000 0.0000 5.6579 0.0000 3.7804
# 5 6.7659 7.5495 29.0472 0.0000 24.0618 0.0000
# 6 0.0000 0.0000 0.0000 3.7804 0.0000 3.7973
#
#
#
# Elastic Compliance Matrix: (Units=1/GPa)
#
#
# Indices 1 2 3 4 5 6 
#
# 1 0.009957 0.000411 -0.007115 0.000000 0.005660 0.000000
# 2 0.000411 0.041310 0.003825 0.000000 -0.017694 0.000000
# 3 -0.007115 0.003825 0.017737 0.000000 -0.020611 0.000000
# 4 0.000000 0.000000 0.000000 0.527888 0.000000 -0.525539
# 5 0.005660 -0.017694 -0.020611 0.000000 0.070402 0.000000
# 6 0.000000 0.000000 0.000000 -0.525539 0.000000 0.786545
#
#
# Mechanical properties :
#
#
# Convention : Reuss Voigt Hill
#
# Bulk Modulus (GPa) = 15.81097 46.10225 30.95661
# Shear Modulus (GPa) = 3.37683 21.74384 12.56034
#
# Velocity S-wave (km/s) = 1.26144 3.20096 2.43283
# Velocity P-wave (km/s) = 3.09388 5.94859 4.74119
#
# Compressibility (1/GPa) = 0.06324722
#
# Stress axis : x y z
#
# Youngs Moduli (GPa) = 100.43226 24.20697 56.37926
#
# Poissons Ratio (x) = -0.00995 0.40112
# Poissons Ratio (y) = -0.04130 -0.21565
# Poissons Ratio (z) = 0.71455 -0.09259
#
# Static dielectric constant tensor:
#      x y z
#    x 1.725680 0.000000 0.041250 
#    y 0.000000 1.805750 0.000000 
#    z 0.041250 0.000000 1.767680 
# 
# From -- ./inp_files/187255.got.cif
#   From: 2010.05.17/outbox.cif.g08.bks.cpg/sg12_94_cif.got.tgz:187255.got - 2010.06.03 13:09:07.
