data_PCOD9182028
_publ_section_title
;
Structure prediction by ZEFSAII (Michael W. Deem and Ramdas Pophale) SiO2 
 PCOD9182028
Probable space group: C 2/M
;
_chemical_formula_sum "Si O2"
_cell_formula_units_Z 48
_cell_length_a 7.794354
_cell_length_b 19.814572
_cell_length_c 15.022940
_cell_angle_alpha 90.000000
_cell_angle_beta 100.238068
_cell_angle_gamma 90.000000
_cell_volume 2283.227362
_symmetry_space_group_name_H-M "C 2/M"
_symmetry_group_IT_number 12
_symmetry_cell_setting 'monoclinic'
loop_
_space_group_symop_operation_xyz
x,y,z
-x,y,-z
-x,-y,-z
x,-y,z
1/2+x,1/2+y,z
1/2-x,1/2+y,-z
1/2-x,1/2-y,-z
1/2+x,1/2-y,z
loop_
_atom_site_type_symbol
_atom_site_label
_atom_site_fract_x
_atom_site_fract_y
_atom_site_fract_z
Si Si1 0.129725 0.779914 0.594643
Si Si2 0.990263 0.359024 0.594436
Si Si3 0.431498 0.074551 0.772515
Si Si4 0.124585 0.200225 0.083475
Si Si5 0.173631 0.574603 0.956545
Si Si6 0.649191 0.685403 0.797863
O O1 0.312283 0.815400 0.589568
O O2 0.082274 0.801070 0.691230
O O3 0.000000 0.795220 0.500000
O O4 0.137596 0.698774 0.603716
O O5 0.990552 0.405653 0.679536
O O6 0.000000 0.394646 0.500000
O O7 0.599803 0.074003 0.849911
O O8 0.295792 0.128431 0.799278
O O9 0.351646 0.000000 0.766615
O O10 0.208596 0.140649 0.032189
O O11 0.258110 0.249781 0.146661
O O12 0.008717 0.168633 0.151562
O O13 0.000000 0.238081 0.000000
O O14 0.250466 0.500000 0.984478
O O15 0.000000 0.581333 0.000000
#
# Coordination Sequence:
#
# PCOD9182028 Si02
#       6
#     8   8   8   8   8   8
#     4  10  19  33  55  84 115 147 184 235 294 344
#     4  10  19  32  55  83 113 146 187 236 289 349
#     4  10  22  40  59  80 113 157 198 241 294 346
#     4  12  24  38  61  90 121 154 192 239 293 347
#     4  10  22  41  62  85 118 157 195 233 280 344
#     4  11  23  38  59  87 121 151 194 247 291 348
#
# _framework density 21.022873000000001
#
# number of rings (size 3 to 8) (size 9 to 14) (size 15 to 20)
#    0.000    1.500    0.000    7.500    0.000    4.000 
#    0.000    0.000    0.000    8.000    0.000    0.000 
#    0.000    0.667    0.000    0.000    0.000    0.000 
#
# Total GULP energy -133987.393670 kJ/mol
# GULP energy per Si atom -5582.808070 kJ/mol
# Density = 2.097502 g / cm^3
# Si number density = 21.022873 Si / 1000 Ang^3
#
#
#
# Elastic Constant Matrix: (Units=GPa)
#
#
# Indices 1 2 3 4 5 6 
#
# 1 45.8510 20.5234 32.8289 0.0000 -6.3999 0.0000
# 2 20.5234 88.2516 26.4055 0.0000 2.4582 0.0000
# 3 32.8289 26.4055 124.9822 0.0000 -11.4575 0.0000
# 4 0.0000 0.0000 0.0000 6.7815 0.0000 1.0941
# 5 -6.3999 2.4582 -11.4575 0.0000 40.8414 0.0000
# 6 0.0000 0.0000 0.0000 1.0941 0.0000 18.6949
#
#
#
# Elastic Compliance Matrix: (Units=1/GPa)
#
#
# Indices 1 2 3 4 5 6 
#
# 1 0.028944 -0.004938 -0.006278 0.000000 0.003072 0.000000
# 2 -0.004938 0.013027 -0.001640 0.000000 -0.002018 0.000000
# 3 -0.006278 -0.001640 0.010177 0.000000 0.001970 0.000000
# 4 0.000000 0.000000 0.000000 0.148866 0.000000 -0.008712
# 5 0.003072 -0.002018 0.001970 0.000000 0.025640 0.000000
# 6 0.000000 0.000000 0.000000 -0.008712 0.000000 0.054000
#
#
# Mechanical properties :
#
#
# Convention : Reuss Voigt Hill
#
# Bulk Modulus (GPa) = 37.82794 46.51117 42.16956
# Shear Modulus (GPa) = 15.86404 25.21868 20.54136
#
# Velocity S-wave (km/s) = 2.74999 3.46726 3.12924
# Velocity P-wave (km/s) = 5.30246 6.18072 5.75836
#
# Compressibility (1/GPa) = 0.02643548
#
# Stress axis : x y z
#
# Youngs Moduli (GPa) = 34.54982 76.76610 98.25888
#
# Poissons Ratio (x) = 0.37909 0.61684
# Poissons Ratio (y) = 0.17062 0.16115
# Poissons Ratio (z) = 0.21689 0.12590
#
# Static dielectric constant tensor:
#      x y z
#    x 1.800950 0.000000 0.010480 
#    y 0.000000 1.784390 0.000000 
#    z 0.010480 0.000000 1.800760 
# 
# From -- ./inp_files/195968.got.cif
#   From: 2010.05.17/outbox.cif.g08.bks.cpg/sg12_98_cif.got.tgz:195968.got - 2010.06.03 13:09:07.
