data_PCOD9182888
_publ_section_title
;
Structure prediction by ZEFSAII (Michael W. Deem and Ramdas Pophale) SiO2 
 PCOD9182888
Probable space group: C 2/M
;
_chemical_formula_sum "Si O2"
_cell_formula_units_Z 44
_cell_length_a 23.953068
_cell_length_b 17.400648
_cell_length_c 10.742106
_cell_angle_alpha 90.000000
_cell_angle_beta 34.642501
_cell_angle_gamma 90.000000
_cell_volume 2545.138758
_symmetry_space_group_name_H-M "C 2/M"
_symmetry_group_IT_number 12
_symmetry_cell_setting 'monoclinic'
loop_
_space_group_symop_operation_xyz
x,y,z
-x,y,-z
-x,-y,-z
x,-y,z
1/2+x,1/2+y,z
1/2-x,1/2+y,-z
1/2-x,1/2-y,-z
1/2+x,1/2-y,z
loop_
_atom_site_type_symbol
_atom_site_label
_atom_site_fract_x
_atom_site_fract_y
_atom_site_fract_z
Si Si1 0.966107 0.275042 0.919044
Si Si2 0.269496 0.852701 0.356543
Si Si3 0.613431 0.500000 0.252452
Si Si4 0.335654 0.500000 0.564060
Si Si5 0.854358 0.132456 0.007573
Si Si6 0.455599 0.500000 0.948113
Si Si7 0.677320 0.188275 0.469982
O O1 0.060281 0.313284 0.681915
O O2 0.923688 0.206024 0.910780
O O3 0.000000 0.251013 0.000000
O O4 0.876620 0.333912 0.103686
O O5 0.215776 0.925701 0.399837
O O6 0.285774 0.856187 0.474652
O O7 0.205346 0.777094 0.444387
O O8 0.500000 0.500000 0.500000
O O9 0.673176 0.500000 0.270946
O O10 0.633385 0.578124 0.136204
O O11 0.451332 0.500000 0.316097
O O12 0.889148 0.073630 0.049524
O O13 0.742657 0.158833 0.235843
O O14 0.500000 0.500000 0.000000
#
# Coordination Sequence:
#
# PCOD9182888 Si02
#       7
#     8   8   4   4   8   4   8
#     4   9  17  33  56  84 116 138 170 223 276 328
#     4   9  19  32  55  85 109 142 176 216 278 335
#     4  11  24  40  51  75 108 146 187 225 264 308
#     4  12  21  37  55  71 112 147 177 222 268 313
#     4  10  19  33  53  78 106 140 180 218 265 317
#     4  11  19  28  51  81 101 127 168 222 282 324
#     4   9  17  33  55  84 112 134 174 225 274 323
#
# _framework density 17.287859000000001
#
# number of rings (size 3 to 8) (size 9 to 14) (size 15 to 20)
#    0.000    2.182    1.818    3.818    0.000    0.727 
#    0.000    9.545    0.000    1.091    0.000    0.000 
#    0.000    0.000    0.000    0.000    0.000    0.000 
#
# Total GULP energy -122531.814505 kJ/mol
# GULP energy per Si atom -5569.627932 kJ/mol
# Density = 1.724851 g / cm^3
# Si number density = 17.287859 Si / 1000 Ang^3
#
#
#
# Elastic Constant Matrix: (Units=GPa)
#
#
# Indices 1 2 3 4 5 6 
#
# 1 54.7565 39.0322 22.3434 0.0000 8.0170 0.0000
# 2 39.0322 76.1770 41.9306 0.0000 0.4869 0.0000
# 3 22.3434 41.9306 118.7613 0.0000 -10.4723 0.0000
# 4 0.0000 0.0000 0.0000 28.9227 0.0000 17.7744
# 5 8.0170 0.4869 -10.4723 0.0000 28.3364 0.0000
# 6 0.0000 0.0000 0.0000 17.7744 0.0000 11.7965
#
#
#
# Elastic Compliance Matrix: (Units=1/GPa)
#
#
# Indices 1 2 3 4 5 6 
#
# 1 0.030798 -0.015020 -0.001279 0.000000 -0.008928 0.000000
# 2 -0.015020 0.023790 -0.005411 0.000000 0.001841 0.000000
# 3 -0.001279 -0.005411 0.010969 0.000000 0.004508 0.000000
# 4 0.000000 0.000000 0.000000 0.467048 0.000000 -0.703725
# 5 -0.008928 0.001841 0.004508 0.000000 0.039451 0.000000
# 6 0.000000 0.000000 0.000000 -0.703725 0.000000 1.145110
#
#
# Mechanical properties :
#
#
# Convention : Reuss Voigt Hill
#
# Bulk Modulus (GPa) = 45.17172 50.70081 47.93626
# Shear Modulus (GPa) = 2.82811 23.57037 13.19924
#
# Velocity S-wave (km/s) = 1.28041 3.69644 2.76614
# Velocity P-wave (km/s) = 5.32652 6.89995 6.16365
#
# Compressibility (1/GPa) = 0.02213775
#
# Stress axis : x y z
#
# Youngs Moduli (GPa) = 32.46951 42.03423 91.16660
#
# Poissons Ratio (x) = 0.63134 0.11656
# Poissons Ratio (y) = 0.48768 0.49334
# Poissons Ratio (z) = 0.04151 0.22746
#
# Static dielectric constant tensor:
#      x y z
#    x 1.585140 0.000000 0.019190 
#    y 0.000000 1.563360 0.000000 
#    z 0.019190 0.000000 1.625260 
# 
# From -- ./inp_files/183401.got.cif
#   From: 2010.05.17/outbox.cif.g08.bks.cpg/sg12_92_cif.got.tgz:183401.got - 2010.06.03 13:09:07.
