data_PCOD9182712
_publ_section_title
;
Structure prediction by ZEFSAII (Michael W. Deem and Ramdas Pophale) SiO2 
 PCOD9182712
Probable space group: C 2/M
;
_chemical_formula_sum "Si O2"
_cell_formula_units_Z 64
_cell_length_a 21.184774
_cell_length_b 7.577211
_cell_length_c 25.069466
_cell_angle_alpha 90.000000
_cell_angle_beta 126.285313
_cell_angle_gamma 90.000000
_cell_volume 3243.817788
_symmetry_space_group_name_H-M "C 2/M"
_symmetry_group_IT_number 12
_symmetry_cell_setting 'monoclinic'
loop_
_space_group_symop_operation_xyz
x,y,z
-x,y,-z
-x,-y,-z
x,-y,z
1/2+x,1/2+y,z
1/2-x,1/2+y,-z
1/2-x,1/2-y,-z
1/2+x,1/2-y,z
loop_
_atom_site_type_symbol
_atom_site_label
_atom_site_fract_x
_atom_site_fract_y
_atom_site_fract_z
Si Si1 0.099558 0.285811 0.137504
Si Si2 0.483260 0.787851 0.706803
Si Si3 0.312183 0.704967 0.926423
Si Si4 0.846126 0.715962 0.719381
Si Si5 0.364729 0.216576 0.159170
Si Si6 0.227296 0.798875 0.577796
Si Si7 0.927151 0.703817 0.076817
Si Si8 0.637348 0.290284 0.436710
O O1 0.100192 0.500000 0.134463
O O2 0.142073 0.220411 0.106105
O O3 0.142116 0.233002 0.213704
O O4 0.009622 0.222516 0.097315
O O5 0.421148 0.728054 0.721311
O O6 0.569875 0.726698 0.765477
O O7 0.447028 0.736857 0.631736
O O8 0.483347 0.000000 0.708924
O O9 0.306200 0.500000 0.938569
O O10 0.224085 0.775837 0.876599
O O11 0.362499 0.790295 0.998622
O O12 0.845173 0.500000 0.717129
O O13 0.767184 0.780354 0.650426
O O14 0.394494 0.277244 0.115873
O O15 0.363489 0.000000 0.159512
O O16 0.300737 0.797204 0.573014
O O17 0.157452 0.723808 0.506299
O O18 0.205605 0.000000 0.580170
O O19 0.945272 0.500000 0.098676
O O20 0.653601 0.500000 0.444389
#
# Coordination Sequence:
#
# PCOD9182712 Si02
#       8
#     8   8   8   8   8   8   8   8
#     4  10  19  33  53  73  92 121 163 202 230 270
#     4   9  15  28  48  66  86 119 160 195 227 272
#     4  11  23  35  48  71 102 127 149 190 248 296
#     4   8  13  25  47  68  84 114 160 198 222 257
#     4   9  18  34  54  72  91 123 165 199 230 279
#     4   8  14  24  39  59  89 126 158 186 223 274
#     4  10  19  35  57  74  88 118 165 205 231 272
#     4   9  15  22  35  63  97 122 146 186 237 279
#
# _framework density 19.729838000000001
#
# number of rings (size 3 to 8) (size 9 to 14) (size 15 to 20)
#    0.000    2.750    1.250    2.250    0.000    2.500 
#    0.000    5.000    0.000    0.000    0.000    0.875 
#    0.000    7.000    0.000    0.000    0.000    0.000 
#
# Total GULP energy -178341.363350 kJ/mol
# GULP energy per Si atom -5573.167605 kJ/mol
# Density = 1.968493 g / cm^3
# Si number density = 19.729838 Si / 1000 Ang^3
#
#
#
# Elastic Constant Matrix: (Units=GPa)
#
#
# Indices 1 2 3 4 5 6 
#
# 1 85.0165 0.6006 47.8787 0.0000 25.7744 0.0000
# 2 0.6006 44.6057 -5.3150 0.0000 -2.5840 0.0000
# 3 47.8787 -5.3150 154.9755 0.0000 42.4742 0.0000
# 4 0.0000 0.0000 0.0000 13.6129 0.0000 5.0716
# 5 25.7744 -2.5840 42.4742 0.0000 8.8899 0.0000
# 6 0.0000 0.0000 0.0000 5.0716 0.0000 9.0802
#
#
#
# Elastic Compliance Matrix: (Units=1/GPa)
#
#
# Indices 1 2 3 4 5 6 
#
# 1 0.007799 0.000511 -0.012165 0.000000 0.035659 0.000000
# 2 0.000511 0.022313 0.002469 0.000000 -0.006792 0.000000
# 3 -0.012165 0.002469 -0.001397 0.000000 0.042665 0.000000
# 4 0.000000 0.000000 0.000000 0.092763 0.000000 -0.051811
# 5 0.035659 -0.006792 0.042665 0.000000 -0.196717 0.000000
# 6 0.000000 0.000000 0.000000 -0.051811 0.000000 0.139068
#
#
# Mechanical properties :
#
#
# Convention : Reuss Voigt Hill
#
# Bulk Modulus (GPa) = 96.67498 41.21404 68.94451
# Shear Modulus (GPa) = 58.37954 22.41214 40.39584
#
# Velocity S-wave (km/s) = 5.44552 3.37404 4.52978
# Velocity P-wave (km/s) = 9.41510 6.00945 7.89802
#
# Compressibility (1/GPa) = 0.01034394
#
# Stress axis : x y z
#
# Youngs Moduli (GPa) = 128.22082 44.81791 -715.56710
#
# Poissons Ratio (x) = -0.02291 -8.70490
# Poissons Ratio (y) = -0.06554 1.76660
# Poissons Ratio (z) = 1.55981 -0.11065
#
# Static dielectric constant tensor:
#      x y z
#    x 1.649080 0.000000 0.031700 
#    y 0.000000 1.783390 0.000000 
#    z 0.031700 0.000000 1.740080 
# 
# From -- ./inp_files/319138.got.cif
#   From: 2010.05.17/outbox.cif.g08.bks.cpg/sg12_160_cif.got.tgz:319138.got - 2010.06.03 13:09:07.
