data_PCOD9182227
_publ_section_title
;
Structure prediction by ZEFSAII (Michael W. Deem and Ramdas Pophale) SiO2 
 PCOD9182227
Probable space group: C 2/M
;
_chemical_formula_sum "Si O2"
_cell_formula_units_Z 52
_cell_length_a 16.126776
_cell_length_b 14.359529
_cell_length_c 23.578888
_cell_angle_alpha 90.000000
_cell_angle_beta 148.761176
_cell_angle_gamma 90.000000
_cell_volume 2831.711577
_symmetry_space_group_name_H-M "C 2/M"
_symmetry_group_IT_number 12
_symmetry_cell_setting 'monoclinic'
loop_
_space_group_symop_operation_xyz
x,y,z
-x,y,-z
-x,-y,-z
x,-y,z
1/2+x,1/2+y,z
1/2-x,1/2+y,-z
1/2-x,1/2-y,-z
1/2+x,1/2-y,z
loop_
_atom_site_type_symbol
_atom_site_label
_atom_site_fract_x
_atom_site_fract_y
_atom_site_fract_z
Si Si1 0.617574 0.107446 0.266267
Si Si2 0.954790 0.103560 0.400208
Si Si3 0.436014 0.260013 0.090635
Si Si4 0.244497 0.236860 0.564806
Si Si5 0.413159 0.391602 0.730748
Si Si6 0.500000 0.761952 0.000000
Si Si7 0.795042 0.102913 0.184843
O O1 0.797600 0.107938 0.346641
O O2 0.513845 0.163099 0.158980
O O3 0.626930 0.165503 0.330750
O O4 0.567843 0.000000 0.244172
O O5 0.892373 0.108064 0.299788
O O6 0.075616 0.187970 0.478666
O O7 0.030491 0.000000 0.451942
O O8 0.536309 0.338404 0.182850
O O9 0.250000 0.250000 0.000000
O O10 0.458591 0.281663 0.037162
O O11 0.250000 0.250000 0.500000
O O12 0.280154 0.332924 0.618511
O O13 0.371655 0.500000 0.713731
O O14 0.574845 0.385764 0.787992
O O15 0.656285 0.823333 0.102798
O O16 0.722743 0.000000 0.137905
#
# Coordination Sequence:
#
# PCOD9182227 Si02
#       7
#     8   8   8   8   8   4   8
#     4  10  22  38  59  90 120 145 184 244 307 358
#     4  10  19  35  58  90 120 145 182 240 311 361
#     4  11  23  38  60  92 120 156 197 241 299 353
#     4  11  21  33  56  86 118 154 190 231 290 354
#     4  10  22  40  57  81 121 162 202 241 284 346
#     4  12  21  36  61  90 122 150 192 250 298 356
#     4  10  19  32  57  90 120 148 185 242 309 361
#
# _framework density 18.363451000000001
#
# number of rings (size 3 to 8) (size 9 to 14) (size 15 to 20)
#    0.000    1.538    4.615    1.154    0.000    3.077 
#    0.000    0.385    0.000    7.385    0.000    0.000 
#    0.000    0.000    0.000    0.000    0.000    0.000 
#
# Total GULP energy -144932.080676 kJ/mol
# GULP energy per Si atom -5574.310795 kJ/mol
# Density = 1.832166 g / cm^3
# Si number density = 18.363451 Si / 1000 Ang^3
#
#
#
# Elastic Constant Matrix: (Units=GPa)
#
#
# Indices 1 2 3 4 5 6 
#
# 1 84.7480 32.7240 42.9289 0.0006 -29.7575 0.0003
# 2 32.7240 129.7857 51.7374 0.0013 -3.8517 0.0007
# 3 42.9289 51.7374 84.8723 0.0033 -14.2879 0.0017
# 4 0.0006 0.0013 0.0033 -32.4068 0.0004 -32.9510
# 5 -29.7575 -3.8517 -14.2879 0.0004 41.5612 0.0001
# 6 0.0003 0.0007 0.0017 -32.9510 0.0001 -4.9979
#
#
#
# Elastic Compliance Matrix: (Units=1/GPa)
#
#
# Indices 1 2 3 4 5 6 
#
# 1 0.020336 -0.001947 -0.007088 0.000000 0.011943 0.000000
# 2 -0.001947 0.010428 -0.005778 0.000000 -0.002414 0.000000
# 3 -0.007088 -0.005778 0.019048 0.000001 0.000938 0.000001
# 4 0.000000 0.000000 0.000001 0.005410 0.000000 -0.035669
# 5 0.011943 -0.002414 0.000938 0.000000 0.032710 0.000000
# 6 0.000000 0.000000 0.000001 -0.035669 0.000000 0.035080
#
#
# Mechanical properties :
#
#
# Convention : Reuss Voigt Hill
#
# Bulk Modulus (GPa) = 49.54474 61.57627 55.56051
# Shear Modulus (GPa) = 31.37415 12.29903 21.83659
#
# Velocity S-wave (km/s) = 4.13790 2.59077 3.45212
# Velocity P-wave (km/s) = 7.06175 6.52336 6.79788
#
# Compressibility (1/GPa) = 0.02018378
#
# Stress axis : x y z
#
# Youngs Moduli (GPa) = 49.17464 95.89816 52.49938
#
# Poissons Ratio (x) = 0.18674 0.37213
# Poissons Ratio (y) = 0.09576 0.30335
# Poissons Ratio (z) = 0.34856 0.55411
#
# Static dielectric constant tensor:
#      x y z
#    x 1.650840 0.000000 -0.041110 
#    y 0.000000 1.653140 0.000000 
#    z -0.041110 0.000000 1.658890 
# 
# From -- ./inp_files/343711.got.cif
#   From: 2010.05.17/outbox.cif.g08.bks.cpg/sg12_172_cif.got.tgz:343711.got - 2010.06.03 13:09:07.
