data_PCOD9182144
_publ_section_title
;
Structure prediction by ZEFSAII (Michael W. Deem and Ramdas Pophale) SiO2 
 PCOD9182144
Probable space group: C 2/M
;
_chemical_formula_sum "Si O2"
_cell_formula_units_Z 56
_cell_length_a 20.322609
_cell_length_b 8.585861
_cell_length_c 19.197132
_cell_angle_alpha 90.000000
_cell_angle_beta 113.191006
_cell_angle_gamma 90.000000
_cell_volume 3078.990458
_symmetry_space_group_name_H-M "C 2/M"
_symmetry_group_IT_number 12
_symmetry_cell_setting 'monoclinic'
loop_
_space_group_symop_operation_xyz
x,y,z
-x,y,-z
-x,-y,-z
x,-y,z
1/2+x,1/2+y,z
1/2-x,1/2+y,-z
1/2-x,1/2-y,-z
1/2+x,1/2-y,z
loop_
_atom_site_type_symbol
_atom_site_label
_atom_site_fract_x
_atom_site_fract_y
_atom_site_fract_z
Si Si1 0.629634 0.188533 0.870843
Si Si2 0.923350 0.689918 0.999028
Si Si3 0.545493 0.687450 0.452978
Si Si4 0.725458 0.186856 0.132848
Si Si5 0.207573 0.813357 0.547726
Si Si6 0.938721 0.686925 0.302278
Si Si7 0.786612 0.313506 0.300288
O O1 0.594460 0.237869 0.928980
O O2 0.709574 0.251114 0.888681
O O3 0.580503 0.235231 0.784435
O O4 0.634616 0.000000 0.872814
O O5 0.925450 0.500000 0.999594
O O6 0.853180 0.736778 0.925648
O O7 0.000000 0.742686 0.000000
O O8 0.500000 0.744409 0.500000
O O9 0.543597 0.500000 0.451590
O O10 0.626059 0.737598 0.500079
O O11 0.508829 0.745359 0.367156
O O12 0.741421 0.246196 0.217329
O O13 0.728199 0.000000 0.132537
O O14 0.250000 0.750000 0.500000
O O15 0.233780 0.747600 0.632470
O O16 0.210296 0.000000 0.551595
O O17 0.943268 0.500000 0.305136
O O18 0.869093 0.733944 0.318720
O O19 0.783054 0.500000 0.296555
#
# Coordination Sequence:
#
# PCOD9182144 Si02
#       7
#     8   8   8   8   8   8   8
#     4   9  18  34  55  80 109 142 181 225 270 319
#     4   9  18  34  55  79 111 144 179 222 270 327
#     4  10  20  35  56  80 108 141 177 226 276 315
#     4  10  19  32  56  85 107 139 183 225 271 324
#     4  11  23  39  57  80 112 149 186 226 274 328
#     4   9  18  31  52  82 108 138 181 226 270 319
#     4  10  20  36  57  81 112 145 181 229 275 323
#
# _framework density 18.187778999999999
#
# number of rings (size 3 to 8) (size 9 to 14) (size 15 to 20)
#    0.000    2.286    1.429    2.571    0.000    3.714 
#    2.571    0.714    0.000    3.857    0.000    0.000 
#    0.000    0.000    0.000    0.000    0.000    0.000 
#
# Total GULP energy -156198.651576 kJ/mol
# GULP energy per Si atom -5578.523271 kJ/mol
# Density = 1.814638 g / cm^3
# Si number density = 18.187779 Si / 1000 Ang^3
#
#
#
# Elastic Constant Matrix: (Units=GPa)
#
#
# Indices 1 2 3 4 5 6 
#
# 1 138.3654 24.7886 92.3069 0.0000 -11.2125 0.0000
# 2 24.7886 20.1066 23.4829 0.0000 -3.7476 0.0000
# 3 92.3069 23.4829 146.8304 0.0000 -10.0561 0.0000
# 4 0.0000 0.0000 0.0000 21.9517 0.0000 -1.0593
# 5 -11.2125 -3.7476 -10.0561 0.0000 28.9902 0.0000
# 6 0.0000 0.0000 0.0000 -1.0593 0.0000 21.6739
#
#
#
# Elastic Compliance Matrix: (Units=1/GPa)
#
#
# Indices 1 2 3 4 5 6 
#
# 1 0.013563 -0.008090 -0.007114 0.000000 0.001732 0.000000
# 2 -0.008090 0.066595 -0.005316 0.000000 0.003636 0.000000
# 3 -0.007114 -0.005316 0.012187 0.000000 0.000789 0.000000
# 4 0.000000 0.000000 0.000000 0.045662 0.000000 0.002232
# 5 0.001732 0.003636 0.000789 0.000000 0.035908 0.000000
# 6 0.000000 0.000000 0.000000 0.002232 0.000000 0.046248
#
#
# Mechanical properties :
#
#
# Convention : Reuss Voigt Hill
#
# Bulk Modulus (GPa) = 19.49113 65.16213 42.32663
# Shear Modulus (GPa) = 17.96600 25.50474 21.73537
#
# Velocity S-wave (km/s) = 3.14635 3.74879 3.46070
# Velocity P-wave (km/s) = 4.89277 7.39210 6.26827
#
# Compressibility (1/GPa) = 0.05130538
#
# Stress axis : x y z
#
# Youngs Moduli (GPa) = 73.73095 15.01623 82.05360
#
# Poissons Ratio (x) = 0.12147 0.58373
# Poissons Ratio (y) = 0.59645 0.43620
# Poissons Ratio (z) = 0.52453 0.07983
#
# Static dielectric constant tensor:
#      x y z
#    x 1.620190 0.000000 -0.005580 
#    y 0.000000 1.619200 0.000000 
#    z -0.005580 0.000000 1.623820 
# 
# From -- ./inp_files/281630.got.cif
#   From: 2010.05.17/outbox.cif.g08.bks.cpg/sg12_141_cif.got.tgz:281630.got - 2010.06.03 13:09:07.
