data_PCOD9182621
_publ_section_title
;
Structure prediction by ZEFSAII (Michael W. Deem and Ramdas Pophale) SiO2 
 PCOD9182621
Probable space group: C 2/M
;
_chemical_formula_sum "Si O2"
_cell_formula_units_Z 64
_cell_length_a 9.419757
_cell_length_b 27.873058
_cell_length_c 13.635182
_cell_angle_alpha 90.000000
_cell_angle_beta 106.903355
_cell_angle_gamma 90.000000
_cell_volume 3425.349278
_symmetry_space_group_name_H-M "C 2/M"
_symmetry_group_IT_number 12
_symmetry_cell_setting 'monoclinic'
loop_
_space_group_symop_operation_xyz
x,y,z
-x,y,-z
-x,-y,-z
x,-y,z
1/2+x,1/2+y,z
1/2-x,1/2+y,-z
1/2-x,1/2-y,-z
1/2+x,1/2-y,z
loop_
_atom_site_type_symbol
_atom_site_label
_atom_site_fract_x
_atom_site_fract_y
_atom_site_fract_z
Si Si1 0.183059 0.772058 0.755746
Si Si2 0.925352 0.319199 0.384307
Si Si3 0.530065 0.263003 0.115684
Si Si4 0.412872 0.377210 0.292513
Si Si5 0.875741 0.597587 0.658622
Si Si6 0.924968 0.125632 0.880694
Si Si7 0.685152 0.946913 0.758415
Si Si8 0.722613 0.404992 0.420311
O O1 0.134683 0.725870 0.685536
O O2 0.359212 0.771045 0.802849
O O3 0.113690 0.820350 0.698598
O O4 0.119423 0.767643 0.852867
O O5 0.795847 0.356021 0.391263
O O6 0.000000 0.302511 0.500000
O O7 0.043423 0.351360 0.347834
O O8 0.600822 0.316744 0.125300
O O9 0.500000 0.246405 0.000000
O O10 0.256628 0.400078 0.290287
O O11 0.467964 0.384359 0.191447
O O12 0.546955 0.396428 0.386580
O O13 0.801471 0.584155 0.538875
O O14 0.010432 0.564183 0.719576
O O15 0.778053 0.094146 0.833425
O O16 0.000000 0.114347 0.000000
O O17 0.738791 0.943078 0.656031
O O18 0.715659 0.000000 0.803264
#
# Coordination Sequence:
#
# PCOD9182621 Si02
#       8
#     8   8   8   8   8   8   8   8
#     4  11  19  31  49  72 102 136 178 220 250 289
#     4   9  18  31  48  71 102 143 180 208 245 299
#     4  10  20  33  50  73 101 134 173 216 261 302
#     4  10  20  33  51  77 105 139 176 214 257 298
#     4  10  19  33  52  77 109 137 166 214 263 301
#     4   9  20  39  58  75 102 139 174 211 259 316
#     4  10  20  36  60  83 100 129 172 209 254 321
#     4   9  19  35  52  73 107 144 174 204 251 311
#
# _framework density 18.684225000000001
#
# number of rings (size 3 to 8) (size 9 to 14) (size 15 to 20)
#    0.000    2.250    0.000    5.625    0.000    2.250 
#    0.000    6.250    0.000    4.500    0.000    0.000 
#    0.000    0.000    0.000    0.000    0.000    0.000 
#
# Total GULP energy -178498.486009 kJ/mol
# GULP energy per Si atom -5578.077688 kJ/mol
# Density = 1.864170 g / cm^3
# Si number density = 18.684225 Si / 1000 Ang^3
#
#
#
# Elastic Constant Matrix: (Units=GPa)
#
#
# Indices 1 2 3 4 5 6 
#
# 1 92.4001 7.7071 11.5123 0.0000 17.4936 0.0000
# 2 7.7071 38.4725 25.1243 0.0000 5.4450 0.0000
# 3 11.5123 25.1243 74.4642 0.0000 11.3471 0.0000
# 4 0.0000 0.0000 0.0000 -7.0924 0.0000 0.3843
# 5 17.4936 5.4450 11.3471 0.0000 21.1388 0.0000
# 6 0.0000 0.0000 0.0000 0.3843 0.0000 3.5623
#
#
#
# Elastic Compliance Matrix: (Units=1/GPa)
#
#
# Indices 1 2 3 4 5 6 
#
# 1 0.012879 -0.001083 -0.000048 0.000000 -0.010353 0.000000
# 2 -0.001083 0.033580 -0.010870 0.000000 -0.001918 0.000000
# 3 -0.000048 -0.010870 0.018157 0.000000 -0.006907 0.000000
# 4 0.000000 0.000000 0.000000 -0.140177 0.000000 0.015121
# 5 -0.010353 -0.001918 -0.006907 0.000000 0.060076 0.000000
# 6 0.000000 0.000000 0.000000 0.015121 0.000000 0.279087
#
#
# Mechanical properties :
#
#
# Convention : Reuss Voigt Hill
#
# Bulk Modulus (GPa) = 24.62286 32.66937 28.64611
# Shear Modulus (GPa) = 16.60351 14.25461 15.42906
#
# Velocity S-wave (km/s) = 2.98424 2.76510 2.87676
# Velocity P-wave (km/s) = 5.00812 5.26473 5.13802
#
# Compressibility (1/GPa) = 0.04061266
#
# Stress axis : x y z
#
# Youngs Moduli (GPa) = 77.64602 29.77981 55.07593
#
# Poissons Ratio (x) = 0.03226 0.00264
# Poissons Ratio (y) = 0.08412 0.59868
# Poissons Ratio (z) = 0.00372 0.32371
#
# Static dielectric constant tensor:
#      x y z
#    x 1.649290 0.000000 0.003540 
#    y 0.000000 1.644490 0.000000 
#    z 0.003540 0.000000 1.640920 
# 
# From -- ./inp_files/199753.got.cif
#   From: 2010.05.17/outbox.cif.g08.bks.cpg/sg12_100_cif.got.tgz:199753.got - 2010.06.03 13:09:07.
