data_PCOD9182104
_publ_section_title
;
Structure prediction by ZEFSAII (Michael W. Deem and Ramdas Pophale) SiO2 
 PCOD9182104
Probable space group: C 2/M
;
_chemical_formula_sum "Si O2"
_cell_formula_units_Z 58
_cell_length_a 21.262557
_cell_length_b 7.695679
_cell_length_c 19.537719
_cell_angle_alpha 90.000000
_cell_angle_beta 63.666338
_cell_angle_gamma 90.000000
_cell_volume 2865.192571
_symmetry_space_group_name_H-M "C 2/M"
_symmetry_group_IT_number 12
_symmetry_cell_setting 'monoclinic'
loop_
_space_group_symop_operation_xyz
x,y,z
-x,y,-z
-x,-y,-z
x,-y,z
1/2+x,1/2+y,z
1/2-x,1/2+y,-z
1/2-x,1/2-y,-z
1/2+x,1/2-y,z
loop_
_atom_site_type_symbol
_atom_site_label
_atom_site_fract_x
_atom_site_fract_y
_atom_site_fract_z
Si Si1 0.580919 0.700151 0.017616
Si Si2 0.786401 0.711160 0.695784
Si Si3 0.155158 0.699782 0.117320
Si Si4 0.302420 0.793441 0.535922
Si Si5 0.709332 0.288437 0.866310
Si Si6 0.424988 0.703998 0.711558
Si Si7 0.500000 0.000000 0.000000
Si Si8 0.034949 0.206865 0.553178
O O1 0.560197 0.500000 0.016636
O O2 0.634660 0.763127 0.932060
O O3 0.521095 0.844093 0.045025
O O4 0.624853 0.705425 0.066490
O O5 0.787521 0.500000 0.696343
O O6 0.776944 0.772024 0.622729
O O7 0.729382 0.766929 0.779953
O O8 0.861328 0.773649 0.688247
O O9 0.167204 0.500000 0.091815
O O10 0.227882 0.770732 0.113777
O O11 0.100523 0.707210 0.206684
O O12 0.250000 0.750000 0.500000
O O13 0.382065 0.733099 0.485461
O O14 0.305396 0.000000 0.539533
O O15 0.710767 0.500000 0.866977
O O16 0.433290 0.500000 0.723442
O O17 0.493701 0.773707 0.639791
O O18 0.000000 0.277291 0.500000
O O19 0.021497 0.000000 0.559636
#
# Coordination Sequence:
#
# PCOD9182104 Si02
#       8
#     8   8   8   8   8   8   2   8
#     4  11  22  41  65  89 120 165 211 251 302 363
#     4   9  18  35  56  84 116 152 192 244 303 362
#     4  10  19  36  60  92 130 153 188 254 311 359
#     4  11  23  37  58  82 116 157 200 249 305 361
#     4   8  17  34  61  91 120 150 191 249 312 364
#     4  10  19  32  55  89 119 155 194 239 302 364
#     4  12  26  44  60  86 124 168 220 244 292 362
#     4  10  20  36  58  83 117 154 199 249 297 358
#
# _framework density 20.242967
#
# number of rings (size 3 to 8) (size 9 to 14) (size 15 to 20)
#    0.000    2.069    2.069    2.690    0.000    1.931 
#    6.207    1.379    3.034    4.966    0.000    0.000 
#    0.000    0.000    0.000    0.000    0.000    0.000 
#
# Total GULP energy -161600.031408 kJ/mol
# GULP energy per Si atom -5572.414876 kJ/mol
# Density = 2.019689 g / cm^3
# Si number density = 20.242967 Si / 1000 Ang^3
#
#
#
# Elastic Constant Matrix: (Units=GPa)
#
#
# Indices 1 2 3 4 5 6 
#
# 1 75.0943 -1.1737 45.9709 -0.0005 2.5520 -0.0008
# 2 -1.1737 70.0444 1.2718 -0.0006 -2.3880 -0.0011
# 3 45.9709 1.2718 97.1431 -0.0001 2.2736 -0.0004
# 4 -0.0005 -0.0006 -0.0001 10.9203 -0.0002 3.1847
# 5 2.5520 -2.3880 2.2736 -0.0002 18.5341 -0.0005
# 6 -0.0008 -0.0011 -0.0004 3.1847 -0.0005 11.8038
#
#
#
# Elastic Compliance Matrix: (Units=1/GPa)
#
#
# Indices 1 2 3 4 5 6 
#
# 1 0.018802 0.000427 -0.008869 0.000001 -0.001446 0.000001
# 2 0.000427 0.014355 -0.000433 0.000001 0.001844 0.000001
# 3 -0.008869 -0.000433 0.014511 0.000000 -0.000615 0.000000
# 4 0.000001 0.000001 0.000000 0.099392 0.000001 -0.026816
# 5 -0.001446 0.001844 -0.000615 0.000001 0.054467 0.000002
# 6 0.000001 0.000001 0.000000 -0.026816 0.000002 0.091953
#
#
# Mechanical properties :
#
#
# Convention : Reuss Voigt Hill
#
# Bulk Modulus (GPa) = 33.42621 37.15775 35.29198
# Shear Modulus (GPa) = 15.56643 21.33251 18.44947
#
# Velocity S-wave (km/s) = 2.77606 3.24979 3.02222
# Velocity P-wave (km/s) = 5.17916 5.69888 5.44522
#
# Compressibility (1/GPa) = 0.02991665
#
# Stress axis : x y z
#
# Youngs Moduli (GPa) = 53.18575 69.66434 68.91131
#
# Poissons Ratio (x) = -0.02973 0.61120
# Poissons Ratio (y) = -0.02270 0.02984
# Poissons Ratio (z) = 0.47173 0.03017
#
# Static dielectric constant tensor:
#      x y z
#    x 1.668080 0.000000 -0.015290 
#    y 0.000000 1.732660 0.000000 
#    z -0.015290 0.000000 1.750290 
# 
# From -- ./inp_files/281150.got.cif
#   From: 2010.05.17/outbox.cif.g08.bks.cpg/sg12_141_cif.got.tgz:281150.got - 2010.06.03 13:09:07.
