data_PCOD9182186
_publ_section_title
;
Structure prediction by ZEFSAII (Michael W. Deem and Ramdas Pophale) SiO2 
 PCOD9182186
Probable space group: C 2/M
;
_chemical_formula_sum "Si O2"
_cell_formula_units_Z 64
_cell_length_a 31.636568
_cell_length_b 16.041155
_cell_length_c 9.762095
_cell_angle_alpha 90.000000
_cell_angle_beta 40.311817
_cell_angle_gamma 90.000000
_cell_volume 3205.064505
_symmetry_space_group_name_H-M "C 2/M"
_symmetry_group_IT_number 12
_symmetry_cell_setting 'monoclinic'
loop_
_space_group_symop_operation_xyz
x,y,z
-x,y,-z
-x,-y,-z
x,-y,z
1/2+x,1/2+y,z
1/2-x,1/2+y,-z
1/2-x,1/2-y,-z
1/2+x,1/2-y,z
loop_
_atom_site_type_symbol
_atom_site_label
_atom_site_fract_x
_atom_site_fract_y
_atom_site_fract_z
Si Si1 0.783272 0.703964 0.205622
Si Si2 0.588308 0.092897 0.782228
Si Si3 0.967349 0.596625 0.385579
Si Si4 0.069471 0.726136 0.064861
Si Si5 0.674789 0.906596 0.147129
Si Si6 0.701476 0.591356 0.605455
Si Si7 0.550276 0.596340 0.001464
Si Si8 0.227866 0.378186 0.308590
O O1 0.748593 0.656608 0.416284
O O2 0.736659 0.779702 0.282783
O O3 0.856272 0.732141 0.066062
O O4 0.793139 0.647893 0.048450
O O5 0.548764 0.097446 0.737850
O O6 0.663321 0.096029 0.549917
O O7 0.577458 0.000000 0.871826
O O8 0.575460 0.172186 0.909396
O O9 0.983905 0.500000 0.379796
O O10 0.898587 0.619412 0.627034
O O11 0.023660 0.664808 0.268559
O O12 0.041100 0.819408 0.114385
O O13 0.717999 0.907404 0.178535
O O14 0.668489 0.000000 0.109326
O O15 0.719616 0.500000 0.508306
O O16 0.713245 0.592495 0.739953
O O17 0.625298 0.605462 0.765564
O O18 0.545236 0.500000 0.070682
O O19 0.500000 0.600769 0.000000
#
# Coordination Sequence:
#
# PCOD9182186 Si02
#       8
#     8   8   8   8   8   8   8   8
#     4  12  24  36  57  93 125 151 201 251 295 357
#     4  10  19  32  56  89 120 152 193 239 294 360
#     4   9  20  36  56  83 117 160 199 233 288 366
#     4  12  21  34  56  88 123 158 195 245 302 350
#     4  10  23  42  60  85 122 162 200 242 300 366
#     4  11  21  37  62  90 120 155 196 248 306 357
#     4  10  22  39  58  86 120 156 201 254 304 350
#     4  11  20  38  58  82 118 159 199 241 293 356
#
# _framework density 19.968395999999998
#
# number of rings (size 3 to 8) (size 9 to 14) (size 15 to 20)
#    0.000    1.375    2.500    5.250    0.000    4.000 
#    0.000    1.250    0.000    0.000    0.000    3.500 
#    0.000    0.500    0.000    0.000    0.000    0.000 
#
# Total GULP energy -178581.575922 kJ/mol
# GULP energy per Si atom -5580.674248 kJ/mol
# Density = 1.992295 g / cm^3
# Si number density = 19.968396 Si / 1000 Ang^3
#
#
#
# Elastic Constant Matrix: (Units=GPa)
#
#
# Indices 1 2 3 4 5 6 
#
# 1 93.7829 24.5436 28.3423 0.0000 -14.7990 0.0000
# 2 24.5436 131.6261 35.1719 0.0000 -3.8079 0.0000
# 3 28.3423 35.1719 52.3243 0.0000 0.1297 0.0000
# 4 0.0000 0.0000 0.0000-1486.9657 0.0000 -812.3871
# 5 -14.7990 -3.8079 0.1297 0.0000 30.9542 0.0000
# 6 0.0000 0.0000 0.0000 -812.3871 0.0000 -428.0425
#
#
#
# Elastic Compliance Matrix: (Units=1/GPa)
#
#
# Indices 1 2 3 4 5 6 
#
# 1 0.014052 -0.000473 -0.007310 0.000000 0.006690 0.000000
# 2 -0.000473 0.009319 -0.006010 0.000000 0.000945 0.000000
# 3 -0.007310 -0.006010 0.027122 0.000000 -0.004348 0.000000
# 4 0.000000 0.000000 0.000000 0.018224 0.000000 -0.034587
# 5 0.006690 0.000945 -0.004348 0.000000 0.035639 0.000000
# 6 0.000000 0.000000 0.000000 -0.034587 0.000000 0.063307
#
#
# Mechanical properties :
#
#
# Convention : Reuss Voigt Hill
#
# Bulk Modulus (GPa) = 43.65661 50.42766 47.04213
# Shear Modulus (GPa) = 24.64482 -364.16576 -169.76047
#
# Velocity S-wave (km/s) = 3.51692 -13.51913 -9.23034
# Velocity P-wave (km/s) = 6.19693 14.77771 9.48627
#
# Compressibility (1/GPa) = 0.02290604
#
# Stress axis : x y z
#
# Youngs Moduli (GPa) = 71.16621 107.30987 36.87098
#
# Poissons Ratio (x) = 0.05080 0.26952
# Poissons Ratio (y) = 0.03369 0.22159
# Poissons Ratio (z) = 0.52020 0.64493
#
# Static dielectric constant tensor:
#      x y z
#    x 1.728920 0.000000 -0.013130 
#    y 0.000000 1.752650 0.000000 
#    z -0.013130 0.000000 1.692360 
# 
# From -- ./inp_files/111945.got.cif
#   From: 2010.05.17/outbox.cif.g08.bks.cpg/sg12_56_cif.got.tgz:111945.got - 2010.06.03 13:09:07.
