data_PCOD9182491
_publ_section_title
;
Structure prediction by ZEFSAII (Michael W. Deem and Ramdas Pophale) SiO2 
 PCOD9182491
Probable space group: C 2/M
;
_chemical_formula_sum "Si O2"
_cell_formula_units_Z 56
_cell_length_a 14.756449
_cell_length_b 7.630965
_cell_length_c 28.056686
_cell_angle_alpha 90.000000
_cell_angle_beta 118.640238
_cell_angle_gamma 90.000000
_cell_volume 2772.792430
_symmetry_space_group_name_H-M "C 2/M"
_symmetry_group_IT_number 12
_symmetry_cell_setting 'monoclinic'
loop_
_space_group_symop_operation_xyz
x,y,z
-x,y,-z
-x,-y,-z
x,-y,z
1/2+x,1/2+y,z
1/2-x,1/2+y,-z
1/2-x,1/2-y,-z
1/2+x,1/2-y,z
loop_
_atom_site_type_symbol
_atom_site_label
_atom_site_fract_x
_atom_site_fract_y
_atom_site_fract_z
Si Si1 0.061872 0.214501 0.561886
Si Si2 0.214448 0.290429 0.352621
Si Si3 0.500854 0.290300 0.651479
Si Si4 0.187381 0.207636 0.056373
Si Si5 0.121855 0.703137 0.144442
Si Si6 0.401850 0.211884 0.065028
Si Si7 0.723660 0.714650 0.736964
O O1 0.181879 0.270844 0.594101
O O2 0.010504 0.270727 0.599032
O O3 0.000000 0.274920 0.500000
O O4 0.060618 0.000000 0.560760
O O5 0.221946 0.500000 0.352843
O O6 0.225029 0.231419 0.300388
O O7 0.106863 0.249054 0.350503
O O8 0.509111 0.500000 0.651535
O O9 0.604003 0.227258 0.704970
O O10 0.157863 0.290110 0.098906
O O11 0.298167 0.273460 0.065129
O O12 0.194080 0.000000 0.065768
O O13 0.108625 0.239880 0.993143
O O14 0.110023 0.500000 0.155632
O O15 0.207337 0.778201 0.201636
O O16 0.006683 0.780640 0.114895
O O17 0.402350 0.000000 0.067020
O O18 0.721430 0.500000 0.737928
#
# Coordination Sequence:
#
# PCOD9182491 Si02
#       7
#     8   8   8   8   8   8   8
#     4   8  15  29  48  70  98 131 163 192 228 282
#     4   9  17  31  51  71  93 126 164 196 231 277
#     4   9  17  31  50  70  94 125 159 195 237 279
#     4  10  20  33  49  72  99 121 147 190 239 280
#     4  10  19  33  52  69  89 122 161 193 226 277
#     4   9  19  34  50  68  92 124 156 185 226 283
#     4   8  17  33  49  66  91 125 160 191 229 283
#
# _framework density 20.196247
#
# number of rings (size 3 to 8) (size 9 to 14) (size 15 to 20)
#    0.000    3.000    0.000    2.571    0.000    4.571 
#    0.000    5.714    0.000    0.857    0.000    0.000 
#    0.000    0.000    0.000    0.000    0.000    0.000 
#
# Total GULP energy -156143.998512 kJ/mol
# GULP energy per Si atom -5576.571375 kJ/mol
# Density = 2.015028 g / cm^3
# Si number density = 20.196247 Si / 1000 Ang^3
#
#
#
# Elastic Constant Matrix: (Units=GPa)
#
#
# Indices 1 2 3 4 5 6 
#
# 1 130.5732 -4.2643 52.5953 0.0000 24.7466 0.0000
# 2 -4.2643 36.8853 1.2254 0.0000 2.9915 0.0000
# 3 52.5953 1.2254 124.3323 0.0000 34.5865 0.0000
# 4 0.0000 0.0000 0.0000 4.1747 0.0000 -0.0770
# 5 24.7466 2.9915 34.5865 0.0000 17.4161 0.0000
# 6 0.0000 0.0000 0.0000 -0.0770 0.0000 24.6654
#
#
#
# Elastic Compliance Matrix: (Units=1/GPa)
#
#
# Indices 1 2 3 4 5 6 
#
# 1 0.010716 0.002449 -0.000457 0.000000 -0.014740 0.000000
# 2 0.002449 0.028359 0.002251 0.000000 -0.012822 0.000000
# 3 -0.000457 0.002251 0.018189 0.000000 -0.035859 0.000000
# 4 0.000000 0.000000 0.000000 0.239551 0.000000 0.000748
# 5 -0.014740 -0.012822 -0.035859 0.000000 0.151777 0.000000
# 6 0.000000 0.000000 0.000000 0.000748 0.000000 0.040545
#
#
# Mechanical properties :
#
#
# Convention : Reuss Voigt Hill
#
# Bulk Modulus (GPa) = 15.20863 43.43374 29.32119
# Shear Modulus (GPa) = 9.94890 25.40021 17.67456
#
# Velocity S-wave (km/s) = 2.22189 3.55021 2.96149
# Velocity P-wave (km/s) = 3.75888 6.19337 5.12284
#
# Compressibility (1/GPa) = 0.06575213
#
# Stress axis : x y z
#
# Youngs Moduli (GPa) = 93.31706 35.26174 54.97693
#
# Poissons Ratio (x) = -0.08637 0.02513
# Poissons Ratio (y) = -0.22858 -0.12376
# Poissons Ratio (z) = 0.04265 -0.07938
#
# Static dielectric constant tensor:
#      x y z
#    x 1.716240 0.000000 0.026840 
#    y 0.000000 1.754900 0.000000 
#    z 0.026840 0.000000 1.704760 
# 
# From -- ./inp_files/360019.got.cif
#   From: 2010.05.17/outbox.cif.g08.bks.cpg/sg12_181_cif.got.tgz:360019.got - 2010.06.03 13:09:07.
