data_PCOD9182455
_publ_section_title
;
Structure prediction by ZEFSAII (Michael W. Deem and Ramdas Pophale) SiO2 
 PCOD9182455
Probable space group: C 2/M
;
_chemical_formula_sum "Si O2"
_cell_formula_units_Z 58
_cell_length_a 19.682218
_cell_length_b 7.555833
_cell_length_c 14.743639
_cell_angle_alpha 90.000000
_cell_angle_beta 93.965257
_cell_angle_gamma 90.000000
_cell_volume 2187.359675
_symmetry_space_group_name_H-M "C 2/M"
_symmetry_group_IT_number 12
_symmetry_cell_setting 'monoclinic'
loop_
_space_group_symop_operation_xyz
x,y,z
-x,y,-z
-x,-y,-z
x,-y,z
1/2+x,1/2+y,z
1/2-x,1/2+y,-z
1/2-x,1/2-y,-z
1/2+x,1/2-y,z
loop_
_atom_site_type_symbol
_atom_site_label
_atom_site_fract_x
_atom_site_fract_y
_atom_site_fract_z
Si Si1 0.244936 0.211980 0.861455
Si Si2 0.590805 0.787731 0.413718
Si Si3 0.453113 0.303063 0.778096
Si Si4 0.401920 0.790770 0.192657
Si Si5 0.000000 0.000000 0.000000
Si Si6 0.114797 0.702105 0.058510
Si Si7 0.881783 0.294576 0.393599
Si Si8 0.234726 0.285576 0.344867
O O1 0.166320 0.262068 0.870630
O O2 0.306975 0.269547 0.930942
O O3 0.258795 0.275055 0.759134
O O4 0.248245 0.000000 0.861796
O O5 0.540443 0.747390 0.326598
O O6 0.581400 0.717853 0.514631
O O7 0.663892 0.727972 0.381826
O O8 0.592392 0.000000 0.421856
O O9 0.426091 0.500000 0.779978
O O10 0.527999 0.298767 0.828439
O O11 0.404514 0.187161 0.835191
O O12 0.388766 0.718169 0.293549
O O13 0.414963 0.000000 0.197471
O O14 0.939624 0.156286 0.981288
O O15 0.108270 0.500000 0.021260
O O16 0.902074 0.500000 0.388146
O O17 0.800732 0.284054 0.403684
O O18 0.236807 0.500000 0.346165
#
# Coordination Sequence:
#
# PCOD9182455 Si02
#       8
#     8   8   8   8   2   8   8   8
#     4   9  18  35  61  92 122 162 210 256 308 372
#     4  10  19  33  51  75 115 163 211 266 328 375
#     4  12  24  39  60  90 122 164 221 267 314 383
#     4  10  21  36  57  86 123 170 218 268 321 371
#     4  12  26  44  72 114 136 162 206 244 312 390
#     4  11  23  44  72 103 138 168 200 255 314 375
#     4   9  19  32  48  75 114 161 214 267 319 376
#     4   9  16  28  49  76 112 153 203 260 316 370
#
# _framework density 26.515985000000001
#
# number of rings (size 3 to 8) (size 9 to 14) (size 15 to 20)
#    0.000    1.931    2.069    2.276    0.966    2.207 
#    0.000    2.759    0.000    0.828    0.000    0.000 
#    0.000    0.000    0.000    0.000    0.000    0.000 
#
# Total GULP energy -162056.861511 kJ/mol
# GULP energy per Si atom -5588.167638 kJ/mol
# Density = 2.645563 g / cm^3
# Si number density = 26.515985 Si / 1000 Ang^3
#
#
#
# Elastic Constant Matrix: (Units=GPa)
#
#
# Indices 1 2 3 4 5 6 
#
# 1 122.5925 7.3024 32.6677 0.0000 39.5569 0.0000
# 2 7.3024 110.2540 11.9949 0.0000 6.7524 0.0000
# 3 32.6677 11.9949 176.8039 0.0000 12.9272 0.0000
# 4 0.0000 0.0000 0.0000 16.0218 0.0000 22.2723
# 5 39.5569 6.7524 12.9272 0.0000 43.8895 0.0000
# 6 0.0000 0.0000 0.0000 22.2723 0.0000 15.0050
#
#
#
# Elastic Compliance Matrix: (Units=1/GPa)
#
#
# Indices 1 2 3 4 5 6 
#
# 1 0.011850 0.000000 -0.001440 0.000000 -0.010256 0.000000
# 2 0.000000 0.009205 -0.000532 0.000000 -0.001259 0.000000
# 3 -0.001440 -0.000532 0.005986 0.000000 -0.000384 0.000000
# 4 0.000000 0.000000 0.000000 -0.058694 0.000000 0.087120
# 5 -0.010256 -0.001259 -0.000384 0.000000 0.032335 0.000000
# 6 0.000000 0.000000 0.000000 0.087120 0.000000 -0.062671
#
#
# Mechanical properties :
#
#
# Convention : Reuss Voigt Hill
#
# Bulk Modulus (GPa) = 43.29559 57.06449 50.18004
# Shear Modulus (GPa) = -99.31589 38.82896 -30.24347
#
# Velocity S-wave (km/s) = -6.12670 3.83085 -3.38090
# Velocity P-wave (km/s) = 5.80388 6.41363 1.92999
#
# Compressibility (1/GPa) = 0.02309704
#
# Stress axis : x y z
#
# Youngs Moduli (GPa) = 84.38725 108.63645 167.05212
#
# Poissons Ratio (x) = 0.00001 0.24049
# Poissons Ratio (y) = 0.00001 0.08894
# Poissons Ratio (z) = 0.12149 0.05784
#
# Static dielectric constant tensor:
#      x y z
#    x 2.066770 0.000000 -0.042780 
#    y 0.000000 1.965140 0.000000 
#    z -0.042780 0.000000 2.166750 
# 
# From -- ./inp_files/282229.got.cif
#   From: 2010.05.17/outbox.cif.g08.bks.cpg/sg12_142_cif.got.tgz:282229.got - 2010.06.03 13:09:07.
