data_PCOD9182393
_publ_section_title
;
Structure prediction by ZEFSAII (Michael W. Deem and Ramdas Pophale) SiO2 
 PCOD9182393
Probable space group: C 2/M
;
_chemical_formula_sum "Si O2"
_cell_formula_units_Z 56
_cell_length_a 22.927115
_cell_length_b 11.534680
_cell_length_c 16.986801
_cell_angle_alpha 90.000000
_cell_angle_beta 137.133232
_cell_angle_gamma 90.000000
_cell_volume 3056.077729
_symmetry_space_group_name_H-M "C 2/M"
_symmetry_group_IT_number 12
_symmetry_cell_setting 'monoclinic'
loop_
_space_group_symop_operation_xyz
x,y,z
-x,y,-z
-x,-y,-z
x,-y,z
1/2+x,1/2+y,z
1/2-x,1/2+y,-z
1/2-x,1/2-y,-z
1/2+x,1/2-y,z
loop_
_atom_site_type_symbol
_atom_site_label
_atom_site_fract_x
_atom_site_fract_y
_atom_site_fract_z
Si Si1 0.904978 0.132511 0.865986
Si Si2 0.526653 0.632535 0.237493
Si Si3 0.790641 0.371483 0.135943
Si Si4 0.868176 0.701158 0.053666
Si Si5 0.175301 0.373993 0.153169
Si Si6 0.455494 0.633982 0.567263
Si Si7 0.867182 0.795801 0.328621
O O1 0.913485 0.135572 0.779720
O O2 0.853916 0.249374 0.839565
O O3 0.874048 0.000000 0.856402
O O4 0.000000 0.141205 0.000000
O O5 0.492707 0.500000 0.209270
O O6 0.451706 0.722260 0.146881
O O7 0.563864 0.658359 0.360821
O O8 0.759501 0.500000 0.118242
O O9 0.848017 0.364404 0.114263
O O10 0.842800 0.323241 0.261646
O O11 0.710796 0.288235 0.040730
O O12 0.869691 0.626011 0.976696
O O13 0.156047 0.500000 0.173016
O O14 0.278145 0.365710 0.243362
O O15 0.433181 0.500000 0.528190
O O16 0.556903 0.648716 0.649144
O O17 0.405056 0.710229 0.453794
#
# Coordination Sequence:
#
# PCOD9182393 Si02
#       7
#     8   8   8   8   8   8   8
#     4  10  21  38  58  81 112 148 190 231 275 335
#     4  10  19  34  57  80 104 142 186 231 275 322
#     4  10  20  32  49  77 115 151 180 220 278 345
#     4  10  19  33  50  79 112 144 181 224 274 338
#     4  11  22  35  56  85 116 147 183 231 285 335
#     4  10  19  35  59  82 107 140 187 235 274 324
#     4  10  20  35  56  81 111 142 186 229 279 328
#
# _framework density 18.324141999999998
#
# number of rings (size 3 to 8) (size 9 to 14) (size 15 to 20)
#    0.000    1.857    2.857    2.571    0.000    2.571 
#    0.000    2.143    0.000    0.000    0.000    0.000 
#    0.000    0.000    0.000    0.000    0.000    0.000 
#
# Total GULP energy -155974.530626 kJ/mol
# GULP energy per Si atom -5570.518951 kJ/mol
# Density = 1.828244 g / cm^3
# Si number density = 18.324142 Si / 1000 Ang^3
#
#
#
# Elastic Constant Matrix: (Units=GPa)
#
#
# Indices 1 2 3 4 5 6 
#
# 1 64.8120 37.3461 27.0298 0.0000 -26.6896 0.0000
# 2 37.3461 119.6436 33.1860 0.0000 -7.6871 0.0000
# 3 27.0298 33.1860 76.4017 0.0000 -19.8264 0.0000
# 4 0.0000 0.0000 0.0000 -7.6065 0.0000 -19.4391
# 5 -26.6896 -7.6871 -19.8264 0.0000 26.7059 0.0000
# 6 0.0000 0.0000 0.0000 -19.4391 0.0000 -6.5683
#
#
#
# Elastic Compliance Matrix: (Units=1/GPa)
#
#
# Indices 1 2 3 4 5 6 
#
# 1 0.032633 -0.008205 -0.000162 0.000000 0.030131 0.000000
# 2 -0.008205 0.011570 -0.004194 0.000000 -0.007984 0.000000
# 3 -0.000162 -0.004194 0.018100 0.000000 0.012068 0.000000
# 4 0.000000 0.000000 0.000000 0.020031 0.000000 -0.059281
# 5 0.030131 -0.007984 0.012068 0.000000 0.074218 0.000000
# 6 0.000000 0.000000 0.000000 -0.059281 0.000000 0.023196
#
#
# Mechanical properties :
#
#
# Convention : Reuss Voigt Hill
#
# Bulk Modulus (GPa) = 26.89707 50.66459 38.78083
# Shear Modulus (GPa) = 23.01351 13.39258 18.20304
#
# Velocity S-wave (km/s) = 3.54773 2.70639 3.15523
# Velocity P-wave (km/s) = 5.61179 6.12170 5.87228
#
# Compressibility (1/GPa) = 0.03717877
#
# Stress axis : x y z
#
# Youngs Moduli (GPa) = 30.64412 86.43146 55.25000
#
# Poissons Ratio (x) = 0.70920 0.00895
# Poissons Ratio (y) = 0.25145 0.23174
# Poissons Ratio (z) = 0.00496 0.36253
#
# Static dielectric constant tensor:
#      x y z
#    x 1.674810 0.000000 -0.019080 
#    y 0.000000 1.651190 0.000000 
#    z -0.019080 0.000000 1.617650 
# 
# From -- ./inp_files/289190.got.cif
#   From: 2010.05.17/outbox.cif.g08.bks.cpg/sg12_145_cif.got.tgz:289190.got - 2010.06.03 13:09:07.
