data_PCOD9182765
_publ_section_title
;
Structure prediction by ZEFSAII (Michael W. Deem and Ramdas Pophale) SiO2 
 PCOD9182765
Probable space group: C 2/M
;
_chemical_formula_sum "Si O2"
_cell_formula_units_Z 56
_cell_length_a 19.445925
_cell_length_b 8.898481
_cell_length_c 31.598891
_cell_angle_alpha 90.000000
_cell_angle_beta 146.740080
_cell_angle_gamma 90.000000
_cell_volume 2998.774944
_symmetry_space_group_name_H-M "C 2/M"
_symmetry_group_IT_number 12
_symmetry_cell_setting 'monoclinic'
loop_
_space_group_symop_operation_xyz
x,y,z
-x,y,-z
-x,-y,-z
x,-y,z
1/2+x,1/2+y,z
1/2-x,1/2+y,-z
1/2-x,1/2-y,-z
1/2+x,1/2-y,z
loop_
_atom_site_type_symbol
_atom_site_label
_atom_site_fract_x
_atom_site_fract_y
_atom_site_fract_z
Si Si1 0.365221 0.669403 0.906866
Si Si2 0.485680 0.325437 0.805638
Si Si3 0.313260 0.819415 0.490135
Si Si4 0.293318 0.819827 0.651157
Si Si5 0.228045 0.324083 0.062445
Si Si6 0.446469 0.673581 0.424299
Si Si7 0.971374 0.676831 0.884122
O O1 0.337712 0.500000 0.878970
O O2 0.273897 0.729227 0.895724
O O3 0.380028 0.780263 0.875373
O O4 0.500000 0.668750 0.000000
O O5 0.457735 0.500000 0.783966
O O6 0.427358 0.229734 0.737663
O O7 0.635407 0.307790 0.886603
O O8 0.435001 0.267465 0.824080
O O9 0.250000 0.750000 0.500000
O O10 0.241921 0.758145 0.411322
O O11 0.457564 0.765506 0.555689
O O12 0.307982 0.000000 0.489275
O O13 0.194627 0.773836 0.637794
O O14 0.282512 0.000000 0.640558
O O15 0.206411 0.500000 0.061689
O O16 0.111644 0.279937 0.972657
O O17 0.500000 0.674190 0.500000
O O18 0.444762 0.500000 0.408804
O O19 0.970921 0.500000 0.875039
#
# Coordination Sequence:
#
# PCOD9182765 Si02
#       7
#     8   8   8   8   8   8   8
#     4   9  17  30  50  74  98 126 166 218 268 315
#     4  11  22  35  52  77 109 141 178 225 271 316
#     4  11  21  35  59  88 115 142 175 215 258 308
#     4  10  21  38  57  79 110 145 179 216 264 318
#     4   9  19  34  52  75 104 140 180 224 274 324
#     4   8  16  33  56  80 107 138 171 208 251 304
#     4  10  19  33  53  75 102 139 182 224 270 325
#
# _framework density 18.674292999999999
#
# number of rings (size 3 to 8) (size 9 to 14) (size 15 to 20)
#    0.000    2.286    0.000    4.286    0.000    6.571 
#    0.000    1.429    0.000    8.571    0.000    0.000 
#    0.000    0.000    0.000    0.000    0.000    0.000 
#
# Total GULP energy -156066.563984 kJ/mol
# GULP energy per Si atom -5573.805857 kJ/mol
# Density = 1.863179 g / cm^3
# Si number density = 18.674293 Si / 1000 Ang^3
#
#
#
# Elastic Constant Matrix: (Units=GPa)
#
#
# Indices 1 2 3 4 5 6 
#
# 1 93.4871 55.0369 16.2794 0.0000 -16.1157 0.0000
# 2 55.0369 70.4326 26.0824 0.0000 -7.0979 0.0000
# 3 16.2794 26.0824 46.7544 0.0000 -7.5466 0.0000
# 4 0.0000 0.0000 0.0000 23.2095 0.0000 -3.0284
# 5 -16.1157 -7.0979 -7.5466 0.0000 14.0571 0.0000
# 6 0.0000 0.0000 0.0000 -3.0284 0.0000 31.5145
#
#
#
# Elastic Compliance Matrix: (Units=1/GPa)
#
#
# Indices 1 2 3 4 5 6 
#
# 1 0.024817 -0.019285 0.005626 0.000000 0.021734 0.000000
# 2 -0.019285 0.033092 -0.013814 0.000000 -0.012817 0.000000
# 3 0.005626 -0.013814 0.029618 0.000000 0.015374 0.000000
# 4 0.000000 0.000000 0.000000 0.043633 0.000000 0.004193
# 5 0.021734 -0.012817 0.015374 0.000000 0.097837 0.000000
# 6 0.000000 0.000000 0.000000 0.004193 0.000000 0.032134
#
#
# Mechanical properties :
#
#
# Convention : Reuss Voigt Hill
#
# Bulk Modulus (GPa) = 30.69545 45.05238 37.87392
# Shear Modulus (GPa) = 15.29336 21.30792 18.30064
#
# Velocity S-wave (km/s) = 2.86484 3.38158 3.13388
# Velocity P-wave (km/s) = 5.23603 6.27889 5.78103
#
# Compressibility (1/GPa) = 0.03257812
#
# Stress axis : x y z
#
# Youngs Moduli (GPa) = 40.29467 30.21878 33.76357
#
# Poissons Ratio (x) = 0.58278 -0.18994
# Poissons Ratio (y) = 0.77710 0.46643
# Poissons Ratio (z) = -0.22668 0.41746
#
# Static dielectric constant tensor:
#      x y z
#    x 1.659570 0.000000 0.035400 
#    y 0.000000 1.635900 0.000000 
#    z 0.035400 0.000000 1.670150 
# 
# From -- ./inp_files/320210.got.cif
#   From: 2010.05.17/outbox.cif.g08.bks.cpg/sg12_161_cif.got.tgz:320210.got - 2010.06.03 13:09:07.
