data_PCOD9182968
_publ_section_title
;
Structure prediction by ZEFSAII (Michael W. Deem and Ramdas Pophale) SiO2 
 PCOD9182968
Probable space group: C 2/M
;
_chemical_formula_sum "Si O2"
_cell_formula_units_Z 54
_cell_length_a 20.469573
_cell_length_b 14.505975
_cell_length_c 19.764013
_cell_angle_alpha 90.000000
_cell_angle_beta 157.228186
_cell_angle_gamma 90.000000
_cell_volume 2271.493088
_symmetry_space_group_name_H-M "C 2/M"
_symmetry_group_IT_number 12
_symmetry_cell_setting 'monoclinic'
loop_
_space_group_symop_operation_xyz
x,y,z
-x,y,-z
-x,-y,-z
x,-y,z
1/2+x,1/2+y,z
1/2-x,1/2+y,-z
1/2-x,1/2-y,-z
1/2+x,1/2-y,z
loop_
_atom_site_type_symbol
_atom_site_label
_atom_site_fract_x
_atom_site_fract_y
_atom_site_fract_z
Si Si1 0.610956 0.854105 0.044614
Si Si2 0.168103 0.137834 0.126200
Si Si3 0.500000 0.500000 0.500000
Si Si4 0.997792 0.850637 0.401259
Si Si5 0.020096 0.612165 0.806824
Si Si6 0.348454 0.605979 0.044502
Si Si7 0.334192 0.388494 0.581276
Si Si8 0.000000 0.680635 0.500000
O O1 0.642921 0.747863 0.094382
O O2 0.803591 0.888875 0.217907
O O3 0.500000 0.894045 0.000000
O O4 0.518958 0.861784 0.884725
O O5 0.331903 0.123013 0.328153
O O6 0.192923 0.105689 0.073701
O O7 0.000000 0.101040 0.000000
O O8 0.590674 0.419263 0.540738
O O9 0.070157 0.862292 0.396407
O O10 0.013865 0.749194 0.448446
O O11 0.020393 0.500000 0.804763
O O12 0.857071 0.645811 0.609317
O O13 0.193190 0.647285 0.938170
O O14 0.357766 0.500000 0.076796
O O15 0.535945 0.645038 0.236953
O O16 0.318510 0.500000 0.571376
#
# Coordination Sequence:
#
# PCOD9182968 Si02
#       8
#     8   8   2   8   8   8   8   4
#     4  10  22  36  54  83 123 158 198 237 281 343
#     4  10  23  42  64  85 115 152 195 248 301 347
#     4  10  20  24  50  80 110 160 210 220 280 324
#     4  10  19  33  53  80 119 163 194 238 279 332
#     4  10  22  36  56  86 122 159 194 235 286 342
#     4  10  22  43  63  86 117 149 194 250 298 350
#     4  10  20  35  57  84 120 156 194 238 284 344
#     4   9  22  39  55  84 123 150 188 246 291 344
#
# _framework density 23.772908999999999
#
# number of rings (size 3 to 8) (size 9 to 14) (size 15 to 20)
#    0.000    2.074    2.222    0.000    9.333    2.370 
#    0.000    1.111    0.000    0.000    0.000    0.000 
#    0.000    0.000    0.000    0.000    0.000    0.000 
#
# Total GULP energy -150628.201861 kJ/mol
# GULP energy per Si atom -5578.822291 kJ/mol
# Density = 2.371880 g / cm^3
# Si number density = 23.772909 Si / 1000 Ang^3
#
#
#
# Elastic Constant Matrix: (Units=GPa)
#
#
# Indices 1 2 3 4 5 6 
#
# 1 74.9323 -2.3795 41.6904 -0.0012 1.7443 0.0069
# 2 -2.3795 51.7061 19.9783 0.0921 10.0719 -0.1051
# 3 41.6904 19.9783 209.5709 0.0153 -2.2816 -0.0204
# 4 -0.0012 0.0921 0.0153 -35.9496 -0.0044 45.1730
# 5 1.7443 10.0719 -2.2816 -0.0044 26.2380 0.0165
# 6 0.0069 -0.1051 -0.0204 45.1730 0.0165 -137.9766
#
#
#
# Elastic Compliance Matrix: (Units=1/GPa)
#
#
# Indices 1 2 3 4 5 6 
#
# 1 0.015310 0.002414 -0.003300 0.000006 -0.002232 0.000001
# 2 0.002414 0.022232 -0.002697 0.000059 -0.008929 0.000002
# 3 -0.003300 -0.002697 0.005704 -0.000005 0.001751 0.000000
# 4 0.000006 0.000059 -0.000005 -0.047258 -0.000022 -0.015472
# 5 -0.002232 -0.008929 0.001751 -0.000022 0.041841 0.000004
# 6 0.000001 0.000002 0.000000 -0.015472 0.000004 -0.012313
#
#
# Mechanical properties :
#
#
# Convention : Reuss Voigt Hill
#
# Bulk Modulus (GPa) = 27.71503 50.53195 39.12349
# Shear Modulus (GPa) = 111.83503 -11.07631 50.37936
#
# Velocity S-wave (km/s) = 6.86623 -2.16086 4.60846
# Velocity P-wave (km/s) = 8.63387 3.88284 6.69404
#
# Compressibility (1/GPa) = 0.03608151
#
# Stress axis : x y z
#
# Youngs Moduli (GPa) = 65.31633 44.97926 175.30595
#
# Poissons Ratio (x) = -0.10860 0.57853
# Poissons Ratio (y) = -0.15770 0.47279
# Poissons Ratio (z) = 0.21555 0.12131
#
# Static dielectric constant tensor:
#      x y z
#    x 1.922510 0.000090 -0.001260 
#    y 0.000090 1.905090 0.000050 
#    z -0.001260 0.000050 2.036540 
# 
# From -- ./inp_files/322765.got.cif
#   From: 2010.05.17/outbox.cif.g08.bks.cpg/sg12_162_cif.got.tgz:322765.got - 2010.06.03 13:09:07.
