data_PCOD9182932
_publ_section_title
;
Structure prediction by ZEFSAII (Michael W. Deem and Ramdas Pophale) SiO2 
 PCOD9182932
Probable space group: C 2/M
;
_chemical_formula_sum "Si O2"
_cell_formula_units_Z 56
_cell_length_a 34.217054
_cell_length_b 9.084772
_cell_length_c 15.281441
_cell_angle_alpha 90.000000
_cell_angle_beta 46.161832
_cell_angle_gamma 90.000000
_cell_volume 3426.385959
_symmetry_space_group_name_H-M "C 2/M"
_symmetry_group_IT_number 12
_symmetry_cell_setting 'monoclinic'
loop_
_space_group_symop_operation_xyz
x,y,z
-x,y,-z
-x,-y,-z
x,-y,z
1/2+x,1/2+y,z
1/2-x,1/2+y,-z
1/2-x,1/2-y,-z
1/2+x,1/2-y,z
loop_
_atom_site_type_symbol
_atom_site_label
_atom_site_fract_x
_atom_site_fract_y
_atom_site_fract_z
Si Si1 0.670357 0.674832 0.566185
Si Si2 0.393555 0.824026 0.484892
Si Si3 0.293685 0.824504 0.316607
Si Si4 0.378035 0.675547 0.840837
Si Si5 0.195706 0.323061 0.901114
Si Si6 0.009995 0.323592 0.382849
Si Si7 0.319878 0.323709 0.747583
O O1 0.662192 0.500000 0.579475
O O2 0.626012 0.753669 0.575338
O O3 0.674612 0.738366 0.657270
O O4 0.729538 0.704165 0.430862
O O5 0.455478 0.789245 0.414008
O O6 0.355343 0.758822 0.620202
O O7 0.387695 0.000000 0.491291
O O8 0.309188 0.784620 0.193790
O O9 0.301406 0.000000 0.316210
O O10 0.381058 0.500000 0.844553
O O11 0.437412 0.742566 0.734805
O O12 0.343337 0.709425 0.806988
O O13 0.347584 0.744875 0.970544
O O14 0.190274 0.500000 0.917282
O O15 0.256768 0.284183 0.836526
O O16 0.018835 0.500000 0.366260
O O17 0.000000 0.283257 0.500000
O O18 0.324339 0.500000 0.725222
#
# Coordination Sequence:
#
# PCOD9182932 Si02
#       7
#     8   8   8   8   8   8   8
#     4  10  19  33  53  79 111 140 172 219 271 319
#     4  11  21  33  55  81 107 140 180 223 264 317
#     4   9  18  33  53  78 107 142 179 213 261 321
#     4  11  23  35  53  80 109 143 184 225 265 315
#     4  10  20  36  55  75 110 150 179 215 262 320
#     4  10  21  38  56  76 104 142 185 223 265 316
#     4  10  20  35  52  77 111 145 178 216 267 317
#
# _framework density 16.343753
#
# number of rings (size 3 to 8) (size 9 to 14) (size 15 to 20)
#    0.000    1.857    2.857    1.714    0.000    3.714 
#    0.000    0.000    0.000    0.857    0.000    6.000 
#    0.000    0.000    0.000    0.000    0.000    0.000 
#
# Total GULP energy -156345.767892 kJ/mol
# GULP energy per Si atom -5583.777425 kJ/mol
# Density = 1.630655 g / cm^3
# Si number density = 16.343753 Si / 1000 Ang^3
#
#
#
# Elastic Constant Matrix: (Units=GPa)
#
#
# Indices 1 2 3 4 5 6 
#
# 1 152.7885 69.7090 87.8812 0.0000 8.9312 0.0000
# 2 69.7090 46.8186 60.4491 0.0000 3.1736 -0.0001
# 3 87.8812 60.4491 138.9840 0.0000 -1.0946 0.0000
# 4 0.0000 0.0000 0.0000 29.4370 0.0000 3.2970
# 5 8.9312 3.1736 -1.0946 0.0000 17.0487 0.0000
# 6 0.0000 -0.0001 0.0000 3.2970 0.0000 23.8102
#
#
#
# Elastic Compliance Matrix: (Units=1/GPa)
#
#
# Indices 1 2 3 4 5 6 
#
# 1 0.020861 -0.031088 0.000290 0.000000 -0.005123 0.000000
# 2 -0.031088 0.096973 -0.022545 0.000000 -0.003213 0.000000
# 3 0.000290 -0.022545 0.016858 0.000000 0.005127 0.000000
# 4 0.000000 0.000000 0.000000 0.034506 0.000000 -0.004778
# 5 -0.005123 -0.003213 0.005127 0.000000 0.062267 0.000000
# 6 0.000000 0.000000 0.000000 -0.004778 0.000000 0.042660
#
#
# Mechanical properties :
#
#
# Convention : Reuss Voigt Hill
#
# Bulk Modulus (GPa) = 35.70654 86.07440 60.89047
# Shear Modulus (GPa) = 12.81568 22.09597 17.45582
#
# Velocity S-wave (km/s) = 2.80328 3.68088 3.27164
# Velocity P-wave (km/s) = 5.68968 8.41692 7.18390
#
# Compressibility (1/GPa) = 0.02800608
#
# Stress axis : x y z
#
# Youngs Moduli (GPa) = 47.93527 10.31212 59.32035
#
# Poissons Ratio (x) = 0.32059 -0.01721
# Poissons Ratio (y) = 1.49023 1.33737
# Poissons Ratio (z) = -0.01391 0.23249
#
# Static dielectric constant tensor:
#      x y z
#    x 1.542290 0.000000 0.007260 
#    y 0.000000 1.540720 0.000000 
#    z 0.007260 0.000000 1.513530 
# 
# From -- ./inp_files/237456.got.cif
#   From: 2010.05.17/outbox.cif.g08.bks.cpg/sg12_119_cif.got.tgz:237456.got - 2010.06.03 13:09:07.
