data_PCOD9182773
_publ_section_title
;
Structure prediction by ZEFSAII (Michael W. Deem and Ramdas Pophale) SiO2 
 PCOD9182773
Probable space group: C 2/M
;
_chemical_formula_sum "Si O2"
_cell_formula_units_Z 56
_cell_length_a 31.649587
_cell_length_b 8.276648
_cell_length_c 18.374765
_cell_angle_alpha 90.000000
_cell_angle_beta 37.995619
_cell_angle_gamma 90.000000
_cell_volume 2963.082871
_symmetry_space_group_name_H-M "C 2/M"
_symmetry_group_IT_number 12
_symmetry_cell_setting 'monoclinic'
loop_
_space_group_symop_operation_xyz
x,y,z
-x,y,-z
-x,-y,-z
x,-y,z
1/2+x,1/2+y,z
1/2-x,1/2+y,-z
1/2-x,1/2-y,-z
1/2+x,1/2-y,z
loop_
_atom_site_type_symbol
_atom_site_label
_atom_site_fract_x
_atom_site_fract_y
_atom_site_fract_z
Si Si1 0.333757 0.189787 0.466833
Si Si2 0.546935 0.813255 0.371421
Si Si3 0.464275 0.317703 0.355853
Si Si4 0.927476 0.308123 0.893978
Si Si5 0.069763 0.805172 0.946315
Si Si6 0.324496 0.305582 0.321562
Si Si7 0.829016 0.305179 0.894966
O O1 0.385274 0.285219 0.447953
O O2 0.350876 0.223448 0.359240
O O3 0.254734 0.239766 0.582346
O O4 0.340272 0.000000 0.473147
O O5 0.500000 0.739923 0.500000
O O6 0.497420 0.802302 0.368869
O O7 0.619727 0.746987 0.240355
O O8 0.560470 0.000000 0.373543
O O9 0.476487 0.500000 0.364194
O O10 0.505632 0.285031 0.225592
O O11 0.937925 0.500000 0.871411
O O12 0.866264 0.260373 0.920981
O O13 0.917919 0.267940 0.991155
O O14 0.130925 0.764144 0.808505
O O15 0.066604 0.000000 0.958721
O O16 0.000000 0.753596 0.000000
O O17 0.327336 0.500000 0.328817
O O18 0.829489 0.500000 0.890547
O O19 0.750000 0.250000 0.000000
#
# Coordination Sequence:
#
# PCOD9182773 Si02
#       7
#     8   8   8   8   8   8   8
#     4  10  19  33  53  75 104 143 182 219 266 322
#     4   9  19  38  60  82 110 141 181 229 277 331
#     4  11  21  34  55  80 106 138 178 223 270 320
#     4  10  21  37  56  80 109 142 184 224 267 326
#     4  10  20  34  53  79 110 142 178 223 272 318
#     4   9  19  34  51  75 108 142 179 222 267 318
#     4   9  19  36  58  83 110 145 182 224 277 333
#
# _framework density 18.899236999999999
#
# number of rings (size 3 to 8) (size 9 to 14) (size 15 to 20)
#    0.000    2.286    0.000    3.857    0.000    5.714 
#    2.571    0.000    0.000    0.000    0.000    0.000 
#    0.000    0.000    0.000    0.000    0.000    0.000 
#
# Total GULP energy -156110.522149 kJ/mol
# GULP energy per Si atom -5575.375791 kJ/mol
# Density = 1.885622 g / cm^3
# Si number density = 18.899237 Si / 1000 Ang^3
#
#
#
# Elastic Constant Matrix: (Units=GPa)
#
#
# Indices 1 2 3 4 5 6 
#
# 1 69.1917 7.7530 57.8353 -0.0022 -10.5574 0.0019
# 2 7.7530 19.6870 11.6918 -0.0050 -3.8224 0.0067
# 3 57.8353 11.6918 120.3058 -0.0052 7.5780 0.0045
# 4 -0.0022 -0.0050 -0.0052 18.8243 0.0068 -1.3870
# 5 -10.5574 -3.8224 7.5780 0.0068 29.3382 -0.0037
# 6 0.0019 0.0067 0.0045 -1.3870 -0.0037 16.7858
#
#
#
# Elastic Compliance Matrix: (Units=1/GPa)
#
#
# Indices 1 2 3 4 5 6 
#
# 1 0.029069 0.000181 -0.014895 -0.000006 0.014332 0.000003
# 2 0.000181 0.056084 -0.006101 0.000009 0.008948 -0.000018
# 3 -0.014895 -0.006101 0.016725 0.000005 -0.010475 -0.000002
# 4 -0.000006 0.000009 0.000005 0.053448 -0.000014 0.004416
# 5 0.014332 0.008948 -0.010475 -0.000014 0.043114 0.000006
# 6 0.000003 -0.000018 -0.000002 0.004416 0.000006 0.059939
#
#
# Mechanical properties :
#
#
# Convention : Reuss Voigt Hill
#
# Bulk Modulus (GPa) = 16.59790 40.41607 28.50699
# Shear Modulus (GPa) = 15.62041 21.78328 18.70184
#
# Velocity S-wave (km/s) = 2.87803 3.39868 3.14913
# Velocity P-wave (km/s) = 4.45482 6.06901 5.32345
#
# Compressibility (1/GPa) = 0.06024859
#
# Stress axis : x y z
#
# Youngs Moduli (GPa) = 34.40043 17.83028 59.78913
#
# Poissons Ratio (x) = -0.00322 0.89056
# Poissons Ratio (y) = -0.00622 0.36477
# Poissons Ratio (z) = 0.51239 0.10878
#
# Static dielectric constant tensor:
#      x y z
#    x 1.628480 0.000000 0.001620 
#    y 0.000000 1.680810 0.000010 
#    z 0.001620 0.000010 1.687460 
# 
# From -- ./inp_files/295096.got.cif
#   From: 2010.05.17/outbox.cif.g08.bks.cpg/sg12_148_cif.got.tgz:295096.got - 2010.06.03 13:09:07.
