data_PCOD9182049
_publ_section_title
;
Structure prediction by ZEFSAII (Michael W. Deem and Ramdas Pophale) SiO2 
 PCOD9182049
Probable space group: C 2/M
;
_chemical_formula_sum "Si O2"
_cell_formula_units_Z 56
_cell_length_a 9.381207
_cell_length_b 14.613658
_cell_length_c 23.701650
_cell_angle_alpha 90.000000
_cell_angle_beta 125.510879
_cell_angle_gamma 90.000000
_cell_volume 2644.986387
_symmetry_space_group_name_H-M "C 2/M"
_symmetry_group_IT_number 12
_symmetry_cell_setting 'monoclinic'
loop_
_space_group_symop_operation_xyz
x,y,z
-x,y,-z
-x,-y,-z
x,-y,z
1/2+x,1/2+y,z
1/2-x,1/2+y,-z
1/2-x,1/2-y,-z
1/2+x,1/2-y,z
loop_
_atom_site_type_symbol
_atom_site_label
_atom_site_fract_x
_atom_site_fract_y
_atom_site_fract_z
Si Si1 0.260421 0.756078 0.199653
Si Si2 0.466140 0.096265 0.396562
Si Si3 0.519013 0.900155 0.278286
Si Si4 0.373664 0.295927 0.349138
Si Si5 0.153505 0.153695 0.487524
Si Si6 0.358194 0.710574 0.107499
Si Si7 0.305018 0.605529 0.982060
O O1 0.379354 0.843366 0.211160
O O2 0.351738 0.717918 0.277118
O O3 0.262503 0.693433 0.144923
O O4 0.064820 0.786693 0.167172
O O5 0.445496 0.091029 0.324424
O O6 0.390812 0.199088 0.387789
O O7 0.674112 0.096049 0.458446
O O8 0.393084 0.000000 0.404175
O O9 0.697117 0.845077 0.326411
O O10 0.552779 0.000000 0.262005
O O11 0.540099 0.357097 0.404603
O O12 0.250000 0.250000 0.500000
O O13 0.000000 0.149564 0.500000
O O14 0.318295 0.635814 0.050599
O O15 0.300629 0.810448 0.070567
O O16 0.242470 0.500000 0.961339
O O17 0.500000 0.609401 0.000000
#
# Coordination Sequence:
#
# PCOD9182049 Si02
#       7
#     8   8   8   8   8   8   8
#     4  11  22  38  60  88 127 168 199 239 308 365
#     4   9  19  34  56  85 113 153 209 261 311 369
#     4  10  20  35  59  89 117 157 211 255 297 365
#     4  10  20  36  57  87 124 158 203 256 316 359
#     4  10  19  32  55  84 113 155 206 257 314 363
#     4  11  22  41  65  95 128 162 198 251 298 356
#     4  10  22  41  69  98 123 160 208 246 289 358
#
# _framework density 21.172131
#
# number of rings (size 3 to 8) (size 9 to 14) (size 15 to 20)
#    0.000    1.857    4.286    0.000    0.000    2.000 
#    0.000    2.143    0.000   11.143    0.000    0.000 
#    0.000    0.000    0.000    0.000    0.000    0.000 
#
# Total GULP energy -155932.826625 kJ/mol
# GULP energy per Si atom -5569.029522 kJ/mol
# Density = 2.112394 g / cm^3
# Si number density = 21.172131 Si / 1000 Ang^3
#
#
#
# Elastic Constant Matrix: (Units=GPa)
#
#
# Indices 1 2 3 4 5 6 
#
# 1 20.2391 3.2403 -10.3366 0.0000 13.4914 0.0000
# 2 3.2403 95.8202 2.6233 0.0000 6.8755 0.0000
# 3 -10.3366 2.6233 83.7439 0.0000 -2.5396 0.0000
# 4 0.0000 0.0000 0.0000-1172.8985 0.0000 -168.8762
# 5 13.4914 6.8755 -2.5396 0.0000 25.9105 0.0000
# 6 0.0000 0.0000 0.0000 -168.8762 0.0000 -16.2164
#
#
#
# Elastic Compliance Matrix: (Units=1/GPa)
#
#
# Indices 1 2 3 4 5 6 
#
# 1 0.081692 -0.000014 0.008820 0.000000 -0.041668 0.000000
# 2 -0.000014 0.010654 -0.000422 0.000000 -0.002861 0.000000
# 3 0.008820 -0.000422 0.012946 0.000000 -0.003212 0.000000
# 4 0.000000 0.000000 0.000000 0.001707 0.000000 -0.017778
# 5 -0.041668 -0.002861 -0.003212 0.000000 0.060735 0.000000
# 6 0.000000 0.000000 0.000000 -0.017778 0.000000 0.123477
#
#
# Mechanical properties :
#
#
# Convention : Reuss Voigt Hill
#
# Bulk Modulus (GPa) = 8.19273 21.20635 14.69954
# Shear Modulus (GPa) = 15.86647 -219.02248 -101.57800
#
# Velocity S-wave (km/s) = 2.74049 -10.18200 -6.93407
# Velocity P-wave (km/s) = 3.72716 11.32223 7.55980
#
# Compressibility (1/GPa) = 0.12205939
#
# Stress axis : x y z
#
# Youngs Moduli (GPa) = 12.24103 93.86555 77.24578
#
# Poissons Ratio (x) = 0.00133 -0.68132
# Poissons Ratio (y) = 0.00017 0.03262
# Poissons Ratio (z) = -0.10797 0.03963
#
# Static dielectric constant tensor:
#      x y z
#    x 1.804520 0.000000 -0.037650 
#    y 0.000000 1.927930 0.000000 
#    z -0.037650 0.000000 1.787800 
# 
# From -- ./inp_files/333024.got.cif
#   From: 2010.05.17/outbox.cif.g08.bks.cpg/sg12_167_cif.got.tgz:333024.got - 2010.06.03 13:09:07.
