data_PCOD9182983
_publ_section_title
;
Structure prediction by ZEFSAII (Michael W. Deem and Ramdas Pophale) SiO2 
 PCOD9182983
Probable space group: C 2/M
;
_chemical_formula_sum "Si O2"
_cell_formula_units_Z 64
_cell_length_a 24.100017
_cell_length_b 9.024441
_cell_length_c 14.384321
_cell_angle_alpha 90.000000
_cell_angle_beta 99.032388
_cell_angle_gamma 90.000000
_cell_volume 3089.640847
_symmetry_space_group_name_H-M "C 2/M"
_symmetry_group_IT_number 12
_symmetry_cell_setting 'monoclinic'
loop_
_space_group_symop_operation_xyz
x,y,z
-x,y,-z
-x,-y,-z
x,-y,z
1/2+x,1/2+y,z
1/2-x,1/2+y,-z
1/2-x,1/2-y,-z
1/2+x,1/2-y,z
loop_
_atom_site_type_symbol
_atom_site_label
_atom_site_fract_x
_atom_site_fract_y
_atom_site_fract_z
Si Si1 0.510324 0.678504 0.683158
Si Si2 0.926299 0.324559 0.128463
Si Si3 0.107012 0.178373 0.279616
Si Si4 0.886826 0.178167 0.404904
Si Si5 0.318282 0.826740 0.222642
Si Si6 0.730093 0.169974 0.087732
Si Si7 0.903231 0.670787 0.919424
Si Si8 0.192436 0.179129 0.447692
O O1 0.512051 0.500000 0.684985
O O2 0.537433 0.738926 0.785811
O O3 0.445284 0.721435 0.667597
O O4 0.550534 0.728252 0.608874
O O5 0.939642 0.500000 0.135125
O O6 0.861987 0.311312 0.147937
O O7 0.931327 0.274096 0.022875
O O8 0.091801 0.240388 0.174449
O O9 0.166159 0.226457 0.341254
O O10 0.108739 0.000000 0.275228
O O11 0.846552 0.240597 0.314246
O O12 0.857052 0.218937 0.492664
O O13 0.887488 0.000000 0.402897
O O14 0.259520 0.757088 0.178792
O O15 0.313086 0.000000 0.242840
O O16 0.663339 0.170541 0.077461
O O17 0.749637 0.000000 0.092562
O O18 0.750000 0.250000 0.000000
O O19 0.921308 0.500000 0.909734
O O20 0.250000 0.250000 0.500000
O O21 0.199276 0.000000 0.448513
#
# Coordination Sequence:
#
# PCOD9182983 Si02
#       8
#     8   8   8   8   8   8   8   8
#     4   9  19  37  61  88 116 146 190 243 289 339
#     4   9  18  35  55  80 115 151 190 230 279 340
#     4  10  23  41  59  85 116 149 194 244 294 343
#     4   9  19  37  61  87 112 148 191 235 292 347
#     4  10  19  33  53  81 115 149 189 238 288 340
#     4  11  21  34  52  78 113 154 200 243 287 340
#     4  10  22  38  54  78 115 159 198 234 284 344
#     4  10  23  42  62  86 118 152 189 236 292 353
#
# _framework density 20.714383000000002
#
# number of rings (size 3 to 8) (size 9 to 14) (size 15 to 20)
#    0.000    2.250    1.250    0.750    1.750    4.500 
#    0.000    5.000    0.000    0.000    0.000    5.250 
#    0.000    0.000    0.000    0.000    0.000    0.000 
#
# Total GULP energy -178559.426170 kJ/mol
# GULP energy per Si atom -5579.982068 kJ/mol
# Density = 2.066724 g / cm^3
# Si number density = 20.714383 Si / 1000 Ang^3
#
#
#
# Elastic Constant Matrix: (Units=GPa)
#
#
# Indices 1 2 3 4 5 6 
#
# 1 75.8722 26.4570 35.2071 0.0000 5.3212 0.0000
# 2 26.4570 -30.5719 10.9110 0.0000 -17.9736 0.0000
# 3 35.2071 10.9110 77.8711 0.0000 -9.5505 0.0000
# 4 0.0000 0.0000 0.0000 20.7082 0.0000 -2.2087
# 5 5.3212 -17.9736 -9.5505 0.0000 21.6651 0.0000
# 6 0.0000 0.0000 0.0000 -2.2087 0.0000 19.2935
#
#
#
# Elastic Compliance Matrix: (Units=1/GPa)
#
#
# Indices 1 2 3 4 5 6 
#
# 1 0.013458 0.008661 -0.007212 0.000000 0.000700 0.000000
# 2 0.008661 -0.016354 -0.003752 0.000000 -0.017349 0.000000
# 3 -0.007212 -0.003752 0.017405 0.000000 0.006331 0.000000
# 4 0.000000 0.000000 0.000000 0.048887 0.000000 0.005596
# 5 0.000700 -0.017349 0.006331 0.000000 0.034383 0.000000
# 6 0.000000 0.000000 0.000000 0.005596 0.000000 0.052472
#
#
# Mechanical properties :
#
#
# Convention : Reuss Voigt Hill
#
# Bulk Modulus (GPa) = 100.99802 29.81352 65.40577
# Shear Modulus (GPa) = 31.61423 15.70646 23.66035
#
# Velocity S-wave (km/s) = 3.91090 2.75660 3.38334
# Velocity P-wave (km/s) = 8.32206 4.95537 6.84881
#
# Compressibility (1/GPa) = 0.00990118
#
# Stress axis : x y z
#
# Youngs Moduli (GPa) = 74.30757 -61.14583 57.45600
#
# Poissons Ratio (x) = 0.52956 0.41437
# Poissons Ratio (y) = -0.64355 0.21557
# Poissons Ratio (z) = 0.53591 -0.22941
#
# Static dielectric constant tensor:
#      x y z
#    x 1.769490 0.000000 -0.021980 
#    y 0.000000 1.694410 0.000000 
#    z -0.021980 0.000000 1.764680 
# 
# From -- ./inp_files/238685.got.cif
#   From: 2010.05.17/outbox.cif.g08.bks.cpg/sg12_120_cif.got.tgz:238685.got - 2010.06.03 13:09:07.
