data_PCOD9182323
_publ_section_title
;
Structure prediction by ZEFSAII (Michael W. Deem and Ramdas Pophale) SiO2 
 PCOD9182323
Probable space group: C 2/M
;
_chemical_formula_sum "Si O2"
_cell_formula_units_Z 64
_cell_length_a 24.953612
_cell_length_b 7.491108
_cell_length_c 16.689030
_cell_angle_alpha 90.000000
_cell_angle_beta 80.995773
_cell_angle_gamma 90.000000
_cell_volume 3081.239261
_symmetry_space_group_name_H-M "C 2/M"
_symmetry_group_IT_number 12
_symmetry_cell_setting 'monoclinic'
loop_
_space_group_symop_operation_xyz
x,y,z
-x,y,-z
-x,-y,-z
x,-y,z
1/2+x,1/2+y,z
1/2-x,1/2+y,-z
1/2-x,1/2-y,-z
1/2+x,1/2-y,z
loop_
_atom_site_type_symbol
_atom_site_label
_atom_site_fract_x
_atom_site_fract_y
_atom_site_fract_z
Si Si1 0.440749 0.791256 0.247270
Si Si2 0.793787 0.780001 0.750711
Si Si3 0.322861 0.797255 0.264748
Si Si4 0.808953 0.212812 0.449443
Si Si5 0.479806 0.282850 0.917954
Si Si6 0.118275 0.203257 0.154627
Si Si7 0.538925 0.788040 0.317580
Si Si8 0.628077 0.286079 0.413521
O O1 0.382022 0.710339 0.243125
O O2 0.478309 0.775063 0.160388
O O3 0.478252 0.722274 0.311777
O O4 0.430560 0.000000 0.267296
O O5 0.731956 0.718095 0.759487
O O6 0.826798 0.718557 0.821414
O O7 0.828358 0.723834 0.664036
O O8 0.794155 0.000000 0.749867
O O9 0.313030 0.800616 0.362303
O O10 0.326002 0.000000 0.231997
O O11 0.750000 0.250000 0.500000
O O12 0.853294 0.277234 0.503765
O O13 0.815014 0.000000 0.436901
O O14 0.478337 0.500000 0.917052
O O15 0.419894 0.217871 0.905461
O O16 0.500000 0.225010 0.000000
O O17 0.078458 0.201875 0.241810
O O18 0.130592 0.000000 0.128247
O O19 0.568229 0.758621 0.395219
O O20 0.539539 0.000000 0.301822
O O21 0.632185 0.500000 0.414097
#
# Coordination Sequence:
#
# PCOD9182323 Si02
#       8
#     8   8   8   8   8   8   8   8
#     4   9  19  33  49  70  98 128 157 191 238 291
#     4   8  13  25  45  65  86 117 155 192 229 272
#     4  10  19  33  49  67  94 128 162 198 239 287
#     4  11  21  33  48  69  96 125 162 203 245 285
#     4   9  17  30  51  76  98 122 154 193 236 282
#     4   8  14  26  44  67  93 118 149 191 235 278
#     4   9  16  27  44  67  90 117 155 197 238 279
#     4   9  17  30  46  65  89 120 158 198 240 284
#
# _framework density 20.770862999999999
#
# number of rings (size 3 to 8) (size 9 to 14) (size 15 to 20)
#    0.000    2.875    1.250    1.500    0.000    2.250 
#    0.000    0.625    0.000    4.500    0.000    0.000 
#    0.000    0.000    0.000    0.000    0.000    0.000 
#
# Total GULP energy -178307.431289 kJ/mol
# GULP energy per Si atom -5572.107228 kJ/mol
# Density = 2.072359 g / cm^3
# Si number density = 20.770863 Si / 1000 Ang^3
#
#
#
# Elastic Constant Matrix: (Units=GPa)
#
#
# Indices 1 2 3 4 5 6 
#
# 1 217.8978 1.8973 50.0231 0.0000 44.7768 0.0000
# 2 1.8973 66.8142 -8.2618 0.0000 2.1301 0.0000
# 3 50.0231 -8.2618 42.1989 0.0000 30.9746 0.0000
# 4 0.0000 0.0000 0.0000 9.9027 0.0000 1.4905
# 5 44.7768 2.1301 30.9746 0.0000 39.4850 0.0000
# 6 0.0000 0.0000 0.0000 1.4905 0.0000 9.2072
#
#
#
# Elastic Compliance Matrix: (Units=1/GPa)
#
#
# Indices 1 2 3 4 5 6 
#
# 1 0.006504 -0.000824 -0.005870 0.000000 -0.002727 0.000000
# 2 -0.000824 0.016447 0.009812 0.000000 -0.007650 0.000000
# 3 -0.005870 0.009812 0.066194 0.000000 -0.045799 0.000000
# 4 0.000000 0.000000 0.000000 0.103505 0.000000 -0.016755
# 5 -0.002727 -0.007650 -0.045799 0.000000 0.064759 0.000000
# 6 0.000000 0.000000 0.000000 -0.016755 0.000000 0.111323
#
#
# Mechanical properties :
#
#
# Convention : Reuss Voigt Hill
#
# Bulk Modulus (GPa) = 10.48409 46.02532 28.25471
# Shear Modulus (GPa) = 12.68100 30.60246 21.64173
#
# Velocity S-wave (km/s) = 2.47355 3.84257 3.23139
# Velocity P-wave (km/s) = 3.63543 6.47254 5.24930
#
# Compressibility (1/GPa) = 0.09538259
#
# Stress axis : x y z
#
# Youngs Moduli (GPa) = 153.74079 60.79960 15.10702
#
# Poissons Ratio (x) = 0.05008 0.08868
# Poissons Ratio (y) = 0.12663 -0.14823
# Poissons Ratio (z) = 0.90250 -0.59657
#
# Static dielectric constant tensor:
#      x y z
#    x 1.822530 0.000000 0.043950 
#    y 0.000000 1.809000 0.000000 
#    z 0.043950 0.000000 1.706870 
# 
# From -- ./inp_files/287506.got.cif
#   From: 2010.05.17/outbox.cif.g08.bks.cpg/sg12_144_cif.got.tgz:287506.got - 2010.06.03 13:09:07.
