data_PCOD9182216
_publ_section_title
;
Structure prediction by ZEFSAII (Michael W. Deem and Ramdas Pophale) SiO2 
 PCOD9182216
Probable space group: C 2/M
;
_chemical_formula_sum "Si O2"
_cell_formula_units_Z 64
_cell_length_a 21.081258
_cell_length_b 8.730710
_cell_length_c 25.117021
_cell_angle_alpha 90.000000
_cell_angle_beta 128.118184
_cell_angle_gamma 90.000000
_cell_volume 3637.014052
_symmetry_space_group_name_H-M "C 2/M"
_symmetry_group_IT_number 12
_symmetry_cell_setting 'monoclinic'
loop_
_space_group_symop_operation_xyz
x,y,z
-x,y,-z
-x,-y,-z
x,-y,z
1/2+x,1/2+y,z
1/2-x,1/2+y,-z
1/2-x,1/2-y,-z
1/2+x,1/2-y,z
loop_
_atom_site_type_symbol
_atom_site_label
_atom_site_fract_x
_atom_site_fract_y
_atom_site_fract_z
Si Si1 0.119599 0.816179 0.672291
Si Si2 0.787903 0.817106 0.465918
Si Si3 0.239055 0.815665 0.825723
Si Si4 0.465815 0.183245 0.541227
Si Si5 0.258706 0.683996 0.668400
Si Si6 0.787506 0.315347 0.966091
Si Si7 0.122433 0.182593 0.177462
Si Si8 0.027639 0.315320 0.955255
O O1 0.160182 0.777843 0.750193
O O2 0.182026 0.751573 0.660637
O O3 0.033326 0.741901 0.617111
O O4 0.114751 0.000000 0.664708
O O5 0.750000 0.750000 0.500000
O O6 0.880027 0.760910 0.506775
O O7 0.740993 0.753617 0.389984
O O8 0.785161 0.000000 0.465407
O O9 0.240768 0.767991 0.888019
O O10 0.315230 0.744613 0.834541
O O11 0.248855 0.000000 0.828967
O O12 0.500000 0.221227 0.500000
O O13 0.456776 0.000000 0.539502
O O14 0.250220 0.500000 0.661378
O O15 0.336716 0.721916 0.744740
O O16 0.785693 0.500000 0.967497
O O17 0.750000 0.250000 0.000000
O O18 0.880757 0.267629 0.007916
O O19 0.035813 0.252619 0.120153
O O20 0.118416 0.000000 0.171708
O O21 0.024639 0.500000 0.953041
O O22 0.000000 0.265048 0.000000
#
# Coordination Sequence:
#
# PCOD9182216 Si02
#       8
#     8   8   8   8   8   8   8   8
#     4  10  19  32  57  87 111 144 192 239 281 330
#     4  12  25  41  62  86 116 152 193 235 284 345
#     4   9  18  35  55  78 112 150 186 226 280 336
#     4  11  22  37  59  86 120 153 188 236 284 333
#     4  10  20  36  55  82 118 151 184 229 287 339
#     4  10  21  37  56  79 110 148 184 225 278 333
#     4  10  20  32  54  86 115 142 182 237 283 323
#     4  10  19  35  57  79 109 147 189 231 277 333
#
# _framework density 17.596852999999999
#
# number of rings (size 3 to 8) (size 9 to 14) (size 15 to 20)
#    0.000    1.750    2.500    2.625    0.000    3.750 
#    0.000    1.250    0.000    4.500    0.000    0.000 
#    0.000    0.000    0.000    0.000    0.000    0.000 
#
# Total GULP energy -178684.664151 kJ/mol
# GULP energy per Si atom -5583.895755 kJ/mol
# Density = 1.755680 g / cm^3
# Si number density = 17.596853 Si / 1000 Ang^3
#
#
#
# Elastic Constant Matrix: (Units=GPa)
#
#
# Indices 1 2 3 4 5 6 
#
# 1 107.0080 39.4350 78.2663 0.0000 -14.0952 0.0000
# 2 39.4350 50.5332 49.0302 0.0000 -5.0058 0.0000
# 3 78.2663 49.0302 165.4332 0.0000 -12.8385 0.0000
# 4 0.0000 0.0000 0.0000 29.5055 0.0000 -0.0210
# 5 -14.0952 -5.0058 -12.8385 0.0000 28.2869 0.0000
# 6 0.0000 0.0000 0.0000 -0.0210 0.0000 29.1841
#
#
#
# Elastic Compliance Matrix: (Units=1/GPa)
#
#
# Indices 1 2 3 4 5 6 
#
# 1 0.016501 -0.007292 -0.005294 0.000000 0.004529 0.000000
# 2 -0.007292 0.031039 -0.005810 0.000000 -0.000777 0.000000
# 3 -0.005294 -0.005810 0.010351 0.000000 0.001032 0.000000
# 4 0.000000 0.000000 0.000000 0.033892 0.000000 0.000024
# 5 0.004529 -0.000777 0.001032 0.000000 0.037940 0.000000
# 6 0.000000 0.000000 0.000000 0.000024 0.000000 0.034265
#
#
# Mechanical properties :
#
#
# Convention : Reuss Voigt Hill
#
# Bulk Modulus (GPa) = 47.39270 72.93752 60.16511
# Shear Modulus (GPa) = 24.06007 27.81150 25.93579
#
# Velocity S-wave (km/s) = 3.70171 3.97984 3.84329
# Velocity P-wave (km/s) = 6.72764 7.91568 7.34572
#
# Compressibility (1/GPa) = 0.02110030
#
# Stress axis : x y z
#
# Youngs Moduli (GPa) = 60.60270 32.21718 96.60609
#
# Poissons Ratio (x) = 0.23492 0.51143
# Poissons Ratio (y) = 0.44190 0.56127
# Poissons Ratio (z) = 0.32083 0.18718
#
# Static dielectric constant tensor:
#      x y z
#    x 1.559420 0.000000 0.000350 
#    y 0.000000 1.591290 0.000000 
#    z 0.000350 0.000000 1.620600 
# 
# From -- ./inp_files/346225.got.cif
#   From: 2010.05.17/outbox.cif.g08.bks.cpg/sg12_174_cif.got.tgz:346225.got - 2010.06.03 13:09:07.
