data_PCOD9182796
_publ_section_title
;
Structure prediction by ZEFSAII (Michael W. Deem and Ramdas Pophale) SiO2 
 PCOD9182796
Probable space group: C 2/M
;
_chemical_formula_sum "Si O2"
_cell_formula_units_Z 64
_cell_length_a 13.634058
_cell_length_b 11.373430
_cell_length_c 25.630636
_cell_angle_alpha 90.000000
_cell_angle_beta 128.051811
_cell_angle_gamma 90.000000
_cell_volume 3129.687752
_symmetry_space_group_name_H-M "C 2/M"
_symmetry_group_IT_number 12
_symmetry_cell_setting 'monoclinic'
loop_
_space_group_symop_operation_xyz
x,y,z
-x,y,-z
-x,-y,-z
x,-y,z
1/2+x,1/2+y,z
1/2-x,1/2+y,-z
1/2-x,1/2-y,-z
1/2+x,1/2-y,z
loop_
_atom_site_type_symbol
_atom_site_label
_atom_site_fract_x
_atom_site_fract_y
_atom_site_fract_z
Si Si1 0.798801 0.369872 0.110578
Si Si2 0.081237 0.136102 0.654155
Si Si3 0.194302 0.863609 0.407373
Si Si4 0.579601 0.626623 0.253722
Si Si5 0.852413 0.135872 0.441116
Si Si6 0.815955 0.809240 0.207490
Si Si7 0.577813 0.634122 0.972086
Si Si8 0.943121 0.698512 0.845209
O O1 0.750189 0.500000 0.103958
O O2 0.792290 0.300160 0.162042
O O3 0.940355 0.373855 0.137627
O O4 0.711407 0.319363 0.036265
O O5 0.931965 0.150259 0.599997
O O6 0.152585 0.149689 0.623459
O O7 0.129229 0.215567 0.717012
O O8 0.098992 0.000000 0.677499
O O9 0.146449 0.859278 0.331495
O O10 0.282213 0.749014 0.442586
O O11 0.241115 0.000000 0.431308
O O12 0.616328 0.500000 0.243962
O O13 0.431052 0.626922 0.216979
O O14 0.603224 0.727086 0.219871
O O15 0.000000 0.140615 0.500000
O O16 0.811065 0.000000 0.440914
O O17 0.678945 0.862794 0.171230
O O18 0.591096 0.500000 0.956341
O O19 0.505555 0.713214 0.907196
O O20 0.500000 0.632806 0.000000
#
# Coordination Sequence:
#
# PCOD9182796 Si02
#       8
#     8   8   8   8   8   8   8   8
#     4  10  22  36  50  75 106 134 173 225 277 329
#     4   9  19  37  58  79 110 150 184 219 276 338
#     4   9  18  36  58  80 112 151 191 234 274 324
#     4   9  19  34  52  77 104 134 177 221 266 322
#     4  10  21  37  58  86 119 153 189 229 278 334
#     4  10  19  33  53  76 101 133 173 215 264 322
#     4  10  19  34  54  72  97 137 178 220 276 331
#     4  11  20  32  55  77 100 135 176 220 271 326
#
# _framework density 20.449325000000002
#
# number of rings (size 3 to 8) (size 9 to 14) (size 15 to 20)
#    0.000    2.250    1.250    2.625    0.000    2.250 
#    0.000    9.375    0.000    1.125    0.000    0.000 
#    0.000    0.000    0.000    0.000    0.000    0.000 
#
# Total GULP energy -178257.967222 kJ/mol
# GULP energy per Si atom -5570.561476 kJ/mol
# Density = 2.040278 g / cm^3
# Si number density = 20.449325 Si / 1000 Ang^3
#
#
#
# Elastic Constant Matrix: (Units=GPa)
#
#
# Indices 1 2 3 4 5 6 
#
# 1 80.6005 33.9001 10.0528 0.0000 14.6420 0.0000
# 2 33.9001 90.6929 29.6190 0.0000 9.9978 0.0000
# 3 10.0528 29.6190 61.0024 0.0000 3.8681 0.0000
# 4 0.0000 0.0000 0.0000 13.2773 0.0000 15.5566
# 5 14.6420 9.9978 3.8681 0.0000 35.9915 0.0000
# 6 0.0000 0.0000 0.0000 15.5566 0.0000 -10.9505
#
#
#
# Elastic Compliance Matrix: (Units=1/GPa)
#
#
# Indices 1 2 3 4 5 6 
#
# 1 0.015506 -0.005380 0.000365 0.000000 -0.004853 0.000000
# 2 -0.005380 0.015295 -0.006453 0.000000 -0.001367 0.000000
# 3 0.000365 -0.006453 0.019495 0.000000 -0.000451 0.000000
# 4 0.000000 0.000000 0.000000 0.028267 0.000000 0.040156
# 5 -0.004853 -0.001367 -0.000451 0.000000 0.030187 0.000000
# 6 0.000000 0.000000 0.000000 0.040156 0.000000 -0.034273
#
#
# Mechanical properties :
#
#
# Convention : Reuss Voigt Hill
#
# Bulk Modulus (GPa) = 36.55170 42.15996 39.35583
# Shear Modulus (GPa) = 46.93392 18.24527 32.58960
#
# Velocity S-wave (km/s) = 4.79595 2.99024 3.99642
# Velocity P-wave (km/s) = 6.97003 5.70821 6.37044
#
# Compressibility (1/GPa) = 0.02735851
#
# Stress axis : x y z
#
# Youngs Moduli (GPa) = 64.49220 65.37910 51.29632
#
# Poissons Ratio (x) = 0.35174 -0.01871
# Poissons Ratio (y) = 0.34697 0.33103
# Poissons Ratio (z) = -0.02352 0.42191
#
# Static dielectric constant tensor:
#      x y z
#    x 1.742000 0.000000 0.013440 
#    y 0.000000 1.724310 0.000000 
#    z 0.013440 0.000000 1.743030 
# 
# From -- ./inp_files/361059.got.cif
#   From: 2010.05.17/outbox.cif.g08.bks.cpg/sg12_181_cif.got.tgz:361059.got - 2010.06.03 13:09:07.
