data_PCOD9182902
_publ_section_title
;
Structure prediction by ZEFSAII (Michael W. Deem and Ramdas Pophale) SiO2 
 PCOD9182902
Probable space group: C 2/M
;
_chemical_formula_sum "Si O2"
_cell_formula_units_Z 56
_cell_length_a 17.708016
_cell_length_b 14.088440
_cell_length_c 22.143331
_cell_angle_alpha 90.000000
_cell_angle_beta 29.888910
_cell_angle_gamma 90.000000
_cell_volume 2752.859376
_symmetry_space_group_name_H-M "C 2/M"
_symmetry_group_IT_number 12
_symmetry_cell_setting 'monoclinic'
loop_
_space_group_symop_operation_xyz
x,y,z
-x,y,-z
-x,-y,-z
x,-y,z
1/2+x,1/2+y,z
1/2-x,1/2+y,-z
1/2-x,1/2-y,-z
1/2+x,1/2-y,z
loop_
_atom_site_type_symbol
_atom_site_label
_atom_site_fract_x
_atom_site_fract_y
_atom_site_fract_z
Si Si1 0.751671 0.385042 0.539797
Si Si2 0.179537 0.615092 0.374029
Si Si3 0.570724 0.236219 0.124426
Si Si4 0.834522 0.115499 0.140695
Si Si5 0.088263 0.611992 0.001323
Si Si6 0.563787 0.388362 0.218624
Si Si7 0.043193 0.614083 0.261360
O O1 0.762202 0.500000 0.534308
O O2 0.770935 0.349268 0.594639
O O3 0.579440 0.362355 0.640152
O O4 0.893759 0.355815 0.401601
O O5 0.191601 0.500000 0.364889
O O6 0.273731 0.647331 0.249347
O O7 0.000000 0.636592 0.500000
O O8 0.524805 0.185652 0.094603
O O9 0.530252 0.339895 0.177273
O O10 0.535288 0.163959 0.202763
O O11 0.750000 0.250000 0.000000
O O12 0.698686 0.139810 0.188390
O O13 0.841689 0.000000 0.138387
O O14 0.000000 0.146466 0.000000
O O15 0.075442 0.500000 0.029150
O O16 0.269146 0.633337 0.871974
O O17 0.000000 0.621362 0.000000
O O18 0.560481 0.500000 0.211407
O O19 0.043397 0.500000 0.255273
#
# Coordination Sequence:
#
# PCOD9182902 Si02
#       7
#     8   8   8   8   8   8   8
#     4   9  17  30  52  77 105 148 195 236 282 345
#     4   9  14  25  45  69 104 149 189 218 261 333
#     4  10  21  36  55  83 113 144 182 237 297 347
#     4   9  17  27  43  73 112 152 190 228 273 335
#     4   9  18  36  63  87 111 149 192 236 289 349
#     4   9  19  36  57  83 112 147 192 232 279 343
#     4  10  19  33  53  78 109 144 188 240 294 347
#
# _framework density 20.342486000000001
#
# number of rings (size 3 to 8) (size 9 to 14) (size 15 to 20)
#    0.000    2.714    1.429    0.429    0.000    3.429 
#    0.000   12.857    0.000    1.286    0.000    5.000 
#    0.000    0.000    0.000    0.000    0.000    0.000 
#
# Total GULP energy -155963.712536 kJ/mol
# GULP energy per Si atom -5570.132591 kJ/mol
# Density = 2.029619 g / cm^3
# Si number density = 20.342486 Si / 1000 Ang^3
#
#
#
# Elastic Constant Matrix: (Units=GPa)
#
#
# Indices 1 2 3 4 5 6 
#
# 1 106.3299 29.7796 67.6362 -0.0446 1.0564 0.0062
# 2 29.7796 68.8060 25.9507 -0.1311 0.1724 0.0193
# 3 67.6362 25.9507 175.7707 -0.1801 -5.3786 0.0266
# 4 -0.0446 -0.1311 -0.1801-2559.2423 0.0229 371.5998
# 5 1.0564 0.1724 -5.3786 0.0229 31.0664 -0.0034
# 6 0.0062 0.0193 0.0266 371.5998 -0.0034 -32.8825
#
#
#
# Elastic Compliance Matrix: (Units=1/GPa)
#
#
# Indices 1 2 3 4 5 6 
#
# 1 0.013511 -0.004098 -0.004632 0.000000 -0.001239 0.000000
# 2 -0.004098 0.016640 -0.000883 -0.000001 -0.000106 0.000000
# 3 -0.004632 -0.000883 0.007647 0.000000 0.001486 0.000000
# 4 0.000000 -0.000001 0.000000 0.000610 0.000000 0.006890
# 5 -0.001239 -0.000106 0.001486 0.000000 0.032489 0.000000
# 6 0.000000 0.000000 0.000000 0.006890 0.000000 0.047453
#
#
# Mechanical properties :
#
#
# Convention : Reuss Voigt Hill
#
# Bulk Modulus (GPa) = 53.84061 66.40440 60.12250
# Shear Modulus (GPa) = 34.77840 -497.04234 -231.13197
#
# Velocity S-wave (km/s) = 4.13927 -15.64824 -10.67085
# Velocity P-wave (km/s) = 7.02633 17.13989 11.05456
#
# Compressibility (1/GPa) = 0.01857334
#
# Stress axis : x y z
#
# Youngs Moduli (GPa) = 74.01417 60.09455 130.76209
#
# Poissons Ratio (x) = 0.24624 0.60568
# Poissons Ratio (y) = 0.30327 0.11550
# Poissons Ratio (z) = 0.34283 0.05308
#
# Static dielectric constant tensor:
#      x y z
#    x 1.750050 0.000000 -0.046050 
#    y 0.000000 1.763860 0.000000 
#    z -0.046050 0.000000 1.808920 
# 
# From -- ./inp_files/316710.got.cif
#   From: 2010.05.17/outbox.cif.g08.bks.cpg/sg12_159_cif.got.tgz:316710.got - 2010.06.03 13:09:07.
