data_PCOD9182518
_publ_section_title
;
Structure prediction by ZEFSAII (Michael W. Deem and Ramdas Pophale) SiO2 
 PCOD9182518
Probable space group: C 2/M
;
_chemical_formula_sum "Si O2"
_cell_formula_units_Z 56
_cell_length_a 23.737482
_cell_length_b 8.882352
_cell_length_c 15.131503
_cell_angle_alpha 90.000000
_cell_angle_beta 89.374967
_cell_angle_gamma 90.000000
_cell_volume 3190.206935
_symmetry_space_group_name_H-M "C 2/M"
_symmetry_group_IT_number 12
_symmetry_cell_setting 'monoclinic'
loop_
_space_group_symop_operation_xyz
x,y,z
-x,y,-z
-x,-y,-z
x,-y,z
1/2+x,1/2+y,z
1/2-x,1/2+y,-z
1/2-x,1/2-y,-z
1/2+x,1/2-y,z
loop_
_atom_site_type_symbol
_atom_site_label
_atom_site_fract_x
_atom_site_fract_y
_atom_site_fract_z
Si Si1 0.705481 0.819587 0.311979
Si Si2 0.064312 0.818177 0.747981
Si Si3 0.514381 0.820900 0.101779
Si Si4 0.171606 0.318812 0.670628
Si Si5 0.969427 0.826551 0.622993
Si Si6 0.874034 0.680053 0.520449
Si Si7 0.611759 0.674427 0.202519
O O1 0.766358 0.744400 0.314081
O O2 0.670663 0.778836 0.401794
O O3 0.668066 0.758999 0.231407
O O4 0.710008 0.000000 0.308445
O O5 0.126110 0.750338 0.738232
O O6 0.031149 0.758185 0.833777
O O7 0.027826 0.766732 0.662301
O O8 0.064612 0.000000 0.748257
O O9 0.575152 0.754906 0.128028
O O10 0.513765 0.000000 0.118503
O O11 0.500000 0.793671 0.000000
O O12 0.171653 0.500000 0.674946
O O13 0.150392 0.270982 0.573136
O O14 0.934756 0.744566 0.547339
O O15 0.928545 0.821973 0.709881
O O16 0.977043 0.000000 0.597918
O O17 0.878580 0.500000 0.519832
O O18 0.622417 0.500000 0.181152
#
# Coordination Sequence:
#
# PCOD9182518 Si02
#       7
#     8   8   8   8   8   8   8
#     4  10  19  33  52  73 100 137 180 220 256 297
#     4  10  21  36  52  74 103 136 172 208 255 310
#     4  10  20  35  58  86 110 131 159 200 250 304
#     4  11  22  34  48  70 102 139 177 218 261 303
#     4   8  16  30  48  69  96 130 168 212 255 298
#     4   9  19  32  48  71  98 133 177 221 260 297
#     4   9  17  31  52  78 105 134 168 206 250 298
#
# _framework density 17.553719999999998
#
# number of rings (size 3 to 8) (size 9 to 14) (size 15 to 20)
#    0.000    2.429    0.000    3.429    0.000    7.429 
#    0.000    2.857    0.000    0.857    0.000    0.000 
#    0.000    0.000    0.000    0.000    0.000    0.000 
#
# Total GULP energy -156243.503519 kJ/mol
# GULP energy per Si atom -5580.125126 kJ/mol
# Density = 1.751377 g / cm^3
# Si number density = 17.553720 Si / 1000 Ang^3
#
#
#
# Elastic Constant Matrix: (Units=GPa)
#
#
# Indices 1 2 3 4 5 6 
#
# 1 118.2992 48.6477 51.1750 0.0000 9.5060 0.0000
# 2 48.6477 69.4017 46.0122 0.0000 8.2503 0.0000
# 3 51.1750 46.0122 81.8365 0.0000 18.2609 0.0000
# 4 0.0000 0.0000 0.0000 17.4893 0.0000 11.4144
# 5 9.5060 8.2503 18.2609 0.0000 20.7106 0.0000
# 6 0.0000 0.0000 0.0000 11.4144 0.0000 27.2028
#
#
#
# Elastic Compliance Matrix: (Units=1/GPa)
#
#
# Indices 1 2 3 4 5 6 
#
# 1 0.012959 -0.005881 -0.004971 0.000000 0.000777 0.000000
# 2 -0.005881 0.025770 -0.011358 0.000000 0.002448 0.000000
# 3 -0.004971 -0.011358 0.025142 0.000000 -0.015362 0.000000
# 4 0.000000 0.000000 0.000000 0.078741 0.000000 -0.033040
# 5 0.000777 0.002448 -0.015362 0.000000 0.060497 0.000000
# 6 0.000000 0.000000 0.000000 -0.033040 0.000000 0.050625
#
#
# Mechanical properties :
#
#
# Convention : Reuss Voigt Hill
#
# Bulk Modulus (GPa) = 51.40872 62.35636 56.88254
# Shear Modulus (GPa) = 16.41294 21.32738 18.87016
#
# Velocity S-wave (km/s) = 3.06111 3.48943 3.28227
# Velocity P-wave (km/s) = 6.46869 7.19966 6.84394
#
# Compressibility (1/GPa) = 0.01945195
#
# Stress axis : x y z
#
# Youngs Moduli (GPa) = 77.16429 38.80452 39.77447
#
# Poissons Ratio (x) = 0.22820 0.19772
# Poissons Ratio (y) = 0.45378 0.45176
# Poissons Ratio (z) = 0.38358 0.44074
#
# Static dielectric constant tensor:
#      x y z
#    x 1.592560 0.000000 -0.000610 
#    y 0.000000 1.586100 0.000000 
#    z -0.000610 0.000000 1.594370 
# 
# From -- ./inp_files/230910.got.cif
#   From: 2010.05.17/outbox.cif.g08.bks.cpg/sg12_116_cif.got.tgz:230910.got - 2010.06.03 13:09:07.
