data_PCOD9182818
_publ_section_title
;
Structure prediction by ZEFSAII (Michael W. Deem and Ramdas Pophale) SiO2 
 PCOD9182818
Probable space group: C 2/M
;
_chemical_formula_sum "Si O2"
_cell_formula_units_Z 40
_cell_length_a 19.354876
_cell_length_b 8.886763
_cell_length_c 15.286973
_cell_angle_alpha 90.000000
_cell_angle_beta 71.070359
_cell_angle_gamma 90.000000
_cell_volume 2487.189200
_symmetry_space_group_name_H-M "C 2/M"
_symmetry_group_IT_number 12
_symmetry_cell_setting 'monoclinic'
loop_
_space_group_symop_operation_xyz
x,y,z
-x,y,-z
-x,-y,-z
x,-y,z
1/2+x,1/2+y,z
1/2-x,1/2+y,-z
1/2-x,1/2-y,-z
1/2+x,1/2-y,z
loop_
_atom_site_type_symbol
_atom_site_label
_atom_site_fract_x
_atom_site_fract_y
_atom_site_fract_z
Si Si1 0.764171 0.676782 0.901120
Si Si2 0.977094 0.819138 0.411079
Si Si3 0.240998 0.679078 0.733394
Si Si4 0.115136 0.323718 0.278105
Si Si5 0.315279 0.680674 0.416361
O O1 0.746524 0.500000 0.909408
O O2 0.722665 0.759475 0.838094
O O3 0.848386 0.691477 0.833112
O O4 0.750000 0.750000 0.000000
O O5 0.894171 0.777493 0.423008
O O6 0.000000 0.775382 0.500000
O O7 0.035725 0.743312 0.323071
O O8 0.983303 0.000000 0.401678
O O9 0.236904 0.500000 0.730870
O O10 0.325604 0.733414 0.687467
O O11 0.194016 0.756003 0.677559
O O12 0.116931 0.500000 0.300271
O O13 0.309258 0.500000 0.418898
O O14 0.250000 0.750000 0.500000
#
# Coordination Sequence:
#
# PCOD9182818 Si02
#       5
#     8   8   8   8   8
#     4   9  18  32  54  84 109 137 176 222 269 317
#     4  10  21  35  52  75 105 141 180 219 266 321
#     4  10  19  33  53  76 106 141 177 219 265 312
#     4   9  19  33  52  78 106 134 175 220 262 316
#     4  11  22  35  52  77 108 142 181 223 266 321
#
# _framework density 16.082411
#
# number of rings (size 3 to 8) (size 9 to 14) (size 15 to 20)
#    1.200    1.000    0.000    4.200    0.000    3.600 
#    0.000    0.000    0.000    1.200    0.000    8.400 
#    0.000    0.000    0.000    0.000    0.000    0.000 
#
# Total GULP energy -111360.732700 kJ/mol
# GULP energy per Si atom -5568.036635 kJ/mol
# Density = 1.604581 g / cm^3
# Si number density = 16.082411 Si / 1000 Ang^3
#
#
#
# Elastic Constant Matrix: (Units=GPa)
#
#
# Indices 1 2 3 4 5 6 
#
# 1 122.0981 61.1123 63.3299 0.0000 6.8813 0.0000
# 2 61.1123 88.9454 52.3122 0.0000 1.3533 0.0000
# 3 63.3299 52.3122 108.7766 0.0000 12.0837 0.0000
# 4 0.0000 0.0000 0.0000 30.2622 0.0000 -0.0431
# 5 6.8813 1.3533 12.0837 0.0000 23.2172 0.0000
# 6 0.0000 0.0000 0.0000 -0.0431 0.0000 25.0626
#
#
#
# Elastic Compliance Matrix: (Units=1/GPa)
#
#
# Indices 1 2 3 4 5 6 
#
# 1 0.014223 -0.006927 -0.004803 0.000000 -0.001312 0.000000
# 2 -0.006927 0.019277 -0.005669 0.000000 0.003880 0.000000
# 3 -0.004803 -0.005669 0.015412 0.000000 -0.006267 0.000000
# 4 0.000000 0.000000 0.000000 0.033045 0.000000 0.000057
# 5 -0.001312 0.003880 -0.006267 0.000000 0.046496 0.000000
# 6 0.000000 0.000000 0.000000 0.000057 0.000000 0.039900
#
#
# Mechanical properties :
#
#
# Convention : Reuss Voigt Hill
#
# Bulk Modulus (GPa) = 70.85382 74.81432 72.83407
# Shear Modulus (GPa) = 24.05514 25.24610 24.65062
#
# Velocity S-wave (km/s) = 3.87168 3.96636 3.91931
# Velocity P-wave (km/s) = 8.00868 8.22170 8.11589
#
# Compressibility (1/GPa) = 0.01411356
#
# Stress axis : x y z
#
# Youngs Moduli (GPa) = 70.31076 51.87474 64.88394
#
# Poissons Ratio (x) = 0.35933 0.31166
# Poissons Ratio (y) = 0.48704 0.36781
# Poissons Ratio (z) = 0.33773 0.29407
#
# Static dielectric constant tensor:
#      x y z
#    x 1.532220 0.000000 -0.000350 
#    y 0.000000 1.534540 0.000000 
#    z -0.000350 0.000000 1.544010 
# 
# From -- ./inp_files/220228.got.cif
#   From: 2010.05.17/outbox.cif.g08.bks.cpg/sg12_111_cif.got.tgz:220228.got - 2010.06.03 13:09:07.
