data_PCOD9182636
_publ_section_title
;
Structure prediction by ZEFSAII (Michael W. Deem and Ramdas Pophale) SiO2 
 PCOD9182636
Probable space group: C 2/M
;
_chemical_formula_sum "Si O2"
_cell_formula_units_Z 56
_cell_length_a 19.556107
_cell_length_b 8.775200
_cell_length_c 24.800189
_cell_angle_alpha 90.000000
_cell_angle_beta 47.764188
_cell_angle_gamma 90.000000
_cell_volume 3151.024619
_symmetry_space_group_name_H-M "C 2/M"
_symmetry_group_IT_number 12
_symmetry_cell_setting 'monoclinic'
loop_
_space_group_symop_operation_xyz
x,y,z
-x,y,-z
-x,-y,-z
x,-y,z
1/2+x,1/2+y,z
1/2-x,1/2+y,-z
1/2-x,1/2-y,-z
1/2+x,1/2-y,z
loop_
_atom_site_type_symbol
_atom_site_label
_atom_site_fract_x
_atom_site_fract_y
_atom_site_fract_z
Si Si1 0.139640 0.815279 0.400643
Si Si2 0.481838 0.318853 0.198842
Si Si3 0.203760 0.318569 0.193118
Si Si4 0.684784 0.182583 0.080304
Si Si5 0.052615 0.184091 0.555665
Si Si6 0.692323 0.182185 0.762639
Si Si7 0.014851 0.318788 0.687309
O O1 0.123886 0.768317 0.470909
O O2 0.231684 0.764383 0.321862
O O3 0.048469 0.772639 0.414722
O O4 0.140389 0.000000 0.400477
O O5 0.487775 0.500000 0.195644
O O6 0.581534 0.248809 0.131983
O O7 0.404161 0.260347 0.199325
O O8 0.456110 0.259889 0.272458
O O9 0.217276 0.500000 0.193534
O O10 0.221094 0.280692 0.121341
O O11 0.266089 0.227907 0.201797
O O12 0.095075 0.286244 0.260844
O O13 0.680128 0.000000 0.078678
O O14 0.750000 0.250000 0.000000
O O15 0.064292 0.257940 0.607680
O O16 0.054613 0.000000 0.559537
O O17 0.683082 0.000000 0.763580
O O18 0.026027 0.500000 0.686829
#
# Coordination Sequence:
#
# PCOD9182636 Si02
#       7
#     8   8   8   8   8   8   8
#     4   8  16  28  48  76 107 141 181 230 277 325
#     4  11  23  38  57  80 110 148 183 222 274 326
#     4   9  19  34  54  81 112 143 177 219 265 318
#     4  10  21  40  64  90 117 143 177 219 263 317
#     4   9  15  29  50  75 104 140 186 230 278 329
#     4  11  20  34  55  81 111 145 184 227 274 326
#     4  10  19  33  52  78 108 140 185 236 276 322
#
# _framework density 17.771998
#
# number of rings (size 3 to 8) (size 9 to 14) (size 15 to 20)
#    0.000    2.286    1.429    4.286    0.000    2.857 
#    0.000    4.286    0.000    4.286    0.000    0.000 
#    0.000    0.000    0.000    0.000    0.000    0.000 
#
# Total GULP energy -156247.414223 kJ/mol
# GULP energy per Si atom -5580.264794 kJ/mol
# Density = 1.773155 g / cm^3
# Si number density = 17.771998 Si / 1000 Ang^3
#
#
#
# Elastic Constant Matrix: (Units=GPa)
#
#
# Indices 1 2 3 4 5 6 
#
# 1 80.9606 48.8021 42.8091 0.0000 4.1721 0.0002
# 2 48.8021 68.4492 41.5938 0.0000 7.8825 0.0002
# 3 42.8091 41.5938 117.9477 0.0000 16.5364 0.0000
# 4 0.0000 0.0000 0.0000 26.1984 0.0000 4.0381
# 5 4.1721 7.8825 16.5364 0.0000 18.5752 0.0000
# 6 0.0002 0.0002 0.0000 4.0381 0.0000 25.8764
#
#
#
# Elastic Compliance Matrix: (Units=1/GPa)
#
#
# Indices 1 2 3 4 5 6 
#
# 1 0.022884 -0.014510 -0.003807 0.000000 0.004406 0.000000
# 2 -0.014510 0.027884 -0.003845 0.000000 -0.005151 0.000000
# 3 -0.003807 -0.003845 0.012417 0.000000 -0.008568 0.000000
# 4 0.000000 0.000000 0.000000 0.039111 0.000000 -0.006103
# 5 0.004406 -0.005151 -0.008568 0.000000 0.062659 0.000000
# 6 0.000000 0.000000 0.000000 -0.006103 0.000000 0.039598
#
#
# Mechanical properties :
#
#
# Convention : Reuss Voigt Hill
#
# Bulk Modulus (GPa) = 53.01518 59.30751 56.16135
# Shear Modulus (GPa) = 19.59552 23.07352 21.33452
#
# Velocity S-wave (km/s) = 3.32415 3.60711 3.46852
# Velocity P-wave (km/s) = 6.68048 7.12686 6.90728
#
# Compressibility (1/GPa) = 0.01886252
#
# Stress axis : x y z
#
# Youngs Moduli (GPa) = 43.69940 35.86335 80.53531
#
# Poissons Ratio (x) = 0.52036 0.30657
# Poissons Ratio (y) = 0.63406 0.30963
# Poissons Ratio (z) = 0.16635 0.13788
#
# Static dielectric constant tensor:
#      x y z
#    x 1.590570 0.000000 0.006270 
#    y 0.000000 1.590320 0.000000 
#    z 0.006270 0.000000 1.605110 
# 
# From -- ./inp_files/342210.got.cif
#   From: 2010.05.17/outbox.cif.g08.bks.cpg/sg12_172_cif.got.tgz:342210.got - 2010.06.03 13:09:07.
