data_PCOD9182488
_publ_section_title
;
Structure prediction by ZEFSAII (Michael W. Deem and Ramdas Pophale) SiO2 
 PCOD9182488
Probable space group: C 2/M
;
_chemical_formula_sum "Si O2"
_cell_formula_units_Z 58
_cell_length_a 5.462172
_cell_length_b 27.098255
_cell_length_c 16.566026
_cell_angle_alpha 90.000000
_cell_angle_beta 85.051735
_cell_angle_gamma 90.000000
_cell_volume 2442.887073
_symmetry_space_group_name_H-M "C 2/M"
_symmetry_group_IT_number 12
_symmetry_cell_setting 'monoclinic'
loop_
_space_group_symop_operation_xyz
x,y,z
-x,y,-z
-x,-y,-z
x,-y,z
1/2+x,1/2+y,z
1/2-x,1/2+y,-z
1/2-x,1/2-y,-z
1/2+x,1/2-y,z
loop_
_atom_site_type_symbol
_atom_site_label
_atom_site_fract_x
_atom_site_fract_y
_atom_site_fract_z
Si Si1 0.637699 0.054901 0.739517
Si Si2 0.751701 0.624792 0.823999
Si Si3 0.508505 0.774436 0.807025
Si Si4 0.968761 0.237128 0.380041
Si Si5 0.262359 0.443426 0.449245
Si Si6 0.930398 0.051724 0.896534
Si Si7 0.000000 0.500000 0.000000
Si Si8 0.506034 0.370840 0.331669
O O1 0.395954 0.077227 0.785946
O O2 0.833068 0.051885 0.807466
O O3 0.756904 0.094319 0.676713
O O4 0.606699 0.000000 0.706957
O O5 0.944494 0.668906 0.829576
O O6 0.587149 0.601324 0.899453
O O7 0.576185 0.643434 0.756642
O O8 0.763217 0.755939 0.837430
O O9 0.537737 0.763642 0.709264
O O10 0.190955 0.263361 0.417932
O O11 0.046680 0.180240 0.373919
O O12 0.500000 0.435669 0.500000
O O13 0.284075 0.500000 0.418783
O O14 0.295294 0.403638 0.378263
O O15 0.000000 0.438653 0.500000
O O16 0.688095 0.042455 0.955833
O O17 0.082999 0.000000 0.904565
#
# Coordination Sequence:
#
# PCOD9182488 Si02
#       8
#     8   8   8   8   8   8   2   8
#     4  10  20  32  50  86 119 143 187 247 294 345
#     4  11  20  31  56  85 118 147 195 244 299 354
#     4  10  19  33  51  82 117 153 186 237 300 356
#     4  10  19  33  53  84 113 148 188 236 297 366
#     4  10  24  44  61  81 112 153 208 244 288 363
#     4   8  18  34  51  79 115 158 191 236 275 353
#     4   8  16  40  58  68 132 170 188 232 286 340
#     4  11  22  35  60  81 113 154 191 242 312 348
#
# _framework density 23.742398000000001
#
# number of rings (size 3 to 8) (size 9 to 14) (size 15 to 20)
#    0.414    1.655    2.759    2.483    3.862    1.655 
#    0.000    1.379    0.000    2.483    0.000    0.966 
#    0.000    0.000    0.000    0.000    0.000    0.000 
#
# Total GULP energy -161717.274140 kJ/mol
# GULP energy per Si atom -5576.457729 kJ/mol
# Density = 2.368836 g / cm^3
# Si number density = 23.742398 Si / 1000 Ang^3
#
#
#
# Elastic Constant Matrix: (Units=GPa)
#
#
# Indices 1 2 3 4 5 6 
#
# 1 111.3556 24.1104 14.2614 0.0000 -26.1928 0.0000
# 2 24.1104 99.1987 22.1030 0.0000 -25.1271 0.0000
# 3 14.2614 22.1030 43.5966 0.0000 -10.9684 0.0000
# 4 0.0000 0.0000 0.0000 10.1352 0.0000 -1.8210
# 5 -26.1928 -25.1271 -10.9684 0.0000 43.2827 0.0000
# 6 0.0000 0.0000 0.0000 -1.8210 0.0000 -10.8631
#
#
#
# Elastic Compliance Matrix: (Units=1/GPa)
#
#
# Indices 1 2 3 4 5 6 
#
# 1 0.010681 -0.000811 -0.001682 0.000000 0.005566 0.000000
# 2 -0.000811 0.012793 -0.004780 0.000000 0.005725 0.000000
# 3 -0.001682 -0.004780 0.026657 0.000000 0.002962 0.000000
# 4 0.000000 0.000000 0.000000 0.095781 0.000000 -0.016056
# 5 0.005566 0.005725 0.002962 0.000000 0.030546 0.000000
# 6 0.000000 0.000000 0.000000 -0.016056 0.000000 -0.089363
#
#
# Mechanical properties :
#
#
# Convention : Reuss Voigt Hill
#
# Bulk Modulus (GPa) = 28.10346 41.67782 34.89064
# Shear Modulus (GPa) = 44.05178 21.42271 32.73725
#
# Velocity S-wave (km/s) = 4.31212 3.00709 3.71732
# Velocity P-wave (km/s) = 6.05433 5.44509 5.75778
#
# Compressibility (1/GPa) = 0.03558281
#
# Stress axis : x y z
#
# Youngs Moduli (GPa) = 93.62781 78.16707 37.51411
#
# Poissons Ratio (x) = 0.06341 0.06311
# Poissons Ratio (y) = 0.07595 0.17933
# Poissons Ratio (z) = 0.15750 0.37367
#
# Static dielectric constant tensor:
#      x y z
#    x 1.991890 0.000000 0.000520 
#    y 0.000000 1.887140 0.000000 
#    z 0.000520 0.000000 1.972160 
# 
# From -- ./inp_files/298283.got.cif
#   From: 2010.05.17/outbox.cif.g08.bks.cpg/sg12_150_cif.got.tgz:298283.got - 2010.06.03 13:09:07.
