data_PCOD9182585
_publ_section_title
;
Structure prediction by ZEFSAII (Michael W. Deem and Ramdas Pophale) SiO2 
 PCOD9182585
Probable space group: C 2/M
;
_chemical_formula_sum "Si O2"
_cell_formula_units_Z 56
_cell_length_a 13.027520
_cell_length_b 13.202577
_cell_length_c 28.826640
_cell_angle_alpha 90.000000
_cell_angle_beta 140.210724
_cell_angle_gamma 90.000000
_cell_volume 3173.009033
_symmetry_space_group_name_H-M "C 2/M"
_symmetry_group_IT_number 12
_symmetry_cell_setting 'monoclinic'
loop_
_space_group_symop_operation_xyz
x,y,z
-x,y,-z
-x,-y,-z
x,-y,z
1/2+x,1/2+y,z
1/2-x,1/2+y,-z
1/2-x,1/2-y,-z
1/2+x,1/2-y,z
loop_
_atom_site_type_symbol
_atom_site_label
_atom_site_fract_x
_atom_site_fract_y
_atom_site_fract_z
Si Si1 0.010923 0.882208 0.677027
Si Si2 0.853642 0.112455 0.013913
Si Si3 0.910243 0.208719 0.198126
Si Si4 0.841114 0.378161 0.417252
Si Si5 0.830232 0.672318 0.961881
Si Si6 0.265305 0.218057 0.292561
Si Si7 0.712127 0.614886 0.177314
O O1 0.061165 0.864025 0.748055
O O2 0.122162 0.809713 0.684984
O O3 0.822483 0.852750 0.611714
O O4 0.027456 0.000000 0.670405
O O5 0.716069 0.123861 0.005093
O O6 0.023867 0.124527 0.099439
O O7 0.848404 0.000000 0.990969
O O8 0.836412 0.206239 0.973327
O O9 0.810849 0.153538 0.123594
O O10 0.806571 0.302716 0.180330
O O11 0.081407 0.247358 0.239431
O O12 0.842386 0.500000 0.412850
O O13 0.831361 0.330787 0.362707
O O14 0.000000 0.346793 0.500000
O O15 0.000000 0.640099 0.000000
O O16 0.249706 0.140803 0.243932
O O17 0.760045 0.500000 0.183578
#
# Coordination Sequence:
#
# PCOD9182585 Si02
#       7
#     8   8   8   8   8   8   8
#     4   9  20  35  54  79 106 138 173 208 251 305
#     4  10  22  35  51  73  97 130 171 216 265 314
#     4  10  20  34  51  75  99 134 172 213 260 302
#     4   9  18  34  56  83 110 137 171 207 247 300
#     4  11  21  36  53  69 102 132 169 221 261 312
#     4  10  19  34  55  77 106 138 170 210 258 301
#     4  10  19  33  52  75  98 128 174 215 257 309
#
# _framework density 17.648862999999999
#
# number of rings (size 3 to 8) (size 9 to 14) (size 15 to 20)
#    0.000    2.143    2.857    0.429    0.000    3.429 
#    0.000    1.429    0.000    0.429    0.000    0.000 
#    0.000    0.000    0.000    0.000    0.000    0.000 
#
# Total GULP energy -156230.328721 kJ/mol
# GULP energy per Si atom -5579.654597 kJ/mol
# Density = 1.760869 g / cm^3
# Si number density = 17.648863 Si / 1000 Ang^3
#
#
#
# Elastic Constant Matrix: (Units=GPa)
#
#
# Indices 1 2 3 4 5 6 
#
# 1 83.1632 -0.7490 24.5334 0.0000 13.6223 0.0000
# 2 -0.7490 36.9958 0.3349 0.0000 9.1259 0.0000
# 3 24.5334 0.3349 88.4867 0.0000 10.7284 0.0000
# 4 0.0000 0.0000 0.0000 18.4062 0.0000 5.6116
# 5 13.6223 9.1259 10.7284 0.0000 22.9885 0.0000
# 6 0.0000 0.0000 0.0000 5.6116 0.0000 6.8442
#
#
#
# Elastic Compliance Matrix: (Units=1/GPa)
#
#
# Indices 1 2 3 4 5 6 
#
# 1 0.014228 0.002273 -0.002991 0.000000 -0.007937 0.000000
# 2 0.002273 0.030494 0.000938 0.000000 -0.013890 0.000000
# 3 -0.002991 0.000938 0.012674 0.000000 -0.004515 0.000000
# 4 0.000000 0.000000 0.000000 0.072437 0.000000 -0.059392
# 5 -0.007937 -0.013890 -0.004515 0.000000 0.055825 0.000000
# 6 0.000000 0.000000 0.000000 -0.059392 0.000000 0.194804
#
#
# Mechanical properties :
#
#
# Convention : Reuss Voigt Hill
#
# Bulk Modulus (GPa) = 17.28998 28.54271 22.91634
# Shear Modulus (GPa) = 12.52194 21.94954 17.23574
#
# Velocity S-wave (km/s) = 2.66654 3.53041 3.12844
# Velocity P-wave (km/s) = 4.39301 5.72940 5.10512
#
# Compressibility (1/GPa) = 0.05783695
#
# Stress axis : x y z
#
# Youngs Moduli (GPa) = 70.28639 32.79332 78.90014
#
# Poissons Ratio (x) = -0.07454 0.23598
# Poissons Ratio (y) = -0.15976 -0.07404
# Poissons Ratio (z) = 0.21022 -0.03078
#
# Static dielectric constant tensor:
#      x y z
#    x 1.603950 0.000000 0.005660 
#    y 0.000000 1.586770 0.000000 
#    z 0.005660 0.000000 1.591210 
# 
# From -- ./inp_files/262833.got.cif
#   From: 2010.05.17/outbox.cif.g08.bks.cpg/sg12_132_cif.got.tgz:262833.got - 2010.06.03 13:09:07.
