data_PCOD9182939
_publ_section_title
;
Structure prediction by ZEFSAII (Michael W. Deem and Ramdas Pophale) SiO2 
 PCOD9182939
Probable space group: C 2/M
;
_chemical_formula_sum "Si O2"
_cell_formula_units_Z 64
_cell_length_a 31.517586
_cell_length_b 7.646251
_cell_length_c 25.573245
_cell_angle_alpha 90.000000
_cell_angle_beta 27.933222
_cell_angle_gamma 90.000000
_cell_volume 2886.976990
_symmetry_space_group_name_H-M "C 2/M"
_symmetry_group_IT_number 12
_symmetry_cell_setting 'monoclinic'
loop_
_space_group_symop_operation_xyz
x,y,z
-x,y,-z
-x,-y,-z
x,-y,z
1/2+x,1/2+y,z
1/2-x,1/2+y,-z
1/2-x,1/2-y,-z
1/2+x,1/2-y,z
loop_
_atom_site_type_symbol
_atom_site_label
_atom_site_fract_x
_atom_site_fract_y
_atom_site_fract_z
Si Si1 0.752911 0.786005 0.340679
Si Si2 0.676863 0.290495 0.623791
Si Si3 0.101300 0.785748 0.905046
Si Si4 0.986572 0.212140 0.266358
Si Si5 0.777662 0.793551 0.133658
Si Si6 0.550274 0.206387 0.573253
Si Si7 0.923442 0.799613 0.621663
Si Si8 0.313767 0.289794 0.979006
O O1 0.789803 0.724472 0.356669
O O2 0.824070 0.734009 0.219188
O O3 0.648945 0.728460 0.447037
O O4 0.749929 0.000000 0.344369
O O5 0.669478 0.500000 0.637317
O O6 0.750000 0.250000 0.500000
O O7 0.582831 0.225510 0.702398
O O8 0.143314 0.724691 0.914427
O O9 0.098872 0.000000 0.908331
O O10 0.000000 0.728371 0.000000
O O11 0.957427 0.266612 0.356249
O O12 0.086370 0.274697 0.143844
O O13 0.985649 0.000000 0.267199
O O14 0.677309 0.776048 0.267156
O O15 0.795004 0.000000 0.111028
O O16 0.780610 0.721891 0.071446
O O17 0.468647 0.290422 0.629814
O O18 0.544614 0.000000 0.569067
O O19 0.000000 0.719033 0.500000
O O20 0.911951 0.000000 0.617914
O O21 0.318096 0.500000 0.977971
O O22 0.250000 0.250000 0.000000
#
# Coordination Sequence:
#
# PCOD9182939 Si02
#       8
#     8   8   8   8   8   8   8   8
#     4   9  18  31  50  79 113 146 182 228 282 331
#     4  10  19  33  53  79 114 150 186 229 277 335
#     4   9  18  32  55  85 114 145 185 234 283 334
#     4  10  21  35  54  80 114 151 188 228 282 342
#     4  10  21  38  60  87 116 148 192 239 284 334
#     4  11  21  35  57  84 114 145 184 235 282 336
#     4  11  24  40  59  83 112 147 185 227 283 343
#     4  10  22  38  56  82 113 150 190 235 284 335
#
# _framework density 22.168517999999999
#
# number of rings (size 3 to 8) (size 9 to 14) (size 15 to 20)
#    0.000    2.000    1.250    2.250    1.750    5.000 
#    0.000    0.000    0.000    0.375    0.000    0.000 
#    0.000    0.000    0.000    0.000    0.000    0.000 
#
# Total GULP energy -178808.230916 kJ/mol
# GULP energy per Si atom -5587.757216 kJ/mol
# Density = 2.211806 g / cm^3
# Si number density = 22.168518 Si / 1000 Ang^3
#
#
#
# Elastic Constant Matrix: (Units=GPa)
#
#
# Indices 1 2 3 4 5 6 
#
# 1 149.7937 3.9877 61.5524 0.0189 -18.8544 -0.0168
# 2 3.9877 42.6186 3.7630 -0.0163 0.0381 -0.0168
# 3 61.5524 3.7630 135.5266 0.0011 -16.6586 -0.0296
# 4 0.0189 -0.0163 0.0011 9.2343 -0.0069 14.9217
# 5 -18.8544 0.0381 -16.6586 -0.0069 45.9068 0.0110
# 6 -0.0168 -0.0168 -0.0296 14.9217 0.0110 -5.4758
#
#
#
# Elastic Compliance Matrix: (Units=1/GPa)
#
#
# Indices 1 2 3 4 5 6 
#
# 1 0.008418 -0.000477 -0.003543 -0.000003 0.002172 -0.000008
# 2 -0.000477 0.023552 -0.000486 0.000029 -0.000392 0.000009
# 3 -0.003543 -0.000486 0.009234 0.000011 0.001896 -0.000003
# 4 -0.000003 0.000029 0.000011 0.020042 -0.000007 0.054614
# 5 0.002172 -0.000392 0.001896 -0.000007 0.023364 0.000012
# 6 -0.000008 0.000009 -0.000003 0.054614 0.000012 -0.033798
#
#
# Mechanical properties :
#
#
# Convention : Reuss Voigt Hill
#
# Bulk Modulus (GPa) = 31.06222 51.83833 41.45027
# Shear Modulus (GPa) = 70.86863 27.17544 49.02204
#
# Velocity S-wave (km/s) = 5.66017 3.50502 4.70759
# Velocity P-wave (km/s) = 7.53386 6.30989 6.94888
#
# Compressibility (1/GPa) = 0.03219345
#
# Stress axis : x y z
#
# Youngs Moduli (GPa) = 118.79655 42.45966 108.29226
#
# Poissons Ratio (x) = 0.02024 0.38367
# Poissons Ratio (y) = 0.05664 0.05258
# Poissons Ratio (z) = 0.42088 0.02062
#
# Static dielectric constant tensor:
#      x y z
#    x 1.843700 0.000060 -0.012690 
#    y 0.000060 1.829550 -0.000010 
#    z -0.012690 -0.000010 1.797320 
# 
# From -- ./inp_files/353376.got.cif
#   From: 2010.05.17/outbox.cif.g08.bks.cpg/sg12_177_cif.got.tgz:353376.got - 2010.06.03 13:09:07.
