data_PCOD9182655
_publ_section_title
;
Structure prediction by ZEFSAII (Michael W. Deem and Ramdas Pophale) SiO2 
 PCOD9182655
Probable space group: C 2/M
;
_chemical_formula_sum "Si O2"
_cell_formula_units_Z 56
_cell_length_a 20.741642
_cell_length_b 18.385843
_cell_length_c 14.012463
_cell_angle_alpha 90.000000
_cell_angle_beta 147.483633
_cell_angle_gamma 90.000000
_cell_volume 2872.449205
_symmetry_space_group_name_H-M "C 2/M"
_symmetry_group_IT_number 12
_symmetry_cell_setting 'monoclinic'
loop_
_space_group_symop_operation_xyz
x,y,z
-x,y,-z
-x,-y,-z
x,-y,z
1/2+x,1/2+y,z
1/2-x,1/2+y,-z
1/2-x,1/2-y,-z
1/2+x,1/2-y,z
loop_
_atom_site_type_symbol
_atom_site_label
_atom_site_fract_x
_atom_site_fract_y
_atom_site_fract_z
Si Si1 0.718824 0.797141 0.228537
Si Si2 0.946601 0.576518 0.329033
Si Si3 0.147383 0.375049 0.441650
Si Si4 0.574094 0.291827 0.381434
Si Si5 0.345485 0.235599 0.200537
Si Si6 0.904819 0.834166 0.806826
Si Si7 0.538887 0.919683 0.941012
O O1 0.815935 0.830003 0.424847
O O2 0.795341 0.754967 0.242559
O O3 0.639208 0.739793 0.191496
O O4 0.638313 0.855747 0.070059
O O5 0.882083 0.500000 0.229901
O O6 0.873883 0.650196 0.228372
O O7 0.000000 0.576354 0.500000
O O8 0.063289 0.583027 0.409543
O O9 0.123014 0.289428 0.423958
O O10 0.286981 0.382473 0.638194
O O11 0.083673 0.396932 0.264439
O O12 0.462329 0.281443 0.313289
O O13 0.545112 0.319191 0.237942
O O14 0.250000 0.250000 0.000000
O O15 0.000000 0.866751 0.000000
O O16 0.580029 0.000000 0.957352
O O17 0.500000 0.926945 0.000000
#
# Coordination Sequence:
#
# PCOD9182655 Si02
#       7
#     8   8   8   8   8   8   8
#     4  11  20  35  56  82 117 149 191 241 287 338
#     4  10  20  35  55  79 109 143 181 228 282 334
#     4  10  19  33  52  79 110 142 184 229 280 334
#     4  10  20  33  53  80 111 147 184 238 290 330
#     4  11  21  34  55  84 116 149 191 239 283 333
#     4  11  20  32  54  81 112 145 184 239 291 337
#     4  11  22  36  57  84 115 150 189 235 284 337
#
# _framework density 19.495559
#
# number of rings (size 3 to 8) (size 9 to 14) (size 15 to 20)
#    0.000    1.429    0.000   10.714    0.000    0.000 
#    0.000    0.000    0.000    4.286    0.000    8.000 
#    0.000    4.000    0.000    0.000    0.000    0.000 
#
# Total GULP energy -156037.785987 kJ/mol
# GULP energy per Si atom -5572.778071 kJ/mol
# Density = 1.945119 g / cm^3
# Si number density = 19.495559 Si / 1000 Ang^3
#
#
#
# Elastic Constant Matrix: (Units=GPa)
#
#
# Indices 1 2 3 4 5 6 
#
# 1 99.6762 22.2570 31.8364 0.0000 -11.3128 0.0000
# 2 22.2570 88.6456 45.4295 0.0000 7.1278 0.0000
# 3 31.8364 45.4295 154.1586 0.0000 -17.2007 0.0000
# 4 0.0000 0.0000 0.0000 23.6282 0.0000 -5.6519
# 5 -11.3128 7.1278 -17.2007 0.0000 33.0886 0.0000
# 6 0.0000 0.0000 0.0000 -5.6519 0.0000 -6.9675
#
#
#
# Elastic Compliance Matrix: (Units=1/GPa)
#
#
# Indices 1 2 3 4 5 6 
#
# 1 0.011418 -0.002578 -0.001169 0.000000 0.003852 0.000000
# 2 -0.002578 0.014769 -0.004537 0.000000 -0.006421 0.000000
# 3 -0.001169 -0.004537 0.008630 0.000000 0.005064 0.000000
# 4 0.000000 0.000000 0.000000 0.035445 0.000000 -0.028752
# 5 0.003852 -0.006421 0.005064 0.000000 0.035554 0.000000
# 6 0.000000 0.000000 0.000000 -0.028752 0.000000 -0.120200
#
#
# Mechanical properties :
#
#
# Convention : Reuss Voigt Hill
#
# Bulk Modulus (GPa) = 54.78853 60.16958 57.47906
# Shear Modulus (GPa) = 604.83809 26.14701 315.49255
#
# Velocity S-wave (km/s) = 17.63285 3.66618 12.73496
# Velocity P-wave (km/s) = 21.04093 6.98938 15.67757
#
# Compressibility (1/GPa) = 0.01825200
#
# Stress axis : x y z
#
# Youngs Moduli (GPa) = 87.57720 67.70810 115.87359
#
# Poissons Ratio (x) = 0.17453 0.13543
# Poissons Ratio (y) = 0.22575 0.52566
# Poissons Ratio (z) = 0.10235 0.30716
#
# Static dielectric constant tensor:
#      x y z
#    x 1.674060 0.000000 0.041940 
#    y 0.000000 1.771930 0.000000 
#    z 0.041940 0.000000 1.698010 
# 
# From -- ./inp_files/234735.got.cif
#   From: 2010.05.17/outbox.cif.g08.bks.cpg/sg12_118_cif.got.tgz:234735.got - 2010.06.03 13:09:07.
