data_PCOD9182052
_publ_section_title
;
Structure prediction by ZEFSAII (Michael W. Deem and Ramdas Pophale) SiO2 
 PCOD9182052
Probable space group: C 2/M
;
_chemical_formula_sum "Si O2"
_cell_formula_units_Z 52
_cell_length_a 13.046381
_cell_length_b 15.905033
_cell_length_c 12.697906
_cell_angle_alpha 90.000000
_cell_angle_beta 82.604946
_cell_angle_gamma 90.000000
_cell_volume 2612.939121
_symmetry_space_group_name_H-M "C 2/M"
_symmetry_group_IT_number 12
_symmetry_cell_setting 'monoclinic'
loop_
_space_group_symop_operation_xyz
x,y,z
-x,y,-z
-x,-y,-z
x,-y,z
1/2+x,1/2+y,z
1/2-x,1/2+y,-z
1/2-x,1/2-y,-z
1/2+x,1/2-y,z
loop_
_atom_site_type_symbol
_atom_site_label
_atom_site_fract_x
_atom_site_fract_y
_atom_site_fract_z
Si Si1 0.485374 0.233679 0.717059
Si Si2 0.333009 0.899171 0.329200
Si Si3 0.341900 0.660604 0.217136
Si Si4 0.290638 0.600502 0.446150
Si Si5 0.000000 0.184649 0.500000
Si Si6 0.786711 0.196108 0.830758
Si Si7 0.383673 0.405632 0.003177
O O1 0.562699 0.153978 0.709567
O O2 0.545876 0.315631 0.753723
O O3 0.464585 0.255906 0.599256
O O4 0.378408 0.238170 0.792168
O O5 0.293408 0.877837 0.452827
O O6 0.243298 0.867711 0.260359
O O7 0.346842 0.000000 0.319423
O O8 0.278290 0.642347 0.332364
O O9 0.310927 0.743228 0.155445
O O10 0.340495 0.591724 0.127534
O O11 0.290280 0.500000 0.432817
O O12 0.401924 0.629941 0.476137
O O13 0.815230 0.147040 0.931672
O O14 0.393258 0.500000 0.958983
O O15 0.500000 0.370381 0.000000
#
# Coordination Sequence:
#
# PCOD9182052 Si02
#       7
#     8   8   8   8   4   8   8
#     4  10  21  35  58  86 117 153 199 238 283 348
#     4  10  22  39  58  87 122 157 197 240 289 347
#     4  10  22  37  58  84 116 152 196 242 288 350
#     4  10  20  35  56  86 122 153 191 243 294 342
#     4  10  19  32  55  84 114 156 194 232 289 342
#     4  11  21  39  62  84 112 160 198 236 290 355
#     4  11  22  38  59  86 116 144 188 248 302 343
#
# _framework density 19.900962
#
# number of rings (size 3 to 8) (size 9 to 14) (size 15 to 20)
#    0.000    1.692    3.077    1.615    2.154    1.846 
#    0.000    1.923    0.000    0.000    0.000    5.385 
#    0.000    0.000    0.000    0.000    0.000    0.000 
#
# Total GULP energy -144841.546546 kJ/mol
# GULP energy per Si atom -5570.828713 kJ/mol
# Density = 1.985567 g / cm^3
# Si number density = 19.900962 Si / 1000 Ang^3
#
#
#
# Elastic Constant Matrix: (Units=GPa)
#
#
# Indices 1 2 3 4 5 6 
#
# 1 38.1604 14.0981 21.5095 0.0000 11.3648 0.0000
# 2 14.0981 67.4175 31.9110 0.0000 13.3637 0.0000
# 3 21.5095 31.9110 123.8286 0.0000 20.8685 0.0000
# 4 0.0000 0.0000 0.0000 28.2424 0.0000 2.3150
# 5 11.3648 13.3637 20.8685 0.0000 25.7049 0.0000
# 6 0.0000 0.0000 0.0000 2.3150 0.0000 24.4205
#
#
#
# Elastic Compliance Matrix: (Units=1/GPa)
#
#
# Indices 1 2 3 4 5 6 
#
# 1 0.032120 -0.003290 -0.003043 0.000000 -0.010020 0.000000
# 2 -0.003290 0.018093 -0.003187 0.000000 -0.005364 0.000000
# 3 -0.003043 -0.003187 0.010333 0.000000 -0.005387 0.000000
# 4 0.000000 0.000000 0.000000 0.035685 0.000000 -0.003383
# 5 -0.010020 -0.005364 -0.005387 0.000000 0.050495 0.000000
# 6 0.000000 0.000000 0.000000 -0.003383 0.000000 0.041270
#
#
# Mechanical properties :
#
#
# Convention : Reuss Voigt Hill
#
# Bulk Modulus (GPa) = 24.09289 40.49374 32.29331
# Shear Modulus (GPa) = 22.63753 26.46610 24.55182
#
# Velocity S-wave (km/s) = 3.37636 3.65072 3.51622
# Velocity P-wave (km/s) = 5.22804 6.17755 5.72252
#
# Compressibility (1/GPa) = 0.04150602
#
# Stress axis : x y z
#
# Youngs Moduli (GPa) = 31.13317 55.27050 96.77387
#
# Poissons Ratio (x) = 0.18186 0.29446
# Poissons Ratio (y) = 0.10244 0.30842
# Poissons Ratio (z) = 0.09473 0.17615
#
# Static dielectric constant tensor:
#      x y z
#    x 1.714410 0.000000 -0.033470 
#    y 0.000000 1.726990 0.000000 
#    z -0.033470 0.000000 1.737660 
# 
# From -- ./inp_files/144899.got.cif
#   From: 2010.05.17/outbox.cif.g08.bks.cpg/sg12_73_cif.got.tgz:144899.got - 2010.06.03 13:09:07.
