data_PCOD9182246
_publ_section_title
;
Structure prediction by ZEFSAII (Michael W. Deem and Ramdas Pophale) SiO2 
 PCOD9182246
Probable space group: C 2/M
;
_chemical_formula_sum "Si O2"
_cell_formula_units_Z 44
_cell_length_a 13.763615
_cell_length_b 14.241336
_cell_length_c 10.593997
_cell_angle_alpha 90.000000
_cell_angle_beta 75.743808
_cell_angle_gamma 90.000000
_cell_volume 2012.604446
_symmetry_space_group_name_H-M "C 2/M"
_symmetry_group_IT_number 12
_symmetry_cell_setting 'monoclinic'
loop_
_space_group_symop_operation_xyz
x,y,z
-x,y,-z
-x,-y,-z
x,-y,z
1/2+x,1/2+y,z
1/2-x,1/2+y,-z
1/2-x,1/2-y,-z
1/2+x,1/2-y,z
loop_
_atom_site_type_symbol
_atom_site_label
_atom_site_fract_x
_atom_site_fract_y
_atom_site_fract_z
Si Si1 0.500000 0.765288 0.000000
Si Si2 0.806318 0.642983 0.631400
Si Si3 0.340445 0.396115 0.808972
Si Si4 0.296828 0.839906 0.363557
Si Si5 0.027093 0.291425 0.257033
Si Si6 0.846711 0.896346 0.097482
O O1 0.457869 0.821198 0.894393
O O2 0.580326 0.692456 0.915723
O O3 0.777364 0.751080 0.614275
O O4 0.791478 0.603207 0.496299
O O5 0.915014 0.645100 0.660032
O O6 0.733365 0.609200 0.765531
O O7 0.386500 0.500000 0.778150
O O8 0.244255 0.390418 0.748350
O O9 0.421044 0.312753 0.756504
O O10 0.307636 0.387432 0.965989
O O11 0.409732 0.801014 0.320954
O O12 0.894799 0.000000 0.091280
#
# Coordination Sequence:
#
# PCOD9182246 Si02
#       6
#     4   8   8   8   8   8
#     4  10  19  32  58  88 111 150 188 240 293 348
#     4  10  21  35  56  82 117 154 195 240 284 343
#     4   9  21  38  60  87 120 154 192 242 295 346
#     4  10  20  37  58  81 116 157 198 236 288 345
#     4  10  20  34  59  87 115 147 200 238 288 339
#     4  10  20  36  56  85 119 149 189 239 292 346
#
# _framework density 21.862220000000001
#
# number of rings (size 3 to 8) (size 9 to 14) (size 15 to 20)
#    0.000    2.182    1.818    0.818    2.545    3.636 
#    0.000    0.909    0.000    8.727    0.000    0.000 
#    0.000    0.000    0.000    0.000    0.000    0.000 
#
# Total GULP energy -122528.437836 kJ/mol
# GULP energy per Si atom -5569.474447 kJ/mol
# Density = 2.181246 g / cm^3
# Si number density = 21.862220 Si / 1000 Ang^3
#
#
#
# Elastic Constant Matrix: (Units=GPa)
#
#
# Indices 1 2 3 4 5 6 
#
# 1 111.4596 0.2144 58.8879 0.0000 21.2105 0.0000
# 2 0.2144 39.3445 38.5947 0.0000 13.1888 0.0000
# 3 58.8879 38.5947 143.1555 0.0000 16.9966 0.0000
# 4 0.0000 0.0000 0.0000 4.4878 0.0000 2.5732
# 5 21.2105 13.1888 16.9966 0.0000 34.4417 0.0000
# 6 0.0000 0.0000 0.0000 2.5732 0.0000 5.6910
#
#
#
# Elastic Compliance Matrix: (Units=1/GPa)
#
#
# Indices 1 2 3 4 5 6 
#
# 1 0.014964 0.010911 -0.007974 0.000000 -0.009458 0.000000
# 2 0.010911 0.045473 -0.014747 0.000000 -0.016855 0.000000
# 3 -0.007974 -0.014747 0.013796 0.000000 0.003749 0.000000
# 4 0.000000 0.000000 0.000000 0.300808 0.000000 -0.136010
# 5 -0.009458 -0.016855 0.003749 0.000000 0.039463 0.000000
# 6 0.000000 0.000000 0.000000 -0.136010 0.000000 0.237214
#
#
# Mechanical properties :
#
#
# Convention : Reuss Voigt Hill
#
# Bulk Modulus (GPa) = 19.75759 54.37260 37.06510
# Shear Modulus (GPa) = 7.22326 22.00828 14.61577
#
# Velocity S-wave (km/s) = 1.81966 3.17627 2.58842
# Velocity P-wave (km/s) = 3.67040 6.19485 5.09156
#
# Compressibility (1/GPa) = 0.05061346
#
# Stress axis : x y z
#
# Youngs Moduli (GPa) = 66.82811 21.99120 72.48404
#
# Poissons Ratio (x) = -0.23995 0.57800
# Poissons Ratio (y) = -0.72917 1.06890
# Poissons Ratio (z) = 0.53290 0.32430
#
# Static dielectric constant tensor:
#      x y z
#    x 1.814500 0.000000 0.022880 
#    y 0.000000 1.834090 0.000000 
#    z 0.022880 0.000000 1.882000 
# 
# From -- ./inp_files/61093.got.cif
#   From: 2010.05.17/outbox.cif.g08.bks.cpg/sg12_31_cif.got.tgz:61093.got - 2010.06.03 13:09:07.
