data_PCOD9182767
_publ_section_title
;
Structure prediction by ZEFSAII (Michael W. Deem and Ramdas Pophale) SiO2 
 PCOD9182767
Probable space group: C 2/M
;
_chemical_formula_sum "Si O2"
_cell_formula_units_Z 64
_cell_length_a 19.504612
_cell_length_b 8.687613
_cell_length_c 26.003941
_cell_angle_alpha 90.000000
_cell_angle_beta 56.061197
_cell_angle_gamma 90.000000
_cell_volume 3655.642252
_symmetry_space_group_name_H-M "C 2/M"
_symmetry_group_IT_number 12
_symmetry_cell_setting 'monoclinic'
loop_
_space_group_symop_operation_xyz
x,y,z
-x,y,-z
-x,-y,-z
x,-y,z
1/2+x,1/2+y,z
1/2-x,1/2+y,-z
1/2-x,1/2-y,-z
1/2+x,1/2-y,z
loop_
_atom_site_type_symbol
_atom_site_label
_atom_site_fract_x
_atom_site_fract_y
_atom_site_fract_z
Si Si1 0.620798 0.184035 0.070687
Si Si2 0.712885 0.315874 0.936874
Si Si3 0.053515 0.817852 0.822154
Si Si4 0.685644 0.322037 0.307797
Si Si5 0.411008 0.311467 0.557554
Si Si6 0.253361 0.686121 0.555636
Si Si7 0.202867 0.685734 0.826965
Si Si8 0.852539 0.321996 0.307609
O O1 0.697883 0.222799 0.075681
O O2 0.536550 0.254997 0.126771
O O3 0.613680 0.000000 0.071079
O O4 0.645339 0.248778 0.004506
O O5 0.705163 0.500000 0.938173
O O6 0.705415 0.246568 0.883487
O O7 0.120588 0.741649 0.832260
O O8 0.081913 0.772670 0.752628
O O9 0.056408 0.000000 0.827246
O O10 0.663072 0.500000 0.307243
O O11 0.614888 0.255330 0.374452
O O12 0.718895 0.256115 0.240175
O O13 0.767634 0.322256 0.309593
O O14 0.500000 0.261858 0.500000
O O15 0.410749 0.500000 0.559689
O O16 0.338186 0.267129 0.548716
O O17 0.251842 0.500000 0.555486
O O18 0.250000 0.750000 0.500000
O O19 0.176839 0.734960 0.624277
O O20 0.203848 0.500000 0.825784
O O21 0.879670 0.500000 0.299613
#
# Coordination Sequence:
#
# PCOD9182767 Si02
#       8
#     8   8   8   8   8   8   8   8
#     4  10  21  38  57  75 102 139 169 197 248 309
#     4  10  21  37  56  78 103 131 168 209 245 291
#     4  11  21  33  53  80 104 126 166 219 257 293
#     4   7  12  24  43  66  91 124 162 196 234 288
#     4   8  13  24  44  68  93 122 159 201 241 282
#     4   9  17  29  47  70  97 129 164 203 248 299
#     4  10  19  33  53  75 103 136 169 205 252 306
#     4   8  15  30  48  66  94 133 169 199 245 305
#
# _framework density 17.507183000000001
#
# number of rings (size 3 to 8) (size 9 to 14) (size 15 to 20)
#    0.000    2.875    0.000    4.500    0.000    2.500 
#    0.000    3.750    0.000    1.875    0.000    0.000 
#    0.000    0.000    0.000    0.000    0.000    0.000 
#
# Total GULP energy -178270.818093 kJ/mol
# GULP energy per Si atom -5570.963065 kJ/mol
# Density = 1.746734 g / cm^3
# Si number density = 17.507183 Si / 1000 Ang^3
#
#
#
# Elastic Constant Matrix: (Units=GPa)
#
#
# Indices 1 2 3 4 5 6 
#
# 1 44.4479 21.8335 71.1196 0.0002 -1.8934 0.0006
# 2 21.8335 38.3819 45.6252 0.0005 -0.6118 0.0011
# 3 71.1196 45.6252 200.7313 0.0000 -3.8274 0.0000
# 4 0.0002 0.0005 0.0000 23.5614 0.0001 5.1848
# 5 -1.8934 -0.6118 -3.8274 0.0001 32.5016 0.0002
# 6 0.0006 0.0011 0.0000 5.1848 0.0002 19.1703
#
#
#
# Elastic Compliance Matrix: (Units=1/GPa)
#
#
# Indices 1 2 3 4 5 6 
#
# 1 0.055272 -0.011194 -0.017020 0.000000 0.001005 -0.000001
# 2 -0.011194 0.037969 -0.004673 0.000000 -0.000488 -0.000002
# 3 -0.017020 -0.004673 0.012081 0.000000 0.000343 0.000001
# 4 0.000000 0.000000 0.000000 0.045128 0.000000 -0.012205
# 5 0.001005 -0.000488 0.000343 0.000000 0.030858 0.000000
# 6 -0.000001 -0.000002 0.000001 -0.012205 0.000000 0.055465
#
#
# Mechanical properties :
#
#
# Convention : Reuss Voigt Hill
#
# Bulk Modulus (GPa) = 25.28575 62.30197 43.79386
# Shear Modulus (GPa) = 15.83633 24.71217 20.27425
#
# Velocity S-wave (km/s) = 3.01086 3.76113 3.40671
# Velocity P-wave (km/s) = 5.15378 7.38412 6.36736
#
# Compressibility (1/GPa) = 0.03954796
#
# Stress axis : x y z
#
# Youngs Moduli (GPa) = 18.09230 26.33710 82.77701
#
# Poissons Ratio (x) = 0.29482 1.40883
# Poissons Ratio (y) = 0.20253 0.38685
# Poissons Ratio (z) = 0.30792 0.12308
#
# Static dielectric constant tensor:
#      x y z
#    x 1.570290 0.000000 -0.002290 
#    y 0.000000 1.586660 0.000000 
#    z -0.002290 0.000000 1.623920 
# 
# From -- ./inp_files/345948.got.cif
#   From: 2010.05.17/outbox.cif.g08.bks.cpg/sg12_173_cif.got.tgz:345948.got - 2010.06.03 13:09:07.
