data_PCOD9182492
_publ_section_title
;
Structure prediction by ZEFSAII (Michael W. Deem and Ramdas Pophale) SiO2 
 PCOD9182492
Probable space group: C 2/M
;
_chemical_formula_sum "Si O2"
_cell_formula_units_Z 44
_cell_length_a 5.131947
_cell_length_b 30.271829
_cell_length_c 18.026124
_cell_angle_alpha 90.000000
_cell_angle_beta 58.604108
_cell_angle_gamma 90.000000
_cell_volume 2390.405370
_symmetry_space_group_name_H-M "C 2/M"
_symmetry_group_IT_number 12
_symmetry_cell_setting 'monoclinic'
loop_
_space_group_symop_operation_xyz
x,y,z
-x,y,-z
-x,-y,-z
x,-y,z
1/2+x,1/2+y,z
1/2-x,1/2+y,-z
1/2-x,1/2-y,-z
1/2+x,1/2-y,z
loop_
_atom_site_type_symbol
_atom_site_label
_atom_site_fract_x
_atom_site_fract_y
_atom_site_fract_z
Si Si1 0.684145 0.778708 0.397989
Si Si2 0.464707 0.921316 0.311690
Si Si3 0.156041 0.050643 0.879965
Si Si4 0.522535 0.363201 0.284521
Si Si5 0.857745 0.500000 0.439745
Si Si6 0.906103 0.391153 0.091685
O O1 0.500000 0.792635 0.500000
O O2 0.416093 0.760972 0.384508
O O3 0.895687 0.817231 0.334149
O O4 0.587879 0.947716 0.222268
O O5 0.726916 0.887363 0.295739
O O6 0.433932 0.956171 0.381974
O O7 0.173845 0.893349 0.326673
O O8 0.307853 0.080986 0.920335
O O9 0.855768 0.073510 0.891123
O O10 0.101213 0.000000 0.908258
O O11 0.768284 0.362232 0.179930
O O12 0.500000 0.500000 0.500000
O O13 0.000000 0.500000 0.500000
O O14 0.000000 0.368352 0.000000
#
# Coordination Sequence:
#
# PCOD9182492 Si02
#       6
#     8   8   8   8   4   8
#     4  10  21  38  61  88 111 133 172 229 282 337
#     4  10  21  37  52  76 108 149 192 223 265 329
#     4  10  19  33  52  70 103 147 186 234 275 311
#     4  10  21  37  60  79 109 150 178 222 283 332
#     4  12  24  36  52  76 109 148 191 238 272 304
#     4  10  21  33  50  79 108 141 185 227 273 324
#
# _framework density 18.406918999999998
#
# number of rings (size 3 to 8) (size 9 to 14) (size 15 to 20)
#    0.000    1.818    0.909    3.273    0.000    4.364 
#    0.000    0.000    0.000    1.091    0.000    0.000 
#    0.000    0.000    0.000    0.000    0.000    0.000 
#
# Total GULP energy -122711.538751 kJ/mol
# GULP energy per Si atom -5577.797216 kJ/mol
# Density = 1.836502 g / cm^3
# Si number density = 18.406919 Si / 1000 Ang^3
#
#
#
# Elastic Constant Matrix: (Units=GPa)
#
#
# Indices 1 2 3 4 5 6 
#
# 1 104.4136 11.8089 15.9626 0.0000 6.6523 0.0000
# 2 11.8089 69.1506 49.3485 0.0000 -3.2363 0.0000
# 3 15.9626 49.3485 117.8140 0.0000 7.3470 0.0000
# 4 0.0000 0.0000 0.0000 -48.7176 0.0000 7.1390
# 5 6.6523 -3.2363 7.3470 0.0000 29.6154 0.0000
# 6 0.0000 0.0000 0.0000 7.1390 0.0000 17.4651
#
#
#
# Elastic Compliance Matrix: (Units=1/GPa)
#
#
# Indices 1 2 3 4 5 6 
#
# 1 0.009970 -0.001343 -0.000649 0.000000 -0.002225 0.000000
# 2 -0.001343 0.021407 -0.009090 0.000000 0.004896 0.000000
# 3 -0.000649 -0.009090 0.012632 0.000000 -0.003981 0.000000
# 4 0.000000 0.000000 0.000000 -0.019366 0.000000 0.007916
# 5 -0.002225 0.004896 -0.003981 0.000000 0.035789 0.000000
# 6 0.000000 0.000000 0.000000 0.007916 0.000000 0.054021
#
#
# Mechanical properties :
#
#
# Convention : Reuss Voigt Hill
#
# Bulk Modulus (GPa) = 45.78056 49.51313 47.64684
# Shear Modulus (GPa) = 34.74677 13.95646 24.35162
#
# Velocity S-wave (km/s) = 4.34948 2.75656 3.64120
# Velocity P-wave (km/s) = 7.08162 6.09008 6.60449
#
# Compressibility (1/GPa) = 0.02184333
#
# Stress axis : x y z
#
# Youngs Moduli (GPa) = 100.29814 46.71465 79.16624
#
# Poissons Ratio (x) = 0.06275 0.05141
# Poissons Ratio (y) = 0.13473 0.71961
# Poissons Ratio (z) = 0.06514 0.42463
#
# Static dielectric constant tensor:
#      x y z
#    x 1.612850 0.000000 0.006610 
#    y 0.000000 1.684980 0.000000 
#    z 0.006610 0.000000 1.709470 
# 
# From -- ./inp_files/253206.got.cif
#   From: 2010.05.17/outbox.cif.g08.bks.cpg/sg12_127_cif.got.tgz:253206.got - 2010.06.03 13:09:07.
