data_PCOD9182342
_publ_section_title
;
Structure prediction by ZEFSAII (Michael W. Deem and Ramdas Pophale) SiO2 
 PCOD9182342
Probable space group: C 2/M
;
_chemical_formula_sum "Si O2"
_cell_formula_units_Z 64
_cell_length_a 25.714187
_cell_length_b 7.648098
_cell_length_c 18.440396
_cell_angle_alpha 90.000000
_cell_angle_beta 102.887446
_cell_angle_gamma 90.000000
_cell_volume 3535.220440
_symmetry_space_group_name_H-M "C 2/M"
_symmetry_group_IT_number 12
_symmetry_cell_setting 'monoclinic'
loop_
_space_group_symop_operation_xyz
x,y,z
-x,y,-z
-x,-y,-z
x,-y,z
1/2+x,1/2+y,z
1/2-x,1/2+y,-z
1/2-x,1/2-y,-z
1/2+x,1/2-y,z
loop_
_atom_site_type_symbol
_atom_site_label
_atom_site_fract_x
_atom_site_fract_y
_atom_site_fract_z
Si Si1 0.051100 0.299549 0.685668
Si Si2 0.565820 0.705881 0.399258
Si Si3 0.615053 0.212765 0.568351
Si Si4 0.410867 0.285323 0.838297
Si Si5 0.342314 0.713845 0.683586
Si Si6 0.563165 0.297300 0.999094
Si Si7 0.529993 0.293612 0.839866
Si Si8 0.264922 0.209852 0.421773
O O1 0.067096 0.500000 0.698230
O O2 0.087830 0.221997 0.633752
O O3 0.052862 0.225273 0.767029
O O4 0.990157 0.290102 0.639097
O O5 0.559154 0.500000 0.382349
O O6 0.581574 0.732684 0.487429
O O7 0.614708 0.768579 0.364141
O O8 0.675922 0.274615 0.578097
O O9 0.614581 0.000000 0.568818
O O10 0.410846 0.500000 0.839266
O O11 0.365109 0.230992 0.768467
O O12 0.468729 0.228682 0.824868
O O13 0.408044 0.222950 0.920700
O O14 0.341554 0.500000 0.682244
O O15 0.283541 0.774863 0.643347
O O16 0.580638 0.500000 0.000315
O O17 0.563750 0.219683 0.918309
O O18 0.500000 0.295904 0.000000
O O19 0.525870 0.500000 0.853595
O O20 0.250000 0.250000 0.500000
O O21 0.266634 0.000000 0.414934
#
# Coordination Sequence:
#
# PCOD9182342 Si02
#       8
#     8   8   8   8   8   8   8   8
#     4  11  22  33  44  63  93 128 157 181 220 272
#     4  11  20  32  50  71  90 114 152 194 230 265
#     4  10  22  36  47  62  90 125 157 187 224 272
#     4   8  12  22  41  67  94 113 137 180 230 271
#     4   9  16  26  45  71  92 110 142 187 229 265
#     4   7  11  19  37  64  91 116 139 171 222 273
#     4   9  15  26  44  67  91 117 149 182 219 265
#     4  10  19  33  50  67  87 115 151 193 231 265
#
# _framework density 18.103538
#
# number of rings (size 3 to 8) (size 9 to 14) (size 15 to 20)
#    0.000    2.625    2.500    2.625    0.000    2.500 
#    0.000    0.000    0.000    3.375    0.000    0.875 
#    0.000    0.000    0.000    0.000    0.000    0.000 
#
# Total GULP energy -178364.325969 kJ/mol
# GULP energy per Si atom -5573.885187 kJ/mol
# Density = 1.806233 g / cm^3
# Si number density = 18.103538 Si / 1000 Ang^3
#
#
#
# Elastic Constant Matrix: (Units=GPa)
#
#
# Indices 1 2 3 4 5 6 
#
# 1 57.7335 -3.5077 58.3324 0.0000 -1.3584 0.0000
# 2 -3.5077 30.1046 -5.3364 0.0000 0.3610 0.0000
# 3 58.3324 -5.3364 173.8598 0.0000 16.8576 0.0000
# 4 0.0000 0.0000 0.0000 46.5897 0.0000 -0.0438
# 5 -1.3584 0.3610 16.8576 0.0000 25.6732 0.0000
# 6 0.0000 0.0000 0.0000 -0.0438 0.0000 7.1487
#
#
#
# Elastic Compliance Matrix: (Units=1/GPa)
#
#
# Indices 1 2 3 4 5 6 
#
# 1 0.027744 0.001355 -0.010047 0.000000 0.008046 0.000000
# 2 0.001355 0.033501 0.000654 0.000000 -0.000829 0.000000
# 3 -0.010047 0.000654 0.009820 0.000000 -0.006989 0.000000
# 4 0.000000 0.000000 0.000000 0.021464 0.000000 0.000132
# 5 0.008046 -0.000829 -0.006989 0.000000 0.043978 0.000000
# 6 0.000000 0.000000 0.000000 0.000132 0.000000 0.139886
#
#
# Mechanical properties :
#
#
# Convention : Reuss Voigt Hill
#
# Bulk Modulus (GPa) = 18.18520 40.07497 29.13009
# Shear Modulus (GPa) = 16.08755 30.02963 23.05859
#
# Velocity S-wave (km/s) = 2.98424 4.07722 3.57277
# Velocity P-wave (km/s) = 4.68414 6.65955 5.75720
#
# Compressibility (1/GPa) = 0.05498977
#
# Stress axis : x y z
#
# Youngs Moduli (GPa) = 36.04406 29.84961 101.82874
#
# Poissons Ratio (x) = -0.04045 1.02307
# Poissons Ratio (y) = -0.04885 -0.06659
# Poissons Ratio (z) = 0.36213 -0.01952
#
# Static dielectric constant tensor:
#      x y z
#    x 1.598260 0.000000 0.006240 
#    y 0.000000 1.699880 0.000000 
#    z 0.006240 0.000000 1.654360 
# 
# From -- ./inp_files/287500.got.cif
#   From: 2010.05.17/outbox.cif.g08.bks.cpg/sg12_144_cif.got.tgz:287500.got - 2010.06.03 13:09:07.
