data_PCOD9182014
_publ_section_title
;
Structure prediction by ZEFSAII (Michael W. Deem and Ramdas Pophale) SiO2 
 PCOD9182014
Probable space group: C 2/M
;
_chemical_formula_sum "Si O2"
_cell_formula_units_Z 48
_cell_length_a 24.860008
_cell_length_b 14.147966
_cell_length_c 10.145550
_cell_angle_alpha 90.000000
_cell_angle_beta 43.568815
_cell_angle_gamma 90.000000
_cell_volume 2459.416436
_symmetry_space_group_name_H-M "C 2/M"
_symmetry_group_IT_number 12
_symmetry_cell_setting 'monoclinic'
loop_
_space_group_symop_operation_xyz
x,y,z
-x,y,-z
-x,-y,-z
x,-y,z
1/2+x,1/2+y,z
1/2-x,1/2+y,-z
1/2-x,1/2-y,-z
1/2+x,1/2-y,z
loop_
_atom_site_type_symbol
_atom_site_label
_atom_site_fract_x
_atom_site_fract_y
_atom_site_fract_z
Si Si1 0.100003 0.612660 0.017142
Si Si2 0.979774 0.227009 0.184939
Si Si3 0.159901 0.279019 0.168908
Si Si4 0.323455 0.184337 0.389717
Si Si5 0.228407 0.395741 0.261213
Si Si6 0.096872 0.111907 0.149792
O O1 0.090995 0.500000 0.040339
O O2 0.147150 0.641503 0.800806
O O3 0.020184 0.671605 0.142995
O O4 0.138118 0.655061 0.082979
O O5 0.888968 0.249117 0.340238
O O6 0.022388 0.151543 0.202957
O O7 0.000000 0.198097 0.000000
O O8 0.163942 0.335157 0.297397
O O9 0.250000 0.250000 0.000000
O O10 0.108877 0.183735 0.250838
O O11 0.250000 0.250000 0.500000
O O12 0.295780 0.107902 0.544721
O O13 0.223690 0.500000 0.211837
O O14 0.320893 0.369804 0.077242
O O15 0.091383 0.000000 0.186602
#
# Coordination Sequence:
#
# PCOD9182014 Si02
#       6
#     8   8   8   8   8   8
#     4  10  20  35  56  79 105 141 180 213 255 315
#     4   9  19  34  53  75 105 143 176 212 257 312
#     4   9  17  33  54  79 108 137 173 216 259 308
#     4  11  21  35  53  77 111 140 171 218 268 309
#     4  10  19  32  55  83 108 135 172 221 268 306
#     4   9  18  34  55  77 102 138 181 216 254 310
#
# _framework density 19.516825999999998
#
# number of rings (size 3 to 8) (size 9 to 14) (size 15 to 20)
#    0.000    2.333    0.000    5.000    0.000    4.667 
#    0.000    5.000    0.000    7.000    0.000    0.000 
#    0.000    0.000    0.000    0.000    0.000    0.000 
#
# Total GULP energy -133635.840985 kJ/mol
# GULP energy per Si atom -5568.160041 kJ/mol
# Density = 1.947241 g / cm^3
# Si number density = 19.516826 Si / 1000 Ang^3
#
#
#
# Elastic Constant Matrix: (Units=GPa)
#
#
# Indices 1 2 3 4 5 6 
#
# 1 125.7047 56.8548 30.8871 0.0000 -14.9713 0.0000
# 2 56.8548 145.2663 16.5393 0.0000 -6.4159 0.0000
# 3 30.8871 16.5393 46.4934 0.0000 -6.0650 0.0000
# 4 0.0000 0.0000 0.0000 0.5187 0.0000 6.4601
# 5 -14.9713 -6.4159 -6.0650 0.0000 32.1209 0.0000
# 6 0.0000 0.0000 0.0000 6.4601 0.0000 19.4228
#
#
#
# Elastic Compliance Matrix: (Units=1/GPa)
#
#
# Indices 1 2 3 4 5 6 
#
# 1 0.011471 -0.003668 -0.005858 0.000000 0.003508 0.000000
# 2 -0.003668 0.008377 -0.000562 0.000000 -0.000142 0.000000
# 3 -0.005858 -0.000562 0.025867 0.000000 0.002041 0.000000
# 4 0.000000 0.000000 0.000000 -0.613500 0.000000 0.204052
# 5 0.003508 -0.000142 0.002041 0.000000 0.033124 0.000000
# 6 0.000000 0.000000 0.000000 0.204052 0.000000 -0.016383
#
#
# Mechanical properties :
#
#
# Convention : Reuss Voigt Hill
#
# Bulk Modulus (GPa) = 39.15626 58.44741 48.80183
# Shear Modulus (GPa) = -9.57205 24.62470 7.52633
#
# Velocity S-wave (km/s) = -2.21702 3.55592 1.96588
# Velocity P-wave (km/s) = 3.68142 6.84628 5.49656
#
# Compressibility (1/GPa) = 0.02553870
#
# Stress axis : x y z
#
# Youngs Moduli (GPa) = 87.17414 119.37308 38.65991
#
# Poissons Ratio (x) = 0.43783 0.22649
# Poissons Ratio (y) = 0.31973 0.02173
# Poissons Ratio (z) = 0.51070 0.06709
#
# Static dielectric constant tensor:
#      x y z
#    x 1.727180 0.000000 0.014930 
#    y 0.000000 1.578850 0.000000 
#    z 0.014930 0.000000 1.759220 
# 
# From -- ./inp_files/175636.got.cif
#   From: 2010.05.17/outbox.cif.g08.bks.cpg/sg12_88_cif.got.tgz:175636.got - 2010.06.03 13:09:07.
