data_PCOD9182282
_publ_section_title
;
Structure prediction by ZEFSAII (Michael W. Deem and Ramdas Pophale) SiO2 
 PCOD9182282
Probable space group: C 2/M
;
_chemical_formula_sum "Si O2"
_cell_formula_units_Z 44
_cell_length_a 31.891782
_cell_length_b 10.523940
_cell_length_c 19.897930
_cell_angle_alpha 90.000000
_cell_angle_beta 20.355692
_cell_angle_gamma 90.000000
_cell_volume 2323.022764
_symmetry_space_group_name_H-M "C 2/M"
_symmetry_group_IT_number 12
_symmetry_cell_setting 'monoclinic'
loop_
_space_group_symop_operation_xyz
x,y,z
-x,y,-z
-x,-y,-z
x,-y,z
1/2+x,1/2+y,z
1/2-x,1/2+y,-z
1/2-x,1/2-y,-z
1/2+x,1/2-y,z
loop_
_atom_site_type_symbol
_atom_site_label
_atom_site_fract_x
_atom_site_fract_y
_atom_site_fract_z
Si Si1 0.386129 0.500000 0.380207
Si Si2 0.037429 0.752639 0.650496
Si Si3 0.292950 0.263220 0.212435
Si Si4 0.364434 0.000000 0.176488
Si Si5 0.966729 0.000000 0.971996
Si Si6 0.072147 0.848288 0.324044
Si Si7 0.299427 0.146652 0.061846
O O1 0.440666 0.377637 0.336815
O O2 0.242081 0.500000 0.607810
O O3 0.424571 0.500000 0.244939
O O4 0.170259 0.700288 0.435309
O O5 0.979996 0.788192 0.664773
O O6 0.939059 0.665365 0.834331
O O7 0.341171 0.129002 0.169430
O O8 0.388824 0.374292 0.075190
O O9 0.267343 0.234459 0.172998
O O10 0.500000 0.000000 0.000000
O O11 0.000000 0.000000 0.000000
O O12 0.000000 0.810640 0.500000
O O13 0.057307 0.000000 0.338673
O O14 0.211632 0.821697 0.131723
O O15 0.274025 0.000000 0.117885
#
# Coordination Sequence:
#
# PCOD9182282 Si02
#       7
#     4   8   8   4   4   8   8
#     4  10  22  40  68  91 113 168 203 248 314 382
#     4  11  21  39  62  90 128 162 212 250 307 364
#     4  11  23  41  67  90 124 165 202 261 314 370
#     4  10  22  44  65  93 119 153 207 259 307 377
#     4  12  26  48  64  92 128 161 202 262 335 387
#     4  10  19  32  60  91 125 170 213 255 293 359
#     4  11  22  37  60  93 128 164 214 256 303 363
#
# _framework density 18.940839
#
# number of rings (size 3 to 8) (size 9 to 14) (size 15 to 20)
#    0.000    1.273    5.455    1.091    1.273    0.000 
#    3.273    2.727    0.000    1.636    0.000    0.000 
#    0.000    0.000    0.000    0.000    0.000    0.000 
#
# Total GULP energy -122822.408947 kJ/mol
# GULP energy per Si atom -5582.836770 kJ/mol
# Density = 1.889773 g / cm^3
# Si number density = 18.940839 Si / 1000 Ang^3
#
#
#
# Elastic Constant Matrix: (Units=GPa)
#
#
# Indices 1 2 3 4 5 6 
#
# 1 86.5413 14.8892 24.2940 0.0000 4.0549 0.0000
# 2 14.8892 59.3992 20.4660 0.0000 -1.3492 0.0000
# 3 24.2940 20.4660 96.5928 0.0000 -3.3257 0.0000
# 4 0.0000 0.0000 0.0000 20.2947 0.0000 6.5951
# 5 4.0549 -1.3492 -3.3257 0.0000 35.5602 0.0000
# 6 0.0000 0.0000 0.0000 6.5951 0.0000 17.9599
#
#
#
# Elastic Compliance Matrix: (Units=1/GPa)
#
#
# Indices 1 2 3 4 5 6 
#
# 1 0.012820 -0.002289 -0.002802 0.000000 -0.001811 0.000000
# 2 -0.002289 0.018574 -0.003337 0.000000 0.000654 0.000000
# 3 -0.002802 -0.003337 0.011809 0.000000 0.001297 0.000000
# 4 0.000000 0.000000 0.000000 0.055951 0.000000 -0.020546
# 5 -0.001811 0.000654 0.001297 0.000000 0.028474 0.000000
# 6 0.000000 0.000000 0.000000 -0.020546 0.000000 0.063224
#
#
# Mechanical properties :
#
#
# Convention : Reuss Voigt Hill
#
# Bulk Modulus (GPa) = 37.95516 40.20352 39.07934
# Shear Modulus (GPa) = 23.09564 26.95522 25.02543
#
# Velocity S-wave (km/s) = 3.49572 3.77653 3.63883
# Velocity P-wave (km/s) = 6.03123 6.34729 6.19128
#
# Compressibility (1/GPa) = 0.02634688
#
# Stress axis : x y z
#
# Youngs Moduli (GPa) = 78.00056 53.83937 84.68028
#
# Poissons Ratio (x) = 0.12326 0.23725
# Poissons Ratio (y) = 0.17858 0.28258
# Poissons Ratio (z) = 0.21854 0.17967
#
# Static dielectric constant tensor:
#      x y z
#    x 1.645530 0.000000 -0.000160 
#    y 0.000000 1.620400 0.000000 
#    z -0.000160 0.000000 1.681370 
# 
# From -- ./inp_files/212009.got.cif
#   From: 2010.05.17/outbox.cif.g08.bks.cpg/sg12_107_cif.got.tgz:212009.got - 2010.06.03 13:09:07.
