data_PCOD9182274
_publ_section_title
;
Structure prediction by ZEFSAII (Michael W. Deem and Ramdas Pophale) SiO2 
 PCOD9182274
Probable space group: C 2/M
;
_chemical_formula_sum "Si O2"
_cell_formula_units_Z 48
_cell_length_a 14.701892
_cell_length_b 15.732682
_cell_length_c 10.310779
_cell_angle_alpha 90.000000
_cell_angle_beta 103.486722
_cell_angle_gamma 90.000000
_cell_volume 2319.119551
_symmetry_space_group_name_H-M "C 2/M"
_symmetry_group_IT_number 12
_symmetry_cell_setting 'monoclinic'
loop_
_space_group_symop_operation_xyz
x,y,z
-x,y,-z
-x,-y,-z
x,-y,z
1/2+x,1/2+y,z
1/2-x,1/2+y,-z
1/2-x,1/2-y,-z
1/2+x,1/2-y,z
loop_
_atom_site_type_symbol
_atom_site_label
_atom_site_fract_x
_atom_site_fract_y
_atom_site_fract_z
Si Si1 0.431791 0.882496 0.862313
Si Si2 0.066687 0.210968 0.637783
Si Si3 0.777480 0.900454 0.901256
Si Si4 0.082189 0.403577 0.698613
Si Si5 0.946255 0.815331 0.857035
Si Si6 0.785750 0.096557 0.195175
O O1 0.486654 0.902108 0.748668
O O2 0.424188 0.781993 0.880249
O O3 0.325442 0.911355 0.823830
O O4 0.500000 0.913027 0.000000
O O5 0.009934 0.189372 0.751196
O O6 0.000000 0.181681 0.500000
O O7 0.083100 0.312880 0.624965
O O8 0.162736 0.159106 0.688161
O O9 0.669561 0.892333 0.825947
O O10 0.846719 0.861306 0.818593
O O11 0.796992 0.000000 0.915427
O O12 0.796070 0.866359 0.052184
O O13 0.091687 0.500000 0.643203
O O14 0.000000 0.852962 0.000000
O O15 0.824972 0.000000 0.215711
#
# Coordination Sequence:
#
# PCOD9182274 Si02
#       6
#     8   8   8   8   8   8
#     4  10  19  32  59  93 127 155 191 254 318 363
#     4  11  25  43  62  87 125 169 207 248 300 361
#     4  10  20  34  59  93 123 156 201 258 312 359
#     4  10  21  38  61  91 124 157 200 255 312 366
#     4  10  20  36  59  89 119 159 207 254 302 354
#     4  11  22  36  60  93 127 163 203 249 304 363
#
# _framework density 20.697510000000001
#
# number of rings (size 3 to 8) (size 9 to 14) (size 15 to 20)
#    0.000    1.667    3.333    1.500    0.000    3.667 
#    0.000    7.500    0.000    4.000    0.000    0.000 
#    0.000    0.000    0.000    0.000    0.000    0.000 
#
# Total GULP energy -133804.913437 kJ/mol
# GULP energy per Si atom -5575.204727 kJ/mol
# Density = 2.065040 g / cm^3
# Si number density = 20.697510 Si / 1000 Ang^3
#
#
#
# Elastic Constant Matrix: (Units=GPa)
#
#
# Indices 1 2 3 4 5 6 
#
# 1 91.7913 30.5041 19.9856 0.0000 24.0902 0.0000
# 2 30.5041 59.7274 39.0836 0.0000 19.8559 0.0000
# 3 19.9856 39.0836 84.2148 0.0000 26.8853 0.0000
# 4 0.0000 0.0000 0.0000 9.6647 0.0000 9.0177
# 5 24.0902 19.8559 26.8853 0.0000 21.9687 0.0000
# 6 0.0000 0.0000 0.0000 9.0177 0.0000 20.9059
#
#
#
# Elastic Compliance Matrix: (Units=1/GPa)
#
#
# Indices 1 2 3 4 5 6 
#
# 1 0.016635 -0.005084 0.004543 0.000000 -0.019207 0.000000
# 2 -0.005084 0.028205 -0.009067 0.000000 -0.008821 0.000000
# 3 0.004543 -0.009067 0.022942 0.000000 -0.024863 0.000000
# 4 0.000000 0.000000 0.000000 0.173161 0.000000 -0.074693
# 5 -0.019207 -0.008821 -0.024863 0.000000 0.104981 0.000000
# 6 0.000000 0.000000 0.000000 -0.074693 0.000000 0.080052
#
#
# Mechanical properties :
#
#
# Convention : Reuss Voigt Hill
#
# Bulk Modulus (GPa) = 20.59033 46.09778 33.34406
# Shear Modulus (GPa) = 10.83705 20.25187 15.54446
#
# Velocity S-wave (km/s) = 2.29070 3.13144 2.74347
# Velocity P-wave (km/s) = 4.11900 5.94938 5.11670
#
# Compressibility (1/GPa) = 0.04856648
#
# Stress axis : x y z
#
# Youngs Moduli (GPa) = 60.11311 35.45483 43.58905
#
# Poissons Ratio (x) = 0.18024 -0.19804
# Poissons Ratio (y) = 0.30560 0.39523
# Poissons Ratio (z) = -0.27311 0.32147
#
# Static dielectric constant tensor:
#      x y z
#    x 1.741190 0.000000 0.004170 
#    y 0.000000 1.771820 0.000000 
#    z 0.004170 0.000000 1.735640 
# 
# From -- ./inp_files/143901.got.cif
#   From: 2010.05.17/outbox.cif.g08.bks.cpg/sg12_72_cif.got.tgz:143901.got - 2010.06.03 13:09:07.
