data_PCOD9182721
_publ_section_title
;
Structure prediction by ZEFSAII (Michael W. Deem and Ramdas Pophale) SiO2 
 PCOD9182721
Probable space group: C 2/M
;
_chemical_formula_sum "Si O2"
_cell_formula_units_Z 64
_cell_length_a 8.308356
_cell_length_b 19.898602
_cell_length_c 25.704340
_cell_angle_alpha 90.000000
_cell_angle_beta 54.228715
_cell_angle_gamma 90.000000
_cell_volume 3447.910973
_symmetry_space_group_name_H-M "C 2/M"
_symmetry_group_IT_number 12
_symmetry_cell_setting 'monoclinic'
loop_
_space_group_symop_operation_xyz
x,y,z
-x,y,-z
-x,-y,-z
x,-y,z
1/2+x,1/2+y,z
1/2-x,1/2+y,-z
1/2-x,1/2-y,-z
1/2+x,1/2-y,z
loop_
_atom_site_type_symbol
_atom_site_label
_atom_site_fract_x
_atom_site_fract_y
_atom_site_fract_z
Si Si1 0.121454 0.329464 0.058930
Si Si2 0.875496 0.333125 0.575853
Si Si3 0.792580 0.665086 0.282293
Si Si4 0.464166 0.422424 0.808990
Si Si5 0.924031 0.078152 0.323501
Si Si6 0.192239 0.183953 0.084298
Si Si7 0.030244 0.575613 0.836053
Si Si8 0.976154 0.275359 0.347270
O O1 0.142124 0.263014 0.090658
O O2 0.906078 0.323302 0.071937
O O3 0.124260 0.395753 0.093292
O O4 0.278617 0.332837 0.982336
O O5 0.770163 0.403429 0.607873
O O6 0.694322 0.279975 0.610215
O O7 0.000000 0.330904 0.500000
O O8 0.997461 0.313301 0.603743
O O9 0.611428 0.612462 0.315648
O O10 0.941764 0.632517 0.212893
O O11 0.901349 0.676994 0.315761
O O12 0.676810 0.735301 0.292681
O O13 0.516829 0.500000 0.814177
O O14 0.589731 0.398505 0.734591
O O15 0.451143 0.367195 0.857309
O O16 0.242454 0.426218 0.825993
O O17 0.960680 0.000000 0.313382
O O18 0.989363 0.500000 0.825006
#
# Coordination Sequence:
#
# PCOD9182721 Si02
#       8
#     8   8   8   8   8   8   8   8
#     4   9  18  29  45  68  95 123 156 198 238 287
#     4  10  19  33  53  74 100 127 154 196 243 290
#     4   9  17  31  50  71  98 127 158 200 244 287
#     4   8  15  29  49  69  90 120 159 200 237 280
#     4   9  18  33  50  69  96 130 164 196 238 289
#     4   9  17  30  46  68  93 122 157 195 243 282
#     4   9  17  29  46  69  96 127 160 197 243 285
#     4   9  19  32  50  77  98 122 161 199 242 289
#
# _framework density 18.561964
#
# number of rings (size 3 to 8) (size 9 to 14) (size 15 to 20)
#    0.000    3.000    0.000    1.500    0.000    5.750 
#    0.000    3.750    0.000    3.000    0.000    3.500 
#    0.000    0.000    0.000    0.000    0.000    0.000 
#
# Total GULP energy -178152.028190 kJ/mol
# GULP energy per Si atom -5567.250881 kJ/mol
# Density = 1.851972 g / cm^3
# Si number density = 18.561964 Si / 1000 Ang^3
#
#
#
# Elastic Constant Matrix: (Units=GPa)
#
#
# Indices 1 2 3 4 5 6 
#
# 1 37.7018 21.2570 28.4220 -0.0001 18.0466 0.0002
# 2 21.2570 80.4918 66.5769 0.0000 18.8621 0.0000
# 3 28.4220 66.5769 98.3846 0.0000 18.3669 0.0000
# 4 -0.0001 0.0000 0.0000 17.9101 0.0000 1.4178
# 5 18.0466 18.8621 18.3669 0.0000 15.7706 -0.0001
# 6 0.0002 0.0000 0.0000 1.4178 -0.0001 9.5386
#
#
#
# Elastic Compliance Matrix: (Units=1/GPa)
#
#
# Indices 1 2 3 4 5 6 
#
# 1 0.063800 0.009181 -0.011455 0.000001 -0.070648 -0.000002
# 2 0.009181 0.032488 -0.019706 0.000000 -0.026412 -0.000001
# 3 -0.011455 -0.019706 0.025507 0.000000 0.006971 0.000000
# 4 0.000001 0.000000 0.000000 0.056499 -0.000001 -0.008398
# 5 -0.070648 -0.026412 0.006971 -0.000001 0.167724 0.000003
# 6 -0.000002 -0.000001 0.000000 -0.008398 0.000003 0.106085
#
#
# Mechanical properties :
#
#
# Convention : Reuss Voigt Hill
#
# Bulk Modulus (GPa) = 12.84773 49.89890 31.37331
# Shear Modulus (GPa) = 9.57841 15.33201 12.45521
#
# Velocity S-wave (km/s) = 2.27408 2.87712 2.59319
# Velocity P-wave (km/s) = 3.71911 6.16261 5.08968
#
# Compressibility (1/GPa) = 0.07783479
#
# Stress axis : x y z
#
# Youngs Moduli (GPa) = 15.67408 30.78092 39.20473
#
# Poissons Ratio (x) = -0.28261 0.44909
# Poissons Ratio (y) = -0.14391 0.77257
# Poissons Ratio (z) = 0.17955 0.60657
#
# Static dielectric constant tensor:
#      x y z
#    x 1.649450 0.000000 -0.012380 
#    y 0.000000 1.647570 0.000000 
#    z -0.012380 0.000000 1.653190 
# 
# From -- ./inp_files/333581.got.cif
#   From: 2010.05.17/outbox.cif.g08.bks.cpg/sg12_167_cif.got.tgz:333581.got - 2010.06.03 13:09:07.
