data_PCOD9182696
_publ_section_title
;
Structure prediction by ZEFSAII (Michael W. Deem and Ramdas Pophale) SiO2 
 PCOD9182696
Probable space group: C 2/M
;
_chemical_formula_sum "Si O2"
_cell_formula_units_Z 56
_cell_length_a 18.287552
_cell_length_b 26.382211
_cell_length_c 9.522287
_cell_angle_alpha 90.000000
_cell_angle_beta 138.659315
_cell_angle_gamma 90.000000
_cell_volume 3034.616688
_symmetry_space_group_name_H-M "C 2/M"
_symmetry_group_IT_number 12
_symmetry_cell_setting 'monoclinic'
loop_
_space_group_symop_operation_xyz
x,y,z
-x,y,-z
-x,-y,-z
x,-y,z
1/2+x,1/2+y,z
1/2-x,1/2+y,-z
1/2-x,1/2-y,-z
1/2+x,1/2-y,z
loop_
_atom_site_type_symbol
_atom_site_label
_atom_site_fract_x
_atom_site_fract_y
_atom_site_fract_z
Si Si1 0.899586 0.745360 0.460869
Si Si2 0.454465 0.215376 0.082661
Si Si3 0.811233 0.190306 0.922770
Si Si4 0.649347 0.383335 0.274066
Si Si5 0.381607 0.611673 0.260804
Si Si6 0.440014 0.442981 0.085431
Si Si7 0.250774 0.846669 0.696280
O O1 0.815721 0.706504 0.266074
O O2 0.829935 0.796137 0.405877
O O3 0.000000 0.757735 0.500000
O O4 0.946186 0.714974 0.663374
O O5 0.500000 0.234006 0.000000
O O6 0.376503 0.258108 0.033944
O O7 0.373012 0.169500 0.922695
O O8 0.848830 0.164278 0.830322
O O9 0.841453 0.154764 0.095277
O O10 0.537718 0.401270 0.197284
O O11 0.736914 0.369081 0.520249
O O12 0.653364 0.428958 0.165210
O O13 0.500000 0.622498 0.500000
O O14 0.396168 0.564288 0.178884
O O15 0.296171 0.611758 0.264127
O O16 0.480792 0.500000 0.125774
#
# Coordination Sequence:
#
# PCOD9182696 Si02
#       7
#     8   8   8   8   8   8   8
#     4  11  22  34  50  71 110 148 186 231 246 288
#     4  11  22  32  50  73 109 142 185 238 245 283
#     4  10  22  34  50  75 101 149 196 208 255 312
#     4  10  19  33  53  71 105 139 171 208 250 329
#     4  11  20  34  54  76 106 145 168 214 258 329
#     4  10  22  36  54  82 107 136 166 211 274 339
#     4  11  21  34  49  79 103 143 194 207 263 307
#
# _framework density 18.453731000000001
#
# number of rings (size 3 to 8) (size 9 to 14) (size 15 to 20)
#    0.000    1.429    1.429    5.571    8.000    4.857 
#    0.000    0.000    0.000    0.000    0.000    0.000 
#    0.000  114.286    0.000    0.000    0.000    0.000 
#
# Total GULP energy -155977.753398 kJ/mol
# GULP energy per Si atom -5570.634050 kJ/mol
# Density = 1.841173 g / cm^3
# Si number density = 18.453731 Si / 1000 Ang^3
#
#
#
# Elastic Constant Matrix: (Units=GPa)
#
#
# Indices 1 2 3 4 5 6 
#
# 1 42.2780 9.2994 39.3283 0.0000 -14.3241 0.0000
# 2 9.2994 43.2134 17.5168 0.0000 1.7528 0.0000
# 3 39.3283 17.5168 95.6588 0.0000 -17.0773 0.0000
# 4 0.0000 0.0000 0.0000 6.2752 0.0000 0.1128
# 5 -14.3241 1.7528 -17.0773 0.0000 34.7881 0.0000
# 6 0.0000 0.0000 0.0000 0.1128 0.0000 12.8495
#
#
#
# Elastic Compliance Matrix: (Units=1/GPa)
#
#
# Indices 1 2 3 4 5 6 
#
# 1 0.041383 -0.003395 -0.014599 0.000000 0.010044 0.000000
# 2 -0.003395 0.025753 -0.004166 0.000000 -0.004741 0.000000
# 3 -0.014599 -0.004166 0.017738 0.000000 0.002906 0.000000
# 4 0.000000 0.000000 0.000000 0.159384 0.000000 -0.001399
# 5 0.010044 -0.004741 0.002906 0.000000 0.034547 0.000000
# 6 0.000000 0.000000 0.000000 -0.001399 0.000000 0.077836
#
#
# Mechanical properties :
#
#
# Convention : Reuss Voigt Hill
#
# Bulk Modulus (GPa) = 24.65931 34.82659 29.74295
# Shear Modulus (GPa) = 12.06335 18.44960 15.25648
#
# Velocity S-wave (km/s) = 2.55954 3.16535 2.87843
# Velocity P-wave (km/s) = 4.70391 5.68090 5.21534
#
# Compressibility (1/GPa) = 0.04055264
#
# Stress axis : x y z
#
# Youngs Moduli (GPa) = 24.16430 38.83093 56.37710
#
# Poissons Ratio (x) = 0.13184 0.82306
# Poissons Ratio (y) = 0.08204 0.23488
# Poissons Ratio (z) = 0.35278 0.16178
#
# Static dielectric constant tensor:
#      x y z
#    x 1.697500 0.000000 0.010010 
#    y 0.000000 1.641670 0.000000 
#    z 0.010010 0.000000 1.726730 
# 
# From -- ./inp_files/80503.got.cif
#   From: 2010.05.17/outbox.cif.g08.bks.cpg/sg12_41_cif.got.tgz:80503.got - 2010.06.03 13:09:07.
