data_PCOD9182833
_publ_section_title
;
Structure prediction by ZEFSAII (Michael W. Deem and Ramdas Pophale) SiO2 
 PCOD9182833
Probable space group: C 2/M
;
_chemical_formula_sum "Si O2"
_cell_formula_units_Z 64
_cell_length_a 14.642710
_cell_length_b 7.865641
_cell_length_c 29.911942
_cell_angle_alpha 90.000000
_cell_angle_beta 77.596168
_cell_angle_gamma 90.000000
_cell_volume 3364.671470
_symmetry_space_group_name_H-M "C 2/M"
_symmetry_group_IT_number 12
_symmetry_cell_setting 'monoclinic'
loop_
_space_group_symop_operation_xyz
x,y,z
-x,y,-z
-x,-y,-z
x,-y,z
1/2+x,1/2+y,z
1/2-x,1/2+y,-z
1/2-x,1/2-y,-z
1/2+x,1/2-y,z
loop_
_atom_site_type_symbol
_atom_site_label
_atom_site_fract_x
_atom_site_fract_y
_atom_site_fract_z
Si Si1 0.290316 0.295228 0.123199
Si Si2 0.333340 0.299294 0.300725
Si Si3 0.903057 0.205656 0.198236
Si Si4 0.418022 0.204393 0.873335
Si Si5 0.341500 0.208458 0.625052
Si Si6 0.548116 0.200381 0.627130
Si Si7 0.276606 0.297122 0.447110
Si Si8 0.469679 0.205005 0.051845
O O1 0.285804 0.500000 0.126399
O O2 0.335545 0.233924 0.165127
O O3 0.186041 0.230540 0.125104
O O4 0.364315 0.250228 0.076914
O O5 0.318929 0.500000 0.295373
O O6 0.369733 0.229034 0.249896
O O7 0.235032 0.232494 0.330494
O O8 0.408121 0.278351 0.332608
O O9 0.007860 0.255156 0.173298
O O10 0.900023 0.000000 0.198997
O O11 0.463632 0.268458 0.914932
O O12 0.412406 0.000000 0.877443
O O13 0.445962 0.266785 0.624650
O O14 0.300715 0.260981 0.581101
O O15 0.342301 0.000000 0.625121
O O16 0.623837 0.227566 0.580034
O O17 0.539691 0.000000 0.636285
O O18 0.282213 0.500000 0.443099
O O19 0.250000 0.250000 0.500000
O O20 0.476412 0.000000 0.050649
O O21 0.500000 0.268329 0.000000
#
# Coordination Sequence:
#
# PCOD9182833 Si02
#       8
#     8   8   8   8   8   8   8   8
#     4   9  18  32  49  70  94 124 162 200 235 281
#     4   9  18  34  51  70  98 130 159 194 241 288
#     4   9  18  32  50  70  95 126 160 196 238 286
#     4   9  18  32  49  69  95 124 158 199 239 282
#     4   8  17  33  52  71  97 131 162 192 235 287
#     4  10  19  33  53  76  98 127 166 202 236 282
#     4  10  20  36  54  74 101 132 163 199 241 285
#     4   9  18  32  48  68  96 127 156 193 244 292
#
# _framework density 19.021173999999998
#
# number of rings (size 3 to 8) (size 9 to 14) (size 15 to 20)
#    0.000    2.875    0.000    1.500    0.000    3.250 
#    0.000   11.250    0.000    0.000    0.000    0.000 
#    0.000    0.000    0.000    0.000    0.000    0.000 
#
# Total GULP energy -178435.030556 kJ/mol
# GULP energy per Si atom -5576.094705 kJ/mol
# Density = 1.897788 g / cm^3
# Si number density = 19.021174 Si / 1000 Ang^3
#
#
#
# Elastic Constant Matrix: (Units=GPa)
#
#
# Indices 1 2 3 4 5 6 
#
# 1 167.9178 -4.0680 85.1235 0.0000 -27.8365 0.0000
# 2 -4.0680 14.2752 -8.6750 0.0000 0.2468 0.0000
# 3 85.1235 -8.6750 175.2740 0.0000 -8.5186 0.0000
# 4 0.0000 0.0000 0.0000 23.0009 0.0000 -4.0729
# 5 -27.8365 0.2468 -8.5186 0.0000 11.5458 0.0000
# 6 0.0000 0.0000 0.0000 -4.0729 0.0000 12.4852
#
#
#
# Elastic Compliance Matrix: (Units=1/GPa)
#
#
# Indices 1 2 3 4 5 6 
#
# 1 0.013138 0.000215 -0.005010 0.000000 0.027973 0.000000
# 2 0.000215 0.072242 0.003548 0.000000 0.001593 0.000000
# 3 -0.005010 0.003548 0.008011 0.000000 -0.006245 0.000000
# 4 0.000000 0.000000 0.000000 0.046142 0.000000 0.015052
# 5 0.027973 0.001593 -0.006245 0.000000 0.149411 0.000000
# 6 0.000000 0.000000 0.000000 0.015052 0.000000 0.085005
#
#
# Mechanical properties :
#
#
# Convention : Reuss Voigt Hill
#
# Bulk Modulus (GPa) = 11.00144 55.80310 33.40227
# Shear Modulus (GPa) = 12.29286 28.41215 20.35250
#
# Velocity S-wave (km/s) = 2.54495 3.86905 3.27462
# Velocity P-wave (km/s) = 3.79895 7.02570 5.64767
#
# Compressibility (1/GPa) = 0.09089723
#
# Stress axis : x y z
#
# Youngs Moduli (GPa) = 76.11769 13.84240 124.83299
#
# Poissons Ratio (x) = -0.00298 0.62544
# Poissons Ratio (y) = -0.01640 -0.44295
# Poissons Ratio (z) = 0.38136 -0.04912
#
# Static dielectric constant tensor:
#      x y z
#    x 1.644740 0.000000 -0.015670 
#    y 0.000000 1.698160 0.000000 
#    z -0.015670 0.000000 1.584370 
# 
# From -- ./inp_files/359771.got.cif
#   From: 2010.05.17/outbox.cif.g08.bks.cpg/sg12_180_cif.got.tgz:359771.got - 2010.06.03 13:09:07.
