data_PCOD9182462
_publ_section_title
;
Structure prediction by ZEFSAII (Michael W. Deem and Ramdas Pophale) SiO2 
 PCOD9182462
Probable space group: C 2/M
;
_chemical_formula_sum "Si O2"
_cell_formula_units_Z 56
_cell_length_a 14.236683
_cell_length_b 26.346875
_cell_length_c 13.647859
_cell_angle_alpha 90.000000
_cell_angle_beta 33.120051
_cell_angle_gamma 90.000000
_cell_volume 2797.108048
_symmetry_space_group_name_H-M "C 2/M"
_symmetry_group_IT_number 12
_symmetry_cell_setting 'monoclinic'
loop_
_space_group_symop_operation_xyz
x,y,z
-x,y,-z
-x,-y,-z
x,-y,z
1/2+x,1/2+y,z
1/2-x,1/2+y,-z
1/2-x,1/2-y,-z
1/2+x,1/2-y,z
loop_
_atom_site_type_symbol
_atom_site_label
_atom_site_fract_x
_atom_site_fract_y
_atom_site_fract_z
Si Si1 0.643081 0.344789 0.949023
Si Si2 0.385209 0.114118 0.882398
Si Si3 0.296774 0.744315 0.706130
Si Si4 0.416023 0.213028 0.300347
Si Si5 0.570908 0.319177 0.669725
Si Si6 0.860460 0.557849 0.211738
Si Si7 0.335561 0.368197 0.743899
O O1 0.794064 0.382137 0.856280
O O2 0.722905 0.293104 0.830731
O O3 0.500000 0.365931 0.000000
O O4 0.530976 0.334093 0.144575
O O5 0.447100 0.171722 0.846638
O O6 0.543646 0.078388 0.774558
O O7 0.247579 0.105497 0.088175
O O8 0.500000 0.750236 0.500000
O O9 0.182365 0.736668 0.707045
O O10 0.267381 0.688675 0.780365
O O11 0.490376 0.261007 0.292419
O O12 0.275746 0.184933 0.490681
O O13 0.522953 0.353926 0.619900
O O14 0.804162 0.500000 0.273176
O O15 0.712181 0.595112 0.302794
O O16 0.000000 0.559475 0.000000
#
# Coordination Sequence:
#
# PCOD9182462 Si02
#       7
#     8   8   8   8   8   8   8
#     4  11  23  36  49  73 108 147 187 220 259 310
#     4  10  21  33  54  74 103 141 180 222 269 314
#     4  12  22  33  50  76 113 150 184 218 258 312
#     4  11  20  33  49  75 108 147 186 220 258 311
#     4  10  21  34  48  73 108 149 182 221 257 310
#     4   9  18  34  57  83 105 132 175 225 278 331
#     4  10  19  33  51  76 106 141 177 219 271 317
#
# _framework density 20.020676999999999
#
# number of rings (size 3 to 8) (size 9 to 14) (size 15 to 20)
#    0.000    1.571    4.286    1.714    2.000    2.286 
#    0.000    0.000    0.000    4.286    0.000    0.000 
#    0.000    2.000    0.000    0.000    0.000    0.143 
#
# Total GULP energy -155950.385871 kJ/mol
# GULP energy per Si atom -5569.656638 kJ/mol
# Density = 1.997511 g / cm^3
# Si number density = 20.020677 Si / 1000 Ang^3
#
#
#
# Elastic Constant Matrix: (Units=GPa)
#
#
# Indices 1 2 3 4 5 6 
#
# 1 139.0133 54.5982 24.3661 -0.0001 -17.7774 0.0003
# 2 54.5982 80.6769 13.6058 -0.0001 -8.0622 0.0000
# 3 24.3661 13.6058 51.7555 0.0003 8.5582 0.0004
# 4 -0.0001 -0.0001 0.0003 10.7629 -0.0002 -3.4045
# 5 -17.7774 -8.0622 8.5582 -0.0002 24.1544 -0.0002
# 6 0.0003 0.0000 0.0004 -3.4045 -0.0002 20.0893
#
#
#
# Elastic Compliance Matrix: (Units=1/GPa)
#
#
# Indices 1 2 3 4 5 6 
#
# 1 0.011578 -0.006123 -0.005218 0.000000 0.008326 0.000000
# 2 -0.006123 0.017046 -0.001906 0.000000 0.001858 0.000000
# 3 -0.005218 -0.001906 0.024452 -0.000001 -0.013140 -0.000001
# 4 0.000000 0.000000 -0.000001 0.098175 0.000002 0.016638
# 5 0.008326 0.001858 -0.013140 0.000002 0.052804 0.000001
# 6 0.000000 0.000000 -0.000001 0.016638 0.000001 0.052597
#
#
# Mechanical properties :
#
#
# Convention : Reuss Voigt Hill
#
# Bulk Modulus (GPa) = 37.61899 50.73178 44.17538
# Shear Modulus (GPa) = 17.12291 22.92636 20.02464
#
# Velocity S-wave (km/s) = 2.92766 3.38765 3.16602
# Velocity P-wave (km/s) = 5.50083 6.37937 5.95632
#
# Compressibility (1/GPa) = 0.02658232
#
# Stress axis : x y z
#
# Youngs Moduli (GPa) = 86.37169 58.66428 40.89665
#
# Poissons Ratio (x) = 0.35922 0.21339
# Poissons Ratio (y) = 0.52888 0.07793
# Poissons Ratio (z) = 0.45067 0.11179
#
# Static dielectric constant tensor:
#      x y z
#    x 1.837580 0.000000 -0.008400 
#    y 0.000000 1.695350 0.000000 
#    z -0.008400 0.000000 1.778370 
# 
# From -- ./inp_files/219086.got.cif
#   From: 2010.05.17/outbox.cif.g08.bks.cpg/sg12_110_cif.got.tgz:219086.got - 2010.06.03 13:09:07.
