data_PCOD9182050
_publ_section_title
;
Structure prediction by ZEFSAII (Michael W. Deem and Ramdas Pophale) SiO2 
 PCOD9182050
Probable space group: C 2/M
;
_chemical_formula_sum "Si O2"
_cell_formula_units_Z 56
_cell_length_a 8.487341
_cell_length_b 18.742568
_cell_length_c 21.498313
_cell_angle_alpha 90.000000
_cell_angle_beta 57.082896
_cell_angle_gamma 90.000000
_cell_volume 2870.806586
_symmetry_space_group_name_H-M "C 2/M"
_symmetry_group_IT_number 12
_symmetry_cell_setting 'monoclinic'
loop_
_space_group_symop_operation_xyz
x,y,z
-x,y,-z
-x,-y,-z
x,-y,z
1/2+x,1/2+y,z
1/2-x,1/2+y,-z
1/2-x,1/2-y,-z
1/2+x,1/2-y,z
loop_
_atom_site_type_symbol
_atom_site_label
_atom_site_fract_x
_atom_site_fract_y
_atom_site_fract_z
Si Si1 0.735240 0.916046 0.723552
Si Si2 0.664007 0.301131 0.120606
Si Si3 0.160442 0.920870 0.017680
Si Si4 0.555971 0.322535 0.710130
Si Si5 0.331406 0.647391 0.572107
Si Si6 0.031648 0.283441 0.381350
Si Si7 0.526117 0.151731 0.119913
O O1 0.747033 0.894922 0.648714
O O2 0.568581 0.875893 0.796201
O O3 0.929298 0.887138 0.712227
O O4 0.715354 0.000000 0.735937
O O5 0.634525 0.357793 0.072455
O O6 0.500797 0.307979 0.206980
O O7 0.661390 0.219390 0.100131
O O8 0.856518 0.320975 0.113436
O O9 0.155237 0.000000 0.047892
O O10 0.357288 0.908366 0.940490
O O11 0.000000 0.917411 0.000000
O O12 0.496233 0.255015 0.679830
O O13 0.779217 0.329606 0.657447
O O14 0.500000 0.608843 0.500000
O O15 0.157864 0.672762 0.566927
O O16 0.430073 0.718022 0.580264
#
# Coordination Sequence:
#
# PCOD9182050 Si02
#       7
#     8   8   8   8   8   8   8
#     4  10  22  38  56  78 110 151 187 227 280 334
#     4  11  21  35  60  86 109 142 185 235 281 325
#     4  11  25  41  56  80 116 152 186 228 277 328
#     4   9  18  33  56  81 109 139 179 230 274 330
#     4  10  19  32  55  84 114 145 182 229 280 336
#     4   9  17  33  55  84 113 141 179 229 284 328
#     4  11  22  39  61  83 110 144 188 233 277 329
#
# _framework density 19.506713000000001
#
# number of rings (size 3 to 8) (size 9 to 14) (size 15 to 20)
#    0.000    1.857    0.000    6.000    0.000    4.857 
#    0.000    0.714    0.000    0.857    0.000    0.000 
#    0.000    0.000    0.000    0.000    0.000    0.000 
#
# Total GULP energy -156378.503821 kJ/mol
# GULP energy per Si atom -5584.946565 kJ/mol
# Density = 1.946232 g / cm^3
# Si number density = 19.506713 Si / 1000 Ang^3
#
#
#
# Elastic Constant Matrix: (Units=GPa)
#
#
# Indices 1 2 3 4 5 6 
#
# 1 47.4674 9.6377 12.0433 0.0000 -17.3805 0.0000
# 2 9.6377 92.8343 16.6572 0.0000 -2.3958 0.0000
# 3 12.0433 16.6572 69.7684 0.0000 -4.7660 0.0000
# 4 0.0000 0.0000 0.0000 13.8411 0.0000 0.9310
# 5 -17.3805 -2.3958 -4.7660 0.0000 28.3044 0.0000
# 6 0.0000 0.0000 0.0000 0.9310 0.0000 -34.5846
#
#
#
# Elastic Compliance Matrix: (Units=1/GPa)
#
#
# Indices 1 2 3 4 5 6 
#
# 1 0.028424 -0.001926 -0.003303 0.000000 0.016734 0.000000
# 2 -0.001926 0.011392 -0.002430 0.000000 -0.000628 0.000000
# 3 -0.003303 -0.002430 0.015509 0.000000 0.000377 0.000000
# 4 0.000000 0.000000 0.000000 0.072118 0.000000 0.001941
# 5 0.016734 -0.000628 0.000377 0.000000 0.045616 0.000000
# 6 0.000000 0.000000 0.000000 0.001941 0.000000 -0.028862
#
#
# Mechanical properties :
#
#
# Convention : Reuss Voigt Hill
#
# Bulk Modulus (GPa) = 24.99677 31.86072 28.42874
# Shear Modulus (GPa) = 28.92654 12.96097 20.94376
#
# Velocity S-wave (km/s) = 3.85502 2.58046 3.28024
# Velocity P-wave (km/s) = 5.71465 5.02464 5.38072
#
# Compressibility (1/GPa) = 0.04000518
#
# Stress axis : x y z
#
# Youngs Moduli (GPa) = 35.18192 87.78332 64.47734
#
# Poissons Ratio (x) = 0.16909 0.21299
# Poissons Ratio (y) = 0.06777 0.15669
# Poissons Ratio (z) = 0.11622 0.21333
#
# Static dielectric constant tensor:
#      x y z
#    x 1.678920 0.000000 0.008220 
#    y 0.000000 1.663290 0.000000 
#    z 0.008220 0.000000 1.720010 
# 
# From -- ./inp_files/333300.got.cif
#   From: 2010.05.17/outbox.cif.g08.bks.cpg/sg12_167_cif.got.tgz:333300.got - 2010.06.03 13:09:07.
