data_PCOD9182622
_publ_section_title
;
Structure prediction by ZEFSAII (Michael W. Deem and Ramdas Pophale) SiO2 
 PCOD9182622
Probable space group: C 2/M
;
_chemical_formula_sum "Si O2"
_cell_formula_units_Z 56
_cell_length_a 24.251414
_cell_length_b 8.847141
_cell_length_c 15.849574
_cell_angle_alpha 90.000000
_cell_angle_beta 116.292433
_cell_angle_gamma 90.000000
_cell_volume 3048.805164
_symmetry_space_group_name_H-M "C 2/M"
_symmetry_group_IT_number 12
_symmetry_cell_setting 'monoclinic'
loop_
_space_group_symop_operation_xyz
x,y,z
-x,y,-z
-x,-y,-z
x,-y,z
1/2+x,1/2+y,z
1/2-x,1/2+y,-z
1/2-x,1/2-y,-z
1/2+x,1/2-y,z
loop_
_atom_site_type_symbol
_atom_site_label
_atom_site_fract_x
_atom_site_fract_y
_atom_site_fract_z
Si Si1 0.992613 0.817629 0.133110
Si Si2 0.857385 0.181131 0.323561
Si Si3 0.587829 0.818282 0.468631
Si Si4 0.306816 0.818292 0.589841
Si Si5 0.964878 0.680961 0.295098
Si Si6 0.784439 0.317884 0.766079
Si Si7 0.900336 0.181454 0.922166
O O1 0.985148 0.739449 0.217507
O O2 0.054450 0.773582 0.124463
O O3 0.993256 0.000000 0.143345
O O4 0.936165 0.778289 0.032238
O O5 0.884288 0.239690 0.430617
O O6 0.900950 0.247834 0.281035
O O7 0.786138 0.228325 0.267036
O O8 0.859653 0.000000 0.323793
O O9 0.630860 0.780366 0.417541
O O10 0.518206 0.776215 0.398304
O O11 0.590027 0.000000 0.482797
O O12 0.250000 0.750000 0.500000
O O13 0.303697 0.767607 0.684589
O O14 0.300870 0.000000 0.585499
O O15 0.960809 0.500000 0.291883
O O16 0.786861 0.500000 0.770062
O O17 0.834001 0.252895 0.864140
O O18 0.895715 0.000000 0.917119
#
# Coordination Sequence:
#
# PCOD9182622 Si02
#       7
#     8   8   8   8   8   8   8
#     4   9  19  38  60  86 115 140 176 225 274 326
#     4  11  23  38  55  77 110 150 190 231 271 321
#     4  10  21  36  55  79 110 145 184 231 277 324
#     4  10  19  33  52  77 109 142 177 221 268 319
#     4  11  23  38  57  81 109 145 188 230 276 326
#     4  10  21  36  54  81 115 147 184 227 273 325
#     4   9  19  36  61  88 113 142 176 220 275 332
#
# _framework density 18.367851999999999
#
# number of rings (size 3 to 8) (size 9 to 14) (size 15 to 20)
#    0.000    2.000    1.429    3.000    0.000    6.857 
#    0.000    2.143    0.000    0.000    0.000    0.000 
#    0.000    0.000    0.000    0.000    0.000    0.000 
#
# Total GULP energy -156374.750757 kJ/mol
# GULP energy per Si atom -5584.812527 kJ/mol
# Density = 1.832605 g / cm^3
# Si number density = 18.367852 Si / 1000 Ang^3
#
#
#
# Elastic Constant Matrix: (Units=GPa)
#
#
# Indices 1 2 3 4 5 6 
#
# 1 90.1136 31.7604 49.4163 0.0000 17.1956 0.0000
# 2 31.7604 20.3631 26.2375 0.0000 6.6303 0.0000
# 3 49.4163 26.2375 89.4182 0.0000 23.6950 0.0000
# 4 0.0000 0.0000 0.0000 30.6234 0.0000 -2.0413
# 5 17.1956 6.6303 23.6950 0.0000 26.5155 0.0000
# 6 0.0000 0.0000 0.0000 -2.0413 0.0000 23.7359
#
#
#
# Elastic Compliance Matrix: (Units=1/GPa)
#
#
# Indices 1 2 3 4 5 6 
#
# 1 0.026137 -0.035771 -0.002394 0.000000 -0.005866 0.000000
# 2 -0.035771 0.127951 -0.020236 0.000000 0.009287 0.000000
# 3 -0.002394 -0.020236 0.021871 0.000000 -0.012932 0.000000
# 4 0.000000 0.000000 0.000000 0.032843 0.000000 0.002825
# 5 -0.005866 0.009287 -0.012932 0.000000 0.050752 0.000000
# 6 0.000000 0.000000 0.000000 0.002825 0.000000 0.042373
#
#
# Mechanical properties :
#
#
# Convention : Reuss Voigt Hill
#
# Bulk Modulus (GPa) = 16.90430 46.08037 31.49234
# Shear Modulus (GPa) = 11.40385 22.34034 16.87210
#
# Velocity S-wave (km/s) = 2.49441 3.49130 3.03407
# Velocity P-wave (km/s) = 4.18560 6.43383 5.42740
#
# Compressibility (1/GPa) = 0.05915653
#
# Stress axis : x y z
#
# Youngs Moduli (GPa) = 38.26050 7.81547 45.72296
#
# Poissons Ratio (x) = 0.27957 0.10944
# Poissons Ratio (y) = 1.36863 0.92526
# Poissons Ratio (z) = 0.09158 0.15816
#
# Static dielectric constant tensor:
#      x y z
#    x 1.631900 0.000000 -0.001120 
#    y 0.000000 1.614020 0.000000 
#    z -0.001120 0.000000 1.611270 
# 
# From -- ./inp_files/238273.got.cif
#   From: 2010.05.17/outbox.cif.g08.bks.cpg/sg12_120_cif.got.tgz:238273.got - 2010.06.03 13:09:07.
