data_PCOD9182338
_publ_section_title
;
Structure prediction by ZEFSAII (Michael W. Deem and Ramdas Pophale) SiO2 
 PCOD9182338
Probable space group: C 2/M
;
_chemical_formula_sum "Si O2"
_cell_formula_units_Z 42
_cell_length_a 14.156450
_cell_length_b 20.916528
_cell_length_c 14.533618
_cell_angle_alpha 90.000000
_cell_angle_beta 28.907367
_cell_angle_gamma 90.000000
_cell_volume 2080.270456
_symmetry_space_group_name_H-M "C 2/M"
_symmetry_group_IT_number 12
_symmetry_cell_setting 'monoclinic'
loop_
_space_group_symop_operation_xyz
x,y,z
-x,y,-z
-x,-y,-z
x,-y,z
1/2+x,1/2+y,z
1/2-x,1/2+y,-z
1/2-x,1/2-y,-z
1/2+x,1/2-y,z
loop_
_atom_site_type_symbol
_atom_site_label
_atom_site_fract_x
_atom_site_fract_y
_atom_site_fract_z
Si Si1 0.185218 0.718552 0.779072
Si Si2 0.446471 0.652845 0.817584
Si Si3 0.168138 0.350574 0.417127
Si Si4 0.011875 0.695294 0.240139
Si Si5 0.000000 0.500000 0.000000
Si Si6 0.866912 0.095436 0.699026
O O1 0.295497 0.783226 0.664230
O O2 0.315071 0.668488 0.721022
O O3 0.109425 0.685465 0.750144
O O4 0.000000 0.734099 0.000000
O O5 0.607463 0.629011 0.754078
O O6 0.493312 0.726869 0.747158
O O7 0.453705 0.602943 0.727085
O O8 0.227442 0.665099 0.042715
O O9 0.000000 0.385164 0.500000
O O10 0.083502 0.336598 0.590365
O O11 0.830102 0.555099 0.131441
O O12 0.000000 0.073192 0.500000
#
# Coordination Sequence:
#
# PCOD9182338 Si02
#       6
#     8   8   8   8   2   8
#     4  11  19  34  56  79 116 158 190 229 276 335
#     4  10  20  33  53  74 109 148 189 225 274 327
#     4  11  23  31  49  79 114 158 196 225 265 324
#     4  10  19  33  49  79 112 152 194 228 259 334
#     4  12  26  40  56  90 110 138 192 248 298 348
#     4  12  22  39  60  82 112 152 187 235 291 345
#
# _framework density 20.189682999999999
#
# number of rings (size 3 to 8) (size 9 to 14) (size 15 to 20)
#    0.000    1.143    2.857    6.571    5.333    0.000 
#    0.000    0.000    0.000    0.000    0.000    0.667 
#    0.000   10.667    0.000    0.000    0.000    0.000 
#
# Total GULP energy -116912.281980 kJ/mol
# GULP energy per Si atom -5567.251523 kJ/mol
# Density = 2.014373 g / cm^3
# Si number density = 20.189683 Si / 1000 Ang^3
#
#
#
# Elastic Constant Matrix: (Units=GPa)
#
#
# Indices 1 2 3 4 5 6 
#
# 1 102.1005 7.5255 17.9762 -0.0217 -18.9407 0.0203
# 2 7.5255 20.4916 -7.3323 -0.0320 -1.8934 0.0222
# 3 17.9762 -7.3323 62.6106 -0.0825 -4.9959 0.0590
# 4 -0.0217 -0.0320 -0.0825 -139.8127 0.0506 108.7177
# 5 -18.9407 -1.8934 -4.9959 0.0506 37.6318 -0.0407
# 6 0.0203 0.0222 0.0590 108.7177 -0.0407 -97.9015
#
#
#
# Elastic Compliance Matrix: (Units=1/GPa)
#
#
# Indices 1 2 3 4 5 6 
#
# 1 0.011761 -0.005114 -0.003562 0.000007 0.005189 0.000005
# 2 -0.005114 0.053590 0.007837 -0.000027 0.001163 -0.000015
# 3 -0.003562 0.007837 0.017991 -0.000019 0.000990 -0.000009
# 4 0.000007 -0.000027 -0.000019 -0.052400 0.000007 -0.058189
# 5 0.005189 0.001163 0.000990 0.000007 0.029375 -0.000002
# 6 0.000005 -0.000015 -0.000009 -0.058189 -0.000002 -0.074833
#
#
# Mechanical properties :
#
#
# Convention : Reuss Voigt Hill
#
# Bulk Modulus (GPa) = 12.24514 24.61572 18.43043
# Shear Modulus (GPa) = 347.62004 -28.88093 159.36956
#
# Velocity S-wave (km/s) = 13.13586 -3.78627 8.89424
# Velocity P-wave (km/s) = 15.36704 2.62598 10.70631
#
# Compressibility (1/GPa) = 0.08166509
#
# Stress axis : x y z
#
# Youngs Moduli (GPa) = 85.02719 18.66009 55.58315
#
# Poissons Ratio (x) = 0.09543 0.19796
# Poissons Ratio (y) = 0.43484 -0.43560
# Poissons Ratio (z) = 0.30283 -0.14624
#
# Static dielectric constant tensor:
#      x y z
#    x 1.874090 0.000120 -0.020360 
#    y 0.000120 1.664510 -0.000020 
#    z -0.020360 -0.000020 1.673460 
# 
# From -- ./inp_files/217586.got.cif
#   From: 2010.05.17/outbox.cif.g08.bks.cpg/sg12_109_cif.got.tgz:217586.got - 2010.06.03 13:09:07.
