data_PCOD9182676
_publ_section_title
;
Structure prediction by ZEFSAII (Michael W. Deem and Ramdas Pophale) SiO2 
 PCOD9182676
Probable space group: C 2/M
;
_chemical_formula_sum "Si O2"
_cell_formula_units_Z 56
_cell_length_a 25.679117
_cell_length_b 8.925881
_cell_length_c 15.022079
_cell_angle_alpha 90.000000
_cell_angle_beta 121.280903
_cell_angle_gamma 90.000000
_cell_volume 2942.661724
_symmetry_space_group_name_H-M "C 2/M"
_symmetry_group_IT_number 12
_symmetry_cell_setting 'monoclinic'
loop_
_space_group_symop_operation_xyz
x,y,z
-x,y,-z
-x,-y,-z
x,-y,z
1/2+x,1/2+y,z
1/2-x,1/2+y,-z
1/2-x,1/2-y,-z
1/2+x,1/2-y,z
loop_
_atom_site_type_symbol
_atom_site_label
_atom_site_fract_x
_atom_site_fract_y
_atom_site_fract_z
Si Si1 0.762644 0.677143 0.915531
Si Si2 0.558738 0.824424 0.330433
Si Si3 0.063648 0.819852 0.703845
Si Si4 0.306104 0.819068 0.494073
Si Si5 0.170518 0.181709 0.676309
Si Si6 0.011340 0.666785 0.906079
Si Si7 0.378587 0.671843 0.058430
O O1 0.757658 0.500000 0.919343
O O2 0.717475 0.722885 0.796887
O O3 0.750000 0.750000 0.000000
O O4 0.831632 0.728217 0.962282
O O5 0.502812 0.747579 0.334456
O O6 0.627134 0.771148 0.409659
O O7 0.543747 0.812049 0.211889
O O8 0.556667 0.000000 0.352227
O O9 0.102318 0.776655 0.650543
O O10 0.107781 0.781815 0.827196
O O11 0.057763 0.000000 0.698351
O O12 0.250000 0.750000 0.500000
O O13 0.308299 0.760550 0.394719
O O14 0.301948 0.000000 0.493794
O O15 0.171740 0.000000 0.667024
O O16 0.037264 0.500000 0.904611
O O17 0.056532 0.801943 0.927719
O O18 0.000000 0.663042 0.000000
O O19 0.358755 0.500000 0.040731
#
# Coordination Sequence:
#
# PCOD9182676 Si02
#       7
#     8   8   8   8   8   8   8
#     4  11  21  35  56  84 120 157 192 234 290 348
#     4   9  20  38  59  84 115 150 190 243 297 348
#     4   9  18  35  58  86 118 150 188 236 293 353
#     4  11  25  44  63  85 116 156 202 251 299 350
#     4  10  22  40  60  86 120 158 201 246 294 352
#     4   9  18  34  56  82 111 149 195 236 288 352
#     4  10  19  33  52  81 119 153 190 235 287 346
#
# _framework density 19.030389
#
# number of rings (size 3 to 8) (size 9 to 14) (size 15 to 20)
#    0.000    2.143    1.429    1.286    0.000    5.429 
#    0.000    5.714    0.000    0.000    0.000    0.000 
#    0.000    0.000    0.000    0.000    0.000    0.000 
#
# Total GULP energy -156020.951116 kJ/mol
# GULP energy per Si atom -5572.176826 kJ/mol
# Density = 1.898708 g / cm^3
# Si number density = 19.030389 Si / 1000 Ang^3
#
#
#
# Elastic Constant Matrix: (Units=GPa)
#
#
# Indices 1 2 3 4 5 6 
#
# 1 132.4682 44.9162 84.7398 0.0000 1.3816 0.0000
# 2 44.9162 39.5034 42.7550 0.0000 0.9933 0.0000
# 3 84.7398 42.7550 113.8861 0.0000 5.9391 0.0000
# 4 0.0000 0.0000 0.0000 25.7856 0.0000 0.8383
# 5 1.3816 0.9933 5.9391 0.0000 34.8383 0.0000
# 6 0.0000 0.0000 0.0000 0.8383 0.0000 33.8350
#
#
#
# Elastic Compliance Matrix: (Units=1/GPa)
#
#
# Indices 1 2 3 4 5 6 
#
# 1 0.016146 -0.008963 -0.008706 0.000000 0.001099 0.000000
# 2 -0.008963 0.047696 -0.011285 0.000000 0.000919 0.000000
# 3 -0.008706 -0.011285 0.019635 0.000000 -0.002680 0.000000
# 4 0.000000 0.000000 0.000000 0.038813 0.000000 -0.000962
# 5 0.001099 0.000919 -0.002680 0.000000 0.029091 0.000000
# 6 0.000000 0.000000 0.000000 -0.000962 0.000000 0.029579
#
#
# Mechanical properties :
#
#
# Convention : Reuss Voigt Hill
#
# Bulk Modulus (GPa) = 39.10999 70.07553 54.59276
# Shear Modulus (GPa) = 20.21093 26.45489 23.33291
#
# Velocity S-wave (km/s) = 3.26242 3.73250 3.50535
# Velocity P-wave (km/s) = 5.89806 7.44838 6.71809
#
# Compressibility (1/GPa) = 0.02556891
#
# Stress axis : x y z
#
# Youngs Moduli (GPa) = 61.93453 20.96617 50.92934
#
# Poissons Ratio (x) = 0.18792 0.44341
# Poissons Ratio (y) = 0.55513 0.57472
# Poissons Ratio (z) = 0.53922 0.23659
#
# Static dielectric constant tensor:
#      x y z
#    x 1.729220 0.000000 0.026710 
#    y 0.000000 1.683500 0.000000 
#    z 0.026710 0.000000 1.690990 
# 
# From -- ./inp_files/244289.got.cif
#   From: 2010.05.17/outbox.cif.g08.bks.cpg/sg12_123_cif.got.tgz:244289.got - 2010.06.03 13:09:07.
