data_PCOD9182756
_publ_section_title
;
Structure prediction by ZEFSAII (Michael W. Deem and Ramdas Pophale) SiO2 
 PCOD9182756
Probable space group: C 2/M
;
_chemical_formula_sum "Si O2"
_cell_formula_units_Z 56
_cell_length_a 8.361093
_cell_length_b 14.550348
_cell_length_c 23.671527
_cell_angle_alpha 90.000000
_cell_angle_beta 121.909948
_cell_angle_gamma 90.000000
_cell_volume 2444.606554
_symmetry_space_group_name_H-M "C 2/M"
_symmetry_group_IT_number 12
_symmetry_cell_setting 'monoclinic'
loop_
_space_group_symop_operation_xyz
x,y,z
-x,y,-z
-x,-y,-z
x,-y,z
1/2+x,1/2+y,z
1/2-x,1/2+y,-z
1/2-x,1/2-y,-z
1/2+x,1/2-y,z
loop_
_atom_site_type_symbol
_atom_site_label
_atom_site_fract_x
_atom_site_fract_y
_atom_site_fract_z
Si Si1 0.042406 0.646808 0.569549
Si Si2 0.902886 0.612384 0.151969
Si Si3 0.751432 0.106812 0.285828
Si Si4 0.837047 0.143944 0.430237
Si Si5 0.392454 0.392510 0.713198
Si Si6 0.948749 0.887573 0.847897
Si Si7 0.114634 0.387626 0.076837
O O1 0.097934 0.752038 0.568694
O O2 0.215719 0.611309 0.638629
O O3 0.000000 0.605286 0.500000
O O4 0.854207 0.640467 0.570562
O O5 0.891916 0.500000 0.147843
O O6 0.692771 0.644138 0.129146
O O7 0.047861 0.641637 0.228721
O O8 0.002941 0.641592 0.112459
O O9 0.798754 0.108010 0.360571
O O10 0.925311 0.150005 0.283703
O O11 0.743794 0.000000 0.268092
O O12 0.000000 0.101837 0.500000
O O13 0.432685 0.500000 0.728874
O O14 0.362847 0.358317 0.771130
O O15 0.167029 0.858331 0.887319
O O16 0.950687 0.000000 0.851788
O O17 0.118439 0.500000 0.079371
O O18 0.000000 0.359794 0.000000
#
# Coordination Sequence:
#
# PCOD9182756 Si02
#       7
#     8   8   8   8   8   8   8
#     4  11  22  37  54  73 100 134 170 212 265 313
#     4   9  16  27  43  65  94 130 169 207 253 301
#     4  10  19  33  53  75 101 135 172 215 261 305
#     4  11  22  37  54  73 100 134 170 212 265 313
#     4  10  19  33  53  75 101 135 172 215 261 305
#     4   9  16  27  43  65  94 130 169 207 253 301
#     4   9  16  26  40  62  96 133 166 204 249 304
#
# _framework density 22.907572999999999
#
# number of rings (size 3 to 8) (size 9 to 14) (size 15 to 20)
#    0.000    2.143    1.429    4.286    0.000    2.857 
#    0.000    2.857    0.000    0.000    0.000    0.000 
#    0.000    1.143    0.571    0.000    0.000    0.000 
#
# Total GULP energy -156356.996812 kJ/mol
# GULP energy per Si atom -5584.178458 kJ/mol
# Density = 2.285543 g / cm^3
# Si number density = 22.907573 Si / 1000 Ang^3
#
#
#
# Elastic Constant Matrix: (Units=GPa)
#
#
# Indices 1 2 3 4 5 6 
#
# 1 232.3345 12.1412 92.3974 0.0000 16.2048 0.0000
# 2 12.1412 40.8480 -7.2935 0.0000 -10.0581 0.0000
# 3 92.3974 -7.2935 153.2023 0.0000 -4.1215 0.0000
# 4 0.0000 0.0000 0.0000 43.0044 0.0000 -1.4722
# 5 16.2048 -10.0581 -4.1215 0.0000 5.7466 0.0000
# 6 0.0000 0.0000 0.0000 -1.4722 0.0000 15.3961
#
#
#
# Elastic Compliance Matrix: (Units=1/GPa)
#
#
# Indices 1 2 3 4 5 6 
#
# 1 -0.424544 0.982475 0.388789 0.000000 3.195634 0.000000
# 2 0.982475 -2.227853 -0.895312 0.000000 -7.312005 0.000000
# 3 0.388789 -0.895312 -0.348963 0.000000 -2.913684 0.000000
# 4 0.000000 0.000000 0.000000 0.023330 0.000000 0.002231
# 5 3.195634 -7.312005 -2.913684 0.000000-23.725231 0.000000
# 6 0.000000 0.000000 0.000000 0.002231 0.000000 0.065165
#
#
# Mechanical properties :
#
#
# Convention : Reuss Voigt Hill
#
# Bulk Modulus (GPa) = -0.48793 68.98611 34.24909
# Shear Modulus (GPa) = -0.17685 34.77206 17.29760
#
# Velocity S-wave (km/s) = -0.27815 3.90029 2.75090
# Velocity P-wave (km/s) = 0.56269 7.10376 5.00733
#
# Compressibility (1/GPa) = -2.04945426
#
# Stress axis : x y z
#
# Youngs Moduli (GPa) = -2.35547 -0.44886 -2.86563
#
# Poissons Ratio (x) = 0.44100 1.11413
# Poissons Ratio (y) = 2.31419 -2.56563
# Poissons Ratio (z) = 0.91578 -0.40187
#
# Static dielectric constant tensor:
#      x y z
#    x 1.826020 0.000000 -0.000630 
#    y 0.000000 1.903570 0.000000 
#    z -0.000630 0.000000 1.846580 
# 
# From -- ./inp_files/333401.got.cif
#   From: 2010.05.17/outbox.cif.g08.bks.cpg/sg12_167_cif.got.tgz:333401.got - 2010.06.03 13:09:07.
