data_PCOD9182592
_publ_section_title
;
Structure prediction by ZEFSAII (Michael W. Deem and Ramdas Pophale) SiO2 
 PCOD9182592
Probable space group: C 2/M
;
_chemical_formula_sum "Si O2"
_cell_formula_units_Z 56
_cell_length_a 19.123540
_cell_length_b 7.354049
_cell_length_c 21.308588
_cell_angle_alpha 90.000000
_cell_angle_beta 53.781453
_cell_angle_gamma 90.000000
_cell_volume 2417.679507
_symmetry_space_group_name_H-M "C 2/M"
_symmetry_group_IT_number 12
_symmetry_cell_setting 'monoclinic'
loop_
_space_group_symop_operation_xyz
x,y,z
-x,y,-z
-x,-y,-z
x,-y,z
1/2+x,1/2+y,z
1/2-x,1/2+y,-z
1/2-x,1/2-y,-z
1/2+x,1/2-y,z
loop_
_atom_site_type_symbol
_atom_site_label
_atom_site_fract_x
_atom_site_fract_y
_atom_site_fract_z
Si Si1 0.416464 0.279864 0.875964
Si Si2 0.092902 0.778978 0.477326
Si Si3 0.710311 0.289122 0.302915
Si Si4 0.907201 0.710005 0.026859
Si Si5 0.846979 0.216192 0.424993
Si Si6 0.217039 0.223357 0.161711
Si Si7 0.109851 0.219984 0.736702
O O1 0.414877 0.500000 0.877401
O O2 0.399962 0.217458 0.955450
O O3 0.345627 0.220711 0.862027
O O4 0.513553 0.221904 0.805936
O O5 0.165190 0.712462 0.389551
O O6 0.098692 0.712094 0.545311
O O7 0.000000 0.734637 0.500000
O O8 0.101414 0.000000 0.476528
O O9 0.683870 0.500000 0.315516
O O10 0.686234 0.216337 0.247145
O O11 0.813503 0.278899 0.257793
O O12 0.908701 0.500000 0.047239
O O13 0.816240 0.786173 0.100108
O O14 0.000000 0.789285 0.000000
O O15 0.750000 0.250000 0.500000
O O16 0.866193 0.287457 0.345786
O O17 0.860936 0.000000 0.412740
O O18 0.217412 0.000000 0.161012
O O19 0.110649 0.000000 0.736811
#
# Coordination Sequence:
#
# PCOD9182592 Si02
#       7
#     8   8   8   8   8   8   8
#     4  10  21  36  54  79 107 138 173 210 259 311
#     4   9  18  30  50  79 104 130 173 219 255 298
#     4  10  19  34  56  78 102 137 178 216 254 307
#     4  10  20  36  57  80 106 136 171 213 259 306
#     4  10  19  33  52  76 104 136 173 216 260 302
#     4   9  19  34  54  79 106 135 171 216 259 302
#     4  10  21  34  51  75 108 139 168 214 264 307
#
# _framework density 23.162706
#
# number of rings (size 3 to 8) (size 9 to 14) (size 15 to 20)
#    0.000    2.286    1.429    1.286    2.000    2.000 
#    0.000    1.429    0.000    1.714    0.000    0.000 
#    0.000    0.000    0.000    0.000    0.000    0.000 
#
# Total GULP energy -156430.315420 kJ/mol
# GULP energy per Si atom -5586.796979 kJ/mol
# Density = 2.310999 g / cm^3
# Si number density = 23.162706 Si / 1000 Ang^3
#
#
#
# Elastic Constant Matrix: (Units=GPa)
#
#
# Indices 1 2 3 4 5 6 
#
# 1 108.3070 -11.5609 8.2906 0.0000 22.6029 0.0002
# 2 -11.5609 85.4028 -6.9665 0.0004 0.6350 -0.0013
# 3 8.2906 -6.9665 88.7245 -0.0001 16.1227 0.0001
# 4 0.0000 0.0004 -0.0001 9.5198 0.0000 0.0769
# 5 22.6029 0.6350 16.1227 0.0000 44.9916 0.0002
# 6 0.0002 -0.0013 0.0001 0.0769 0.0002 10.2452
#
#
#
# Elastic Compliance Matrix: (Units=1/GPa)
#
#
# Indices 1 2 3 4 5 6 
#
# 1 0.010494 0.001469 0.000103 0.000000 -0.005330 0.000000
# 2 0.001469 0.012002 0.001038 0.000000 -0.001279 0.000001
# 3 0.000103 0.001038 0.012146 0.000000 -0.004419 0.000000
# 4 0.000000 0.000000 0.000000 0.105051 0.000000 -0.000788
# 5 -0.005330 -0.001279 -0.004419 0.000000 0.026505 0.000000
# 6 0.000000 0.000001 0.000000 -0.000788 0.000000 0.097612
#
#
# Mechanical properties :
#
#
# Convention : Reuss Voigt Hill
#
# Bulk Modulus (GPa) = 25.08725 29.10674 27.09700
# Shear Modulus (GPa) = 18.39055 32.46273 25.42664
#
# Velocity S-wave (km/s) = 2.82081 3.74773 3.31681
# Velocity P-wave (km/s) = 4.63289 5.59650 5.13734
#
# Compressibility (1/GPa) = 0.03986088
#
# Stress axis : x y z
#
# Youngs Moduli (GPa) = 95.29101 83.31822 82.33399
#
# Poissons Ratio (x) = -0.12236 -0.00850
# Poissons Ratio (y) = -0.13995 -0.08543
# Poissons Ratio (z) = -0.00984 -0.08645
#
# Static dielectric constant tensor:
#      x y z
#    x 1.878670 0.000000 0.032840 
#    y 0.000000 1.907300 0.000000 
#    z 0.032840 0.000000 1.854770 
# 
# From -- ./inp_files/313676.got.cif
#   From: 2010.05.17/outbox.cif.g08.bks.cpg/sg12_157_cif.got.tgz:313676.got - 2010.06.03 13:09:07.
