data_PCOD9182801
_publ_section_title
;
Structure prediction by ZEFSAII (Michael W. Deem and Ramdas Pophale) SiO2 
 PCOD9182801
Probable space group: C 2/M
;
_chemical_formula_sum "Si O2"
_cell_formula_units_Z 56
_cell_length_a 15.020862
_cell_length_b 7.385979
_cell_length_c 19.474700
_cell_angle_alpha 90.000000
_cell_angle_beta 103.176197
_cell_angle_gamma 90.000000
_cell_volume 2103.716115
_symmetry_space_group_name_H-M "C 2/M"
_symmetry_group_IT_number 12
_symmetry_cell_setting 'monoclinic'
loop_
_space_group_symop_operation_xyz
x,y,z
-x,y,-z
-x,-y,-z
x,-y,z
1/2+x,1/2+y,z
1/2-x,1/2+y,-z
1/2-x,1/2-y,-z
1/2+x,1/2-y,z
loop_
_atom_site_type_symbol
_atom_site_label
_atom_site_fract_x
_atom_site_fract_y
_atom_site_fract_z
Si Si1 0.888815 0.713880 0.626754
Si Si2 0.055391 0.286748 0.154636
Si Si3 0.775684 0.292022 0.889574
Si Si4 0.440510 0.220741 0.262369
Si Si5 0.892381 0.720054 0.479709
Si Si6 0.785245 0.716627 0.325950
Si Si7 0.117952 0.218002 0.952693
O O1 0.896288 0.500000 0.619220
O O2 0.855414 0.785232 0.547378
O O3 0.819836 0.742317 0.677437
O O4 0.990145 0.773873 0.664256
O O5 0.069353 0.500000 0.170399
O O6 0.994090 0.209709 0.205346
O O7 0.986291 0.268383 0.078508
O O8 0.154710 0.208494 0.153451
O O9 0.759064 0.500000 0.868145
O O10 0.679483 0.213331 0.898576
O O11 0.835403 0.290329 0.970520
O O12 0.339920 0.280805 0.268219
O O13 0.438717 0.000000 0.257089
O O14 0.887407 0.500000 0.475201
O O15 0.837957 0.785207 0.403602
O O16 0.000000 0.765796 0.500000
O O17 0.792457 0.500000 0.326193
O O18 0.124814 0.000000 0.956660
#
# Coordination Sequence:
#
# PCOD9182801 Si02
#       7
#     8   8   8   8   8   8   8
#     4  10  19  33  54  77 100 133 175 213 254 305
#     4  10  20  35  54  74 100 137 177 209 245 298
#     4   9  19  35  54  76 104 136 168 205 250 301
#     4   9  19  35  53  72  98 138 179 208 243 305
#     4   9  15  28  53  77  99 131 171 212 253 305
#     4  10  19  33  53  76 102 132 169 214 261 304
#     4  10  20  34  54  81 108 132 163 208 258 301
#
# _framework density 26.619561999999998
#
# number of rings (size 3 to 8) (size 9 to 14) (size 15 to 20)
#    0.000    2.429    1.429    1.286    0.000    4.000 
#    0.000    3.571    0.000    0.857    0.000    0.000 
#    0.000    0.000    0.000    0.000    0.000    0.000 
#
# Total GULP energy -156573.847977 kJ/mol
# GULP energy per Si atom -5591.923142 kJ/mol
# Density = 2.655897 g / cm^3
# Si number density = 26.619562 Si / 1000 Ang^3
#
#
#
# Elastic Constant Matrix: (Units=GPa)
#
#
# Indices 1 2 3 4 5 6 
#
# 1 161.6927 -3.0525 22.7571 0.0000 -22.4663 0.0000
# 2 -3.0525 106.9680 3.7818 0.0000 -0.0780 0.0000
# 3 22.7571 3.7818 87.3086 0.0000 -21.5798 0.0000
# 4 0.0000 0.0000 0.0000 3.0787 0.0000 -3.7814
# 5 -22.4663 -0.0780 -21.5798 0.0000 35.1666 0.0000
# 6 0.0000 0.0000 0.0000 -3.7814 0.0000 7.8236
#
#
#
# Elastic Compliance Matrix: (Units=1/GPa)
#
#
# Indices 1 2 3 4 5 6 
#
# 1 0.006843 0.000228 -0.000840 0.000000 0.003857 0.000000
# 2 0.000228 0.009373 -0.000500 0.000000 -0.000141 0.000000
# 3 -0.000840 -0.000500 0.013628 0.000000 0.007825 0.000000
# 4 0.000000 0.000000 0.000000 0.799379 0.000000 0.386368
# 5 0.003857 -0.000141 0.007825 0.000000 0.035701 0.000000
# 6 0.000000 0.000000 0.000000 0.386368 0.000000 0.314564
#
#
# Mechanical properties :
#
#
# Convention : Reuss Voigt Hill
#
# Bulk Modulus (GPa) = 36.20714 44.77133 40.48924
# Shear Modulus (GPa) = 4.19843 31.37930 17.78887
#
# Velocity S-wave (km/s) = 1.25723 3.43710 2.58788
# Velocity P-wave (km/s) = 3.96721 5.71025 4.91659
#
# Compressibility (1/GPa) = 0.02761886
#
# Stress axis : x y z
#
# Youngs Moduli (GPa) = 146.13528 106.69315 73.37614
#
# Poissons Ratio (x) = -0.02430 0.06166
# Poissons Ratio (y) = -0.03329 0.03670
# Poissons Ratio (z) = 0.12280 0.05336
#
# Static dielectric constant tensor:
#      x y z
#    x 2.045580 0.000000 -0.047340 
#    y 0.000000 2.007640 0.000000 
#    z -0.047340 0.000000 2.154650 
# 
# From -- ./inp_files/308908.got.cif
#   From: 2010.05.17/outbox.cif.g08.bks.cpg/sg12_155_cif.got.tgz:308908.got - 2010.06.03 13:09:07.
