data_PCOD9182380
_publ_section_title
;
Structure prediction by ZEFSAII (Michael W. Deem and Ramdas Pophale) SiO2 
 PCOD9182380
Probable space group: C 2/M
;
_chemical_formula_sum "Si O2"
_cell_formula_units_Z 40
_cell_length_a 8.588312
_cell_length_b 15.223511
_cell_length_c 22.461890
_cell_angle_alpha 90.000000
_cell_angle_beta 44.759414
_cell_angle_gamma 90.000000
_cell_volume 2067.867215
_symmetry_space_group_name_H-M "C 2/M"
_symmetry_group_IT_number 12
_symmetry_cell_setting 'monoclinic'
loop_
_space_group_symop_operation_xyz
x,y,z
-x,y,-z
-x,-y,-z
x,-y,z
1/2+x,1/2+y,z
1/2-x,1/2+y,-z
1/2-x,1/2-y,-z
1/2+x,1/2-y,z
loop_
_atom_site_type_symbol
_atom_site_label
_atom_site_fract_x
_atom_site_fract_y
_atom_site_fract_z
Si Si1 0.648777 0.643446 0.800933
Si Si2 0.385090 0.674912 0.753413
Si Si3 0.741731 0.684206 0.556955
Si Si4 0.340031 0.000000 0.239331
Si Si5 0.011390 0.500000 0.672442
Si Si6 0.871840 0.000000 0.096304
Si Si7 0.709663 0.000000 0.488682
O O1 0.476841 0.651731 0.793674
O O2 0.726203 0.740675 0.797603
O O3 0.573909 0.585182 0.877635
O O4 0.854848 0.585703 0.720094
O O5 0.591307 0.704237 0.654904
O O6 0.267885 0.588157 0.758449
O O7 0.750000 0.750000 0.500000
O O8 0.660536 0.588750 0.558314
O O9 0.000000 0.676195 0.500000
O O10 0.329755 0.000000 0.313893
O O11 0.606675 0.000000 0.156710
O O12 0.125491 0.500000 0.578383
O O13 0.000000 0.000000 0.000000
O O14 0.500000 0.000000 0.500000
#
# Coordination Sequence:
#
# PCOD9182380 Si02
#       7
#     8   8   8   4   4   4   4
#     4  10  21  37  64  88 119 161 195 246 305 365
#     4  12  21  40  60  90 124 165 214 245 293 370
#     4  11  23  35  53  81 118 162 208 261 297 325
#     4  10  23  39  63  88 119 162 200 247 303 371
#     4  10  19  36  55  83 115 159 210 255 305 362
#     4  10  23  46  69  97 122 143 188 251 313 379
#     4  10  19  33  50  74 109 156 202 253 306 340
#
# _framework density 19.343603000000002
#
# number of rings (size 3 to 8) (size 9 to 14) (size 15 to 20)
#    0.000    1.600    0.000    9.000    0.000    1.600 
#    0.000    7.500    0.000    0.000    0.000    0.000 
#    0.000    0.000    0.000    0.000    0.000    0.000 
#
# Total GULP energy -111644.236853 kJ/mol
# GULP energy per Si atom -5582.211843 kJ/mol
# Density = 1.929958 g / cm^3
# Si number density = 19.343603 Si / 1000 Ang^3
#
#
#
# Elastic Constant Matrix: (Units=GPa)
#
#
# Indices 1 2 3 4 5 6 
#
# 1 157.1213 76.4166 51.8061 -0.0011 26.9827 -0.0010
# 2 76.4166 161.0991 28.1649 -0.0003 21.2287 0.0000
# 3 51.8061 28.1649 129.3785 -0.0021 30.6899 0.0000
# 4 -0.0011 -0.0003 -0.0021 -1.8954 0.0014 -4.4284
# 5 26.9827 21.2287 30.6899 0.0014 26.3437 0.0005
# 6 -0.0010 0.0000 0.0000 -4.4284 0.0005 31.2182
#
#
#
# Elastic Compliance Matrix: (Units=1/GPa)
#
#
# Indices 1 2 3 4 5 6 
#
# 1 0.009539 -0.003575 -0.001944 -0.000006 -0.004624 0.000000
# 2 -0.003575 0.008291 0.000474 -0.000002 -0.003571 0.000000
# 3 -0.001944 0.000474 0.011087 -0.000015 -0.011306 -0.000002
# 4 -0.000006 -0.000002 -0.000015 -0.396253 0.000047 -0.056210
# 5 -0.004624 -0.003571 -0.011306 0.000047 0.058744 0.000006
# 6 0.000000 0.000000 -0.000002 -0.056210 0.000006 0.024059
#
#
# Mechanical properties :
#
#
# Convention : Reuss Voigt Hill
#
# Bulk Modulus (GPa) = 53.12239 84.48600 68.80420
# Shear Modulus (GPa) = -18.64507 30.54737 5.95115
#
# Velocity S-wave (km/s) = -3.10802 3.97822 1.75591
# Velocity P-wave (km/s) = 3.82654 8.05437 6.30537
#
# Compressibility (1/GPa) = 0.01882445
#
# Stress axis : x y z
#
# Youngs Moduli (GPa) = 104.83825 120.61186 90.19950
#
# Poissons Ratio (x) = 0.43123 0.17538
# Poissons Ratio (y) = 0.37483 -0.04274
# Poissons Ratio (z) = 0.20384 -0.05715
#
# Static dielectric constant tensor:
#      x y z
#    x 1.700750 0.000000 -0.021310 
#    y 0.000000 1.734310 0.000000 
#    z -0.021310 0.000000 1.649260 
# 
# From -- ./inp_files/299717.got.cif
#   From: 2010.05.17/outbox.cif.g08.bks.cpg/sg12_150_cif.got.tgz:299717.got - 2010.06.03 13:09:07.
