data_PCOD9182332
_publ_section_title
;
Structure prediction by ZEFSAII (Michael W. Deem and Ramdas Pophale) SiO2 
 PCOD9182332
Probable space group: C 2/M
;
_chemical_formula_sum "Si O2"
_cell_formula_units_Z 56
_cell_length_a 13.994589
_cell_length_b 28.963010
_cell_length_c 9.910494
_cell_angle_alpha 90.000000
_cell_angle_beta 48.543774
_cell_angle_gamma 90.000000
_cell_volume 3010.569205
_symmetry_space_group_name_H-M "C 2/M"
_symmetry_group_IT_number 12
_symmetry_cell_setting 'monoclinic'
loop_
_space_group_symop_operation_xyz
x,y,z
-x,y,-z
-x,-y,-z
x,-y,z
1/2+x,1/2+y,z
1/2-x,1/2+y,-z
1/2-x,1/2-y,-z
1/2+x,1/2-y,z
loop_
_atom_site_type_symbol
_atom_site_label
_atom_site_fract_x
_atom_site_fract_y
_atom_site_fract_z
Si Si1 0.192848 0.301595 0.722580
Si Si2 0.353738 0.217640 0.658357
Si Si3 0.185764 0.898021 0.432461
Si Si4 0.694062 0.500000 0.418514
Si Si5 0.076227 0.270278 0.103612
Si Si6 0.625024 0.668078 0.952039
Si Si7 0.101673 0.000000 0.207523
Si Si8 0.597586 0.400239 0.202040
O O1 0.306769 0.263762 0.624276
O O2 0.233695 0.351460 0.632053
O O3 0.072020 0.284232 0.750209
O O4 0.141102 0.301227 0.926013
O O5 0.500000 0.204731 0.500000
O O6 0.354896 0.227355 0.818259
O O7 0.244740 0.178871 0.743417
O O8 0.148336 0.899611 0.308023
O O9 0.054145 0.892502 0.638186
O O10 0.243647 0.948884 0.412659
O O11 0.687132 0.500000 0.262625
O O12 0.545835 0.500000 0.604777
O O13 0.080332 0.218153 0.046033
O O14 0.658836 0.637401 0.048797
O O15 0.500000 0.646598 0.000000
O O16 0.121365 0.048832 0.119546
#
# Coordination Sequence:
#
# PCOD9182332 Si02
#       8
#     8   8   8   4   8   8   4   8
#     4  10  19  33  49  73  96 133 173 199 239 299
#     4  11  23  34  50  71  99 133 172 207 243 288
#     4   9  16  27  47  77  97 125 160 198 247 303
#     4   7  12  24  42  67 106 123 141 198 258 291
#     4  10  20  36  50  64 100 136 165 212 242 280
#     4  11  20  37  49  69  99 135 166 204 247 284
#     4   7  12  26  41  72  97 123 154 196 246 302
#     4   9  17  27  50  71 101 127 158 199 252 297
#
# _framework density 18.601133999999998
#
# number of rings (size 3 to 8) (size 9 to 14) (size 15 to 20)
#    0.000    2.429    2.857    5.143    4.000    1.714 
#    0.000    0.357    0.000    1.714    0.000    1.500 
#    0.000    0.000    0.000    0.000    0.000    0.000 
#
# Total GULP energy -155947.980284 kJ/mol
# GULP energy per Si atom -5569.570724 kJ/mol
# Density = 1.855880 g / cm^3
# Si number density = 18.601134 Si / 1000 Ang^3
#
#
#
# Elastic Constant Matrix: (Units=GPa)
#
#
# Indices 1 2 3 4 5 6 
#
# 1 49.1863 6.4373 2.6735 0.0000 -13.0283 0.0000
# 2 6.4373 124.5064 41.0303 0.0000 -14.7888 0.0000
# 3 2.6735 41.0303 54.9509 0.0000 -14.8382 0.0000
# 4 0.0000 0.0000 0.0000 11.3953 0.0000 0.5539
# 5 -13.0283 -14.7888 -14.8382 0.0000 26.1161 0.0000
# 6 0.0000 0.0000 0.0000 0.5539 0.0000 5.9403
#
#
#
# Elastic Compliance Matrix: (Units=1/GPa)
#
#
# Indices 1 2 3 4 5 6 
#
# 1 0.023727 -0.000605 0.002836 0.000000 0.013105 0.000000
# 2 -0.000605 0.010740 -0.007594 0.000000 0.001465 0.000000
# 3 0.002836 -0.007594 0.027110 0.000000 0.012518 0.000000
# 4 0.000000 0.000000 0.000000 0.088155 0.000000 -0.008220
# 5 0.013105 0.001465 0.012518 0.000000 0.052770 0.000000
# 6 0.000000 0.000000 0.000000 -0.008220 0.000000 0.169108
#
#
# Mechanical properties :
#
#
# Convention : Reuss Voigt Hill
#
# Bulk Modulus (GPa) = 19.66496 36.54731 28.10614
# Shear Modulus (GPa) = 12.52236 20.59051 16.55643
#
# Velocity S-wave (km/s) = 2.59743 3.33069 2.98665
# Velocity P-wave (km/s) = 4.42610 5.87213 5.19963
#
# Compressibility (1/GPa) = 0.05085187
#
# Stress axis : x y z
#
# Youngs Moduli (GPa) = 42.14579 93.11402 36.88631
#
# Poissons Ratio (x) = 0.05630 -0.10461
# Poissons Ratio (y) = 0.02548 0.28011
# Poissons Ratio (z) = -0.11952 0.70709
#
# Static dielectric constant tensor:
#      x y z
#    x 1.679660 0.000000 -0.002700 
#    y 0.000000 1.669790 0.000000 
#    z -0.002700 0.000000 1.699430 
# 
# From -- ./inp_files/149466.got.cif
#   From: 2010.05.17/outbox.cif.g08.bks.cpg/sg12_75_cif.got.tgz:149466.got - 2010.06.03 13:09:07.
