data_PCOD9182214
_publ_section_title
;
Structure prediction by ZEFSAII (Michael W. Deem and Ramdas Pophale) SiO2 
 PCOD9182214
Probable space group: C 2/M
;
_chemical_formula_sum "Si O2"
_cell_formula_units_Z 64
_cell_length_a 20.787419
_cell_length_b 9.139143
_cell_length_c 22.038581
_cell_angle_alpha 90.000000
_cell_angle_beta 61.148844
_cell_angle_gamma 90.000000
_cell_volume 3667.181433
_symmetry_space_group_name_H-M "C 2/M"
_symmetry_group_IT_number 12
_symmetry_cell_setting 'monoclinic'
loop_
_space_group_symop_operation_xyz
x,y,z
-x,y,-z
-x,-y,-z
x,-y,z
1/2+x,1/2+y,z
1/2-x,1/2+y,-z
1/2-x,1/2-y,-z
1/2+x,1/2-y,z
loop_
_atom_site_type_symbol
_atom_site_label
_atom_site_fract_x
_atom_site_fract_y
_atom_site_fract_z
Si Si1 0.667478 0.674776 0.920960
Si Si2 0.032080 0.824181 0.551045
Si Si3 0.079511 0.675037 0.069340
Si Si4 0.827736 0.326523 0.454284
Si Si5 0.587112 0.827340 0.707507
Si Si6 0.050679 0.174032 0.289068
Si Si7 0.338302 0.175371 0.843750
Si Si8 0.905872 0.325878 0.158429
O O1 0.660787 0.500000 0.925913
O O2 0.753098 0.713679 0.889995
O O3 0.639242 0.736256 0.869963
O O4 0.618957 0.744879 0.996172
O O5 0.107643 0.743990 0.534344
O O6 0.000000 0.784469 0.500000
O O7 0.973594 0.790178 0.631061
O O8 0.044603 0.000000 0.546375
O O9 0.088635 0.500000 0.057931
O O10 0.117221 0.717315 0.115772
O O11 0.992700 0.704788 0.110943
O O12 0.822907 0.500000 0.467914
O O13 0.750000 0.250000 0.500000
O O14 0.853957 0.305996 0.372553
O O15 0.515950 0.734796 0.721714
O O16 0.613568 0.791500 0.762950
O O17 0.565979 0.000000 0.717647
O O18 0.123905 0.248615 0.230861
O O19 0.056130 0.000000 0.281142
O O20 0.344316 0.000000 0.834285
O O21 0.895064 0.500000 0.153565
#
# Coordination Sequence:
#
# PCOD9182214 Si02
#       8
#     8   8   8   8   8   8   8   8
#     4  11  24  37  52  80 115 143 172 226 282 316
#     4   9  19  37  58  82 115 148 182 227 275 326
#     4  10  20  37  61  79  99 141 188 222 263 328
#     4  10  20  35  58  85 114 148 186 228 274 325
#     4   9  18  36  59  80 106 147 187 221 266 325
#     4  10  19  32  57  87 108 138 183 230 270 314
#     4  10  21  39  57  76 109 148 181 219 272 326
#     4  10  20  37  59  79 104 143 185 220 265 327
#
# _framework density 17.452095
#
# number of rings (size 3 to 8) (size 9 to 14) (size 15 to 20)
#    0.000    2.125    1.250    1.875    0.000    5.250 
#    2.250    0.000    0.000    0.000    0.000    0.000 
#    0.000    0.000    0.000    0.000    0.000    0.000 
#
# Total GULP energy -178628.986310 kJ/mol
# GULP energy per Si atom -5582.155822 kJ/mol
# Density = 1.741237 g / cm^3
# Si number density = 17.452095 Si / 1000 Ang^3
#
#
#
# Elastic Constant Matrix: (Units=GPa)
#
#
# Indices 1 2 3 4 5 6 
#
# 1 44.1154 16.9203 16.6010 -0.0001 8.6553 -0.0002
# 2 16.9203 25.2194 27.9006 -0.0002 -0.1009 -0.0006
# 3 16.6010 27.9006 75.3735 0.0000 10.8693 0.0000
# 4 -0.0001 -0.0002 0.0000 25.2281 0.0001 -2.4944
# 5 8.6553 -0.1009 10.8693 0.0001 25.2980 -0.0001
# 6 -0.0002 -0.0006 0.0000 -2.4944 -0.0001 30.1380
#
#
#
# Elastic Compliance Matrix: (Units=1/GPa)
#
#
# Indices 1 2 3 4 5 6 
#
# 1 0.034628 -0.028982 0.005145 0.000000 -0.014174 0.000000
# 2 -0.028982 0.094804 -0.032188 0.000001 0.024124 0.000002
# 3 0.005145 -0.032188 0.025928 0.000000 -0.013029 -0.000001
# 4 0.000000 0.000001 0.000000 0.039965 0.000000 0.003308
# 5 -0.014174 0.024124 -0.013029 0.000000 0.050072 0.000000
# 6 0.000000 0.000002 -0.000001 0.003308 0.000000 0.033454
#
#
# Mechanical properties :
#
#
# Convention : Reuss Voigt Hill
#
# Bulk Modulus (GPa) = 23.08958 29.72800 26.40879
# Shear Modulus (GPa) = 12.33537 21.68526 17.01031
#
# Velocity S-wave (km/s) = 2.66148 3.52882 3.12538
# Velocity P-wave (km/s) = 4.76483 5.80297 5.30933
#
# Compressibility (1/GPa) = 0.04330959
#
# Stress axis : x y z
#
# Youngs Moduli (GPa) = 28.87807 10.54813 38.56854
#
# Poissons Ratio (x) = 0.30570 -0.19844
# Poissons Ratio (y) = 0.83694 1.24146
# Poissons Ratio (z) = -0.14858 0.33953
#
# Static dielectric constant tensor:
#      x y z
#    x 1.564420 0.000000 0.002740 
#    y 0.000000 1.582070 0.000000 
#    z 0.002740 0.000000 1.591430 
# 
# From -- ./inp_files/319844.got.cif
#   From: 2010.05.17/outbox.cif.g08.bks.cpg/sg12_160_cif.got.tgz:319844.got - 2010.06.03 13:09:07.
