data_PCOD9182027
_publ_section_title
;
Structure prediction by ZEFSAII (Michael W. Deem and Ramdas Pophale) SiO2 
 PCOD9182027
Probable space group: C 2/M
;
_chemical_formula_sum "Si O2"
_cell_formula_units_Z 64
_cell_length_a 14.941997
_cell_length_b 9.346631
_cell_length_c 23.224753
_cell_angle_alpha 90.000000
_cell_angle_beta 95.288792
_cell_angle_gamma 90.000000
_cell_volume 3229.698623
_symmetry_space_group_name_H-M "C 2/M"
_symmetry_group_IT_number 12
_symmetry_cell_setting 'monoclinic'
loop_
_space_group_symop_operation_xyz
x,y,z
-x,y,-z
-x,-y,-z
x,-y,z
1/2+x,1/2+y,z
1/2-x,1/2+y,-z
1/2-x,1/2-y,-z
1/2+x,1/2-y,z
loop_
_atom_site_type_symbol
_atom_site_label
_atom_site_fract_x
_atom_site_fract_y
_atom_site_fract_z
Si Si1 0.094587 0.329859 0.846708
Si Si2 0.694414 0.166765 0.544309
Si Si3 0.483978 0.168112 0.406342
Si Si4 0.541982 0.174451 0.062789
Si Si5 0.305743 0.831659 0.737754
Si Si6 0.717364 0.170229 0.132471
Si Si7 0.860045 0.834331 0.634001
Si Si8 0.620548 0.833866 0.719811
O O1 0.106121 0.500000 0.855572
O O2 0.189259 0.253194 0.863668
O O3 0.070971 0.309568 0.777883
O O4 0.020555 0.280063 0.887705
O O5 0.750000 0.250000 0.500000
O O6 0.594053 0.216343 0.554318
O O7 0.757961 0.174310 0.604541
O O8 0.688016 0.000000 0.527776
O O9 0.574474 0.258049 0.407733
O O10 0.439750 0.180818 0.340132
O O11 0.502461 0.000000 0.417967
O O12 0.644210 0.218264 0.081462
O O13 0.542872 0.000000 0.062766
O O14 0.500000 0.222093 0.000000
O O15 0.325636 0.809224 0.806346
O O16 0.363744 0.745443 0.695095
O O17 0.204139 0.773673 0.724142
O O18 0.312168 0.000000 0.725642
O O19 0.733913 0.000000 0.127756
O O20 0.884323 0.000000 0.640919
O O21 0.653781 0.000000 0.722549
#
# Coordination Sequence:
#
# PCOD9182027 Si02
#       8
#     8   8   8   8   8   8   8   8
#     4   9  18  32  54  79 105 143 184 224 274 328
#     4  10  23  43  63  82 113 151 188 228 275 325
#     4  10  21  38  59  85 115 150 187 228 277 329
#     4   9  18  33  53  77 106 145 190 226 266 330
#     4  10  19  32  55  83 113 146 185 228 279 336
#     4   9  19  34  53  78 109 142 181 230 277 324
#     4  11  23  39  58  86 118 149 185 229 279 329
#     4   9  17  33  56  79 113 147 181 228 279 331
#
# _framework density 19.816091
#
# number of rings (size 3 to 8) (size 9 to 14) (size 15 to 20)
#    0.000    2.375    1.250    0.750    1.750    3.500 
#    0.000    3.125    0.000    0.750    0.000    0.000 
#    0.000    0.000    0.000    0.000    0.000    0.000 
#
# Total GULP energy -178618.038605 kJ/mol
# GULP energy per Si atom -5581.813706 kJ/mol
# Density = 1.977099 g / cm^3
# Si number density = 19.816091 Si / 1000 Ang^3
#
#
#
# Elastic Constant Matrix: (Units=GPa)
#
#
# Indices 1 2 3 4 5 6 
#
# 1 67.3463 16.7556 5.0138 0.0000 -11.5847 0.0000
# 2 16.7556 34.3569 12.1044 0.0000 -4.5879 0.0000
# 3 5.0138 12.1044 51.2363 0.0000 -1.1482 0.0000
# 4 0.0000 0.0000 0.0000 20.1860 0.0000 -3.7100
# 5 -11.5847 -4.5879 -1.1482 0.0000 32.6556 0.0000
# 6 0.0000 0.0000 0.0000 -3.7100 0.0000 26.0033
#
#
#
# Elastic Compliance Matrix: (Units=1/GPa)
#
#
# Indices 1 2 3 4 5 6 
#
# 1 0.017719 -0.008052 0.000284 0.000000 0.005165 0.000000
# 2 -0.008052 0.035994 -0.007672 0.000000 0.001931 0.000000
# 3 0.000284 -0.007672 0.021297 0.000000 -0.000228 0.000000
# 4 0.000000 0.000000 0.000000 0.050873 0.000000 0.007258
# 5 0.005165 0.001931 -0.000228 0.000000 0.032718 0.000000
# 6 0.000000 0.000000 0.000000 0.007258 0.000000 0.039492
#
#
# Mechanical properties :
#
#
# Convention : Reuss Voigt Hill
#
# Bulk Modulus (GPa) = 22.66035 24.52079 23.59057
# Shear Modulus (GPa) = 20.51838 23.70670 22.11254
#
# Velocity S-wave (km/s) = 3.22132 3.46256 3.34411
# Velocity P-wave (km/s) = 5.02951 5.32793 5.18087
#
# Compressibility (1/GPa) = 0.04412995
#
# Stress axis : x y z
#
# Youngs Moduli (GPa) = 56.43597 27.78244 46.95486
#
# Poissons Ratio (x) = 0.22370 -0.01334
# Poissons Ratio (y) = 0.45442 0.36025
# Poissons Ratio (z) = -0.01603 0.21315
#
# Static dielectric constant tensor:
#      x y z
#    x 1.697830 0.000000 0.001690 
#    y 0.000000 1.658240 0.000000 
#    z 0.001690 0.000000 1.734980 
# 
# From -- ./inp_files/338755.got.cif
#   From: 2010.05.17/outbox.cif.g08.bks.cpg/sg12_170_cif.got.tgz:338755.got - 2010.06.03 13:09:07.
