data_PCOD9182418
_publ_section_title
;
Structure prediction by ZEFSAII (Michael W. Deem and Ramdas Pophale) SiO2 
 PCOD9182418
Probable space group: C 2/M
;
_chemical_formula_sum "Si O2"
_cell_formula_units_Z 56
_cell_length_a 19.817226
_cell_length_b 12.022979
_cell_length_c 15.122784
_cell_angle_alpha 90.000000
_cell_angle_beta 113.458117
_cell_angle_gamma 90.000000
_cell_volume 3305.387550
_symmetry_space_group_name_H-M "C 2/M"
_symmetry_group_IT_number 12
_symmetry_cell_setting 'monoclinic'
loop_
_space_group_symop_operation_xyz
x,y,z
-x,y,-z
-x,-y,-z
x,-y,z
1/2+x,1/2+y,z
1/2-x,1/2+y,-z
1/2-x,1/2-y,-z
1/2+x,1/2-y,z
loop_
_atom_site_type_symbol
_atom_site_label
_atom_site_fract_x
_atom_site_fract_y
_atom_site_fract_z
Si Si1 0.825008 0.120858 0.099725
Si Si2 0.193467 0.239205 0.085055
Si Si3 0.539813 0.369113 0.428389
Si Si4 0.294841 0.367359 0.539028
Si Si5 0.013657 0.199974 0.782642
Si Si6 0.446310 0.131431 0.051798
Si Si7 0.141903 0.875205 0.230749
O O1 0.775136 0.212897 0.120680
O O2 0.910413 0.134312 0.166399
O O3 0.798661 0.000000 0.113301
O O4 0.814226 0.139307 0.989248
O O5 0.170760 0.207122 0.171303
O O6 0.135081 0.327806 0.015893
O O7 0.500000 0.344946 0.500000
O O8 0.525682 0.500000 0.399192
O O9 0.628246 0.357243 0.474923
O O10 0.507688 0.296490 0.331330
O O11 0.268289 0.500000 0.509571
O O12 0.250000 0.250000 0.500000
O O13 0.317138 0.364034 0.654149
O O14 0.028127 0.313354 0.843442
O O15 0.944061 0.143326 0.793820
O O16 0.449406 0.000000 0.059136
O O17 0.500000 0.169210 0.000000
O O18 0.153155 0.000000 0.203628
#
# Coordination Sequence:
#
# PCOD9182418 Si02
#       7
#     8   8   8   8   8   8   8
#     4  10  20  32  49  73 106 136 167 216 260 306
#     4  10  20  33  48  75 103 138 177 209 257 317
#     4   9  18  34  57  80 106 139 176 223 275 325
#     4   9  19  36  57  81 109 138 175 224 276 328
#     4  10  19  34  54  79 103 132 178 219 263 315
#     4  10  19  33  51  72 106 144 177 212 258 315
#     4  10  19  34  55  77 103 134 173 221 268 315
#
# _framework density 16.942038
#
# number of rings (size 3 to 8) (size 9 to 14) (size 15 to 20)
#    0.000    2.286    1.429    3.000    0.000    1.143 
#    0.000    8.571    0.000    1.714    0.000    0.000 
#    0.000    0.000    0.000    0.000    0.000    0.000 
#
# Total GULP energy -155870.282648 kJ/mol
# GULP energy per Si atom -5566.795809 kJ/mol
# Density = 1.690348 g / cm^3
# Si number density = 16.942038 Si / 1000 Ang^3
#
#
#
# Elastic Constant Matrix: (Units=GPa)
#
#
# Indices 1 2 3 4 5 6 
#
# 1 90.9220 31.1172 46.5191 0.0000 -8.4259 0.0000
# 2 31.1172 81.5727 41.4327 0.0000 5.8724 0.0000
# 3 46.5191 41.4327 62.7348 0.0000 -9.8070 0.0000
# 4 0.0000 0.0000 0.0000 14.8067 0.0000 -4.6999
# 5 -8.4259 5.8724 -9.8070 0.0000 28.6504 0.0000
# 6 0.0000 0.0000 0.0000 -4.6999 0.0000 12.5673
#
#
#
# Elastic Compliance Matrix: (Units=1/GPa)
#
#
# Indices 1 2 3 4 5 6 
#
# 1 0.017743 -0.000336 -0.012793 0.000000 0.000908 0.000000
# 2 -0.000336 0.020589 -0.014817 0.000000 -0.009391 0.000000
# 3 -0.012793 -0.014817 0.037083 0.000000 0.011968 0.000000
# 4 0.000000 0.000000 0.000000 0.076634 0.000000 0.028660
# 5 0.000908 -0.009391 0.011968 0.000000 0.041192 0.000000
# 6 0.000000 0.000000 0.000000 0.028660 0.000000 0.090290
#
#
# Mechanical properties :
#
#
# Convention : Reuss Voigt Hill
#
# Bulk Modulus (GPa) = 51.22013 52.59638 51.90826
# Shear Modulus (GPa) = 14.45380 18.94890 16.70135
#
# Velocity S-wave (km/s) = 2.92401 3.34796 3.14314
# Velocity P-wave (km/s) = 6.45740 6.78656 6.62402
#
# Compressibility (1/GPa) = 0.01952357
#
# Stress axis : x y z
#
# Youngs Moduli (GPa) = 56.36060 48.56982 26.96654
#
# Poissons Ratio (x) = 0.01631 0.34498
# Poissons Ratio (y) = 0.01892 0.39956
# Poissons Ratio (z) = 0.72102 0.71965
#
# Static dielectric constant tensor:
#      x y z
#    x 1.580370 0.000000 -0.001140 
#    y 0.000000 1.591740 0.000000 
#    z -0.001140 0.000000 1.560380 
# 
# From -- ./inp_files/223180.got.cif
#   From: 2010.05.17/outbox.cif.g08.bks.cpg/sg12_112_cif.got.tgz:223180.got - 2010.06.03 13:09:07.
