data_PCOD9182520
_publ_section_title
;
Structure prediction by ZEFSAII (Michael W. Deem and Ramdas Pophale) SiO2 
 PCOD9182520
Probable space group: C 2/M
;
_chemical_formula_sum "Si O2"
_cell_formula_units_Z 64
_cell_length_a 14.550166
_cell_length_b 8.634663
_cell_length_c 29.952968
_cell_angle_alpha 90.000000
_cell_angle_beta 104.259401
_cell_angle_gamma 90.000000
_cell_volume 3647.223312
_symmetry_space_group_name_H-M "C 2/M"
_symmetry_group_IT_number 12
_symmetry_cell_setting 'monoclinic'
loop_
_space_group_symop_operation_xyz
x,y,z
-x,y,-z
-x,-y,-z
x,-y,z
1/2+x,1/2+y,z
1/2-x,1/2+y,-z
1/2-x,1/2-y,-z
1/2+x,1/2-y,z
loop_
_atom_site_type_symbol
_atom_site_label
_atom_site_fract_x
_atom_site_fract_y
_atom_site_fract_z
Si Si1 0.650009 0.314141 0.301388
Si Si2 0.041504 0.186140 0.377878
Si Si3 0.705646 0.313972 0.126345
Si Si4 0.971928 0.312576 0.947038
Si Si5 0.397409 0.185316 0.800819
Si Si6 0.084988 0.688016 0.873928
Si Si7 0.275627 0.185097 0.551486
Si Si8 0.163896 0.686109 0.621732
O O1 0.647322 0.500000 0.295948
O O2 0.576436 0.271855 0.332028
O O3 0.625869 0.237687 0.251686
O O4 0.754385 0.272393 0.332495
O O5 0.121755 0.253575 0.420269
O O6 0.938167 0.250111 0.376788
O O7 0.042466 0.000000 0.381355
O O8 0.704314 0.500000 0.125808
O O9 0.627923 0.252115 0.082149
O O10 0.673873 0.255841 0.171233
O O11 0.810702 0.257672 0.126324
O O12 0.966609 0.500000 0.946005
O O13 0.048923 0.265428 0.918768
O O14 0.000000 0.262322 0.000000
O O15 0.892898 0.500000 0.803559
O O16 0.502781 0.235039 0.829423
O O17 0.087574 0.500000 0.873880
O O18 0.224402 0.500000 0.448954
O O19 0.250000 0.250000 0.500000
O O20 0.200762 0.245911 0.579298
O O21 0.161244 0.500000 0.618103
#
# Coordination Sequence:
#
# PCOD9182520 Si02
#       8
#     8   8   8   8   8   8   8   8
#     4   9  20  37  55  78 110 141 174 218 266 313
#     4  10  21  38  58  83 113 144 181 225 270 323
#     4  10  19  33  52  73 101 133 169 213 258 304
#     4   9  18  34  53  73 101 134 167 206 254 309
#     4  10  20  35  54  75 102 136 175 212 256 313
#     4   8  17  33  50  71 100 134 167 205 255 306
#     4  11  22  38  59  83 112 146 184 227 275 325
#     4  10  21  38  58  82 112 146 183 225 272 322
#
# _framework density 17.547595000000001
#
# number of rings (size 3 to 8) (size 9 to 14) (size 15 to 20)
#    0.000    2.375    0.000    4.125    0.000    5.250 
#    0.000   12.500    0.000    0.000    0.000    0.000 
#    0.000    0.000    0.000    0.000    0.000    0.000 
#
# Total GULP energy -178575.106588 kJ/mol
# GULP energy per Si atom -5580.472081 kJ/mol
# Density = 1.750766 g / cm^3
# Si number density = 17.547595 Si / 1000 Ang^3
#
#
#
# Elastic Constant Matrix: (Units=GPa)
#
#
# Indices 1 2 3 4 5 6 
#
# 1 198.0812 51.6827 103.4815 0.0000 -7.2880 0.0000
# 2 51.6827 62.3155 56.1888 0.0000 -1.2362 0.0000
# 3 103.4815 56.1888 187.7152 0.0000 0.4312 0.0000
# 4 0.0000 0.0000 0.0000 31.0458 0.0000 2.6796
# 5 -7.2880 -1.2362 0.4312 0.0000 5.6467 0.0000
# 6 0.0000 0.0000 0.0000 2.6796 0.0000 28.3639
#
#
#
# Elastic Compliance Matrix: (Units=1/GPa)
#
#
# Indices 1 2 3 4 5 6 
#
# 1 0.008123 -0.003397 -0.003484 0.000000 0.010007 0.000000
# 2 -0.003397 0.023561 -0.005183 0.000000 0.001170 0.000000
# 3 -0.003484 -0.005183 0.008814 0.000000 -0.006305 0.000000
# 4 0.000000 0.000000 0.000000 0.032475 0.000000 -0.003068
# 5 0.010007 0.001170 -0.006305 0.000000 0.190749 0.000000
# 6 0.000000 0.000000 0.000000 -0.003068 0.000000 0.035546
#
#
# Mechanical properties :
#
#
# Convention : Reuss Voigt Hill
#
# Bulk Modulus (GPa) = 61.08590 96.75758 78.92174
# Shear Modulus (GPa) = 15.20439 28.79520 21.99980
#
# Velocity S-wave (km/s) = 2.94677 4.05529 3.54463
# Velocity P-wave (km/s) = 6.81653 8.78561 7.86295
#
# Compressibility (1/GPa) = 0.01637039
#
# Stress axis : x y z
#
# Youngs Moduli (GPa) = 123.10492 42.44313 113.45911
#
# Poissons Ratio (x) = 0.14418 0.39532
# Poissons Ratio (y) = 0.41818 0.58801
# Poissons Ratio (z) = 0.42893 0.21996
#
# Static dielectric constant tensor:
#      x y z
#    x 1.581870 0.000000 -0.001220 
#    y 0.000000 1.593850 0.000000 
#    z -0.001220 0.000000 1.572300 
# 
# From -- ./inp_files/359867.got.cif
#   From: 2010.05.17/outbox.cif.g08.bks.cpg/sg12_180_cif.got.tgz:359867.got - 2010.06.03 13:09:07.
