data_PCOD9182788
_publ_section_title
;
Structure prediction by ZEFSAII (Michael W. Deem and Ramdas Pophale) SiO2 
 PCOD9182788
Probable space group: C 2/M
;
_chemical_formula_sum "Si O2"
_cell_formula_units_Z 56
_cell_length_a 19.323712
_cell_length_b 7.848592
_cell_length_c 19.810482
_cell_angle_alpha 90.000000
_cell_angle_beta 59.932057
_cell_angle_gamma 90.000000
_cell_volume 2600.220880
_symmetry_space_group_name_H-M "C 2/M"
_symmetry_group_IT_number 12
_symmetry_cell_setting 'monoclinic'
loop_
_space_group_symop_operation_xyz
x,y,z
-x,y,-z
-x,-y,-z
x,-y,z
1/2+x,1/2+y,z
1/2-x,1/2+y,-z
1/2-x,1/2-y,-z
1/2+x,1/2-y,z
loop_
_atom_site_type_symbol
_atom_site_label
_atom_site_fract_x
_atom_site_fract_y
_atom_site_fract_z
Si Si1 0.920602 0.201028 0.749663
Si Si2 0.747356 0.802732 0.833765
Si Si3 0.926448 0.700442 0.239029
Si Si4 0.176395 0.295262 0.489257
Si Si5 0.427994 0.791554 0.082530
Si Si6 0.498069 0.205806 0.422574
Si Si7 0.746091 0.302324 0.682147
O O1 0.833210 0.273352 0.812019
O O2 0.995627 0.273048 0.753906
O O3 0.937593 0.229072 0.661921
O O4 0.918977 0.000000 0.762791
O O5 0.660644 0.729502 0.895706
O O6 0.747050 0.794950 0.752213
O O7 0.747291 0.000000 0.855308
O O8 0.907656 0.500000 0.248447
O O9 0.941850 0.755221 0.153967
O O10 0.844797 0.791629 0.301280
O O11 0.172534 0.500000 0.486485
O O12 0.250000 0.250000 0.500000
O O13 0.090485 0.238869 0.557959
O O14 0.195564 0.234058 0.404156
O O15 0.426207 0.000000 0.081260
O O16 0.500000 0.733777 0.000000
O O17 0.500000 0.257504 0.500000
O O18 0.504302 0.000000 0.418268
O O19 0.765607 0.500000 0.686622
#
# Coordination Sequence:
#
# PCOD9182788 Si02
#       7
#     8   8   8   8   8   8   8
#     4  11  22  35  51  75 108 141 176 217 259 306
#     4   9  19  34  53  77 103 134 169 206 251 303
#     4  10  20  34  54  79 106 138 174 212 258 309
#     4  10  21  33  47  69  95 126 165 212 260 302
#     4   8  15  32  58  82 102 130 170 210 251 307
#     4  10  21  37  54  72  98 135 179 223 265 307
#     4  10  19  33  53  75  99 130 171 215 260 310
#
# _framework density 21.536633999999999
#
# number of rings (size 3 to 8) (size 9 to 14) (size 15 to 20)
#    0.000    2.286    0.000    3.857    0.000    6.571 
#    0.000    0.714    0.000   10.714    0.000    0.000 
#    0.000    0.000    0.000    0.000    0.000    0.000 
#
# Total GULP energy -156309.001234 kJ/mol
# GULP energy per Si atom -5582.464330 kJ/mol
# Density = 2.148762 g / cm^3
# Si number density = 21.536634 Si / 1000 Ang^3
#
#
#
# Elastic Constant Matrix: (Units=GPa)
#
#
# Indices 1 2 3 4 5 6 
#
# 1 96.5036 -6.1101 15.8286 -0.0006 -25.9722 -0.0021
# 2 -6.1101 31.4573 0.4333 -0.0010 -0.7735 -0.0055
# 3 15.8286 0.4333 88.2426 0.0000 -33.6337 -0.0002
# 4 -0.0006 -0.0010 0.0000 4.8293 0.0001 -0.4839
# 5 -25.9722 -0.7735 -33.6337 0.0001 36.4639 -0.0001
# 6 -0.0021 -0.0055 -0.0002 -0.4839 -0.0001 10.4857
#
#
#
# Elastic Compliance Matrix: (Units=1/GPa)
#
#
# Indices 1 2 3 4 5 6 
#
# 1 0.013259 0.002826 0.001897 0.000002 0.011254 0.000004
# 2 0.002826 0.032409 0.000560 0.000009 0.003217 0.000018
# 3 0.001897 0.000560 0.017749 0.000000 0.017734 0.000001
# 4 0.000002 0.000009 0.000000 0.208030 0.000001 0.009600
# 5 0.011254 0.003217 0.017734 0.000001 0.051866 0.000005
# 6 0.000004 0.000018 0.000001 0.009600 0.000005 0.095811
#
#
# Mechanical properties :
#
#
# Convention : Reuss Voigt Hill
#
# Bulk Modulus (GPa) = 13.51657 26.27856 19.89756
# Shear Modulus (GPa) = 11.54149 24.09256 17.81702
#
# Velocity S-wave (km/s) = 2.31746 3.34829 2.87938
# Velocity P-wave (km/s) = 3.66750 5.21310 4.50705
#
# Compressibility (1/GPa) = 0.07398328
#
# Stress axis : x y z
#
# Youngs Moduli (GPa) = 75.42172 30.85528 56.34177
#
# Poissons Ratio (x) = -0.08719 -0.10689
# Poissons Ratio (y) = -0.21313 -0.03156
# Poissons Ratio (z) = -0.14309 -0.01728
#
# Static dielectric constant tensor:
#      x y z
#    x 1.836150 0.000000 -0.028090 
#    y 0.000000 1.794160 0.000000 
#    z -0.028090 0.000000 1.764470 
# 
# From -- ./inp_files/313810.got.cif
#   From: 2010.05.17/outbox.cif.g08.bks.cpg/sg12_157_cif.got.tgz:313810.got - 2010.06.03 13:09:07.
