data_PCOD9182159
_publ_section_title
;
Structure prediction by ZEFSAII (Michael W. Deem and Ramdas Pophale) SiO2 
 PCOD9182159
Probable space group: C 2/M
;
_chemical_formula_sum "Si O2"
_cell_formula_units_Z 64
_cell_length_a 30.799451
_cell_length_b 15.762507
_cell_length_c 21.069348
_cell_angle_alpha 90.000000
_cell_angle_beta 19.274400
_cell_angle_gamma 90.000000
_cell_volume 3376.410472
_symmetry_space_group_name_H-M "C 2/M"
_symmetry_group_IT_number 12
_symmetry_cell_setting 'monoclinic'
loop_
_space_group_symop_operation_xyz
x,y,z
-x,y,-z
-x,-y,-z
x,-y,z
1/2+x,1/2+y,z
1/2-x,1/2+y,-z
1/2-x,1/2-y,-z
1/2+x,1/2-y,z
loop_
_atom_site_type_symbol
_atom_site_label
_atom_site_fract_x
_atom_site_fract_y
_atom_site_fract_z
Si Si1 0.747703 0.313872 0.312693
Si Si2 0.163377 0.301033 0.670798
Si Si3 0.205877 0.265922 0.957087
Si Si4 0.416649 0.099413 0.972875
Si Si5 0.052842 0.164456 0.989645
Si Si6 0.204210 0.092023 0.882794
Si Si7 0.523192 0.909817 0.543727
Si Si8 0.452287 0.732908 0.698471
O O1 0.759069 0.329470 0.372686
O O2 0.833767 0.378584 0.151428
O O3 0.818260 0.222710 0.202062
O O4 0.595574 0.310064 0.500868
O O5 0.250000 0.250000 0.500000
O O6 0.069819 0.374687 0.771597
O O7 0.056694 0.233537 0.842706
O O8 0.142956 0.336262 0.997809
O O9 0.229110 0.177398 0.887866
O O10 0.340768 0.299449 0.803344
O O11 0.108671 0.237907 0.147566
O O12 0.403966 0.000000 0.974967
O O13 0.074998 0.106903 0.019927
O O14 0.000000 0.118812 0.000000
O O15 0.320128 0.087497 0.671056
O O16 0.203345 0.000000 0.917493
O O17 0.500000 0.903212 0.500000
O O18 0.470881 0.830232 0.652161
O O19 0.468199 0.000000 0.641702
#
# Coordination Sequence:
#
# PCOD9182159 Si02
#       8
#     8   8   8   8   8   8   8   8
#     4  10  20  36  61  89 116 157 208 251 295 361
#     4  10  20  37  64  89 120 155 200 253 304 356
#     4  11  23  39  58  90 125 163 206 255 312 372
#     4  11  23  42  66  90 122 166 210 251 300 364
#     4   9  18  34  56  84 115 151 188 245 303 361
#     4  11  20  35  59  85 116 153 195 248 307 363
#     4  10  19  32  56  86 111 144 201 253 291 359
#     4  11  22  37  61  85 122 168 202 254 320 361
#
# _framework density 18.955041000000001
#
# number of rings (size 3 to 8) (size 9 to 14) (size 15 to 20)
#    0.000    1.625    5.000    1.875    0.000    1.750 
#    0.000    4.375    0.000    0.000    0.000    0.000 
#    0.000    0.000    0.000    0.000    0.000    0.000 
#
# Total GULP energy -178225.489418 kJ/mol
# GULP energy per Si atom -5569.546544 kJ/mol
# Density = 1.891190 g / cm^3
# Si number density = 18.955041 Si / 1000 Ang^3
#
#
#
# Elastic Constant Matrix: (Units=GPa)
#
#
# Indices 1 2 3 4 5 6 
#
# 1 92.9701 35.6467 26.3399 0.0000 -10.1514 0.0000
# 2 35.6467 97.4638 14.3598 0.0001 -6.2865 0.0000
# 3 26.3399 14.3598 68.6616 0.0002 -11.4211 -0.0001
# 4 0.0000 0.0001 0.0002 10.5871 -0.0001 5.0760
# 5 -10.1514 -6.2865 -11.4211 -0.0001 27.5132 0.0000
# 6 0.0000 0.0000 -0.0001 5.0760 0.0000 -7.0783
#
#
#
# Elastic Compliance Matrix: (Units=1/GPa)
#
#
# Indices 1 2 3 4 5 6 
#
# 1 0.013804 -0.004303 -0.003987 0.000000 0.002455 0.000000
# 2 -0.004303 0.011995 -0.000716 0.000000 0.000856 0.000000
# 3 -0.003987 -0.000716 0.017156 0.000000 0.005487 0.000000
# 4 0.000000 0.000000 0.000000 0.070288 0.000000 0.050405
# 5 0.002455 0.000856 0.005487 0.000000 0.039725 0.000000
# 6 0.000000 0.000000 0.000000 0.050405 0.000000 -0.105130
#
#
# Mechanical properties :
#
#
# Convention : Reuss Voigt Hill
#
# Bulk Modulus (GPa) = 40.09074 45.75428 42.92251
# Shear Modulus (GPa) = 67.41900 18.38766 42.90333
#
# Velocity S-wave (km/s) = 5.97035 3.11797 4.76271
# Velocity P-wave (km/s) = 8.28994 6.09533 7.27585
#
# Compressibility (1/GPa) = 0.02494342
#
# Stress axis : x y z
#
# Youngs Moduli (GPa) = 72.44499 83.37105 58.28837
#
# Poissons Ratio (x) = 0.35873 0.23240
# Poissons Ratio (y) = 0.31172 0.04171
# Poissons Ratio (z) = 0.28885 0.05965
#
# Static dielectric constant tensor:
#      x y z
#    x 1.741590 0.000000 -0.052980 
#    y 0.000000 1.652580 0.000000 
#    z -0.052980 0.000000 1.708930 
# 
# From -- ./inp_files/330491.got.cif
#   From: 2010.05.17/outbox.cif.g08.bks.cpg/sg12_166_cif.got.tgz:330491.got - 2010.06.03 13:09:07.
