data_PCOD9182131
_publ_section_title
;
Structure prediction by ZEFSAII (Michael W. Deem and Ramdas Pophale) SiO2 
 PCOD9182131
Probable space group: C 2/M
;
_chemical_formula_sum "Si O2"
_cell_formula_units_Z 56
_cell_length_a 31.391648
_cell_length_b 7.539503
_cell_length_c 20.886656
_cell_angle_alpha 90.000000
_cell_angle_beta 28.061761
_cell_angle_gamma 90.000000
_cell_volume 2325.489269
_symmetry_space_group_name_H-M "C 2/M"
_symmetry_group_IT_number 12
_symmetry_cell_setting 'monoclinic'
loop_
_space_group_symop_operation_xyz
x,y,z
-x,y,-z
-x,-y,-z
x,-y,z
1/2+x,1/2+y,z
1/2-x,1/2+y,-z
1/2-x,1/2-y,-z
1/2+x,1/2-y,z
loop_
_atom_site_type_symbol
_atom_site_label
_atom_site_fract_x
_atom_site_fract_y
_atom_site_fract_z
Si Si1 0.716491 0.284364 0.385791
Si Si2 0.053812 0.718588 0.098664
Si Si3 0.905910 0.284290 0.097076
Si Si4 0.133527 0.788359 0.364641
Si Si5 0.648909 0.199445 0.610138
Si Si6 0.336364 0.195294 0.927822
Si Si7 0.928512 0.211997 0.683716
O O1 0.708088 0.500000 0.399135
O O2 0.821205 0.231555 0.252704
O O3 0.690563 0.222941 0.348807
O O4 0.657110 0.211999 0.522247
O O5 0.050844 0.500000 0.106907
O O6 0.117815 0.784762 0.071522
O O7 0.948780 0.782064 0.242049
O O8 0.097352 0.765542 0.972943
O O9 0.906014 0.500000 0.098043
O O10 0.000000 0.220449 0.000000
O O11 0.137158 0.722735 0.286716
O O12 0.030216 0.763588 0.524489
O O13 0.150550 0.000000 0.337535
O O14 0.750000 0.250000 0.500000
O O15 0.640493 0.000000 0.645149
O O16 0.413063 0.197937 0.771525
O O17 0.311767 0.000000 0.983144
O O18 0.250000 0.250000 0.000000
O O19 0.915617 0.000000 0.709352
#
# Coordination Sequence:
#
# PCOD9182131 Si02
#       7
#     8   8   8   8   8   8   8
#     4  10  19  32  56  83 107 140 186 230 278 335
#     4   9  20  37  58  84 114 152 194 237 283 340
#     4   9  17  31  54  82 108 138 183 233 276 330
#     4   8  16  30  53  82 106 139 181 227 279 332
#     4  11  22  38  60  86 116 148 187 236 291 347
#     4  11  23  37  55  80 112 152 196 237 284 337
#     4   9  17  33  54  77 109 141 181 231 278 329
#
# _framework density 24.080954999999999
#
# number of rings (size 3 to 8) (size 9 to 14) (size 15 to 20)
#    0.000    2.429    0.000    3.429    2.000    2.286 
#    0.000    4.286    0.000    4.714    0.000    0.000 
#    0.000    0.000    0.000    0.000    0.000    0.000 
#
# Total GULP energy -156219.020391 kJ/mol
# GULP energy per Si atom -5579.250728 kJ/mol
# Density = 2.402615 g / cm^3
# Si number density = 24.080955 Si / 1000 Ang^3
#
#
#
# Elastic Constant Matrix: (Units=GPa)
#
#
# Indices 1 2 3 4 5 6 
#
# 1 92.4639 -1.6905 -6.4254 0.0021 -1.2069 -0.0015
# 2 -1.6905 47.7729 0.6615 0.0008 -13.8833 -0.0008
# 3 -6.4254 0.6615 70.1954 -0.0056 3.7637 -0.0161
# 4 0.0021 0.0008 -0.0056 11.3483 -0.0041 2.9723
# 5 -1.2069 -13.8833 3.7637 -0.0041 40.6493 0.0027
# 6 -0.0015 -0.0008 -0.0161 2.9723 0.0027 6.9854
#
#
#
# Elastic Compliance Matrix: (Units=1/GPa)
#
#
# Indices 1 2 3 4 5 6 
#
# 1 0.010897 0.000489 0.000971 -0.000003 0.000400 0.000006
# 2 0.000489 0.023290 -0.000605 0.000001 0.008025 -0.000002
# 3 0.000971 -0.000605 0.014422 -0.000003 -0.001513 0.000035
# 4 -0.000003 0.000001 -0.000003 0.099172 0.000013 -0.042198
# 5 0.000400 0.008025 -0.001513 0.000013 0.027493 -0.000019
# 6 0.000006 -0.000002 0.000035 -0.042198 -0.000019 0.161112
#
#
# Mechanical properties :
#
#
# Convention : Reuss Voigt Hill
#
# Bulk Modulus (GPa) = 19.87349 21.72480 20.79915
# Shear Modulus (GPa) = 14.22682 26.32236 20.27459
#
# Velocity S-wave (km/s) = 2.43326 3.30976 2.90476
# Velocity P-wave (km/s) = 4.02057 4.86284 4.46162
#
# Compressibility (1/GPa) = 0.05031828
#
# Stress axis : x y z
#
# Youngs Moduli (GPa) = 91.77094 42.93655 69.33997
#
# Poissons Ratio (x) = -0.02098 -0.06735
# Poissons Ratio (y) = -0.04483 0.04195
# Poissons Ratio (z) = -0.08914 0.02598
#
# Static dielectric constant tensor:
#      x y z
#    x 1.952710 0.000000 -0.049710 
#    y 0.000000 1.982990 0.000010 
#    z -0.049710 0.000010 1.907980 
# 
# From -- ./inp_files/329454.got.cif
#   From: 2010.05.17/outbox.cif.g08.bks.cpg/sg12_165_cif.got.tgz:329454.got - 2010.06.03 13:09:07.
