data_PCOD9182516
_publ_section_title
;
Structure prediction by ZEFSAII (Michael W. Deem and Ramdas Pophale) SiO2 
 PCOD9182516
Probable space group: C 2/M
;
_chemical_formula_sum "Si O2"
_cell_formula_units_Z 64
_cell_length_a 18.922417
_cell_length_b 23.678339
_cell_length_c 8.174160
_cell_angle_alpha 90.000000
_cell_angle_beta 87.149741
_cell_angle_gamma 90.000000
_cell_volume 3657.913069
_symmetry_space_group_name_H-M "C 2/M"
_symmetry_group_IT_number 12
_symmetry_cell_setting 'monoclinic'
loop_
_space_group_symop_operation_xyz
x,y,z
-x,y,-z
-x,-y,-z
x,-y,z
1/2+x,1/2+y,z
1/2-x,1/2+y,-z
1/2-x,1/2-y,-z
1/2+x,1/2-y,z
loop_
_atom_site_type_symbol
_atom_site_label
_atom_site_fract_x
_atom_site_fract_y
_atom_site_fract_z
Si Si1 0.172276 0.272405 0.673053
Si Si2 0.204604 0.163844 0.203035
Si Si3 0.117683 0.730250 0.310536
Si Si4 0.973234 0.127966 0.320664
Si Si5 0.754030 0.666449 0.822934
Si Si6 0.657587 0.565184 0.774262
Si Si7 0.107360 0.065478 0.157372
Si Si8 0.471560 0.752739 0.185535
O O1 0.232850 0.319546 0.681021
O O2 0.142458 0.265887 0.494801
O O3 0.209978 0.215752 0.735569
O O4 0.103045 0.283839 0.788783
O O5 0.142761 0.210554 0.227018
O O6 0.169365 0.103177 0.229216
O O7 0.236450 0.170091 0.017347
O O8 0.164789 0.681444 0.222301
O O9 0.034418 0.724764 0.293892
O O10 0.033490 0.093976 0.215484
O O11 0.000000 0.139572 0.500000
O O12 0.902369 0.090975 0.335054
O O13 0.958195 0.187445 0.235489
O O14 0.725001 0.606265 0.767084
O O15 0.673119 0.500000 0.738558
O O16 0.622637 0.568797 0.960785
O O17 0.107856 0.000000 0.205098
O O18 0.500000 0.755544 0.000000
#
# Coordination Sequence:
#
# PCOD9182516 Si02
#       8
#     8   8   8   8   8   8   8   8
#     4  11  21  33  51  75 103 130 165 212 259 302
#     4  10  19  33  52  73 100 136 173 207 250 301
#     4  11  21  33  51  75 103 130 165 212 259 302
#     4  12  23  33  48  73 104 137 175 215 254 295
#     4  10  19  33  52  73 100 136 173 207 250 301
#     4  10  21  36  53  72 100 140 180 213 247 293
#     4  10  21  36  53  72 100 140 180 213 247 293
#     4  12  22  35  53  74 101 136 172 207 254 314
#
# _framework density 17.496316
#
# number of rings (size 3 to 8) (size 9 to 14) (size 15 to 20)
#    0.000    1.250    2.500    7.125    0.000    3.000 
#    0.000    0.000    0.000    0.000    0.000    0.875 
#    0.000    7.000    0.000    0.000    0.000    0.000 
#
# Total GULP energy -178859.416241 kJ/mol
# GULP energy per Si atom -5589.356758 kJ/mol
# Density = 1.745649 g / cm^3
# Si number density = 17.496316 Si / 1000 Ang^3
#
#
#
# Elastic Constant Matrix: (Units=GPa)
#
#
# Indices 1 2 3 4 5 6 
#
# 1 71.9501 20.5530 -8.7722 0.0000 10.4599 0.0000
# 2 20.5530 47.4369 -0.9759 0.0000 6.6674 0.0000
# 3 -8.7722 -0.9759 36.6715 0.0000 6.1445 0.0000
# 4 0.0000 0.0000 0.0000 0.9711 0.0000 9.4245
# 5 10.4599 6.6674 6.1445 0.0000 28.4713 0.0000
# 6 0.0000 0.0000 0.0000 9.4245 0.0000 11.8683
#
#
#
# Elastic Compliance Matrix: (Units=1/GPa)
#
#
# Indices 1 2 3 4 5 6 
#
# 1 0.017218 -0.006535 0.004926 0.000000 -0.005858 0.000000
# 2 -0.006535 0.024357 -0.000375 0.000000 -0.003222 0.000000
# 3 0.004926 -0.000375 0.029804 0.000000 -0.008154 0.000000
# 4 0.000000 0.000000 0.000000 -0.153545 0.000000 0.121928
# 5 -0.005858 -0.003222 -0.008154 0.000000 0.039790 0.000000
# 6 0.000000 0.000000 0.000000 0.121928 0.000000 -0.012564
#
#
# Mechanical properties :
#
#
# Convention : Reuss Voigt Hill
#
# Bulk Modulus (GPa) = 14.83445 19.74090 17.28768
# Shear Modulus (GPa) = -175.42424 17.94574 -78.73925
#
# Velocity S-wave (km/s) = -10.02403 3.20611 -6.71573
# Velocity P-wave (km/s) = 11.20169 5.00129 7.08749
#
# Compressibility (1/GPa) = 0.06741067
#
# Stress axis : x y z
#
# Youngs Moduli (GPa) = 58.08013 41.05549 33.55273
#
# Poissons Ratio (x) = 0.26830 -0.16529
# Poissons Ratio (y) = 0.37956 0.01259
# Poissons Ratio (z) = -0.28612 0.01540
#
# Static dielectric constant tensor:
#      x y z
#    x 1.607360 0.000000 -0.006580 
#    y 0.000000 1.572950 0.000000 
#    z -0.006580 0.000000 1.645080 
# 
# From -- ./inp_files/78831.got.cif
#   From: 2010.05.17/outbox.cif.g08.bks.cpg/sg12_40_cif.got.tgz:78831.got - 2010.06.03 13:09:07.
