data_PCOD9182808
_publ_section_title
;
Structure prediction by ZEFSAII (Michael W. Deem and Ramdas Pophale) SiO2 
 PCOD9182808
Probable space group: C 2/M
;
_chemical_formula_sum "Si O2"
_cell_formula_units_Z 64
_cell_length_a 25.333042
_cell_length_b 12.853239
_cell_length_c 12.230836
_cell_angle_alpha 90.000000
_cell_angle_beta 114.077233
_cell_angle_gamma 90.000000
_cell_volume 3636.010383
_symmetry_space_group_name_H-M "C 2/M"
_symmetry_group_IT_number 12
_symmetry_cell_setting 'monoclinic'
loop_
_space_group_symop_operation_xyz
x,y,z
-x,y,-z
-x,-y,-z
x,-y,z
1/2+x,1/2+y,z
1/2-x,1/2+y,-z
1/2-x,1/2-y,-z
1/2+x,1/2-y,z
loop_
_atom_site_type_symbol
_atom_site_label
_atom_site_fract_x
_atom_site_fract_y
_atom_site_fract_z
Si Si1 0.004829 0.622034 0.629526
Si Si2 0.311197 0.377676 0.247346
Si Si3 0.374947 0.119434 0.608245
Si Si4 0.311964 0.122611 0.956316
Si Si5 0.724800 0.781123 0.597576
Si Si6 0.895182 0.247187 0.171682
Si Si7 0.656167 0.732160 0.217508
Si Si8 0.437992 0.377128 0.995173
O O1 0.021261 0.500000 0.644060
O O2 0.052895 0.686357 0.734040
O O3 0.000000 0.656755 0.500000
O O4 0.940931 0.630180 0.626359
O O5 0.317405 0.500000 0.274533
O O6 0.257181 0.365507 0.116920
O O7 0.296090 0.315714 0.345824
O O8 0.366860 0.328339 0.237240
O O9 0.329283 0.144659 0.472803
O O10 0.363005 0.203457 0.692384
O O11 0.365402 0.000000 0.637137
O O12 0.336413 0.180910 0.870195
O O13 0.324857 0.000000 0.966718
O O14 0.343594 0.178216 0.083839
O O15 0.750000 0.750000 0.500000
O O16 0.781658 0.821215 0.708794
O O17 0.919742 0.182556 0.089653
O O18 0.609392 0.651208 0.136001
O O19 0.439688 0.500000 0.017563
O O20 0.500000 0.343485 0.000000
#
# Coordination Sequence:
#
# PCOD9182808 Si02
#       8
#     8   8   8   8   8   8   8   8
#     4  10  21  35  52  75 103 135 170 214 267 316
#     4  10  20  35  54  77 107 140 175 216 259 309
#     4  10  19  33  53  76 103 135 172 215 265 318
#     4   9  18  32  52  79 108 134 164 211 266 316
#     4   9  19  34  54  79 105 135 172 213 262 311
#     4  11  20  34  56  77 104 140 179 217 261 315
#     4   9  18  33  53  78 104 135 174 213 260 317
#     4  10  21  36  53  75 106 143 181 222 264 306
#
# _framework density 17.601710000000001
#
# number of rings (size 3 to 8) (size 9 to 14) (size 15 to 20)
#    0.000    2.250    0.000    3.000    0.000    3.500 
#    0.000    2.500    0.000   16.500    0.000    0.000 
#    0.000    0.000    0.000    0.000    0.000    0.000 
#
# Total GULP energy -178393.568029 kJ/mol
# GULP energy per Si atom -5574.799001 kJ/mol
# Density = 1.756165 g / cm^3
# Si number density = 17.601710 Si / 1000 Ang^3
#
#
#
# Elastic Constant Matrix: (Units=GPa)
#
#
# Indices 1 2 3 4 5 6 
#
# 1 85.0636 32.8921 38.5603 0.0000 8.1762 0.0000
# 2 32.8921 45.3500 32.2993 0.0000 7.3548 0.0000
# 3 38.5603 32.2993 91.5652 0.0000 10.3005 0.0000
# 4 0.0000 0.0000 0.0000 27.2116 0.0000 3.5783
# 5 8.1762 7.3548 10.3005 0.0000 23.9706 0.0000
# 6 0.0000 0.0000 0.0000 3.5783 0.0000 18.6462
#
#
#
# Elastic Compliance Matrix: (Units=1/GPa)
#
#
# Indices 1 2 3 4 5 6 
#
# 1 0.017321 -0.009694 -0.003725 0.000000 -0.001333 0.000000
# 2 -0.009694 0.035410 -0.007942 0.000000 -0.004145 0.000000
# 3 -0.003725 -0.007942 0.015630 0.000000 -0.003009 0.000000
# 4 0.000000 0.000000 0.000000 0.037700 0.000000 -0.007235
# 5 -0.001333 -0.004145 -0.003009 0.000000 0.044737 0.000000
# 6 0.000000 0.000000 0.000000 -0.007235 0.000000 0.055019
#
#
# Mechanical properties :
#
#
# Convention : Reuss Voigt Hill
#
# Bulk Modulus (GPa) = 39.00216 47.72024 43.36120
# Shear Modulus (GPa) = 19.44876 21.84749 20.64813
#
# Velocity S-wave (km/s) = 3.32766 3.52691 3.42873
# Velocity P-wave (km/s) = 6.08036 6.61479 6.35320
#
# Compressibility (1/GPa) = 0.02563960
#
# Stress axis : x y z
#
# Youngs Moduli (GPa) = 57.73391 28.24025 63.97968
#
# Poissons Ratio (x) = 0.27375 0.23832
# Poissons Ratio (y) = 0.55965 0.50815
# Poissons Ratio (z) = 0.21505 0.22430
#
# Static dielectric constant tensor:
#      x y z
#    x 1.601540 0.000000 0.010010 
#    y 0.000000 1.572530 0.000000 
#    z 0.010010 0.000000 1.599420 
# 
# From -- ./inp_files/175287.got.cif
#   From: 2010.05.17/outbox.cif.g08.bks.cpg/sg12_88_cif.got.tgz:175287.got - 2010.06.03 13:09:07.
