data_PCOD9182769
_publ_section_title
;
Structure prediction by ZEFSAII (Michael W. Deem and Ramdas Pophale) SiO2 
 PCOD9182769
Probable space group: C 2/M
;
_chemical_formula_sum "Si O2"
_cell_formula_units_Z 56
_cell_length_a 18.586562
_cell_length_b 9.362996
_cell_length_c 14.297794
_cell_angle_alpha 90.000000
_cell_angle_beta 82.125333
_cell_angle_gamma 90.000000
_cell_volume 2464.723291
_symmetry_space_group_name_H-M "C 2/M"
_symmetry_group_IT_number 12
_symmetry_cell_setting 'monoclinic'
loop_
_space_group_symop_operation_xyz
x,y,z
-x,y,-z
-x,-y,-z
x,-y,z
1/2+x,1/2+y,z
1/2-x,1/2+y,-z
1/2-x,1/2-y,-z
1/2+x,1/2-y,z
loop_
_atom_site_type_symbol
_atom_site_label
_atom_site_fract_x
_atom_site_fract_y
_atom_site_fract_z
Si Si1 0.857149 0.841746 0.441480
Si Si2 0.827338 0.666611 0.975650
Si Si3 0.764637 0.836730 0.291143
Si Si4 0.968332 0.833376 0.898596
Si Si5 0.509621 0.839375 0.611228
Si Si6 0.892435 0.663389 0.173163
Si Si7 0.871612 0.837376 0.662990
O O1 0.781737 0.834082 0.399671
O O2 0.910117 0.721466 0.392372
O O3 0.856146 0.834742 0.553364
O O4 0.888109 0.000000 0.412905
O O5 0.817696 0.500000 0.945513
O O6 0.889058 0.758224 0.909469
O O7 0.750000 0.750000 0.000000
O O8 0.864453 0.657832 0.071271
O O9 0.832444 0.759772 0.233148
O O10 0.691854 0.754304 0.280951
O O11 0.760240 0.000000 0.262566
O O12 0.029132 0.738333 0.835887
O O13 0.965375 0.000000 0.869685
O O14 0.000000 0.835058 0.000000
O O15 0.500000 0.840005 0.500000
O O16 0.449270 0.734208 0.661654
O O17 0.498887 0.000000 0.646162
O O18 0.894074 0.500000 0.207020
O O19 0.869580 0.000000 0.694150
#
# Coordination Sequence:
#
# PCOD9182769 Si02
#       7
#     8   8   8   8   8   8   8
#     4   9  19  34  52  75 102 136 178 222 268 318
#     4  10  20  35  58  86 113 140 173 214 257 307
#     4  11  22  35  52  76 107 140 177 222 267 312
#     4   9  17  32  56  82 107 137 171 206 248 302
#     4   9  17  30  50  74  98 126 165 214 263 312
#     4  10  21  37  55  78 109 143 177 213 260 314
#     4  10  19  33  53  75 103 139 178 221 270 320
#
# _framework density 22.720604999999999
#
# number of rings (size 3 to 8) (size 9 to 14) (size 15 to 20)
#    0.000    2.286    0.000    3.000    0.000    6.857 
#    0.000    1.429    0.000    8.571    0.000    0.000 
#    0.000    0.000    0.000    0.000    0.000    0.000 
#
# Total GULP energy -156494.157387 kJ/mol
# GULP energy per Si atom -5589.077050 kJ/mol
# Density = 2.266889 g / cm^3
# Si number density = 22.720605 Si / 1000 Ang^3
#
#
#
# Elastic Constant Matrix: (Units=GPa)
#
#
# Indices 1 2 3 4 5 6 
#
# 1 131.7579 86.6615 26.8823 0.0000 -21.7849 0.0000
# 2 86.6615 238.4657 29.7978 0.0000 -41.8542 0.0000
# 3 26.8823 29.7978 37.8816 0.0000 -1.8298 0.0000
# 4 0.0000 0.0000 0.0000 23.2007 0.0000 -16.6075
# 5 -21.7849 -41.8542 -1.8298 0.0000 48.3887 0.0000
# 6 0.0000 0.0000 0.0000 -16.6075 0.0000 35.3371
#
#
#
# Elastic Compliance Matrix: (Units=1/GPa)
#
#
# Indices 1 2 3 4 5 6 
#
# 1 0.010980 -0.002931 -0.005380 0.000000 0.002204 0.000000
# 2 -0.002931 0.006301 -0.002682 0.000000 0.004029 0.000000
# 3 -0.005380 -0.002682 0.032155 0.000000 -0.003526 0.000000
# 4 0.000000 0.000000 0.000000 0.064953 0.000000 0.030526
# 5 0.002204 0.004029 -0.003526 0.000000 0.025010 0.000000
# 6 0.000000 0.000000 0.000000 0.030526 0.000000 0.042645
#
#
# Mechanical properties :
#
#
# Convention : Reuss Voigt Hill
#
# Bulk Modulus (GPa) = 36.42898 77.19871 56.81384
# Shear Modulus (GPa) = 23.45449 39.03621 31.24535
#
# Velocity S-wave (km/s) = 3.21643 4.14949 3.71239
# Velocity P-wave (km/s) = 5.46463 7.55042 6.59056
#
# Compressibility (1/GPa) = 0.02745068
#
# Stress axis : x y z
#
# Youngs Moduli (GPa) = 91.07849 158.70771 31.09962
#
# Poissons Ratio (x) = 0.46517 0.16730
# Poissons Ratio (y) = 0.26695 0.08340
# Poissons Ratio (z) = 0.48996 0.42561
#
# Static dielectric constant tensor:
#      x y z
#    x 1.797720 0.000000 0.067160 
#    y 0.000000 1.790410 0.000000 
#    z 0.067160 0.000000 1.927970 
# 
# From -- ./inp_files/275282.got.cif
#   From: 2010.05.17/outbox.cif.g08.bks.cpg/sg12_138_cif.got.tgz:275282.got - 2010.06.03 13:09:07.
