data_PCOD9182495
_publ_section_title
;
Structure prediction by ZEFSAII (Michael W. Deem and Ramdas Pophale) SiO2 
 PCOD9182495
Probable space group: C 2/M
;
_chemical_formula_sum "Si O2"
_cell_formula_units_Z 56
_cell_length_a 27.329370
_cell_length_b 7.655518
_cell_length_c 13.536026
_cell_angle_alpha 90.000000
_cell_angle_beta 118.326546
_cell_angle_gamma 90.000000
_cell_volume 2492.901787
_symmetry_space_group_name_H-M "C 2/M"
_symmetry_group_IT_number 12
_symmetry_cell_setting 'monoclinic'
loop_
_space_group_symop_operation_xyz
x,y,z
-x,y,-z
-x,-y,-z
x,-y,z
1/2+x,1/2+y,z
1/2-x,1/2+y,-z
1/2-x,1/2-y,-z
1/2+x,1/2-y,z
loop_
_atom_site_type_symbol
_atom_site_label
_atom_site_fract_x
_atom_site_fract_y
_atom_site_fract_z
Si Si1 0.680781 0.294400 0.357484
Si Si2 0.613288 0.799111 0.483643
Si Si3 0.220279 0.714958 0.678739
Si Si4 0.071504 0.794332 0.137356
Si Si5 0.509332 0.800804 0.274911
Si Si6 0.715897 0.709773 0.064934
Si Si7 0.590532 0.706871 0.942370
O O1 0.684349 0.500000 0.385742
O O2 0.650995 0.201860 0.420110
O O3 0.739779 0.230627 0.373939
O O4 0.637181 0.282644 0.224655
O O5 0.656905 0.723369 0.603946
O O6 0.553971 0.718889 0.394383
O O7 0.602481 0.000000 0.501396
O O8 0.219644 0.500000 0.676500
O O9 0.250266 0.773479 0.807169
O O10 0.041000 0.706364 0.199702
O O11 0.055466 0.000000 0.128142
O O12 0.063325 0.726139 0.018910
O O13 0.448862 0.729901 0.189733
O O14 0.501439 0.000000 0.297371
O O15 0.712427 0.500000 0.072382
O O16 0.750000 0.750000 0.000000
O O17 0.652868 0.777510 0.994210
O O18 0.594740 0.500000 0.963209
#
# Coordination Sequence:
#
# PCOD9182495 Si02
#       7
#     8   8   8   8   8   8   8
#     4   9  15  26  46  71  98 131 169 202 234 286
#     4   9  18  30  45  70 104 137 164 195 238 290
#     4   9  16  31  53  71  95 131 166 201 246 299
#     4   9  16  28  46  69  97 133 173 202 231 287
#     4  10  20  30  43  71 107 136 164 199 239 285
#     4  10  21  38  58  79  98 122 164 215 263 303
#     4  10  19  33  52  70  94 131 170 204 242 296
#
# _framework density 22.463781000000001
#
# number of rings (size 3 to 8) (size 9 to 14) (size 15 to 20)
#    0.000    2.571    1.429    1.286    0.000    3.429 
#    0.000    1.429    0.000    0.857    0.000    6.000 
#    0.000    0.000    0.000    0.000    0.000    0.000 
#
# Total GULP energy -156161.197559 kJ/mol
# GULP energy per Si atom -5577.185627 kJ/mol
# Density = 2.241265 g / cm^3
# Si number density = 22.463781 Si / 1000 Ang^3
#
#
#
# Elastic Constant Matrix: (Units=GPa)
#
#
# Indices 1 2 3 4 5 6 
#
# 1 47.4512 -4.4392 50.0216 0.0000 21.5052 0.0000
# 2 -4.4392 41.9747 2.5614 0.0000 4.5987 0.0000
# 3 50.0216 2.5614 137.2361 0.0000 53.0162 0.0000
# 4 0.0000 0.0000 0.0000 8.3705 0.0000 -2.8507
# 5 21.5052 4.5987 53.0162 0.0000 36.9334 0.0000
# 6 0.0000 0.0000 0.0000 -2.8507 0.0000 13.0896
#
#
#
# Elastic Compliance Matrix: (Units=1/GPa)
#
#
# Indices 1 2 3 4 5 6 
#
# 1 0.035591 0.005063 -0.010815 0.000000 -0.005829 0.000000
# 2 0.005063 0.025030 0.000068 0.000000 -0.006162 0.000000
# 3 -0.010815 0.000068 0.019750 0.000000 -0.022062 0.000000
# 4 0.000000 0.000000 0.000000 0.129038 0.000000 0.028102
# 5 -0.005829 -0.006162 -0.022062 0.000000 0.062906 0.000000
# 6 0.000000 0.000000 0.000000 0.028102 0.000000 0.082517
#
#
# Mechanical properties :
#
#
# Convention : Reuss Voigt Hill
#
# Bulk Modulus (GPa) = 14.49232 35.88327 25.18780
# Shear Modulus (GPa) = 12.84682 23.57990 18.21336
#
# Velocity S-wave (km/s) = 2.39402 3.24340 2.85052
# Velocity P-wave (km/s) = 3.75595 5.48039 4.69797
#
# Compressibility (1/GPa) = 0.06900204
#
# Stress axis : x y z
#
# Youngs Moduli (GPa) = 28.09721 39.95166 50.63224
#
# Poissons Ratio (x) = -0.20226 0.54760
# Poissons Ratio (y) = -0.14224 -0.00345
# Poissons Ratio (z) = 0.30388 -0.00272
#
# Static dielectric constant tensor:
#      x y z
#    x 1.819820 0.000000 0.074160 
#    y 0.000000 1.840540 0.000000 
#    z 0.074160 0.000000 1.920620 
# 
# From -- ./inp_files/244292.got.cif
#   From: 2010.05.17/outbox.cif.g08.bks.cpg/sg12_123_cif.got.tgz:244292.got - 2010.06.03 13:09:07.
