data_PCOD9182250
_publ_section_title
;
Structure prediction by ZEFSAII (Michael W. Deem and Ramdas Pophale) SiO2 
 PCOD9182250
Probable space group: C 2/M
;
_chemical_formula_sum "Si O2"
_cell_formula_units_Z 64
_cell_length_a 25.658760
_cell_length_b 16.529708
_cell_length_c 8.597462
_cell_angle_alpha 90.000000
_cell_angle_beta 129.302365
_cell_angle_gamma 90.000000
_cell_volume 2821.679809
_symmetry_space_group_name_H-M "C 2/M"
_symmetry_group_IT_number 12
_symmetry_cell_setting 'monoclinic'
loop_
_space_group_symop_operation_xyz
x,y,z
-x,y,-z
-x,-y,-z
x,-y,z
1/2+x,1/2+y,z
1/2-x,1/2+y,-z
1/2-x,1/2-y,-z
1/2+x,1/2-y,z
loop_
_atom_site_type_symbol
_atom_site_label
_atom_site_fract_x
_atom_site_fract_y
_atom_site_fract_z
Si Si1 0.709213 0.087121 0.605031
Si Si2 0.975075 0.320272 0.120138
Si Si3 0.729148 0.667815 0.558356
Si Si4 0.023429 0.122785 0.873413
Si Si5 0.659349 0.622604 0.957862
Si Si6 0.660598 0.817607 0.990277
Si Si7 0.097380 0.324982 0.551489
Si Si8 0.106446 0.137779 0.532733
O O1 0.744852 0.099461 0.507952
O O2 0.652961 0.154754 0.526901
O O3 0.675680 0.000000 0.554563
O O4 0.769496 0.093418 0.843305
O O5 0.977289 0.221789 0.126809
O O6 0.024762 0.351769 0.350236
O O7 0.897846 0.340937 0.000323
O O8 0.000000 0.347804 0.000000
O O9 0.750000 0.750000 0.500000
O O10 0.652437 0.652126 0.465842
O O11 0.768982 0.663424 0.796698
O O12 0.963849 0.097930 0.644612
O O13 0.096722 0.098419 0.950097
O O14 0.000000 0.096745 0.000000
O O15 0.663563 0.720528 0.975508
O O16 0.643122 0.599191 0.750012
O O17 0.633559 0.854381 0.777502
O O18 0.089897 0.229072 0.556914
#
# Coordination Sequence:
#
# PCOD9182250 Si02
#       8
#     8   8   8   8   8   8   8   8
#     4  12  25  39  57  81 119 160 192 238 295 355
#     4   9  17  28  52  85 120 148 181 236 298 343
#     4  12  21  35  58  83 114 151 197 248 287 337
#     4   9  17  28  52  85 120 148 181 236 298 343
#     4  10  19  35  55  85 118 149 193 239 294 348
#     4  10  19  32  58  89 114 146 190 250 296 333
#     4  10  19  35  55  85 118 149 193 239 294 348
#     4  10  19  32  58  89 114 146 190 250 296 333
#
# _framework density 22.681524
#
# number of rings (size 3 to 8) (size 9 to 14) (size 15 to 20)
#    0.000    1.750    2.500    3.000    3.500    5.000 
#    0.000    2.500    0.000    9.750    0.000    0.000 
#    0.000    0.000    0.000    0.000    0.000    0.000 
#
# Total GULP energy -178604.189935 kJ/mol
# GULP energy per Si atom -5581.380935 kJ/mol
# Density = 2.262990 g / cm^3
# Si number density = 22.681524 Si / 1000 Ang^3
#
#
#
# Elastic Constant Matrix: (Units=GPa)
#
#
# Indices 1 2 3 4 5 6 
#
# 1 56.0332 -2.8640 -12.6122 0.0000 2.4272 0.0000
# 2 -2.8640 25.0677 14.8329 0.0000 2.4904 0.0000
# 3 -12.6122 14.8329 75.8263 0.0000 2.2750 0.0000
# 4 0.0000 0.0000 0.0000 -16.6320 0.0000 -3.5241
# 5 2.4272 2.4904 2.2750 0.0000 41.0714 0.0000
# 6 0.0000 0.0000 0.0000 -3.5241 0.0000 -9.6084
#
#
#
# Elastic Compliance Matrix: (Units=1/GPa)
#
#
# Indices 1 2 3 4 5 6 
#
# 1 0.018611 0.000453 0.003046 0.000000 -0.001296 0.000000
# 2 0.000453 0.045333 -0.008724 0.000000 -0.002292 0.000000
# 3 0.003046 -0.008724 0.015416 0.000000 -0.000505 0.000000
# 4 0.000000 0.000000 0.000000 -0.065191 0.000000 0.023910
# 5 -0.001296 -0.002292 -0.000505 0.000000 0.024591 0.000000
# 6 0.000000 0.000000 0.000000 0.023910 0.000000 -0.112846
#
#
# Mechanical properties :
#
#
# Convention : Reuss Voigt Hill
#
# Bulk Modulus (GPa) = 14.51147 17.29340 15.90244
# Shear Modulus (GPa) = -122.95993 13.47090 -54.74451
#
# Velocity S-wave (km/s) = -7.37083 2.43968 -4.91819
# Velocity P-wave (km/s) = 8.12571 3.94678 5.02245
#
# Compressibility (1/GPa) = 0.06891098
#
# Stress axis : x y z
#
# Youngs Moduli (GPa) = 53.73031 22.05877 64.86613
#
# Poissons Ratio (x) = -0.00999 -0.19758
# Poissons Ratio (y) = -0.02433 0.56589
# Poissons Ratio (z) = -0.16366 0.19244
#
# Static dielectric constant tensor:
#      x y z
#    x 1.835030 0.000000 -0.025770 
#    y 0.000000 1.844590 0.000000 
#    z -0.025770 0.000000 1.868630 
# 
# From -- ./inp_files/99126.got.cif
#   From: 2010.05.17/outbox.cif.g08.bks.cpg/sg12_50_cif.got.tgz:99126.got - 2010.06.03 13:09:07.
