data_PCOD9182553
_publ_section_title
;
Structure prediction by ZEFSAII (Michael W. Deem and Ramdas Pophale) SiO2 
 PCOD9182553
Probable space group: C 2/M
;
_chemical_formula_sum "Si O2"
_cell_formula_units_Z 52
_cell_length_a 12.376722
_cell_length_b 12.873420
_cell_length_c 18.367885
_cell_angle_alpha 90.000000
_cell_angle_beta 125.214447
_cell_angle_gamma 90.000000
_cell_volume 2391.005257
_symmetry_space_group_name_H-M "C 2/M"
_symmetry_group_IT_number 12
_symmetry_cell_setting 'monoclinic'
loop_
_space_group_symop_operation_xyz
x,y,z
-x,y,-z
-x,-y,-z
x,-y,z
1/2+x,1/2+y,z
1/2-x,1/2+y,-z
1/2-x,1/2-y,-z
1/2+x,1/2-y,z
loop_
_atom_site_type_symbol
_atom_site_label
_atom_site_fract_x
_atom_site_fract_y
_atom_site_fract_z
Si Si1 0.868873 0.115941 0.026097
Si Si2 0.000000 0.684578 0.500000
Si Si3 0.351852 0.168673 0.945137
Si Si4 0.419080 0.614684 0.764073
Si Si5 0.747487 0.697158 0.636305
Si Si6 0.856311 0.168458 0.256475
Si Si7 0.010332 0.385460 0.666562
O O1 0.738055 0.122920 0.025505
O O2 0.991582 0.134745 0.129457
O O3 0.878393 0.000000 0.999625
O O4 0.858819 0.208094 0.964929
O O5 0.868696 0.754894 0.457616
O O6 0.012937 0.622147 0.579890
O O7 0.274398 0.150194 0.840933
O O8 0.500000 0.128312 0.000000
O O9 0.357574 0.500000 0.746722
O O10 0.319801 0.706684 0.706136
O O11 0.523556 0.613641 0.738050
O O12 0.672435 0.637569 0.672070
O O13 0.861907 0.637230 0.638269
O O14 0.899629 0.290225 0.270980
O O15 0.051756 0.500000 0.706897
#
# Coordination Sequence:
#
# PCOD9182553 Si02
#       7
#     8   4   8   8   8   8   8
#     4   9  19  34  51  74 103 135 176 219 255 299
#     4  10  21  38  55  78 108 134 163 208 255 302
#     4  10  19  33  52  74 103 138 173 213 261 304
#     4   9  18  34  54  74 100 138 177 212 254 302
#     4  10  20  36  56  78 105 135 169 208 253 304
#     4   9  20  35  51  75 106 136 170 214 257 301
#     4  10  21  37  57  79 104 135 170 207 251 304
#
# _framework density 21.748175
#
# number of rings (size 3 to 8) (size 9 to 14) (size 15 to 20)
#    0.000    2.462    0.000    1.615    0.000    6.154 
#    0.000    0.385    0.000    0.000    0.000    0.000 
#    0.000    0.000    0.000    0.000    0.000    0.000 
#
# Total GULP energy -145246.511485 kJ/mol
# GULP energy per Si atom -5586.404288 kJ/mol
# Density = 2.169867 g / cm^3
# Si number density = 21.748175 Si / 1000 Ang^3
#
#
#
# Elastic Constant Matrix: (Units=GPa)
#
#
# Indices 1 2 3 4 5 6 
#
# 1 100.2262 7.8230 11.9462 0.0000 8.1471 0.0000
# 2 7.8230 82.7750 -11.2473 0.0000 2.2631 0.0000
# 3 11.9462 -11.2473 8.9011 0.0000 10.8309 0.0000
# 4 0.0000 0.0000 0.0000 1.0962 0.0000 6.8754
# 5 8.1471 2.2631 10.8309 0.0000 37.2717 0.0000
# 6 0.0000 0.0000 0.0000 6.8754 0.0000 -16.8063
#
#
#
# Elastic Compliance Matrix: (Units=1/GPa)
#
#
# Indices 1 2 3 4 5 6 
#
# 1 0.014328 -0.006706 -0.037728 0.000000 0.008239 0.000000
# 2 -0.006706 0.020378 0.053328 0.000000 -0.015268 0.000000
# 3 -0.037728 0.053328 0.346953 0.000000 -0.095813 0.000000
# 4 0.000000 0.000000 0.000000 0.255829 0.000000 0.104659
# 5 0.008239 -0.015268 -0.095813 0.000000 0.053799 0.000000
# 6 0.000000 0.000000 0.000000 0.104659 0.000000 -0.016686
#
#
# Mechanical properties :
#
#
# Convention : Reuss Voigt Hill
#
# Bulk Modulus (GPa) = 2.50346 23.21624 12.85985
# Shear Modulus (GPa) = 6.32942 16.53767 11.43354
#
# Velocity S-wave (km/s) = 1.70782 2.76056 2.29536
# Velocity P-wave (km/s) = 2.24554 4.56718 3.59872
#
# Compressibility (1/GPa) = 0.39944763
#
# Stress axis : x y z
#
# Youngs Moduli (GPa) = 69.79304 49.07175 2.88224
#
# Poissons Ratio (x) = 0.32907 0.10874
# Poissons Ratio (y) = 0.46802 -0.15371
# Poissons Ratio (z) = 2.63317 -2.61692
#
# Static dielectric constant tensor:
#      x y z
#    x 1.819380 0.000000 -0.002630 
#    y 0.000000 1.814770 0.000000 
#    z -0.002630 0.000000 1.733330 
# 
# From -- ./inp_files/263023.got.cif
#   From: 2010.05.17/outbox.cif.g08.bks.cpg/sg12_132_cif.got.tgz:263023.got - 2010.06.03 13:09:07.
