data_PCOD9182059
_publ_section_title
;
Structure prediction by ZEFSAII (Michael W. Deem and Ramdas Pophale) SiO2 
 PCOD9182059
Probable space group: C 2/M
;
_chemical_formula_sum "Si O2"
_cell_formula_units_Z 56
_cell_length_a 25.117599
_cell_length_b 7.609305
_cell_length_c 12.240844
_cell_angle_alpha 90.000000
_cell_angle_beta 100.262665
_cell_angle_gamma 90.000000
_cell_volume 2302.131714
_symmetry_space_group_name_H-M "C 2/M"
_symmetry_group_IT_number 12
_symmetry_cell_setting 'monoclinic'
loop_
_space_group_symop_operation_xyz
x,y,z
-x,y,-z
-x,-y,-z
x,-y,z
1/2+x,1/2+y,z
1/2-x,1/2+y,-z
1/2-x,1/2-y,-z
1/2+x,1/2-y,z
loop_
_atom_site_type_symbol
_atom_site_label
_atom_site_fract_x
_atom_site_fract_y
_atom_site_fract_z
Si Si1 0.903160 0.786807 0.760862
Si Si2 0.053871 0.294995 0.591416
Si Si3 0.139810 0.786966 0.881711
Si Si4 0.976275 0.200079 0.178950
Si Si5 0.348350 0.694706 0.523212
Si Si6 0.710453 0.204740 0.707385
Si Si7 0.807318 0.211831 0.887961
O O1 0.871461 0.716197 0.641703
O O2 0.863830 0.758487 0.847354
O O3 0.963910 0.718664 0.804164
O O4 0.909672 0.000000 0.747463
O O5 0.069197 0.500000 0.615987
O O6 0.038804 0.202372 0.698389
O O7 0.099986 0.202814 0.537955
O O8 0.000000 0.295114 0.500000
O O9 0.079397 0.721915 0.889177
O O10 0.159271 0.737237 0.767999
O O11 0.137754 0.000000 0.884495
O O12 0.184004 0.722808 0.985622
O O13 0.980419 0.000000 0.138248
O O14 0.333394 0.500000 0.553965
O O15 0.301036 0.746846 0.421983
O O16 0.760284 0.286295 0.793315
O O17 0.720686 0.000000 0.707057
O O18 0.799850 0.000000 0.892909
#
# Coordination Sequence:
#
# PCOD9182059 Si02
#       7
#     8   8   8   8   8   8   8
#     4   9  19  35  55  81 114 149 182 225 277 331
#     4  11  21  32  51  81 116 150 180 222 278 332
#     4  10  20  35  59  86 110 141 186 235 277 330
#     4  10  19  32  55  85 112 143 181 224 274 330
#     4  11  21  34  56  83 112 145 186 231 276 330
#     4  11  22  36  57  82 111 147 186 235 286 326
#     4   9  20  38  56  79 112 148 189 233 277 326
#
# _framework density 24.325278000000001
#
# number of rings (size 3 to 8) (size 9 to 14) (size 15 to 20)
#    0.000    1.857    2.857    1.714    0.000    1.714 
#    0.000    3.571    0.000    6.857    0.000    2.000 
#    0.000    0.000    0.000    0.000    0.000    0.000 
#
# Total GULP energy -156295.754434 kJ/mol
# GULP energy per Si atom -5581.991230 kJ/mol
# Density = 2.426991 g / cm^3
# Si number density = 24.325278 Si / 1000 Ang^3
#
#
#
# Elastic Constant Matrix: (Units=GPa)
#
#
# Indices 1 2 3 4 5 6 
#
# 1 60.9020 -3.2894 44.1042 0.0000 26.5123 0.0000
# 2 -3.2894 60.3677 3.2924 0.0000 10.0984 0.0000
# 3 44.1042 3.2924 78.0925 0.0000 36.0031 0.0000
# 4 0.0000 0.0000 0.0000 4.4723 0.0000 16.2764
# 5 26.5123 10.0984 36.0031 0.0000 41.0736 0.0000
# 6 0.0000 0.0000 0.0000 16.2764 0.0000 -8.4945
#
#
#
# Elastic Compliance Matrix: (Units=1/GPa)
#
#
# Indices 1 2 3 4 5 6 
#
# 1 0.029852 0.003816 -0.012929 0.000000 -0.008874 0.000000
# 2 0.003816 0.017964 0.000435 0.000000 -0.007261 0.000000
# 3 -0.012929 0.000435 0.027339 0.000000 -0.015725 0.000000
# 4 0.000000 0.000000 0.000000 0.028043 0.000000 0.053733
# 5 -0.008874 -0.007261 -0.015725 0.000000 0.045644 0.000000
# 6 0.000000 0.000000 0.000000 0.053733 0.000000 -0.014764
#
#
# Mechanical properties :
#
#
# Convention : Reuss Voigt Hill
#
# Bulk Modulus (GPa) = 17.30120 31.95295 24.62707
# Shear Modulus (GPa) = 29.29115 17.76061 23.52588
#
# Velocity S-wave (km/s) = 3.47384 2.70502 3.11326
# Velocity P-wave (km/s) = 4.81851 4.78753 4.80304
#
# Compressibility (1/GPa) = 0.05779947
#
# Stress axis : x y z
#
# Youngs Moduli (GPa) = 33.49824 55.66669 36.57801
#
# Poissons Ratio (x) = -0.21244 0.47292
# Poissons Ratio (y) = -0.12784 -0.01591
# Poissons Ratio (z) = 0.43311 -0.02422
#
# Static dielectric constant tensor:
#      x y z
#    x 1.959820 0.000000 0.087530 
#    y 0.000000 1.938330 0.000000 
#    z 0.087530 0.000000 1.960540 
# 
# From -- ./inp_files/181026.got.cif
#   From: 2010.05.17/outbox.cif.g08.bks.cpg/sg12_91_cif.got.tgz:181026.got - 2010.06.03 13:09:07.
