data_PCOD9182407
_publ_section_title
;
Structure prediction by ZEFSAII (Michael W. Deem and Ramdas Pophale) SiO2 
 PCOD9182407
Probable space group: C 2/M
;
_chemical_formula_sum "Si O2"
_cell_formula_units_Z 64
_cell_length_a 25.492392
_cell_length_b 13.033237
_cell_length_c 11.155024
_cell_angle_alpha 90.000000
_cell_angle_beta 87.511577
_cell_angle_gamma 90.000000
_cell_volume 3702.743799
_symmetry_space_group_name_H-M "C 2/M"
_symmetry_group_IT_number 12
_symmetry_cell_setting 'monoclinic'
loop_
_space_group_symop_operation_xyz
x,y,z
-x,y,-z
-x,-y,-z
x,-y,z
1/2+x,1/2+y,z
1/2-x,1/2+y,-z
1/2-x,1/2-y,-z
1/2+x,1/2-y,z
loop_
_atom_site_type_symbol
_atom_site_label
_atom_site_fract_x
_atom_site_fract_y
_atom_site_fract_z
Si Si1 0.544011 0.766280 0.732071
Si Si2 0.177890 0.120085 0.312449
Si Si3 0.941746 0.620422 0.668665
Si Si4 0.299889 0.118082 0.354850
Si Si5 0.470152 0.386134 0.877854
Si Si6 0.124933 0.736569 0.127826
Si Si7 0.628557 0.878544 0.885133
Si Si8 0.879178 0.243900 0.486547
O O1 0.502023 0.844842 0.679023
O O2 0.507837 0.676487 0.786685
O O3 0.577106 0.824866 0.831799
O O4 0.585017 0.721396 0.632205
O O5 0.237884 0.132655 0.348777
O O6 0.165778 0.201550 0.207492
O O7 0.139690 0.152204 0.425906
O O8 0.170564 0.000000 0.279493
O O9 0.938588 0.500000 0.651585
O O10 0.907973 0.655987 0.787970
O O11 0.914611 0.681073 0.563502
O O12 0.326977 0.130750 0.221734
O O13 0.328529 0.194871 0.442530
O O14 0.310128 0.000000 0.391400
O O15 0.459083 0.500000 0.833200
O O16 0.417241 0.323327 0.902258
O O17 0.500000 0.392164 0.000000
O O18 0.143544 0.678979 0.006495
O O19 0.619273 0.000000 0.906767
#
# Coordination Sequence:
#
# PCOD9182407 Si02
#       8
#     8   8   8   8   8   8   8   8
#     4  10  20  33  50  79 107 136 171 207 248 303
#     4  10  21  37  55  74 100 136 175 215 258 301
#     4  10  20  32  50  77 109 140 169 204 249 302
#     4   9  19  35  56  79 102 132 168 210 262 311
#     4  10  19  33  51  71 100 135 168 205 246 292
#     4  10  20  34  51  76 102 135 175 212 250 300
#     4  10  19  33  53  77 106 136 168 209 257 308
#     4  10  20  34  54  77 105 134 170 211 254 301
#
# _framework density 17.284478
#
# number of rings (size 3 to 8) (size 9 to 14) (size 15 to 20)
#    0.000    2.125    1.250    2.250    0.000    3.000 
#    0.000    1.875    0.000    5.250    0.000    0.000 
#    0.000    0.000    0.000    0.000    0.000    0.000 
#
# Total GULP energy -178440.671116 kJ/mol
# GULP energy per Si atom -5576.270972 kJ/mol
# Density = 1.724514 g / cm^3
# Si number density = 17.284478 Si / 1000 Ang^3
#
#
#
# Elastic Constant Matrix: (Units=GPa)
#
#
# Indices 1 2 3 4 5 6 
#
# 1 45.9976 7.7551 -0.2135 0.0000 5.2917 0.0000
# 2 7.7551 67.6352 13.3073 0.0000 -8.9422 0.0000
# 3 -0.2135 13.3073 55.0229 0.0000 5.2893 0.0000
# 4 0.0000 0.0000 0.0000 29.4671 0.0000 -14.7047
# 5 5.2917 -8.9422 5.2893 0.0000 17.8626 0.0000
# 6 0.0000 0.0000 0.0000 -14.7047 0.0000 37.0506
#
#
#
# Elastic Compliance Matrix: (Units=1/GPa)
#
#
# Indices 1 2 3 4 5 6 
#
# 1 0.023628 -0.004425 0.002108 0.000000 -0.009839 0.000000
# 2 -0.004425 0.017953 -0.005506 0.000000 0.011929 0.000000
# 3 0.002108 -0.005506 0.020420 0.000000 -0.009427 0.000000
# 4 0.000000 0.000000 0.000000 0.042317 0.000000 0.016795
# 5 -0.009839 0.011929 -0.009427 0.000000 0.067661 0.000000
# 6 0.000000 0.000000 0.000000 0.016795 0.000000 0.033656
#
#
# Mechanical properties :
#
#
# Convention : Reuss Voigt Hill
#
# Bulk Modulus (GPa) = 21.57248 23.37261 22.47254
# Shear Modulus (GPa) = 21.12092 26.72983 23.92537
#
# Velocity S-wave (km/s) = 3.49945 3.93678 3.72454
# Velocity P-wave (km/s) = 5.36992 5.84944 5.61480
#
# Compressibility (1/GPa) = 0.04635536
#
# Stress axis : x y z
#
# Youngs Moduli (GPa) = 42.32281 55.70131 48.97101
#
# Poissons Ratio (x) = 0.24646 -0.10321
# Poissons Ratio (y) = 0.18726 0.26962
# Poissons Ratio (z) = -0.08920 0.30668
#
# Static dielectric constant tensor:
#      x y z
#    x 1.570860 0.000000 0.004660 
#    y 0.000000 1.572210 0.000000 
#    z 0.004660 0.000000 1.597060 
# 
# From -- ./inp_files/174642.got.cif
#   From: 2010.05.17/outbox.cif.g08.bks.cpg/sg12_88_cif.got.tgz:174642.got - 2010.06.03 13:09:07.
