data_PCOD9182610
_publ_section_title
;
Structure prediction by ZEFSAII (Michael W. Deem and Ramdas Pophale) SiO2 
 PCOD9182610
Probable space group: C 2/M
;
_chemical_formula_sum "Si O2"
_cell_formula_units_Z 52
_cell_length_a 8.648052
_cell_length_b 20.009223
_cell_length_c 21.099230
_cell_angle_alpha 90.000000
_cell_angle_beta 134.769941
_cell_angle_gamma 90.000000
_cell_volume 2592.011709
_symmetry_space_group_name_H-M "C 2/M"
_symmetry_group_IT_number 12
_symmetry_cell_setting 'monoclinic'
loop_
_space_group_symop_operation_xyz
x,y,z
-x,y,-z
-x,-y,-z
x,-y,z
1/2+x,1/2+y,z
1/2-x,1/2+y,-z
1/2-x,1/2-y,-z
1/2+x,1/2-y,z
loop_
_atom_site_type_symbol
_atom_site_label
_atom_site_fract_x
_atom_site_fract_y
_atom_site_fract_z
Si Si1 0.033634 0.500000 0.614045
Si Si2 0.714139 0.617912 0.255825
Si Si3 0.957576 0.278139 0.624074
Si Si4 0.643699 0.331923 0.920819
Si Si5 0.427140 0.632055 0.301194
Si Si6 0.544193 0.183809 0.111900
Si Si7 0.630336 0.500000 0.409060
Si Si8 0.500000 0.748431 0.500000
O O1 0.106240 0.562708 0.677368
O O2 0.197665 0.500000 0.600520
O O3 0.788971 0.500000 0.516097
O O4 0.853001 0.684784 0.285662
O O5 0.538460 0.613366 0.149205
O O6 0.569407 0.624669 0.277781
O O7 0.986451 0.199088 0.640746
O O8 0.714435 0.294380 0.574240
O O9 0.970687 0.293258 0.553433
O O10 0.522385 0.261231 0.897302
O O11 0.795398 0.320889 0.902501
O O12 0.812347 0.348541 0.025468
O O13 0.481774 0.566123 0.357332
O O14 0.179669 0.648730 0.207522
#
# Coordination Sequence:
#
# PCOD9182610 Si02
#       8
#     4   8   8   8   8   8   4   4
#     4   9  20  32  49  71 103 138 178 212 251 302
#     4  10  19  33  52  77 102 136 173 213 252 306
#     4  11  20  34  51  76 102 130 175 216 257 308
#     4   9  17  30  50  78 106 130 162 209 260 306
#     4  10  19  33  52  77 102 136 173 213 252 306
#     4   9  17  30  50  78 106 130 162 209 260 306
#     4   9  20  32  49  71 103 138 178 212 251 302
#     4  10  24  30  48  76 104 132 168 224 260 296
#
# _framework density 20.061637999999999
#
# number of rings (size 3 to 8) (size 9 to 14) (size 15 to 20)
#    0.000    2.308    3.077    0.000    4.308    0.000 
#    0.000    0.769    0.000    6.462    0.000    0.000 
#    0.000    4.923    0.000    0.000    0.000    0.000 
#
# Total GULP energy -144820.011296 kJ/mol
# GULP energy per Si atom -5570.000434 kJ/mol
# Density = 2.001598 g / cm^3
# Si number density = 20.061638 Si / 1000 Ang^3
#
#
#
# Elastic Constant Matrix: (Units=GPa)
#
#
# Indices 1 2 3 4 5 6 
#
# 1 16.3942 -3.7288 15.3680 0.0000 10.5591 0.0000
# 2 -3.7288 91.2910 63.0167 0.0000 10.4787 0.0000
# 3 15.3680 63.0167 212.5931 0.0000 28.4263 0.0000
# 4 0.0000 0.0000 0.0000 22.0065 0.0000 5.7210
# 5 10.5591 10.4787 28.4263 0.0000 19.8930 0.0000
# 6 0.0000 0.0000 0.0000 5.7210 0.0000 7.9094
#
#
#
# Elastic Compliance Matrix: (Units=1/GPa)
#
#
# Indices 1 2 3 4 5 6 
#
# 1 0.104430 0.013523 -0.003948 0.000000 -0.056913 0.000000
# 2 0.013523 0.015573 -0.004372 0.000000 -0.009133 0.000000
# 3 -0.003948 -0.004372 0.007043 0.000000 -0.005665 0.000000
# 4 0.000000 0.000000 0.000000 0.055965 0.000000 -0.040480
# 5 -0.056913 -0.009133 -0.005665 0.000000 0.093384 0.000000
# 6 0.000000 0.000000 0.000000 -0.040480 0.000000 0.155710
#
#
# Mechanical properties :
#
#
# Convention : Reuss Voigt Hill
#
# Bulk Modulus (GPa) = 7.27528 52.17667 29.72598
# Shear Modulus (GPa) = 10.69482 26.33661 18.51572
#
# Velocity S-wave (km/s) = 2.31140 3.62717 3.04129
# Velocity P-wave (km/s) = 3.27990 6.60352 5.21364
#
# Compressibility (1/GPa) = 0.13745170
#
# Stress axis : x y z
#
# Youngs Moduli (GPa) = 9.57580 64.21420 141.98926
#
# Poissons Ratio (x) = -0.86837 0.56051
# Poissons Ratio (y) = -0.12949 0.62084
# Poissons Ratio (z) = 0.03780 0.28077
#
# Static dielectric constant tensor:
#      x y z
#    x 1.727470 0.000000 0.013610 
#    y 0.000000 1.731170 0.000000 
#    z 0.013610 0.000000 1.760760 
# 
# From -- ./inp_files/333807.got.cif
#   From: 2010.05.17/outbox.cif.g08.bks.cpg/sg12_167_cif.got.tgz:333807.got - 2010.06.03 13:09:07.
