data_PCOD9182830
_publ_section_title
;
Structure prediction by ZEFSAII (Michael W. Deem and Ramdas Pophale) SiO2 
 PCOD9182830
Probable space group: C 2/M
;
_chemical_formula_sum "Si O2"
_cell_formula_units_Z 52
_cell_length_a 18.324506
_cell_length_b 27.562252
_cell_length_c 14.870079
_cell_angle_alpha 90.000000
_cell_angle_beta 19.997436
_cell_angle_gamma 90.000000
_cell_volume 2568.375596
_symmetry_space_group_name_H-M "C 2/M"
_symmetry_group_IT_number 12
_symmetry_cell_setting 'monoclinic'
loop_
_space_group_symop_operation_xyz
x,y,z
-x,y,-z
-x,-y,-z
x,-y,z
1/2+x,1/2+y,z
1/2-x,1/2+y,-z
1/2-x,1/2-y,-z
1/2+x,1/2-y,z
loop_
_atom_site_type_symbol
_atom_site_label
_atom_site_fract_x
_atom_site_fract_y
_atom_site_fract_z
Si Si1 0.500000 0.114880 0.000000
Si Si2 0.183046 0.556064 0.525249
Si Si3 0.528198 0.765256 0.369645
Si Si4 0.904374 0.108256 0.434726
Si Si5 0.737921 0.944247 0.878365
Si Si6 0.705377 0.654420 0.697860
Si Si7 0.015892 0.801037 0.216328
O O1 0.301080 0.136991 0.285911
O O2 0.623236 0.083022 0.930276
O O3 0.232543 0.500000 0.443404
O O4 0.314019 0.571856 0.463519
O O5 0.235556 0.598966 0.394576
O O6 0.933905 0.558382 0.841156
O O7 0.500000 0.741138 0.500000
O O8 0.395046 0.815080 0.522631
O O9 0.451360 0.733463 0.373789
O O10 0.776557 0.776885 0.067308
O O11 0.063507 0.147365 0.207562
O O12 0.040985 0.079176 0.348370
O O13 0.766016 0.000000 0.822096
O O14 0.647826 0.682940 0.671683
O O15 0.500000 0.655619 0.000000
#
# Coordination Sequence:
#
# PCOD9182830 Si02
#       7
#     4   8   8   8   8   8   8
#     4  10  21  32  48  80 114 148 200 242 295 358
#     4   9  20  36  56  84 115 153 199 244 291 351
#     4  11  22  40  64  90 118 155 200 244 297 362
#     4  10  20  36  55  79 114 155 193 246 299 348
#     4  10  19  33  53  76 111 155 198 244 296 352
#     4  11  21  39  63  88 120 157 196 244 304 354
#     4  10  23  41  61  88 120 154 197 246 298 354
#
# _framework density 20.246259999999999
#
# number of rings (size 3 to 8) (size 9 to 14) (size 15 to 20)
#    0.000    1.846    1.538    2.538    0.000    4.000 
#    1.385    1.538    0.000    0.462    0.000    0.000 
#    0.000    0.000    0.000    0.000    0.000    0.000 
#
# Total GULP energy -144981.688310 kJ/mol
# GULP energy per Si atom -5576.218781 kJ/mol
# Density = 2.020018 g / cm^3
# Si number density = 20.246260 Si / 1000 Ang^3
#
#
#
# Elastic Constant Matrix: (Units=GPa)
#
#
# Indices 1 2 3 4 5 6 
#
# 1 63.0840 20.3870 19.2269 -0.1683 13.9985 0.5803
# 2 20.3870 76.6863 26.9898 0.1054 3.5848 -0.3534
# 3 19.2269 26.9898 65.6201 0.0887 9.5650 -0.0420
# 4 -0.1683 0.1054 0.0887 11.3894 0.1432 36.9848
# 5 13.9985 3.5848 9.5650 0.1432 29.0033 -0.2678
# 6 0.5803 -0.3534 -0.0420 36.9848 -0.2678 -100.9402
#
#
#
# Elastic Compliance Matrix: (Units=1/GPa)
#
#
# Indices 1 2 3 4 5 6 
#
# 1 0.019807 -0.003811 -0.003058 -0.000015 -0.008079 0.000144
# 2 -0.003811 0.015981 -0.005711 0.000036 0.001747 -0.000067
# 3 -0.003058 -0.005711 0.019084 -0.000049 -0.004111 -0.000012
# 4 -0.000015 0.000036 -0.000049 0.040095 -0.000043 0.014691
# 5 -0.008079 0.001747 -0.004111 -0.000043 0.039517 -0.000172
# 6 0.000144 -0.000067 -0.000012 0.014691 -0.000172 -0.004523
#
#
# Mechanical properties :
#
#
# Convention : Reuss Voigt Hill
#
# Bulk Modulus (GPa) = 33.65763 37.62198 35.63981
# Shear Modulus (GPa) = 30.29817 -2.85706 13.72056
#
# Velocity S-wave (km/s) = 3.87264 -1.18921 2.60606
# Velocity P-wave (km/s) = 6.05447 4.09108 5.16689
#
# Compressibility (1/GPa) = 0.02971094
#
# Stress axis : x y z
#
# Youngs Moduli (GPa) = 50.48734 62.57290 52.40054
#
# Poissons Ratio (x) = 0.23846 0.16026
# Poissons Ratio (y) = 0.19240 0.29927
# Poissons Ratio (z) = 0.15441 0.35737
#
# Static dielectric constant tensor:
#      x y z
#    x 1.701700 -0.000090 0.048080 
#    y -0.000090 1.698690 0.000190 
#    z 0.048080 0.000190 1.733640 
# 
# From -- ./inp_files/228558.got.cif
#   From: 2010.05.17/outbox.cif.g08.bks.cpg/sg12_115_cif.got.tgz:228558.got - 2010.06.03 13:09:07.
