data_PCOD9182972
_publ_section_title
;
Structure prediction by ZEFSAII (Michael W. Deem and Ramdas Pophale) SiO2 
 PCOD9182972
Probable space group: C 2/M
;
_chemical_formula_sum "Si O2"
_cell_formula_units_Z 48
_cell_length_a 9.046076
_cell_length_b 20.766352
_cell_length_c 15.631498
_cell_angle_alpha 90.000000
_cell_angle_beta 64.377012
_cell_angle_gamma 90.000000
_cell_volume 2647.667290
_symmetry_space_group_name_H-M "C 2/M"
_symmetry_group_IT_number 12
_symmetry_cell_setting 'monoclinic'
loop_
_space_group_symop_operation_xyz
x,y,z
-x,y,-z
-x,-y,-z
x,-y,z
1/2+x,1/2+y,z
1/2-x,1/2+y,-z
1/2-x,1/2-y,-z
1/2+x,1/2-y,z
loop_
_atom_site_type_symbol
_atom_site_label
_atom_site_fract_x
_atom_site_fract_y
_atom_site_fract_z
Si Si1 0.987854 0.335417 0.597686
Si Si2 0.220214 0.500000 0.872433
Si Si3 0.657436 0.696399 0.404798
Si Si4 0.330258 0.000000 0.918727
Si Si5 0.773327 0.635591 0.206915
Si Si6 0.866255 0.377733 0.801618
Si Si7 0.679747 0.741423 0.924738
O O1 0.168937 0.314308 0.588799
O O2 0.000000 0.365399 0.500000
O O3 0.878815 0.270998 0.609689
O O4 0.901940 0.378963 0.691420
O O5 0.282124 0.567429 0.818045
O O6 0.025338 0.500000 0.895469
O O7 0.247719 0.500000 0.967548
O O8 0.500000 0.675970 0.500000
O O9 0.664523 0.658676 0.313574
O O10 0.291821 0.938562 0.869486
O O11 0.794188 0.691759 0.131965
O O12 0.954961 0.628921 0.200514
O O13 0.763545 0.314343 0.849103
O O14 0.500000 0.723341 0.000000
O O15 0.750000 0.750000 0.000000
#
# Coordination Sequence:
#
# PCOD9182972 Si02
#       7
#     8   4   8   4   8   8   8
#     4  10  19  33  54  81 109 139 179 224 276 322
#     4   9  18  32  55  80 108 146 187 227 258 317
#     4  10  19  33  53  81 111 139 176 225 277 325
#     4   9  18  34  56  76 110 148 187 220 263 324
#     4  10  20  35  55  82 110 143 185 224 275 318
#     4  10  20  36  55  81 109 146 181 226 272 322
#     4  12  22  34  53  83 112 140 180 227 272 322
#
# _framework density 18.129166999999999
#
# number of rings (size 3 to 8) (size 9 to 14) (size 15 to 20)
#    0.000    1.833    3.333    3.000    2.333    0.000 
#    3.000    1.250    0.000    0.000    0.000    0.000 
#    0.000    0.000    0.000    0.000    0.000    0.000 
#
# Total GULP energy -133666.252210 kJ/mol
# GULP energy per Si atom -5569.427175 kJ/mol
# Density = 1.808790 g / cm^3
# Si number density = 18.129167 Si / 1000 Ang^3
#
#
#
# Elastic Constant Matrix: (Units=GPa)
#
#
# Indices 1 2 3 4 5 6 
#
# 1 25.1366 -14.7672 16.6351 0.0000 8.0398 0.0000
# 2 -14.7672 88.2015 58.5959 0.0000 11.0936 0.0000
# 3 16.6351 58.5959 169.4564 0.0000 23.7439 0.0000
# 4 0.0000 0.0000 0.0000 -37.8526 0.0000 -44.4649
# 5 8.0398 11.0936 23.7439 0.0000 30.0326 0.0000
# 6 0.0000 0.0000 0.0000 -44.4649 0.0000 -24.8267
#
#
#
# Elastic Compliance Matrix: (Units=1/GPa)
#
#
# Indices 1 2 3 4 5 6 
#
# 1 0.063785 0.019935 -0.010943 0.000000 -0.015788 0.000000
# 2 0.019935 0.021017 -0.008309 0.000000 -0.006531 0.000000
# 3 -0.010943 -0.008309 0.010130 0.000000 -0.002010 0.000000
# 4 0.000000 0.000000 0.000000 0.023932 0.000000 -0.042863
# 5 -0.015788 -0.006531 -0.002010 0.000000 0.041525 0.000000
# 6 0.000000 0.000000 0.000000 -0.042863 0.000000 0.036489
#
#
# Mechanical properties :
#
#
# Convention : Reuss Voigt Hill
#
# Bulk Modulus (GPa) = 10.38441 44.85800 27.62120
# Shear Modulus (GPa) = 21.96714 8.29271 15.12993
#
# Velocity S-wave (km/s) = 3.48473 2.14107 2.89201
# Velocity P-wave (km/s) = 4.68311 5.55963 5.14009
#
# Compressibility (1/GPa) = 0.09629823
#
# Stress axis : x y z
#
# Youngs Moduli (GPa) = 15.67757 47.58087 98.71306
#
# Poissons Ratio (x) = -0.94851 1.08019
# Poissons Ratio (y) = -0.31253 0.82023
# Poissons Ratio (z) = 0.17155 0.39536
#
# Static dielectric constant tensor:
#      x y z
#    x 1.613350 0.000000 0.000030 
#    y 0.000000 1.621880 0.000000 
#    z 0.000030 0.000000 1.628430 
# 
# From -- ./inp_files/196951.got.cif
#   From: 2010.05.17/outbox.cif.g08.bks.cpg/sg12_99_cif.got.tgz:196951.got - 2010.06.03 13:09:07.
