data_PCOD9182472
_publ_section_title
;
Structure prediction by ZEFSAII (Michael W. Deem and Ramdas Pophale) SiO2 
 PCOD9182472
Probable space group: C 2/M
;
_chemical_formula_sum "Si O2"
_cell_formula_units_Z 48
_cell_length_a 13.925722
_cell_length_b 28.058411
_cell_length_c 11.157391
_cell_angle_alpha 90.000000
_cell_angle_beta 142.479371
_cell_angle_gamma 90.000000
_cell_volume 2655.181890
_symmetry_space_group_name_H-M "C 2/M"
_symmetry_group_IT_number 12
_symmetry_cell_setting 'monoclinic'
loop_
_space_group_symop_operation_xyz
x,y,z
-x,y,-z
-x,-y,-z
x,-y,z
1/2+x,1/2+y,z
1/2-x,1/2+y,-z
1/2-x,1/2-y,-z
1/2+x,1/2-y,z
loop_
_atom_site_type_symbol
_atom_site_label
_atom_site_fract_x
_atom_site_fract_y
_atom_site_fract_z
Si Si1 0.680416 0.399879 0.825772
Si Si2 0.326224 0.257606 0.272723
Si Si3 0.306798 0.394939 0.445715
Si Si4 0.687149 0.000000 0.045764
Si Si5 0.165811 0.706847 0.344815
Si Si6 0.675379 0.000000 0.324265
Si Si7 0.688300 0.813174 0.926301
O O1 0.494340 0.391205 0.648170
O O2 0.727084 0.391982 0.731854
O O3 0.718059 0.453663 0.895258
O O4 0.782838 0.367613 0.015239
O O5 0.500000 0.260743 0.500000
O O6 0.202555 0.278410 0.244390
O O7 0.291005 0.204742 0.188708
O O8 0.314060 0.288322 0.139646
O O9 0.232347 0.346981 0.428195
O O10 0.250497 0.448052 0.431611
O O11 0.681616 0.000000 0.185406
O O12 0.508338 0.000000 0.823184
O O13 0.250000 0.750000 0.500000
O O14 0.983995 0.703522 0.201393
#
# Coordination Sequence:
#
# PCOD9182472 Si02
#       7
#     8   8   8   4   8   4   8
#     4  10  19  33  51  77 106 146 181 224 283 327
#     4  11  22  39  53  77 110 146 187 235 268 330
#     4  10  20  32  51  75 112 141 182 229 271 339
#     4   9  17  29  51  73 107 136 181 226 272 342
#     4  12  23  36  56  80 113 152 188 228 279 325
#     4   9  17  31  49  75 104 143 178 223 283 326
#     4  11  23  35  58  77 109 151 187 225 283 327
#
# _framework density 18.077857000000002
#
# number of rings (size 3 to 8) (size 9 to 14) (size 15 to 20)
#    0.000    1.500    3.333    3.000    2.333    3.333 
#    0.000    0.000    0.000    0.000    0.000    1.750 
#    0.000    2.667    0.000    0.000    0.000    0.000 
#
# Total GULP energy -133785.263576 kJ/mol
# GULP energy per Si atom -5574.385982 kJ/mol
# Density = 1.803671 g / cm^3
# Si number density = 18.077857 Si / 1000 Ang^3
#
#
#
# Elastic Constant Matrix: (Units=GPa)
#
#
# Indices 1 2 3 4 5 6 
#
# 1 37.7908 33.9581 14.2733 0.0000 7.3614 0.0000
# 2 33.9581 160.0678 51.6277 0.0000 10.1766 0.0000
# 3 14.2733 51.6277 74.2164 0.0000 10.5131 0.0000
# 4 0.0000 0.0000 0.0000 38.0579 0.0000 5.1466
# 5 7.3614 10.1766 10.5131 0.0000 11.9220 0.0000
# 6 0.0000 0.0000 0.0000 5.1466 0.0000 23.7023
#
#
#
# Elastic Compliance Matrix: (Units=1/GPa)
#
#
# Indices 1 2 3 4 5 6 
#
# 1 0.035478 -0.006489 0.000011 0.000000 -0.016377 0.000000
# 2 -0.006489 0.009293 -0.005326 0.000000 0.000771 0.000000
# 3 0.000011 -0.005326 0.018894 0.000000 -0.012122 0.000000
# 4 0.000000 0.000000 0.000000 0.027071 0.000000 -0.005878
# 5 -0.016377 0.000771 -0.012122 0.000000 0.104022 0.000000
# 6 0.000000 0.000000 0.000000 -0.005878 0.000000 0.043466
#
#
# Mechanical properties :
#
#
# Convention : Reuss Voigt Hill
#
# Bulk Modulus (GPa) = 24.96428 52.42147 38.69287
# Shear Modulus (GPa) = 18.16965 26.21748 22.19357
#
# Velocity S-wave (km/s) = 3.17374 3.81235 3.50761
# Velocity P-wave (km/s) = 5.22201 6.95983 6.15259
#
# Compressibility (1/GPa) = 0.04005724
#
# Stress axis : x y z
#
# Youngs Moduli (GPa) = 28.18613 107.61191 52.92734
#
# Poissons Ratio (x) = 0.69828 -0.00056
# Poissons Ratio (y) = 0.18290 0.28187
# Poissons Ratio (z) = -0.00030 0.57309
#
# Static dielectric constant tensor:
#      x y z
#    x 1.629060 0.000000 -0.003110 
#    y 0.000000 1.703880 0.000000 
#    z -0.003110 0.000000 1.626320 
# 
# From -- ./inp_files/150351.got.cif
#   From: 2010.05.17/outbox.cif.g08.bks.cpg/sg12_76_cif.got.tgz:150351.got - 2010.06.03 13:09:07.
