data_PCOD9182272
_publ_section_title
;
Structure prediction by ZEFSAII (Michael W. Deem and Ramdas Pophale) SiO2 
 PCOD9182272
Probable space group: C 2/M
;
_chemical_formula_sum "Si O2"
_cell_formula_units_Z 48
_cell_length_a 20.925863
_cell_length_b 7.884668
_cell_length_c 14.604184
_cell_angle_alpha 90.000000
_cell_angle_beta 89.503661
_cell_angle_gamma 90.000000
_cell_volume 2409.504764
_symmetry_space_group_name_H-M "C 2/M"
_symmetry_group_IT_number 12
_symmetry_cell_setting 'monoclinic'
loop_
_space_group_symop_operation_xyz
x,y,z
-x,y,-z
-x,-y,-z
x,-y,z
1/2+x,1/2+y,z
1/2-x,1/2+y,-z
1/2-x,1/2-y,-z
1/2+x,1/2-y,z
loop_
_atom_site_type_symbol
_atom_site_label
_atom_site_fract_x
_atom_site_fract_y
_atom_site_fract_z
Si Si1 0.639445 0.296315 0.248954
Si Si2 0.316483 0.704611 0.951473
Si Si3 0.438242 0.795689 0.446619
Si Si4 0.060675 0.793125 0.938045
Si Si5 0.313746 0.202144 0.553511
Si Si6 0.991675 0.795809 0.253493
O O1 0.635907 0.500000 0.242605
O O2 0.671489 0.235096 0.153393
O O3 0.678242 0.256618 0.340943
O O4 0.565546 0.233585 0.258079
O O5 0.319911 0.500000 0.948207
O O6 0.250000 0.750000 0.000000
O O7 0.374717 0.766378 0.014664
O O8 0.500000 0.730964 0.500000
O O9 0.374359 0.729781 0.495227
O O10 0.450529 0.750505 0.342013
O O11 0.437234 0.000000 0.453696
O O12 0.044507 0.733771 0.836528
O O13 0.063664 0.000000 0.936084
O O14 0.000000 0.747094 0.000000
O O15 0.250000 0.250000 0.500000
O O16 0.317305 0.000000 0.554187
O O17 0.995642 0.000000 0.247818
#
# Coordination Sequence:
#
# PCOD9182272 Si02
#       6
#     8   8   8   8   8   8
#     4  10  20  36  59  86 115 151 192 239 292 342
#     4  10  21  37  58  84 118 154 191 236 287 342
#     4  10  21  38  57  81 114 149 184 231 292 343
#     4   9  16  32  57  83 109 143 188 234 277 323
#     4  11  24  41  61  84 116 155 192 236 288 348
#     4  10  19  32  59  91 113 144 195 243 279 331
#
# _framework density 19.921106999999999
#
# number of rings (size 3 to 8) (size 9 to 14) (size 15 to 20)
#    0.000    2.000    3.333    0.500    0.000    3.667 
#    0.000    4.167    0.000    1.000    0.000    0.000 
#    0.000    0.000    0.000    0.000    0.000    0.000 
#
# Total GULP energy -133959.826260 kJ/mol
# GULP energy per Si atom -5581.659427 kJ/mol
# Density = 1.987577 g / cm^3
# Si number density = 19.921107 Si / 1000 Ang^3
#
#
#
# Elastic Constant Matrix: (Units=GPa)
#
#
# Indices 1 2 3 4 5 6 
#
# 1 176.3824 8.2220 107.3855 0.0000 10.3589 0.0000
# 2 8.2220 22.6952 5.1724 0.0000 1.1960 0.0000
# 3 107.3855 5.1724 217.2619 0.0000 10.6974 0.0000
# 4 0.0000 0.0000 0.0000 30.2158 0.0000 -4.3811
# 5 10.3589 1.1960 10.6974 0.0000 33.1642 0.0000
# 6 0.0000 0.0000 0.0000 -4.3811 0.0000 19.5851
#
#
#
# Elastic Compliance Matrix: (Units=1/GPa)
#
#
# Indices 1 2 3 4 5 6 
#
# 1 0.008253 -0.002020 -0.003971 0.000000 -0.001224 0.000000
# 2 -0.002020 0.044850 -0.000021 0.000000 -0.000980 0.000000
# 3 -0.003971 -0.000021 0.006610 0.000000 -0.000891 0.000000
# 4 0.000000 0.000000 0.000000 0.034205 0.000000 0.007651
# 5 -0.001224 -0.000980 -0.000891 0.000000 0.030858 0.000000
# 6 0.000000 0.000000 0.000000 0.007651 0.000000 0.052771
#
#
# Mechanical properties :
#
#
# Convention : Reuss Voigt Hill
#
# Bulk Modulus (GPa) = 20.96922 73.09991 47.03456
# Shear Modulus (GPa) = 24.33474 36.29700 30.31587
#
# Velocity S-wave (km/s) = 3.49887 4.27316 3.90525
# Velocity P-wave (km/s) = 5.18380 7.81799 6.63297
#
# Compressibility (1/GPa) = 0.04768895
#
# Stress axis : x y z
#
# Youngs Moduli (GPa) = 121.16598 22.29633 151.29080
#
# Poissons Ratio (x) = 0.04505 0.60076
# Poissons Ratio (y) = 0.24481 0.00316
# Poissons Ratio (z) = 0.48114 0.00047
#
# Static dielectric constant tensor:
#      x y z
#    x 1.681990 0.000000 0.023610 
#    y 0.000000 1.734060 0.000000 
#    z 0.023610 0.000000 1.708070 
# 
# From -- ./inp_files/221607.got.cif
#   From: 2010.05.17/outbox.cif.g08.bks.cpg/sg12_111_cif.got.tgz:221607.got - 2010.06.03 13:09:07.
