data_PCOD9182035
_publ_section_title
;
Structure prediction by ZEFSAII (Michael W. Deem and Ramdas Pophale) SiO2 
 PCOD9182035
Probable space group: C 2/M
;
_chemical_formula_sum "Si O2"
_cell_formula_units_Z 56
_cell_length_a 18.329097
_cell_length_b 10.885333
_cell_length_c 17.354226
_cell_angle_alpha 90.000000
_cell_angle_beta 59.512796
_cell_angle_gamma 90.000000
_cell_volume 2983.771383
_symmetry_space_group_name_H-M "C 2/M"
_symmetry_group_IT_number 12
_symmetry_cell_setting 'monoclinic'
loop_
_space_group_symop_operation_xyz
x,y,z
-x,y,-z
-x,-y,-z
x,-y,z
1/2+x,1/2+y,z
1/2-x,1/2+y,-z
1/2-x,1/2-y,-z
1/2+x,1/2-y,z
loop_
_atom_site_type_symbol
_atom_site_label
_atom_site_fract_x
_atom_site_fract_y
_atom_site_fract_z
Si Si1 0.110805 0.856698 0.294547
Si Si2 0.190172 0.139346 0.005585
Si Si3 0.080688 0.860791 0.605088
Si Si4 0.198927 0.860942 0.412352
Si Si5 0.497081 0.646102 0.092532
Si Si6 0.271442 0.132800 0.801054
Si Si7 0.154664 0.800388 0.726062
O O1 0.139683 0.858476 0.368395
O O2 0.171146 0.754484 0.223788
O O3 0.014390 0.811051 0.339674
O O4 0.118464 0.000000 0.262393
O O5 0.203396 0.135972 0.906169
O O6 0.212155 0.000000 0.021515
O O7 0.250000 0.250000 0.000000
O O8 0.091558 0.162332 0.075145
O O9 0.146319 0.799647 0.510271
O O10 0.119889 0.865734 0.668767
O O11 0.066191 0.000000 0.583582
O O12 0.288784 0.808070 0.339004
O O13 0.215133 0.000000 0.427901
O O14 0.475718 0.500000 0.111748
O O15 0.427024 0.721945 0.176517
O O16 0.500000 0.674402 0.000000
O O17 0.221475 0.135487 0.747297
O O18 0.316706 0.000000 0.783417
#
# Coordination Sequence:
#
# PCOD9182035 Si02
#       7
#     8   8   8   8   8   8   8
#     4   9  19  34  56  82 110 147 188 226 269 325
#     4  10  22  38  58  82 110 145 182 227 279 329
#     4  10  19  32  55  84 107 138 190 238 269 315
#     4   9  19  36  54  76 112 151 183 223 278 331
#     4  10  19  35  58  81 107 140 182 227 273 323
#     4  10  20  36  55  79 113 148 179 224 284 331
#     4  11  20  33  56  82 109 140 185 232 274 323
#
# _framework density 18.768193
#
# number of rings (size 3 to 8) (size 9 to 14) (size 15 to 20)
#    0.000    2.143    1.429    2.143    2.000    2.286 
#    0.000    1.429    0.000    9.429    0.000    0.000 
#    0.000    0.000    0.000    0.000    0.000    0.000 
#
# Total GULP energy -155890.338045 kJ/mol
# GULP energy per Si atom -5567.512073 kJ/mol
# Density = 1.872548 g / cm^3
# Si number density = 18.768193 Si / 1000 Ang^3
#
#
#
# Elastic Constant Matrix: (Units=GPa)
#
#
# Indices 1 2 3 4 5 6 
#
# 1 80.6007 40.0047 29.6870 0.0000 -24.6175 0.0000
# 2 40.0047 72.5790 27.9126 0.0000 -21.3613 0.0000
# 3 29.6870 27.9126 93.7133 0.0000 -23.7473 0.0000
# 4 0.0000 0.0000 0.0000 21.9240 0.0000 2.5455
# 5 -24.6175 -21.3613 -23.7473 0.0000 32.0519 0.0000
# 6 0.0000 0.0000 0.0000 2.5455 0.0000 5.4056
#
#
#
# Elastic Compliance Matrix: (Units=1/GPa)
#
#
# Indices 1 2 3 4 5 6 
#
# 1 0.019393 -0.007486 -0.001728 0.000000 0.008626 0.000000
# 2 -0.007486 0.020613 -0.002147 0.000000 0.006397 0.000000
# 3 -0.001728 -0.002147 0.013738 0.000000 0.007420 0.000000
# 4 0.000000 0.000000 0.000000 0.048250 0.000000 -0.022721
# 5 0.008626 0.006397 0.007420 0.000000 0.047586 0.000000
# 6 0.000000 0.000000 0.000000 -0.022721 0.000000 0.195692
#
#
# Mechanical properties :
#
#
# Convention : Reuss Voigt Hill
#
# Bulk Modulus (GPa) = 32.23514 49.12240 40.67877
# Shear Modulus (GPa) = 13.21579 21.82887 17.52233
#
# Velocity S-wave (km/s) = 2.65648 3.41409 3.05883
# Velocity P-wave (km/s) = 5.15964 6.46308 5.84779
#
# Compressibility (1/GPa) = 0.03102205
#
# Stress axis : x y z
#
# Youngs Moduli (GPa) = 51.56386 48.51337 72.79017
#
# Poissons Ratio (x) = 0.36318 0.12578
# Poissons Ratio (y) = 0.38602 0.15628
# Poissons Ratio (z) = 0.08910 0.10416
#
# Static dielectric constant tensor:
#      x y z
#    x 1.654740 0.000000 -0.002140 
#    y 0.000000 1.667620 0.000000 
#    z -0.002140 0.000000 1.680830 
# 
# From -- ./inp_files/276367.got.cif
#   From: 2010.05.17/outbox.cif.g08.bks.cpg/sg12_139_cif.got.tgz:276367.got - 2010.06.03 13:09:07.
