data_PCOD9182295
_publ_section_title
;
Structure prediction by ZEFSAII (Michael W. Deem and Ramdas Pophale) SiO2 
 PCOD9182295
Probable space group: C 2/M
;
_chemical_formula_sum "Si O2"
_cell_formula_units_Z 44
_cell_length_a 28.697927
_cell_length_b 9.301082
_cell_length_c 15.419699
_cell_angle_alpha 90.000000
_cell_angle_beta 25.892939
_cell_angle_gamma 90.000000
_cell_volume 1797.355824
_symmetry_space_group_name_H-M "C 2/M"
_symmetry_group_IT_number 12
_symmetry_cell_setting 'monoclinic'
loop_
_space_group_symop_operation_xyz
x,y,z
-x,y,-z
-x,-y,-z
x,-y,z
1/2+x,1/2+y,z
1/2-x,1/2+y,-z
1/2-x,1/2-y,-z
1/2+x,1/2-y,z
loop_
_atom_site_type_symbol
_atom_site_label
_atom_site_fract_x
_atom_site_fract_y
_atom_site_fract_z
Si Si1 0.207426 0.500000 0.089085
Si Si2 0.084173 0.664059 0.612372
Si Si3 0.210366 0.725986 0.942571
Si Si4 0.343217 0.332760 0.148234
Si Si5 0.862569 0.674871 0.289608
Si Si6 0.450078 0.339098 0.497326
O O1 0.257703 0.376112 0.068518
O O2 0.164950 0.624885 0.092784
O O3 0.047896 0.500000 0.663542
O O4 0.213445 0.662916 0.379744
O O5 0.071436 0.709252 0.733672
O O6 0.038347 0.762096 0.613224
O O7 0.146760 0.753369 0.960755
O O8 0.324165 0.654458 0.726795
O O9 0.379162 0.500000 0.086633
O O10 0.389541 0.244012 0.151884
O O11 0.855703 0.500000 0.294748
O O12 0.750000 0.750000 0.500000
O O13 0.500000 0.267801 0.500000
O O14 0.496542 0.500000 0.414155
#
# Coordination Sequence:
#
# PCOD9182295 Si02
#       6
#     4   8   8   8   8   8
#     4  10  20  32  50  64  94 126 160 194 234 274
#     4   8  16  28  40  60  89 121 152 184 221 272
#     4  10  19  33  47  70  94 127 155 194 235 274
#     4   9  16  26  41  62  91 117 150 185 226 280
#     4   9  16  24  38  59  87 119 150 181 223 277
#     4  10  20  32  47  68  96 126 157 190 229 278
#
# _framework density 24.480405000000001
#
# number of rings (size 3 to 8) (size 9 to 14) (size 15 to 20)
#    0.000    2.727    1.818    1.636    2.545    5.455 
#    0.000    0.000    0.000    0.000    0.000    0.000 
#    0.000    8.727    0.000    0.000    0.000    0.000 
#
# Total GULP energy -122509.632654 kJ/mol
# GULP energy per Si atom -5568.619666 kJ/mol
# Density = 2.442469 g / cm^3
# Si number density = 24.480405 Si / 1000 Ang^3
#
#
#
# Elastic Constant Matrix: (Units=GPa)
#
#
# Indices 1 2 3 4 5 6 
#
# 1 263.6177 94.5400 52.8674 0.0000 57.0640 0.0000
# 2 94.5400 132.7551 19.1117 0.0000 48.1065 0.0000
# 3 52.8674 19.1117 82.2937 0.0000 16.5637 0.0000
# 4 0.0000 0.0000 0.0000 -120.5009 0.0000 -92.3759
# 5 57.0640 48.1065 16.5637 0.0000 46.9348 0.0000
# 6 0.0000 0.0000 0.0000 -92.3759 0.0000 -63.7336
#
#
#
# Elastic Compliance Matrix: (Units=1/GPa)
#
#
# Indices 1 2 3 4 5 6 
#
# 1 0.006045 -0.002547 -0.002517 0.000000 -0.003851 0.000000
# 2 -0.002547 0.013065 0.000726 0.000000 -0.010551 0.000000
# 3 -0.002517 0.000726 0.014138 0.000000 -0.002673 0.000000
# 4 0.000000 0.000000 0.000000 0.074687 0.000000 -0.108252
# 5 -0.003851 -0.010551 -0.002673 0.000000 0.037745 0.000000
# 6 0.000000 0.000000 0.000000 -0.108252 0.000000 0.141211
#
#
# Mechanical properties :
#
#
# Convention : Reuss Voigt Hill
#
# Bulk Modulus (GPa) = 40.69714 90.18939 65.44327
# Shear Modulus (GPa) = 16.46040 -6.65011 4.90515
#
# Velocity S-wave (km/s) = 2.59586 -1.64997 1.41706
# Velocity P-wave (km/s) = 5.06410 5.76989 5.42848
#
# Compressibility (1/GPa) = 0.02457175
#
# Stress axis : x y z
#
# Youngs Moduli (GPa) = 165.42044 76.53761 70.73112
#
# Poissons Ratio (x) = 0.19496 0.17803
# Poissons Ratio (y) = 0.42137 -0.05133
# Poissons Ratio (z) = 0.41635 -0.05555
#
# Static dielectric constant tensor:
#      x y z
#    x 1.912690 0.000000 -0.050750 
#    y 0.000000 1.878000 0.000000 
#    z -0.050750 0.000000 2.094760 
# 
# From -- ./inp_files/230561.got.cif
#   From: 2010.05.17/outbox.cif.g08.bks.cpg/sg12_116_cif.got.tgz:230561.got - 2010.06.03 13:09:07.
