data_PCOD9182277
_publ_section_title
;
Structure prediction by ZEFSAII (Michael W. Deem and Ramdas Pophale) SiO2 
 PCOD9182277
Probable space group: C 2/M
;
_chemical_formula_sum "Si O2"
_cell_formula_units_Z 50
_cell_length_a 12.324121
_cell_length_b 26.872328
_cell_length_c 7.779248
_cell_angle_alpha 90.000000
_cell_angle_beta 114.603399
_cell_angle_gamma 90.000000
_cell_volume 2342.414461
_symmetry_space_group_name_H-M "C 2/M"
_symmetry_group_IT_number 12
_symmetry_cell_setting 'monoclinic'
loop_
_space_group_symop_operation_xyz
x,y,z
-x,y,-z
-x,-y,-z
x,-y,z
1/2+x,1/2+y,z
1/2-x,1/2+y,-z
1/2-x,1/2-y,-z
1/2+x,1/2-y,z
loop_
_atom_site_type_symbol
_atom_site_label
_atom_site_fract_x
_atom_site_fract_y
_atom_site_fract_z
Si Si1 0.515485 0.169683 0.207084
Si Si2 0.491689 0.342339 0.208481
Si Si3 0.242772 0.321104 0.568004
Si Si4 0.500000 0.000000 0.500000
Si Si5 0.594606 0.445454 0.904637
Si Si6 0.841458 0.752607 0.218338
Si Si7 0.341746 0.089337 0.237578
O O1 0.652253 0.170069 0.353040
O O2 0.449510 0.213674 0.264491
O O3 0.445208 0.118303 0.199265
O O4 0.500000 0.181875 0.000000
O O5 0.618191 0.327130 0.367684
O O6 0.456142 0.398489 0.229500
O O7 0.395134 0.306705 0.230029
O O8 0.500000 0.337018 0.000000
O O9 0.219867 0.269095 0.652293
O O10 0.208621 0.366808 0.674268
O O11 0.404258 0.044028 0.376945
O O12 0.598256 0.500000 0.824250
O O13 0.500000 0.448706 0.000000
O O14 0.727367 0.430762 0.056967
O O15 0.750000 0.750000 0.000000
#
# Coordination Sequence:
#
# PCOD9182277 Si02
#       7
#     8   8   8   2   8   8   8
#     4  11  25  43  60  89 129 169 210 262 315 374
#     4  11  19  35  60  95 128 163 208 261 315 383
#     4  11  22  41  63  91 130 164 211 264 315 382
#     4  12  20  32  68 100 116 168 218 262 310 384
#     4  10  19  32  59  98 128 163 204 255 311 371
#     4  11  21  38  64  88 124 166 203 259 321 382
#     4  11  19  37  64  93 129 161 210 264 315 374
#
# _framework density 21.345497000000002
#
# number of rings (size 3 to 8) (size 9 to 14) (size 15 to 20)
#    0.000    1.120    7.200    2.880    0.000    0.640 
#    2.880    0.400    0.000    0.000    0.000    1.120 
#    0.000    0.000    0.000    0.000    0.000    0.160 
#
# Total GULP energy -139452.441450 kJ/mol
# GULP energy per Si atom -5578.097658 kJ/mol
# Density = 2.129691 g / cm^3
# Si number density = 21.345497 Si / 1000 Ang^3
#
#
#
# Elastic Constant Matrix: (Units=GPa)
#
#
# Indices 1 2 3 4 5 6 
#
# 1 72.6885 46.7558 53.6408 0.0000 29.5092 0.0000
# 2 46.7558 172.9987 18.2449 0.0000 5.9738 0.0000
# 3 53.6408 18.2449 107.9303 0.0000 29.8314 0.0000
# 4 0.0000 0.0000 0.0000 47.8502 0.0000 62.9287
# 5 29.5092 5.9738 29.8314 0.0000 43.7080 0.0000
# 6 0.0000 0.0000 0.0000 62.9287 0.0000 124.7736
#
#
#
# Elastic Compliance Matrix: (Units=1/GPa)
#
#
# Indices 1 2 3 4 5 6 
#
# 1 0.031487 -0.006914 -0.010927 0.000000 -0.012855 0.000000
# 2 -0.006914 0.007404 0.001447 0.000000 0.002668 0.000000
# 3 -0.010927 0.001447 0.015365 0.000000 -0.003308 0.000000
# 4 0.000000 0.000000 0.000000 0.062063 0.000000 -0.031301
# 5 -0.012855 0.002668 -0.003308 0.000000 0.033451 0.000000
# 6 0.000000 0.000000 0.000000 -0.031301 0.000000 0.023801
#
#
# Mechanical properties :
#
#
# Convention : Reuss Voigt Hill
#
# Bulk Modulus (GPa) = 46.57793 65.65561 56.11677
# Shear Modulus (GPa) = 23.41745 58.93143 41.17444
#
# Velocity S-wave (km/s) = 3.31579 5.26007 4.39675
# Velocity P-wave (km/s) = 6.04381 8.22900 7.21956
#
# Compressibility (1/GPa) = 0.02146940
#
# Stress axis : x y z
#
# Youngs Moduli (GPa) = 31.75930 135.05904 65.08092
#
# Poissons Ratio (x) = 0.93374 0.71113
# Poissons Ratio (y) = 0.21957 -0.09417
# Poissons Ratio (z) = 0.34703 -0.19542
#
# Static dielectric constant tensor:
#      x y z
#    x 1.906260 0.000000 -0.101280 
#    y 0.000000 1.776890 0.000000 
#    z -0.101280 0.000000 1.851440 
# 
# From -- ./inp_files/67118.got.cif
#   From: 2010.05.17/outbox.cif.g08.bks.cpg/sg12_34_cif.got.tgz:67118.got - 2010.06.03 13:09:07.
