data_PCOD9182737
_publ_section_title
;
Structure prediction by ZEFSAII (Michael W. Deem and Ramdas Pophale) SiO2 
 PCOD9182737
Probable space group: C 2/M
;
_chemical_formula_sum "Si O2"
_cell_formula_units_Z 64
_cell_length_a 23.913551
_cell_length_b 7.466970
_cell_length_c 22.315947
_cell_angle_alpha 90.000000
_cell_angle_beta 129.350295
_cell_angle_gamma 90.000000
_cell_volume 3081.362399
_symmetry_space_group_name_H-M "C 2/M"
_symmetry_group_IT_number 12
_symmetry_cell_setting 'monoclinic'
loop_
_space_group_symop_operation_xyz
x,y,z
-x,y,-z
-x,-y,-z
x,-y,z
1/2+x,1/2+y,z
1/2-x,1/2+y,-z
1/2-x,1/2-y,-z
1/2+x,1/2-y,z
loop_
_atom_site_type_symbol
_atom_site_label
_atom_site_fract_x
_atom_site_fract_y
_atom_site_fract_z
Si Si1 0.417416 0.283673 0.939332
Si Si2 0.682173 0.718308 0.882847
Si Si3 0.360490 0.712668 0.541099
Si Si4 0.504736 0.281086 0.572415
Si Si5 0.208907 0.284040 0.382506
Si Si6 0.156753 0.781196 0.730727
Si Si7 0.150673 0.794160 0.986203
Si Si8 0.800806 0.287485 0.759651
O O1 0.416562 0.500000 0.939924
O O2 0.380636 0.211913 0.974947
O O3 0.370562 0.237104 0.849160
O O4 0.500000 0.224697 0.000000
O O5 0.684970 0.500000 0.886702
O O6 0.656903 0.772830 0.800269
O O7 0.763261 0.787899 0.946515
O O8 0.637324 0.780021 0.910582
O O9 0.360928 0.500000 0.530892
O O10 0.435375 0.780569 0.563816
O O11 0.287930 0.782043 0.458647
O O12 0.347743 0.739310 0.603320
O O13 0.500000 0.227900 0.500000
O O14 0.504568 0.500000 0.573987
O O15 0.582137 0.223430 0.650217
O O16 0.211756 0.500000 0.382974
O O17 0.192525 0.219105 0.304042
O O18 0.229067 0.718689 0.745407
O O19 0.158515 0.000000 0.731005
O O20 0.125533 0.000000 0.967617
O O21 0.789863 0.500000 0.746724
#
# Coordination Sequence:
#
# PCOD9182737 Si02
#       8
#     8   8   8   8   8   8   8   8
#     4  10  21  36  50  70 100 130 159 201 253 297
#     4   9  16  28  48  71  92 119 156 196 236 282
#     4   9  17  31  51  76 102 133 170 202 240 291
#     4   9  16  27  46  75 106 129 157 201 246 284
#     4   9  18  32  51  73 101 134 167 206 244 281
#     4   9  16  27  46  72  97 123 158 202 244 282
#     4   9  17  30  48  68  93 122 153 192 241 289
#     4  10  19  33  53  74  95 126 168 206 244 292
#
# _framework density 20.770033999999999
#
# number of rings (size 3 to 8) (size 9 to 14) (size 15 to 20)
#    0.000    2.750    1.250    0.750    0.000    3.750 
#    2.250    0.000    0.000    1.875    0.000    0.000 
#    0.000    0.000    0.000    0.000    0.000    0.000 
#
# Total GULP energy -178443.723508 kJ/mol
# GULP energy per Si atom -5576.366360 kJ/mol
# Density = 2.072276 g / cm^3
# Si number density = 20.770034 Si / 1000 Ang^3
#
#
#
# Elastic Constant Matrix: (Units=GPa)
#
#
# Indices 1 2 3 4 5 6 
#
# 1 139.9150 -2.1522 117.1832 0.0000 -20.3442 0.0001
# 2 -2.1522 59.0149 -6.5207 0.0002 -1.1544 0.0004
# 3 117.1832 -6.5207 174.9496 0.0000 -28.9320 0.0001
# 4 0.0000 0.0002 0.0000 8.6147 0.0000 0.2237
# 5 -20.3442 -1.1544 -28.9320 0.0000 36.8236 0.0000
# 6 0.0001 0.0004 0.0001 0.2237 0.0000 46.4193
#
#
#
# Elastic Compliance Matrix: (Units=1/GPa)
#
#
# Indices 1 2 3 4 5 6 
#
# 1 0.016309 -0.000598 -0.010872 0.000000 0.000450 0.000000
# 2 -0.000598 0.017082 0.001231 0.000000 0.001172 0.000000
# 3 -0.010872 0.001231 0.013857 0.000000 0.004920 0.000000
# 4 0.000000 0.000000 0.000000 0.116095 0.000000 -0.000560
# 5 0.000450 0.001172 0.004920 0.000000 0.031307 0.000000
# 6 0.000000 0.000000 0.000000 -0.000560 0.000000 0.021545
#
#
# Mechanical properties :
#
#
# Convention : Reuss Voigt Hill
#
# Bulk Modulus (GPa) = 37.35357 65.65558 51.50457
# Shear Modulus (GPa) = 20.35863 36.06281 28.21072
#
# Velocity S-wave (km/s) = 3.13420 4.17140 3.68943
# Velocity P-wave (km/s) = 5.57862 7.40811 6.55748
#
# Compressibility (1/GPa) = 0.02677121
#
# Stress axis : x y z
#
# Youngs Moduli (GPa) = 61.31662 58.54114 72.16355
#
# Poissons Ratio (x) = 0.03499 0.78454
# Poissons Ratio (y) = 0.03665 -0.08883
# Poissons Ratio (z) = 0.66662 -0.07206
#
# Static dielectric constant tensor:
#      x y z
#    x 1.750300 0.000000 -0.030910 
#    y 0.000000 1.809550 0.000000 
#    z -0.030910 0.000000 1.729230 
# 
# From -- ./inp_files/324281.got.cif
#   From: 2010.05.17/outbox.cif.g08.bks.cpg/sg12_163_cif.got.tgz:324281.got - 2010.06.03 13:09:07.
