data_PCOD9182195
_publ_section_title
;
Structure prediction by ZEFSAII (Michael W. Deem and Ramdas Pophale) SiO2 
 PCOD9182195
Probable space group: C 2/M
;
_chemical_formula_sum "Si O2"
_cell_formula_units_Z 42
_cell_length_a 15.183621
_cell_length_b 26.382885
_cell_length_c 6.093797
_cell_angle_alpha 90.000000
_cell_angle_beta 56.039498
_cell_angle_gamma 90.000000
_cell_volume 2024.704398
_symmetry_space_group_name_H-M "C 2/M"
_symmetry_group_IT_number 12
_symmetry_cell_setting 'monoclinic'
loop_
_space_group_symop_operation_xyz
x,y,z
-x,y,-z
-x,-y,-z
x,-y,z
1/2+x,1/2+y,z
1/2-x,1/2+y,-z
1/2-x,1/2-y,-z
1/2+x,1/2-y,z
loop_
_atom_site_type_symbol
_atom_site_label
_atom_site_fract_x
_atom_site_fract_y
_atom_site_fract_z
Si Si1 0.739756 0.848419 0.030923
Si Si2 0.386233 0.106017 0.167172
Si Si3 0.404187 0.685242 0.461814
Si Si4 0.407844 0.797255 0.445047
Si Si5 0.166726 0.908270 0.721701
Si Si6 0.500000 0.500000 0.000000
O O1 0.697392 0.809525 0.269758
O O2 0.809127 0.889447 0.065266
O O3 0.648804 0.879149 0.029359
O O4 0.801008 0.818429 0.758711
O O5 0.410630 0.157952 0.266406
O O6 0.281225 0.083959 0.437320
O O7 0.500000 0.077739 0.000000
O O8 0.500000 0.679269 0.500000
O O9 0.409839 0.740723 0.347519
O O10 0.391924 0.638737 0.315296
O O11 0.500000 0.800118 0.500000
O O12 0.090416 0.955887 0.826283
#
# Coordination Sequence:
#
# PCOD9182195 Si02
#       6
#     8   8   8   8   8   2
#     4  10  20  36  57  87 122 168 195 251 288 358
#     4  10  20  38  61  93 126 162 199 241 300 371
#     4  10  21  36  53  89 126 163 210 243 291 357
#     4  10  19  32  56  90 127 171 198 231 290 360
#     4  10  24  40  65  86 115 160 206 261 315 354
#     4  12  24  52  68  86 114 156 206 270 318 366
#
# _framework density 20.743769
#
# number of rings (size 3 to 8) (size 9 to 14) (size 15 to 20)
#    0.000    1.905    1.905    1.714    0.000    8.381 
#    1.714   12.381    0.000    1.143    0.000    0.000 
#    0.000    0.000    0.000    0.000    0.000    0.000 
#
# Total GULP energy -116939.060648 kJ/mol
# GULP energy per Si atom -5568.526698 kJ/mol
# Density = 2.069656 g / cm^3
# Si number density = 20.743769 Si / 1000 Ang^3
#
#
#
# Elastic Constant Matrix: (Units=GPa)
#
#
# Indices 1 2 3 4 5 6 
#
# 1 99.4822 47.1085 23.0724 0.0000 -12.0113 0.0000
# 2 47.1085 126.9462 46.3487 0.0000 -9.3235 0.0000
# 3 23.0724 46.3487 69.1678 0.0000 -15.0888 0.0000
# 4 0.0000 0.0000 0.0000 6.2381 0.0000 -13.8097
# 5 -12.0113 -9.3235 -15.0888 0.0000 44.5973 0.0000
# 6 0.0000 0.0000 0.0000 -13.8097 0.0000 6.7341
#
#
#
# Elastic Compliance Matrix: (Units=1/GPa)
#
#
# Indices 1 2 3 4 5 6 
#
# 1 0.012489 -0.004140 -0.000914 0.000000 0.002189 0.000000
# 2 -0.004140 0.011803 -0.006730 0.000000 -0.000924 0.000000
# 3 -0.000914 -0.006730 0.020418 0.000000 0.005255 0.000000
# 4 0.000000 0.000000 0.000000 -0.045286 0.000000 -0.092870
# 5 0.002189 -0.000924 0.005255 0.000000 0.024597 0.000000
# 6 0.000000 0.000000 0.000000 -0.092870 0.000000 -0.041951
#
#
# Mechanical properties :
#
#
# Convention : Reuss Voigt Hill
#
# Bulk Modulus (GPa) = 47.29857 58.73950 53.01903
# Shear Modulus (GPa) = 394.16468 23.45165 208.80817
#
# Velocity S-wave (km/s) = 13.79958 3.36600 10.04386
# Velocity P-wave (km/s) = 16.63597 6.59430 12.65386
#
# Compressibility (1/GPa) = 0.02114229
#
# Stress axis : x y z
#
# Youngs Moduli (GPa) = 80.07205 84.72599 48.97535
#
# Poissons Ratio (x) = 0.35076 0.04478
# Poissons Ratio (y) = 0.33149 0.32959
# Poissons Ratio (z) = 0.07321 0.57017
#
# Static dielectric constant tensor:
#      x y z
#    x 1.827300 0.000000 -0.053320 
#    y 0.000000 1.690770 0.000000 
#    z -0.053320 0.000000 1.767150 
# 
# From -- ./inp_files/12302.got.cif
#   From: 2010.05.17/outbox.cif.g08.bks.cpg/sg12_7_cif.got.tgz:12302.got - 2010.06.03 13:09:07.
