data_PCOD9182978
_publ_section_title
;
Structure prediction by ZEFSAII (Michael W. Deem and Ramdas Pophale) SiO2 
 PCOD9182978
Probable space group: C 2/M
;
_chemical_formula_sum "Si O2"
_cell_formula_units_Z 48
_cell_length_a 24.194917
_cell_length_b 23.454914
_cell_length_c 12.603166
_cell_angle_alpha 90.000000
_cell_angle_beta 156.870069
_cell_angle_gamma 90.000000
_cell_volume 2809.496826
_symmetry_space_group_name_H-M "C 2/M"
_symmetry_group_IT_number 12
_symmetry_cell_setting 'monoclinic'
loop_
_space_group_symop_operation_xyz
x,y,z
-x,y,-z
-x,-y,-z
x,-y,z
1/2+x,1/2+y,z
1/2-x,1/2+y,-z
1/2-x,1/2-y,-z
1/2+x,1/2-y,z
loop_
_atom_site_type_symbol
_atom_site_label
_atom_site_fract_x
_atom_site_fract_y
_atom_site_fract_z
Si Si1 0.657780 0.065262 0.900001
Si Si2 0.818585 0.933601 0.958522
Si Si3 0.187789 0.236277 0.626135
Si Si4 0.405350 0.141522 0.532048
Si Si5 0.918201 0.118417 0.466875
Si Si6 0.492816 0.782721 0.861784
O O1 0.726643 0.071041 0.905118
O O2 0.532235 0.109258 0.698383
O O3 0.607987 0.000000 0.823553
O O4 0.783137 0.079257 0.203599
O O5 0.733177 0.896623 0.722999
O O6 0.826906 0.000000 0.945493
O O7 0.971613 0.908946 0.256756
O O8 0.131501 0.295331 0.578090
O O9 0.132823 0.180091 0.585696
O O10 0.122865 0.240239 0.392623
O O11 0.355415 0.235130 0.915834
O O12 0.451959 0.157239 0.734139
O O13 0.000000 0.123928 0.500000
O O14 0.500000 0.784160 0.000000
#
# Coordination Sequence:
#
# PCOD9182978 Si02
#       6
#     8   8   8   8   8   8
#     4  10  19  34  53  76 108 147 183 209 244 307
#     4  10  20  33  52  78 108 146 183 210 246 304
#     4  10  20  36  54  83 107 133 173 214 270 322
#     4  10  21  32  54  78 107 131 175 218 268 308
#     4  10  19  33  53  81 114 143 170 209 257 313
#     4  10  21  37  57  78 102 135 178 222 268 315
#
# _framework density 17.084909
#
# number of rings (size 3 to 8) (size 9 to 14) (size 15 to 20)
#    1.000    1.000    1.667    3.000    0.000    4.667 
#    0.000    4.167    0.000    2.000    0.000    1.167 
#    0.000    0.000    0.000    0.000    0.000    0.000 
#
# Total GULP energy -133685.003168 kJ/mol
# GULP energy per Si atom -5570.208465 kJ/mol
# Density = 1.704602 g / cm^3
# Si number density = 17.084909 Si / 1000 Ang^3
#
#
#
# Elastic Constant Matrix: (Units=GPa)
#
#
# Indices 1 2 3 4 5 6 
#
# 1 12.4481 14.3807 6.7657 0.0000 -2.9714 0.0000
# 2 14.3807 97.5658 25.2358 0.0000 2.2061 0.0000
# 3 6.7657 25.2358 102.7605 0.0000 -8.1024 0.0000
# 4 0.0000 0.0000 0.0000 20.4059 0.0000 -10.2786
# 5 -2.9714 2.2061 -8.1024 0.0000 17.6886 0.0000
# 6 0.0000 0.0000 0.0000 -10.2786 0.0000 3.8939
#
#
#
# Elastic Compliance Matrix: (Units=1/GPa)
#
#
# Indices 1 2 3 4 5 6 
#
# 1 0.103197 -0.015215 -0.001599 0.000000 0.018501 0.000000
# 2 -0.015215 0.013313 -0.002698 0.000000 -0.005452 0.000000
# 3 -0.001599 -0.002698 0.010898 0.000000 0.005060 0.000000
# 4 0.000000 0.000000 0.000000 -0.148676 0.000000 -0.392454
# 5 0.018501 -0.005452 0.005060 0.000000 0.062639 0.000000
# 6 0.000000 0.000000 0.000000 -0.392454 0.000000 -0.779132
#
#
# Mechanical properties :
#
#
# Convention : Reuss Voigt Hill
#
# Bulk Modulus (GPa) = 11.31428 33.94876 22.63152
# Shear Modulus (GPa) = -7.47077 19.49048 6.00985
#
# Velocity S-wave (km/s) = -2.09338 3.38124 1.87757
# Velocity P-wave (km/s) = 0.89095 5.92937 4.23977
#
# Compressibility (1/GPa) = 0.08838390
#
# Stress axis : x y z
#
# Youngs Moduli (GPa) = 9.69021 75.11352 91.75947
#
# Poissons Ratio (x) = 1.14288 0.14674
# Poissons Ratio (y) = 0.14744 0.24752
# Poissons Ratio (z) = 0.01550 0.20262
#
# Static dielectric constant tensor:
#      x y z
#    x 1.557190 0.000000 -0.022310 
#    y 0.000000 1.563850 0.000000 
#    z -0.022310 0.000000 1.604070 
# 
# From -- ./inp_files/247143.got.cif
#   From: 2010.05.17/outbox.cif.g08.bks.cpg/sg12_124_cif.got.tgz:247143.got - 2010.06.03 13:09:07.
