data_PCOD9182832
_publ_section_title
;
Structure prediction by ZEFSAII (Michael W. Deem and Ramdas Pophale) SiO2 
 PCOD9182832
Probable space group: C 2/M
;
_chemical_formula_sum "Si O2"
_cell_formula_units_Z 56
_cell_length_a 16.997259
_cell_length_b 14.174700
_cell_length_c 14.866190
_cell_angle_alpha 90.000000
_cell_angle_beta 56.548738
_cell_angle_gamma 90.000000
_cell_volume 2988.431669
_symmetry_space_group_name_H-M "C 2/M"
_symmetry_group_IT_number 12
_symmetry_cell_setting 'monoclinic'
loop_
_space_group_symop_operation_xyz
x,y,z
-x,y,-z
-x,-y,-z
x,-y,z
1/2+x,1/2+y,z
1/2-x,1/2+y,-z
1/2-x,1/2-y,-z
1/2+x,1/2-y,z
loop_
_atom_site_type_symbol
_atom_site_label
_atom_site_fract_x
_atom_site_fract_y
_atom_site_fract_z
Si Si1 0.933352 0.775771 0.622744
Si Si2 0.232617 0.277342 0.162749
Si Si3 0.524423 0.896888 0.089915
Si Si4 0.714398 0.392356 0.399946
Si Si5 0.421859 0.391949 0.348273
Si Si6 0.871787 0.254063 0.237875
Si Si7 0.251656 0.107247 0.022090
O O1 0.861251 0.705363 0.718514
O O2 0.865222 0.852957 0.618090
O O3 0.000000 0.737201 0.500000
O O4 0.999755 0.827984 0.652351
O O5 0.318931 0.259734 0.176269
O O6 0.260105 0.355188 0.071922
O O7 0.211318 0.182544 0.118227
O O8 0.468418 0.811197 0.167845
O O9 0.635773 0.889951 0.032312
O O10 0.493714 0.000000 0.144919
O O11 0.500000 0.895651 0.000000
O O12 0.739851 0.500000 0.360047
O O13 0.666654 0.391505 0.527585
O O14 0.801295 0.321326 0.338379
O O15 0.453350 0.500000 0.318280
O O16 0.390852 0.343251 0.275885
O O17 0.218596 0.000000 0.055423
#
# Coordination Sequence:
#
# PCOD9182832 Si02
#       7
#     8   8   8   8   8   8   8
#     4   9  18  34  56  78 103 135 173 217 259 301
#     4  10  21  35  54  79 103 136 176 212 256 310
#     4  10  19  33  53  76  98 123 161 214 265 296
#     4   9  18  32  52  78 103 131 172 214 253 297
#     4  10  20  33  49  74 108 141 168 202 251 306
#     4  11  20  32  53  76 105 135 168 210 256 307
#     4  10  21  37  55  75 104 138 174 215 257 305
#
# _framework density 18.738925999999999
#
# number of rings (size 3 to 8) (size 9 to 14) (size 15 to 20)
#    0.000    2.143    1.429    2.143    0.000    5.143 
#    0.000    0.000    0.000    0.857    0.000    0.000 
#    0.000    0.000    0.000    0.000    0.000    0.000 
#
# Total GULP energy -156208.727933 kJ/mol
# GULP energy per Si atom -5578.883140 kJ/mol
# Density = 1.869627 g / cm^3
# Si number density = 18.738926 Si / 1000 Ang^3
#
#
#
# Elastic Constant Matrix: (Units=GPa)
#
#
# Indices 1 2 3 4 5 6 
#
# 1 18.4362 0.9886 15.6547 0.0000 2.0383 0.0000
# 2 0.9886 24.9092 5.9360 0.0000 12.6617 0.0000
# 3 15.6547 5.9360 55.1665 0.0000 8.6769 0.0000
# 4 0.0000 0.0000 0.0000 19.1615 0.0000 1.3431
# 5 2.0383 12.6617 8.6769 0.0000 25.4978 0.0000
# 6 0.0000 0.0000 0.0000 1.3431 0.0000 30.8127
#
#
#
# Elastic Compliance Matrix: (Units=1/GPa)
#
#
# Indices 1 2 3 4 5 6 
#
# 1 0.071564 0.001887 -0.020565 0.000000 0.000340 0.000000
# 2 0.001887 0.053898 -0.002221 0.000000 -0.026160 0.000000
# 3 -0.020565 -0.002221 0.025114 0.000000 -0.005800 0.000000
# 4 0.000000 0.000000 0.000000 0.052348 0.000000 -0.002282
# 5 0.000340 -0.026160 -0.005800 0.000000 0.054156 0.000000
# 6 0.000000 0.000000 0.000000 -0.002282 0.000000 0.032554
#
#
# Mechanical properties :
#
#
# Convention : Reuss Voigt Hill
#
# Bulk Modulus (GPa) = 9.19284 15.96341 12.57813
# Shear Modulus (GPa) = 13.59847 20.15657 16.87752
#
# Velocity S-wave (km/s) = 2.69677 3.28327 3.00437
# Velocity P-wave (km/s) = 3.82271 4.78649 4.33149
#
# Compressibility (1/GPa) = 0.10878028
#
# Stress axis : x y z
#
# Youngs Moduli (GPa) = 13.97344 18.55373 39.81886
#
# Poissons Ratio (x) = -0.03502 0.81886
# Poissons Ratio (y) = -0.02637 0.08842
# Poissons Ratio (z) = 0.28736 0.04120
#
# Static dielectric constant tensor:
#      x y z
#    x 1.627200 0.000000 -0.009220 
#    y 0.000000 1.643080 0.000000 
#    z -0.009220 0.000000 1.677950 
# 
# From -- ./inp_files/223732.got.cif
#   From: 2010.05.17/outbox.cif.g08.bks.cpg/sg12_112_cif.got.tgz:223732.got - 2010.06.03 13:09:07.
