data_PCOD9182231
_publ_section_title
;
Structure prediction by ZEFSAII (Michael W. Deem and Ramdas Pophale) SiO2 
 PCOD9182231
Probable space group: C 2/M
;
_chemical_formula_sum "Si O2"
_cell_formula_units_Z 58
_cell_length_a 33.209327
_cell_length_b 7.476942
_cell_length_c 11.952724
_cell_angle_alpha 90.000000
_cell_angle_beta 68.939010
_cell_angle_gamma 90.000000
_cell_volume 2769.650531
_symmetry_space_group_name_H-M "C 2/M"
_symmetry_group_IT_number 12
_symmetry_cell_setting 'monoclinic'
loop_
_space_group_symop_operation_xyz
x,y,z
-x,y,-z
-x,-y,-z
x,-y,z
1/2+x,1/2+y,z
1/2-x,1/2+y,-z
1/2-x,1/2-y,-z
1/2+x,1/2-y,z
loop_
_atom_site_type_symbol
_atom_site_label
_atom_site_fract_x
_atom_site_fract_y
_atom_site_fract_z
Si Si1 0.763677 0.285424 0.357587
Si Si2 0.931952 0.793344 0.967083
Si Si3 0.820934 0.218909 0.679655
Si Si4 0.000000 0.500000 0.000000
Si Si5 0.951677 0.287826 0.535081
Si Si6 0.641185 0.796581 0.792104
Si Si7 0.112346 0.787864 0.580661
Si Si8 0.885465 0.202765 0.791440
O O1 0.765566 0.500000 0.347869
O O2 0.750000 0.250000 0.500000
O O3 0.726579 0.223079 0.309342
O O4 0.811125 0.218090 0.277335
O O5 0.891796 0.798363 0.093064
O O6 0.947690 0.000000 0.935313
O O7 0.967829 0.658358 0.978508
O O8 0.910777 0.722161 0.872218
O O9 0.852009 0.272592 0.545517
O O10 0.842858 0.281784 0.773531
O O11 0.821649 0.000000 0.682335
O O12 0.950669 0.500000 0.557609
O O13 0.933240 0.252902 0.430462
O O14 0.919519 0.200267 0.655550
O O15 0.000000 0.222502 0.500000
O O16 0.619483 0.799997 0.691845
O O17 0.645958 0.000000 0.829055
O O18 0.117194 0.000000 0.590009
O O19 0.874212 0.000000 0.836140
#
# Coordination Sequence:
#
# PCOD9182231 Si02
#       8
#     8   8   8   2   8   8   8   8
#     4  10  19  32  57  90 130 170 211 260 319 382
#     4  11  25  46  70  96 125 172 218 269 333 388
#     4   8  15  32  56  86 119 163 207 253 311 378
#     4  12  26  48  72  94 126 160 222 280 320 392
#     4  10  21  35  54  83 117 152 193 251 323 385
#     4  11  22  37  58  91 131 168 213 271 324 384
#     4  10  19  33  55  80 116 162 206 255 314 377
#     4   9  20  39  63  85 116 161 213 257 313 388
#
# _framework density 20.941268999999998
#
# number of rings (size 3 to 8) (size 9 to 14) (size 15 to 20)
#    0.000    2.069    2.069    2.276    0.966    2.759 
#    2.483    2.069    0.000    0.000    0.000    0.000 
#    0.000    0.000    0.000    0.000    0.000    0.000 
#
# Total GULP energy -161531.686716 kJ/mol
# GULP energy per Si atom -5570.058163 kJ/mol
# Density = 2.089361 g / cm^3
# Si number density = 20.941269 Si / 1000 Ang^3
#
#
#
# Elastic Constant Matrix: (Units=GPa)
#
#
# Indices 1 2 3 4 5 6 
#
# 1 181.0127 16.7417 53.1120 0.0000 39.6356 0.0000
# 2 16.7417 94.2810 5.6811 0.0000 6.6183 0.0000
# 3 53.1120 5.6811 65.7434 0.0000 27.4934 0.0000
# 4 0.0000 0.0000 0.0000 14.2230 0.0000 -6.7644
# 5 39.6356 6.6183 27.4934 0.0000 24.8464 0.0000
# 6 0.0000 0.0000 0.0000 -6.7644 0.0000 23.6263
#
#
#
# Elastic Compliance Matrix: (Units=1/GPa)
#
#
# Indices 1 2 3 4 5 6 
#
# 1 0.008704 -0.000623 -0.002309 0.000000 -0.011164 0.000000
# 2 -0.000623 0.010862 0.000668 0.000000 -0.002639 0.000000
# 3 -0.002309 0.000668 0.028948 0.000000 -0.028526 0.000000
# 4 0.000000 0.000000 0.000000 0.081391 0.000000 0.023303
# 5 -0.011164 -0.002639 -0.028526 0.000000 0.090324 0.000000
# 6 0.000000 0.000000 0.000000 0.023303 0.000000 0.048997
#
#
# Mechanical properties :
#
#
# Convention : Reuss Voigt Hill
#
# Bulk Modulus (GPa) = 22.73430 54.67853 38.70641
# Shear Modulus (GPa) = 17.33598 30.23929 23.78763
#
# Velocity S-wave (km/s) = 2.88034 3.80413 3.37400
# Velocity P-wave (km/s) = 4.68418 6.74257 5.80534
#
# Compressibility (1/GPa) = 0.04398641
#
# Stress axis : x y z
#
# Youngs Moduli (GPa) = 114.88724 92.06253 34.54473
#
# Poissons Ratio (x) = 0.05734 0.07978
# Poissons Ratio (y) = 0.07155 -0.02308
# Poissons Ratio (z) = 0.26532 -0.06152
#
# Static dielectric constant tensor:
#      x y z
#    x 1.786680 0.000000 0.008890 
#    y 0.000000 1.720530 0.000000 
#    z 0.008890 0.000000 1.731700 
# 
# From -- ./inp_files/186545.got.cif
#   From: 2010.05.17/outbox.cif.g08.bks.cpg/sg12_94_cif.got.tgz:186545.got - 2010.06.03 13:09:07.
