data_PCOD9182599
_publ_section_title
;
Structure prediction by ZEFSAII (Michael W. Deem and Ramdas Pophale) SiO2 
 PCOD9182599
Probable space group: C 2/M
;
_chemical_formula_sum "Si O2"
_cell_formula_units_Z 64
_cell_length_a 14.234322
_cell_length_b 15.361014
_cell_length_c 21.859520
_cell_angle_alpha 90.000000
_cell_angle_beta 137.809843
_cell_angle_gamma 90.000000
_cell_volume 3209.989830
_symmetry_space_group_name_H-M "C 2/M"
_symmetry_group_IT_number 12
_symmetry_cell_setting 'monoclinic'
loop_
_space_group_symop_operation_xyz
x,y,z
-x,y,-z
-x,-y,-z
x,-y,z
1/2+x,1/2+y,z
1/2-x,1/2+y,-z
1/2-x,1/2-y,-z
1/2+x,1/2-y,z
loop_
_atom_site_type_symbol
_atom_site_label
_atom_site_fract_x
_atom_site_fract_y
_atom_site_fract_z
Si Si1 0.692295 0.287099 0.551609
Si Si2 0.063178 0.402543 0.366748
Si Si3 0.496915 0.403658 0.619308
Si Si4 0.774575 0.096592 0.618127
Si Si5 0.265736 0.867683 0.265546
Si Si6 0.273957 0.830098 0.729158
Si Si7 0.846535 0.899485 0.922024
Si Si8 0.060105 0.600972 0.830422
O O1 0.824110 0.325255 0.576181
O O2 0.561153 0.330598 0.455048
O O3 0.687262 0.183512 0.559869
O O4 0.726233 0.326339 0.634875
O O5 0.125270 0.500000 0.403354
O O6 0.929810 0.392263 0.346090
O O7 0.996799 0.398509 0.266905
O O8 0.467219 0.500000 0.579564
O O9 0.411603 0.395779 0.641471
O O10 0.662390 0.393020 0.706886
O O11 0.803259 0.102685 0.704338
O O12 0.713084 0.000000 0.577069
O O13 0.251738 0.764385 0.255966
O O14 0.199381 0.902101 0.171106
O O15 0.437318 0.853670 0.809200
O O16 0.717069 0.861562 0.899054
O O17 0.858971 0.000000 0.949031
O O18 0.000000 0.858184 0.000000
O O19 0.068028 0.500000 0.853191
#
# Coordination Sequence:
#
# PCOD9182599 Si02
#       8
#     8   8   8   8   8   8   8   8
#     4  10  20  34  52  73  99 131 178 235 274 303
#     4   9  16  29  51  74  98 132 171 215 270 318
#     4  11  22  35  52  74 101 135 181 232 272 303
#     4  10  21  35  50  70 101 143 180 211 259 323
#     4  10  19  33  52  76 106 138 169 206 253 321
#     4  10  20  32  51  74 100 140 177 211 260 311
#     4   9  17  32  58  87 107 125 158 211 266 309
#     4   8  15  29  49  75 103 130 166 207 252 310
#
# _framework density 19.937757000000001
#
# number of rings (size 3 to 8) (size 9 to 14) (size 15 to 20)
#    0.000    2.375    0.000    4.125    0.000    3.000 
#    0.000    2.500    0.000   12.000    0.000    0.000 
#    0.000    6.000    0.000    0.000    0.000    0.000 
#
# Total GULP energy -178409.494124 kJ/mol
# GULP energy per Si atom -5575.296691 kJ/mol
# Density = 1.989238 g / cm^3
# Si number density = 19.937757 Si / 1000 Ang^3
#
#
#
# Elastic Constant Matrix: (Units=GPa)
#
#
# Indices 1 2 3 4 5 6 
#
# 1 80.1545 35.5555 27.3629 0.0000 27.6279 0.0000
# 2 35.5555 112.7384 16.4658 0.0000 21.6766 0.0000
# 3 27.3629 16.4658 55.2989 0.0000 29.6768 0.0000
# 4 0.0000 0.0000 0.0000 10.9159 0.0000 2.1772
# 5 27.6279 21.6766 29.6768 0.0000 34.1070 0.0000
# 6 0.0000 0.0000 0.0000 2.1772 0.0000 26.3218
#
#
#
# Elastic Compliance Matrix: (Units=1/GPa)
#
#
# Indices 1 2 3 4 5 6 
#
# 1 0.018511 -0.003424 -0.002365 0.000000 -0.010761 0.000000
# 2 -0.003424 0.010758 0.001260 0.000000 -0.005160 0.000000
# 3 -0.002365 0.001260 0.034294 0.000000 -0.028724 0.000000
# 4 0.000000 0.000000 0.000000 0.093146 0.000000 -0.007704
# 5 -0.010761 -0.005160 -0.028724 0.000000 0.066309 0.000000
# 6 0.000000 0.000000 0.000000 -0.007704 0.000000 0.038629
#
#
# Mechanical properties :
#
#
# Convention : Reuss Voigt Hill
#
# Bulk Modulus (GPa) = 18.34679 45.21780 31.78229
# Shear Modulus (GPa) = 17.30867 25.52279 21.41573
#
# Velocity S-wave (km/s) = 2.94961 3.58176 3.28095
# Velocity P-wave (km/s) = 4.56314 6.31142 5.50710
#
# Compressibility (1/GPa) = 0.05450545
#
# Stress axis : x y z
#
# Youngs Moduli (GPa) = 54.02175 92.95421 29.15965
#
# Poissons Ratio (x) = 0.31823 0.06897
# Poissons Ratio (y) = 0.18495 -0.03675
# Poissons Ratio (z) = 0.12778 -0.11714
#
# Static dielectric constant tensor:
#      x y z
#    x 1.770800 0.000000 0.032890 
#    y 0.000000 1.728670 0.000000 
#    z 0.032890 0.000000 1.704800 
# 
# From -- ./inp_files/340200.got.cif
#   From: 2010.05.17/outbox.cif.g08.bks.cpg/sg12_171_cif.got.tgz:340200.got - 2010.06.03 13:09:07.
