data_PCOD9182223
_publ_section_title
;
Structure prediction by ZEFSAII (Michael W. Deem and Ramdas Pophale) SiO2 
 PCOD9182223
Probable space group: C 2/M
;
_chemical_formula_sum "Si O2"
_cell_formula_units_Z 56
_cell_length_a 29.631737
_cell_length_b 16.271328
_cell_length_c 5.187463
_cell_angle_alpha 90.000000
_cell_angle_beta 108.459019
_cell_angle_gamma 90.000000
_cell_volume 2372.441531
_symmetry_space_group_name_H-M "C 2/M"
_symmetry_group_IT_number 12
_symmetry_cell_setting 'monoclinic'
loop_
_space_group_symop_operation_xyz
x,y,z
-x,y,-z
-x,-y,-z
x,-y,z
1/2+x,1/2+y,z
1/2-x,1/2+y,-z
1/2-x,1/2-y,-z
1/2+x,1/2-y,z
loop_
_atom_site_type_symbol
_atom_site_label
_atom_site_fract_x
_atom_site_fract_y
_atom_site_fract_z
Si Si1 0.836584 0.715460 0.843470
Si Si2 0.617975 0.092102 0.721070
Si Si3 0.530135 0.835153 0.303284
Si Si4 0.285158 0.089618 0.425316
Si Si5 0.863720 0.123014 0.633725
Si Si6 0.188151 0.123042 0.961682
Si Si7 0.969761 0.863816 0.696471
O O1 0.794694 0.660864 0.648428
O O2 0.857795 0.778439 0.671164
O O3 0.816891 0.777974 0.023416
O O4 0.876663 0.657849 0.040335
O O5 0.579994 0.121191 0.442546
O O6 0.669118 0.091403 0.676371
O O7 0.607259 0.000000 0.794381
O O8 0.500000 0.857115 0.500000
O O9 0.534939 0.735913 0.311011
O O10 0.500000 0.859541 0.000000
O O11 0.238831 0.100123 0.167350
O O12 0.283553 0.000000 0.552272
O O13 0.850140 0.092060 0.893889
O O14 0.916106 0.104007 0.627294
O O15 0.825634 0.097756 0.349238
O O16 0.000000 0.887164 0.500000
O O17 0.000000 0.887785 0.000000
#
# Coordination Sequence:
#
# PCOD9182223 Si02
#       7
#     8   8   8   8   8   8   8
#     4  10  22  37  65  84 123 158 208 253 306 357
#     4  11  25  40  59  85 119 161 215 264 304 357
#     4  10  23  38  58  79 111 158 207 255 304 351
#     4  11  24  41  60  89 125 161 204 254 307 364
#     4  10  22  38  61  90 123 159 202 246 302 361
#     4  10  23  39  64  88 122 160 207 243 305 366
#     4  10  19  32  57  89 118 151 193 249 303 345
#
# _framework density 23.604374
#
# number of rings (size 3 to 8) (size 9 to 14) (size 15 to 20)
#    0.857    0.857    0.000    4.286   10.000    1.714 
#    0.000    0.000    0.000    0.000    0.000    0.000 
#    0.000   11.429    0.000    0.000    0.000    0.000 
#
# Total GULP energy -156612.428661 kJ/mol
# GULP energy per Si atom -5593.301024 kJ/mol
# Density = 2.355065 g / cm^3
# Si number density = 23.604374 Si / 1000 Ang^3
#
#
#
# Elastic Constant Matrix: (Units=GPa)
#
#
# Indices 1 2 3 4 5 6 
#
# 1 92.6311 4.1966 30.6000 0.0000 19.7168 0.0000
# 2 4.1966 111.3595 32.8867 0.0000 4.4241 0.0000
# 3 30.6000 32.8867 136.1829 0.0000 7.9094 0.0000
# 4 0.0000 0.0000 0.0000 -11.1843 0.0000 -12.0469
# 5 19.7168 4.4241 7.9094 0.0000 41.3828 0.0000
# 6 0.0000 0.0000 0.0000 -12.0469 0.0000 -59.9458
#
#
#
# Elastic Compliance Matrix: (Units=1/GPa)
#
#
# Indices 1 2 3 4 5 6 
#
# 1 0.012868 0.000535 -0.002691 0.000000 -0.005674 0.000000
# 2 0.000535 0.009706 -0.002416 0.000000 -0.000831 0.000000
# 3 -0.002691 -0.002416 0.008536 0.000000 -0.000091 0.000000
# 4 0.000000 0.000000 0.000000 -0.114112 0.000000 0.022932
# 5 -0.005674 -0.000831 -0.000091 0.000000 0.026974 0.000000
# 6 0.000000 0.000000 0.000000 0.022932 0.000000 -0.021290
#
#
# Mechanical properties :
#
#
# Convention : Reuss Voigt Hill
#
# Bulk Modulus (GPa) = 45.52294 52.83778 49.18036
# Shear Modulus (GPa) = -82.16682 12.21657 -34.97513
#
# Velocity S-wave (km/s) = -5.90640 2.27745 -3.85349
# Velocity P-wave (km/s) = 5.21406 5.41748 1.03986
#
# Compressibility (1/GPa) = 0.02196694
#
# Stress axis : x y z
#
# Youngs Moduli (GPa) = 77.71264 103.02643 117.14440
#
# Poissons Ratio (x) = -0.05514 0.31525
# Poissons Ratio (y) = -0.04159 0.28302
# Poissons Ratio (z) = 0.20913 0.24891
#
# Static dielectric constant tensor:
#      x y z
#    x 1.872600 0.000000 -0.040230 
#    y 0.000000 1.961200 0.000000 
#    z -0.040230 0.000000 1.828880 
# 
# From -- ./inp_files/29246.got.cif
#   From: 2010.05.17/outbox.cif.g08.bks.cpg/sg12_15_cif.got.tgz:29246.got - 2010.06.03 13:09:07.
