data_PCOD9182644
_publ_section_title
;
Structure prediction by ZEFSAII (Michael W. Deem and Ramdas Pophale) SiO2 
 PCOD9182644
Probable space group: C 2/M
;
_chemical_formula_sum "Si O2"
_cell_formula_units_Z 64
_cell_length_a 18.531807
_cell_length_b 13.595125
_cell_length_c 15.086629
_cell_angle_alpha 90.000000
_cell_angle_beta 59.520351
_cell_angle_gamma 90.000000
_cell_volume 3275.702112
_symmetry_space_group_name_H-M "C 2/M"
_symmetry_group_IT_number 12
_symmetry_cell_setting 'monoclinic'
loop_
_space_group_symop_operation_xyz
x,y,z
-x,y,-z
-x,-y,-z
x,-y,z
1/2+x,1/2+y,z
1/2-x,1/2+y,-z
1/2-x,1/2-y,-z
1/2+x,1/2-y,z
loop_
_atom_site_type_symbol
_atom_site_label
_atom_site_fract_x
_atom_site_fract_y
_atom_site_fract_z
Si Si1 0.447841 0.173125 0.613678
Si Si2 0.028866 0.285947 0.206513
Si Si3 0.306341 0.117622 0.937876
Si Si4 0.844146 0.887051 0.843331
Si Si5 0.761852 0.383689 0.761704
Si Si6 0.292226 0.611509 0.518430
Si Si7 0.160921 0.235682 0.681606
Si Si8 0.598556 0.392091 0.376167
O O1 0.500000 0.131603 0.500000
O O2 0.475202 0.154688 0.697296
O O3 0.353076 0.137432 0.663377
O O4 0.451773 0.292163 0.605316
O O5 0.100263 0.341368 0.105606
O O6 0.075426 0.180773 0.190161
O O7 0.933701 0.268523 0.239137
O O8 0.274577 0.142358 0.857747
O O9 0.311617 0.000000 0.938050
O O10 0.236114 0.148085 0.052277
O O11 0.831558 0.885208 0.745102
O O12 0.860651 0.000000 0.859017
O O13 0.741502 0.500000 0.768348
O O14 0.699524 0.316329 0.744258
O O15 0.265380 0.500000 0.516597
O O16 0.217184 0.675046 0.608000
O O17 0.330871 0.659262 0.405894
O O18 0.361556 0.610116 0.552367
O O19 0.557905 0.500000 0.386794
#
# Coordination Sequence:
#
# PCOD9182644 Si02
#       8
#     8   8   8   8   8   8   8   8
#     4  10  19  33  52  78 109 142 182 234 272 326
#     4  10  21  33  54  83 112 141 182 233 280 325
#     4   9  19  38  61  84 109 144 189 235 282 331
#     4   9  18  34  59  84 109 140 183 232 281 331
#     4  10  21  37  56  78 110 152 190 226 277 336
#     4  10  21  36  56  77 108 152 187 219 270 332
#     4  11  22  37  55  80 115 153 184 229 276 337
#     4   9  17  32  54  81 106 139 179 223 274 327
#
# _framework density 19.537794999999999
#
# number of rings (size 3 to 8) (size 9 to 14) (size 15 to 20)
#    0.000    2.250    1.250    1.500    1.750    2.000 
#    0.000    3.125    0.000    2.250    0.000    3.500 
#    0.000    0.000    0.000    0.000    0.000    0.000 
#
# Total GULP energy -178364.614090 kJ/mol
# GULP energy per Si atom -5573.894190 kJ/mol
# Density = 1.949333 g / cm^3
# Si number density = 19.537795 Si / 1000 Ang^3
#
#
#
# Elastic Constant Matrix: (Units=GPa)
#
#
# Indices 1 2 3 4 5 6 
#
# 1 84.3621 -3.5616 32.9192 0.0000 -15.7997 0.0000
# 2 -3.5616 37.1431 9.4278 0.0000 5.9528 0.0000
# 3 32.9192 9.4278 125.0950 0.0000 -21.2649 0.0000
# 4 0.0000 0.0000 0.0000 16.6207 0.0000 12.7934
# 5 -15.7997 5.9528 -21.2649 0.0000 19.5359 0.0000
# 6 0.0000 0.0000 0.0000 12.7934 0.0000 3.4892
#
#
#
# Elastic Compliance Matrix: (Units=1/GPa)
#
#
# Indices 1 2 3 4 5 6 
#
# 1 0.014468 0.000529 -0.002314 0.000000 0.009022 0.000000
# 2 0.000529 0.030463 -0.004835 0.000000 -0.014118 0.000000
# 3 -0.002314 -0.004835 0.010920 0.000000 0.011489 0.000000
# 4 0.000000 0.000000 0.000000 -0.033017 0.000000 0.121061
# 5 0.009022 -0.014118 0.011489 0.000000 0.075292 0.000000
# 6 0.000000 0.000000 0.000000 0.121061 0.000000 -0.157277
#
#
# Mechanical properties :
#
#
# Convention : Reuss Voigt Hill
#
# Bulk Modulus (GPa) = 23.46736 36.01898 29.74317
# Shear Modulus (GPa) = -157.69237 21.78346 -67.95445
#
# Velocity S-wave (km/s) = -8.99370 3.34269 -5.90394
# Velocity P-wave (km/s) = 9.78834 5.77700 5.58739
#
# Compressibility (1/GPa) = 0.04261238
#
# Stress axis : x y z
#
# Youngs Moduli (GPa) = 69.11589 32.82625 91.57407
#
# Poissons Ratio (x) = -0.01736 0.21187
# Poissons Ratio (y) = -0.03654 0.44275
# Poissons Ratio (z) = 0.15991 0.15871
#
# Static dielectric constant tensor:
#      x y z
#    x 1.662710 0.000000 0.003360 
#    y 0.000000 1.749940 0.000000 
#    z 0.003360 0.000000 1.711710 
# 
# From -- ./inp_files/225257.got.cif
#   From: 2010.05.17/outbox.cif.g08.bks.cpg/sg12_113_cif.got.tgz:225257.got - 2010.06.03 13:09:07.
