data_PCOD9182964
_publ_section_title
;
Structure prediction by ZEFSAII (Michael W. Deem and Ramdas Pophale) SiO2 
 PCOD9182964
Probable space group: C 2/M
;
_chemical_formula_sum "Si O2"
_cell_formula_units_Z 48
_cell_length_a 5.791533
_cell_length_b 28.822199
_cell_length_c 14.118452
_cell_angle_alpha 90.000000
_cell_angle_beta 61.431574
_cell_angle_gamma 90.000000
_cell_volume 2069.780180
_symmetry_space_group_name_H-M "C 2/M"
_symmetry_group_IT_number 12
_symmetry_cell_setting 'monoclinic'
loop_
_space_group_symop_operation_xyz
x,y,z
-x,y,-z
-x,-y,-z
x,-y,z
1/2+x,1/2+y,z
1/2-x,1/2+y,-z
1/2-x,1/2-y,-z
1/2+x,1/2-y,z
loop_
_atom_site_type_symbol
_atom_site_label
_atom_site_fract_x
_atom_site_fract_y
_atom_site_fract_z
Si Si1 0.392209 0.397975 0.762360
Si Si2 0.940402 0.265944 0.376298
Si Si3 0.792127 0.855200 0.971482
Si Si4 0.726846 0.137267 0.602616
Si Si5 0.392632 0.947425 0.657677
Si Si6 0.886422 0.448678 0.885803
O O1 0.438584 0.367065 0.845092
O O2 0.255461 0.367077 0.709778
O O3 0.639915 0.421963 0.666529
O O4 0.197973 0.439406 0.831431
O O5 0.750000 0.250000 0.500000
O O6 0.733572 0.255691 0.329897
O O7 0.972849 0.321363 0.379177
O O8 0.500000 0.836619 0.000000
O O9 0.729497 0.904505 0.036872
O O10 0.000000 0.830076 0.000000
O O11 0.631613 0.086636 0.590843
O O12 0.000000 0.149462 0.500000
O O13 0.335821 0.947248 0.782819
O O14 0.431131 0.000000 0.621224
O O15 0.814272 0.500000 0.935410
#
# Coordination Sequence:
#
# PCOD9182964 Si02
#       6
#     8   8   8   8   8   8
#     4  10  21  34  53  81 119 160 210 255 301 363
#     4  10  21  40  69  98 119 144 189 261 336 387
#     4  10  19  33  53  80 114 155 201 259 309 355
#     4  11  24  40  60  86 123 164 205 260 311 372
#     4  10  21  36  56  81 121 170 221 255 291 356
#     4   9  18  32  51  78 111 155 206 263 311 347
#
# _framework density 23.190867999999998
#
# number of rings (size 3 to 8) (size 9 to 14) (size 15 to 20)
#    0.000    2.000    3.333    0.500    2.333    5.667 
#    0.000    0.833    0.000    0.000    0.000    0.000 
#    0.000   41.333    0.000    0.000    0.000    0.000 
#
# Total GULP energy -133897.912559 kJ/mol
# GULP energy per Si atom -5579.079690 kJ/mol
# Density = 2.313808 g / cm^3
# Si number density = 23.190868 Si / 1000 Ang^3
#
#
#
# Elastic Constant Matrix: (Units=GPa)
#
#
# Indices 1 2 3 4 5 6 
#
# 1 125.9744 6.4105 8.7971 0.0000 -5.6300 0.0000
# 2 6.4105 69.1773 9.0502 0.0000 3.3238 0.0000
# 3 8.7971 9.0502 61.1917 0.0000 8.8992 0.0000
# 4 0.0000 0.0000 0.0000 -33.8055 0.0000 27.8963
# 5 -5.6300 3.3238 8.8992 0.0000 23.4548 0.0000
# 6 0.0000 0.0000 0.0000 27.8963 0.0000 6.6018
#
#
#
# Elastic Compliance Matrix: (Units=1/GPa)
#
#
# Indices 1 2 3 4 5 6 
#
# 1 0.008192 -0.000694 -0.001456 0.000000 0.002617 0.000000
# 2 -0.000694 0.014839 -0.001868 0.000000 -0.001561 0.000000
# 3 -0.001456 -0.001868 0.017823 0.000000 -0.006847 0.000000
# 4 0.000000 0.000000 0.000000 -0.006593 0.000000 0.027858
# 5 0.002617 -0.001561 -0.006847 0.000000 0.046083 0.000000
# 6 0.000000 0.000000 0.000000 0.027858 0.000000 0.033759
#
#
# Mechanical properties :
#
#
# Convention : Reuss Voigt Hill
#
# Bulk Modulus (GPa) = 30.47022 33.87320 32.17171
# Shear Modulus (GPa) = 37.57161 14.72259 26.14710
#
# Velocity S-wave (km/s) = 4.02942 2.52235 3.36143
# Velocity P-wave (km/s) = 5.90048 4.80842 5.38222
#
# Compressibility (1/GPa) = 0.03281893
#
# Stress axis : x y z
#
# Youngs Moduli (GPa) = 122.06928 67.38853 56.10596
#
# Poissons Ratio (x) = 0.04680 0.08167
# Poissons Ratio (y) = 0.08477 0.10480
# Poissons Ratio (z) = 0.17769 0.12587
#
# Static dielectric constant tensor:
#      x y z
#    x 2.038550 0.000000 0.013200 
#    y 0.000000 1.832110 0.000000 
#    z 0.013200 0.000000 1.870270 
# 
# From -- ./inp_files/192517.got.cif
#   From: 2010.05.17/outbox.cif.g08.bks.cpg/sg12_97_cif.got.tgz:192517.got - 2010.06.03 13:09:07.
