data_PCOD9182137
_publ_section_title
;
Structure prediction by ZEFSAII (Michael W. Deem and Ramdas Pophale) SiO2 
 PCOD9182137
Probable space group: C 2/M
;
_chemical_formula_sum "Si O2"
_cell_formula_units_Z 32
_cell_length_a 23.088191
_cell_length_b 7.397044
_cell_length_c 13.350777
_cell_angle_alpha 90.000000
_cell_angle_beta 38.663929
_cell_angle_gamma 90.000000
_cell_volume 1424.497705
_symmetry_space_group_name_H-M "C 2/M"
_symmetry_group_IT_number 12
_symmetry_cell_setting 'monoclinic'
loop_
_space_group_symop_operation_xyz
x,y,z
-x,y,-z
-x,-y,-z
x,-y,z
1/2+x,1/2+y,z
1/2-x,1/2+y,-z
1/2-x,1/2-y,-z
1/2+x,1/2-y,z
loop_
_atom_site_type_symbol
_atom_site_label
_atom_site_fract_x
_atom_site_fract_y
_atom_site_fract_z
Si Si1 0.497884 0.792881 0.163432
Si Si2 0.315727 0.215397 0.317330
Si Si3 0.707264 0.217487 0.876134
Si Si4 0.653089 0.000000 0.248031
Si Si5 0.964653 0.500000 0.390253
O O1 0.418926 0.709689 0.200574
O O2 0.515425 0.000000 0.102436
O O3 0.451483 0.828187 0.334949
O O4 0.600879 0.720409 0.036914
O O5 0.250000 0.250000 0.500000
O O6 0.276665 0.269120 0.262527
O O7 0.326840 0.000000 0.297004
O O8 0.780940 0.325862 0.841965
O O9 0.715783 0.000000 0.877693
O O10 0.573307 0.000000 0.272903
O O11 0.596648 0.000000 0.429108
#
# Coordination Sequence:
#
# PCOD9182137 Si02
#       5
#     8   8   8   4   4
#     4   8  17  36  56  77 114 155 184 229 295 339
#     4  10  19  32  56  83 115 153 185 236 291 348
#     4  10  21  37  58  88 115 152 194 239 291 342
#     4  11  22  38  63  86 113 155 201 242 284 346
#     4   9  20  38  61  82 117 161 189 240 300 336
#
# _framework density 22.464058000000001
#
# number of rings (size 3 to 8) (size 9 to 14) (size 15 to 20)
#    0.750    1.750    0.000    2.250    1.750    4.000 
#    2.250    3.750    2.750    0.000    0.000    0.000 
#    0.000    0.000    0.000    0.000    0.000    0.000 
#
# Total GULP energy -89256.015928 kJ/mol
# GULP energy per Si atom -5578.500996 kJ/mol
# Density = 2.241293 g / cm^3
# Si number density = 22.464058 Si / 1000 Ang^3
#
#
#
# Elastic Constant Matrix: (Units=GPa)
#
#
# Indices 1 2 3 4 5 6 
#
# 1 80.5188 25.2041 2.3076 0.0015 -25.9617 -0.0009
# 2 25.2041 81.8800 3.4034 0.0147 -15.1633 -0.0107
# 3 2.3076 3.4034 83.9763 0.0079 -6.7358 -0.0050
# 4 0.0015 0.0147 0.0079 12.1826 -0.0026 5.7915
# 5 -25.9617 -15.1633 -6.7358 -0.0026 53.9376 0.0012
# 6 -0.0009 -0.0107 -0.0050 5.7915 0.0012 1.4212
#
#
#
# Elastic Compliance Matrix: (Units=1/GPa)
#
#
# Indices 1 2 3 4 5 6 
#
# 1 0.015656 -0.003616 0.000242 -0.000015 0.006549 0.000039
# 2 -0.003616 0.013724 -0.000290 0.000066 0.002081 -0.000172
# 3 0.000242 -0.000290 0.012037 0.000027 0.001538 -0.000072
# 4 -0.000015 0.000066 0.000027 -0.087579 0.000003 0.356891
# 5 0.006549 0.002081 0.001538 0.000003 0.022469 -0.000005
# 6 0.000039 -0.000172 -0.000072 0.356891 -0.000005 -0.750725
#
#
# Mechanical properties :
#
#
# Convention : Reuss Voigt Hill
#
# Bulk Modulus (GPa) = 29.33656 34.24501 31.79079
# Shear Modulus (GPa) = -6.61615 27.87227 10.62806
#
# Velocity S-wave (km/s) = -1.71802 3.52625 2.17748
# Velocity P-wave (km/s) = 3.02526 5.64417 4.52818
#
# Compressibility (1/GPa) = 0.03408716
#
# Stress axis : x y z
#
# Youngs Moduli (GPa) = 63.87223 72.86702 83.08000
#
# Poissons Ratio (x) = 0.26352 -0.02008
# Poissons Ratio (y) = 0.23099 0.02408
# Poissons Ratio (z) = -0.01544 0.02112
#
# Static dielectric constant tensor:
#      x y z
#    x 1.836600 0.000000 0.018460 
#    y 0.000000 1.856220 0.000000 
#    z 0.018460 0.000000 1.853060 
# 
# From -- ./inp_files/229607.got.cif
#   From: 2010.05.17/outbox.cif.g08.bks.cpg/sg12_115_cif.got.tgz:229607.got - 2010.06.03 13:09:07.
