data_PCOD9182384
_publ_section_title
;
Structure prediction by ZEFSAII (Michael W. Deem and Ramdas Pophale) SiO2 
 PCOD9182384
Probable space group: C 2/M
;
_chemical_formula_sum "Si O2"
_cell_formula_units_Z 64
_cell_length_a 12.467238
_cell_length_b 24.235290
_cell_length_c 12.574075
_cell_angle_alpha 90.000000
_cell_angle_beta 82.153168
_cell_angle_gamma 90.000000
_cell_volume 3763.646953
_symmetry_space_group_name_H-M "C 2/M"
_symmetry_group_IT_number 12
_symmetry_cell_setting 'monoclinic'
loop_
_space_group_symop_operation_xyz
x,y,z
-x,y,-z
-x,-y,-z
x,-y,z
1/2+x,1/2+y,z
1/2-x,1/2+y,-z
1/2-x,1/2-y,-z
1/2+x,1/2-y,z
loop_
_atom_site_type_symbol
_atom_site_label
_atom_site_fract_x
_atom_site_fract_y
_atom_site_fract_z
Si Si1 0.990592 0.564927 0.716549
Si Si2 0.590213 0.622850 0.813150
Si Si3 0.196356 0.135775 0.020937
Si Si4 0.465071 0.724612 0.881710
Si Si5 0.864732 0.934319 0.786140
Si Si6 0.261393 0.065451 0.640068
Si Si7 0.271410 0.066820 0.397630
Si Si8 0.567288 0.153634 0.099619
O O1 0.997787 0.500000 0.745884
O O2 0.888508 0.569874 0.650987
O O3 0.964362 0.603973 0.819091
O O4 0.105434 0.581374 0.650004
O O5 0.553298 0.686871 0.810049
O O6 0.484690 0.588537 0.792376
O O7 0.690022 0.601646 0.730048
O O8 0.619083 0.616675 0.934293
O O9 0.142759 0.187217 0.091554
O O10 0.207009 0.087996 0.106443
O O11 0.307964 0.151434 0.951575
O O12 0.451983 0.786596 0.843719
O O13 0.500000 0.730534 0.000000
O O14 0.811701 0.914696 0.682570
O O15 0.867200 0.000000 0.784989
O O16 0.243037 0.083704 0.521152
O O17 0.232844 0.000000 0.655379
O O18 0.268393 0.000000 0.399328
O O19 0.500000 0.149405 0.000000
#
# Coordination Sequence:
#
# PCOD9182384 Si02
#       8
#     8   8   8   8   8   8   8   8
#     4  10  20  34  52  79 109 138 177 217 261 314
#     4  10  19  34  52  79 108 136 177 220 260 312
#     4  10  19  33  50  75 107 139 175 215 256 311
#     4   8  18  33  51  73 103 138 178 214 254 307
#     4  10  20  32  50  77 111 145 171 212 267 318
#     4  10  19  33  56  80 105 140 179 218 260 312
#     4   9  19  35  52  75 106 140 180 219 257 306
#     4  11  20  32  52  78 104 140 177 213 261 309
#
# _framework density 17.004781999999999
#
# number of rings (size 3 to 8) (size 9 to 14) (size 15 to 20)
#    0.000    2.250    1.250    3.000    0.000    4.250 
#    0.000    1.875    0.000    0.750    6.500    0.000 
#    0.000    0.000    0.000    0.000    0.000    0.000 
#
# Total GULP energy -178304.529734 kJ/mol
# GULP energy per Si atom -5572.016554 kJ/mol
# Density = 1.696608 g / cm^3
# Si number density = 17.004782 Si / 1000 Ang^3
#
#
#
# Elastic Constant Matrix: (Units=GPa)
#
#
# Indices 1 2 3 4 5 6 
#
# 1 53.4892 26.0309 23.8267 0.0000 5.2877 0.0000
# 2 26.0309 65.9911 35.1538 0.0000 10.0340 0.0000
# 3 23.8267 35.1538 89.6291 0.0000 15.6422 0.0000
# 4 0.0000 0.0000 0.0000 -0.9951 0.0000 -3.1451
# 5 5.2877 10.0340 15.6422 0.0000 18.9910 0.0000
# 6 0.0000 0.0000 0.0000 -3.1451 0.0000 15.0227
#
#
#
# Elastic Compliance Matrix: (Units=1/GPa)
#
#
# Indices 1 2 3 4 5 6 
#
# 1 0.023911 -0.007656 -0.003384 0.000000 0.000175 0.000000
# 2 -0.007656 0.021956 -0.005750 0.000000 -0.004733 0.000000
# 3 -0.003384 -0.005750 0.015904 0.000000 -0.009119 0.000000
# 4 0.000000 0.000000 0.000000 -0.604775 0.000000 -0.126614
# 5 0.000175 -0.004733 -0.009119 0.000000 0.062619 0.000000
# 6 0.000000 0.000000 0.000000 -0.126614 0.000000 0.040058
#
#
# Mechanical properties :
#
#
# Convention : Reuss Voigt Hill
#
# Bulk Modulus (GPa) = 35.47338 42.12579 38.79958
# Shear Modulus (GPa) = -12.58341 14.87694 1.14676
#
# Velocity S-wave (km/s) = -2.72323 2.96103 0.82210
# Velocity P-wave (km/s) = 3.31936 6.04292 4.87519
#
# Compressibility (1/GPa) = 0.02819016
#
# Stress axis : x y z
#
# Youngs Moduli (GPa) = 41.82109 45.54477 62.87901
#
# Poissons Ratio (x) = 0.34868 0.21280
# Poissons Ratio (y) = 0.32018 0.36158
# Poissons Ratio (z) = 0.14153 0.26190
#
# Static dielectric constant tensor:
#      x y z
#    x 1.605110 0.000000 0.016020 
#    y 0.000000 1.581500 0.000000 
#    z 0.016020 0.000000 1.558870 
# 
# From -- ./inp_files/135378.got.cif
#   From: 2010.05.17/outbox.cif.g08.bks.cpg/sg12_68_cif.got.tgz:135378.got - 2010.06.03 13:09:07.
