data_PCOD9182941
_publ_section_title
;
Structure prediction by ZEFSAII (Michael W. Deem and Ramdas Pophale) SiO2 
 PCOD9182941
Probable space group: C 2/M
;
_chemical_formula_sum "Si O2"
_cell_formula_units_Z 48
_cell_length_a 13.435225
_cell_length_b 14.362032
_cell_length_c 23.401319
_cell_angle_alpha 90.000000
_cell_angle_beta 35.503010
_cell_angle_gamma 90.000000
_cell_volume 2622.329084
_symmetry_space_group_name_H-M "C 2/M"
_symmetry_group_IT_number 12
_symmetry_cell_setting 'monoclinic'
loop_
_space_group_symop_operation_xyz
x,y,z
-x,y,-z
-x,-y,-z
x,-y,z
1/2+x,1/2+y,z
1/2-x,1/2+y,-z
1/2-x,1/2-y,-z
1/2+x,1/2-y,z
loop_
_atom_site_type_symbol
_atom_site_label
_atom_site_fract_x
_atom_site_fract_y
_atom_site_fract_z
Si Si1 0.466484 0.611445 0.722734
Si Si2 0.804460 0.107783 0.113018
Si Si3 0.821092 0.608773 0.616731
Si Si4 0.330158 0.896051 0.056711
Si Si5 0.621915 0.828298 0.084435
Si Si6 0.745371 0.755689 0.247249
O O1 0.454452 0.500000 0.716176
O O2 0.661517 0.629767 0.649303
O O3 0.347833 0.638022 0.833752
O O4 0.388295 0.675507 0.709522
O O5 0.685149 0.135361 0.115416
O O6 0.773224 0.175685 0.180502
O O7 0.774815 0.000000 0.142969
O O8 0.000000 0.115614 0.000000
O O9 0.799241 0.500000 0.645699
O O10 0.812953 0.680367 0.672864
O O11 0.000000 0.615837 0.500000
O O12 0.336253 0.000000 0.078388
O O13 0.500000 0.843820 0.000000
O O14 0.351253 0.900660 0.979539
O O15 0.427872 0.792331 0.175690
O O16 0.750000 0.750000 0.000000
#
# Coordination Sequence:
#
# PCOD9182941 Si02
#       6
#     8   8   8   8   8   8
#     4  10  22  38  60  91 120 153 202 250 290 348
#     4  11  24  37  51  81 122 162 198 237 290 350
#     4  10  23  44  66  87 113 152 202 254 306 354
#     4  10  19  33  53  79 115 157 195 225 271 335
#     4  12  22  33  52  79 119 158 197 234 279 345
#     4  12  22  38  63  86 118 155 197 249 295 353
#
# _framework density 18.304338000000001
#
# number of rings (size 3 to 8) (size 9 to 14) (size 15 to 20)
#    0.000    1.167    3.333    4.000    0.000    1.333 
#    0.000    0.000    0.000    0.500    0.000    0.000 
#    0.000    0.000    0.000    0.000    0.000    0.000 
#
# Total GULP energy -133911.834193 kJ/mol
# GULP energy per Si atom -5579.659758 kJ/mol
# Density = 1.826268 g / cm^3
# Si number density = 18.304338 Si / 1000 Ang^3
#
#
#
# Elastic Constant Matrix: (Units=GPa)
#
#
# Indices 1 2 3 4 5 6 
#
# 1 142.7026 64.3120 55.2445 -0.0001 -19.7024 0.0000
# 2 64.3120 113.8486 39.4628 -0.0002 -7.4176 0.0000
# 3 55.2445 39.4628 82.7375 -0.0011 -26.4898 0.0002
# 4 -0.0001 -0.0002 -0.0011 8.4519 0.0003 14.6650
# 5 -19.7024 -7.4176 -26.4898 0.0003 27.4235 -0.0001
# 6 0.0000 0.0000 0.0002 14.6650 -0.0001 29.6375
#
#
#
# Elastic Compliance Matrix: (Units=1/GPa)
#
#
# Indices 1 2 3 4 5 6 
#
# 1 0.011142 -0.004586 -0.004469 -0.000005 0.002448 0.000003
# 2 -0.004586 0.012572 -0.004199 -0.000001 -0.003950 0.000000
# 3 -0.004469 -0.004199 0.022703 0.000016 0.017584 -0.000008
# 4 -0.000005 -0.000001 0.000016 0.836518 0.000002 -0.413920
# 5 0.002448 -0.003950 0.017584 0.000002 0.054140 -0.000001
# 6 0.000003 0.000000 -0.000008 -0.413920 -0.000001 0.238554
#
#
# Mechanical properties :
#
#
# Convention : Reuss Voigt Hill
#
# Bulk Modulus (GPa) = 50.22677 73.03636 61.63157
# Shear Modulus (GPa) = 4.13642 25.12052 14.62847
#
# Velocity S-wave (km/s) = 1.50490 3.70858 2.83005
# Velocity P-wave (km/s) = 5.52440 7.63714 6.66502
#
# Compressibility (1/GPa) = 0.01990970
#
# Stress axis : x y z
#
# Youngs Moduli (GPa) = 89.74910 79.54037 44.04727
#
# Poissons Ratio (x) = 0.36474 0.19683
# Poissons Ratio (y) = 0.41156 0.18497
# Poissons Ratio (z) = 0.40106 0.33403
#
# Static dielectric constant tensor:
#      x y z
#    x 1.665300 0.000000 -0.008500 
#    y 0.000000 1.949290 0.000000 
#    z -0.008500 0.000000 1.616020 
# 
# From -- ./inp_files/204568.got.cif
#   From: 2010.05.17/outbox.cif.g08.bks.cpg/sg12_103_cif.got.tgz:204568.got - 2010.06.03 13:09:07.
