data_PCOD9182562
_publ_section_title
;
Structure prediction by ZEFSAII (Michael W. Deem and Ramdas Pophale) SiO2 
 PCOD9182562
Probable space group: C 2/M
;
_chemical_formula_sum "Si O2"
_cell_formula_units_Z 56
_cell_length_a 13.297492
_cell_length_b 10.347846
_cell_length_c 31.358646
_cell_angle_alpha 90.000000
_cell_angle_beta 136.272265
_cell_angle_gamma 90.000000
_cell_volume 2982.641233
_symmetry_space_group_name_H-M "C 2/M"
_symmetry_group_IT_number 12
_symmetry_cell_setting 'monoclinic'
loop_
_space_group_symop_operation_xyz
x,y,z
-x,y,-z
-x,-y,-z
x,-y,z
1/2+x,1/2+y,z
1/2-x,1/2+y,-z
1/2-x,1/2-y,-z
1/2+x,1/2-y,z
loop_
_atom_site_type_symbol
_atom_site_label
_atom_site_fract_x
_atom_site_fract_y
_atom_site_fract_z
Si Si1 0.922921 0.855905 0.518514
Si Si2 0.774339 0.648445 0.281858
Si Si3 0.668612 0.352778 0.103949
Si Si4 0.376400 0.353430 0.678514
Si Si5 0.681364 0.355508 0.009114
Si Si6 0.401025 0.205825 0.599209
Si Si7 0.223671 0.152099 0.793600
O O1 0.749445 0.864163 0.457931
O O2 0.942160 0.781573 0.568587
O O3 0.000000 0.797766 0.500000
O O4 0.984731 0.000000 0.542349
O O5 0.721392 0.500000 0.256850
O O6 0.707496 0.697914 0.305988
O O7 0.737993 0.755748 0.235042
O O8 0.948922 0.640072 0.340579
O O9 0.712437 0.500000 0.131281
O O10 0.717974 0.335513 0.070120
O O11 0.721989 0.235711 0.149568
O O12 0.493231 0.351452 0.048968
O O13 0.325157 0.500000 0.658584
O O14 0.357031 0.288865 0.627025
O O15 0.548253 0.351644 0.740887
O O16 0.730107 0.500000 0.012165
O O17 0.750000 0.250000 0.000000
O O18 0.271966 0.000000 0.806432
#
# Coordination Sequence:
#
# PCOD9182562 Si02
#       7
#     8   8   8   8   8   8   8
#     4  10  20  32  48  73 104 134 165 209 263 311
#     4  10  20  36  56  76 101 135 175 217 262 314
#     4   9  19  37  56  77 110 148 180 215 263 315
#     4   9  19  35  53  73 100 135 172 214 264 311
#     4   9  19  35  56  81 110 145 183 221 264 311
#     4  10  19  33  52  74  99 132 175 213 253 312
#     4  10  21  36  54  79 107 136 174 218 264 313
#
# _framework density 18.775304999999999
#
# number of rings (size 3 to 8) (size 9 to 14) (size 15 to 20)
#    0.000    2.429    0.000    3.000    0.000    2.857 
#    0.000   10.000    0.000    6.857    0.000    0.000 
#    0.000    0.000    0.000    0.000    0.000    0.000 
#
# Total GULP energy -155909.270086 kJ/mol
# GULP energy per Si atom -5568.188217 kJ/mol
# Density = 1.873257 g / cm^3
# Si number density = 18.775305 Si / 1000 Ang^3
#
#
#
# Elastic Constant Matrix: (Units=GPa)
#
#
# Indices 1 2 3 4 5 6 
#
# 1 101.2513 55.3700 12.4223 0.0000 -35.8084 0.0000
# 2 55.3700 137.8794 64.3432 0.0000 -37.1424 0.0000
# 3 12.4223 64.3432 73.0573 0.0000 -25.6581 0.0000
# 4 0.0000 0.0000 0.0000 10.9364 0.0000 11.3459
# 5 -35.8084 -37.1424 -25.6581 0.0000 22.2835 0.0000
# 6 0.0000 0.0000 0.0000 11.3459 0.0000 22.6352
#
#
#
# Elastic Compliance Matrix: (Units=1/GPa)
#
#
# Indices 1 2 3 4 5 6 
#
# 1 0.043266 -0.006608 0.031922 0.000000 0.095268 0.000000
# 2 -0.006608 0.016330 -0.012472 0.000000 0.002240 0.000000
# 3 0.031922 -0.012472 0.050300 0.000000 0.088426 0.000000
# 4 0.000000 0.000000 0.000000 0.190503 0.000000 -0.095490
# 5 0.095268 0.002240 0.088426 0.000000 0.303517 0.000000
# 6 0.000000 0.000000 0.000000 -0.095490 0.000000 0.092044
#
#
# Mechanical properties :
#
#
# Convention : Reuss Voigt Hill
#
# Bulk Modulus (GPa) = 7.37574 64.05099 35.71337
# Shear Modulus (GPa) = 6.98842 23.17452 15.08147
#
# Velocity S-wave (km/s) = 1.93138 3.51708 2.83726
# Velocity P-wave (km/s) = 2.98506 7.11911 5.45858
#
# Compressibility (1/GPa) = 0.13557954
#
# Stress axis : x y z
#
# Youngs Moduli (GPa) = 23.11280 61.23773 19.88077
#
# Poissons Ratio (x) = 0.40465 -0.63463
# Poissons Ratio (y) = 0.15273 0.24795
# Poissons Ratio (z) = -0.73780 0.76375
#
# Static dielectric constant tensor:
#      x y z
#    x 1.640710 0.000000 -0.006690 
#    y 0.000000 1.197670 0.000000 
#    z -0.006690 0.000000 1.653270 
# 
# From -- ./inp_files/357827.got.cif
#   From: 2010.05.17/outbox.cif.g08.bks.cpg/sg12_179_cif.got.tgz:357827.got - 2010.06.03 13:09:07.
