data_PCOD9182533
_publ_section_title
;
Structure prediction by ZEFSAII (Michael W. Deem and Ramdas Pophale) SiO2 
 PCOD9182533
Probable space group: C 2/M
;
_chemical_formula_sum "Si O2"
_cell_formula_units_Z 48
_cell_length_a 23.828416
_cell_length_b 7.479664
_cell_length_c 17.281285
_cell_angle_alpha 90.000000
_cell_angle_beta 130.561928
_cell_angle_gamma 90.000000
_cell_volume 2339.900880
_symmetry_space_group_name_H-M "C 2/M"
_symmetry_group_IT_number 12
_symmetry_cell_setting 'monoclinic'
loop_
_space_group_symop_operation_xyz
x,y,z
-x,y,-z
-x,-y,-z
x,-y,z
1/2+x,1/2+y,z
1/2-x,1/2+y,-z
1/2-x,1/2-y,-z
1/2+x,1/2-y,z
loop_
_atom_site_type_symbol
_atom_site_label
_atom_site_fract_x
_atom_site_fract_y
_atom_site_fract_z
Si Si1 0.561792 0.288839 0.613656
Si Si2 0.802127 0.712569 0.473636
Si Si3 0.381454 0.781408 0.905270
Si Si4 0.222842 0.793145 0.722589
Si Si5 0.008204 0.717857 0.131528
Si Si6 0.535781 0.215922 0.330343
O O1 0.500000 0.212522 0.500000
O O2 0.567537 0.500000 0.600496
O O3 0.643619 0.212884 0.674592
O O4 0.529139 0.267855 0.669650
O O5 0.805739 0.500000 0.466418
O O6 0.750000 0.750000 0.500000
O O7 0.772485 0.788820 0.366474
O O8 0.885103 0.779022 0.565946
O O9 0.297798 0.715491 0.825212
O O10 0.427064 0.727985 0.869513
O O11 0.380188 0.000000 0.903546
O O12 0.430921 0.727294 0.022965
O O13 0.221410 0.000000 0.746527
O O14 0.008460 0.500000 0.132931
O O15 0.021990 0.779491 0.230795
O O16 0.539173 0.000000 0.331334
#
# Coordination Sequence:
#
# PCOD9182533 Si02
#       6
#     8   8   8   8   8   8
#     4  10  20  34  50  69  98 137 172 202 245 297
#     4  11  22  33  49  75 103 130 160 201 251 300
#     4   8  14  27  50  74  98 126 160 203 248 294
#     4  10  19  33  52  73  98 130 169 207 243 292
#     4   8  14  27  48  75  99 123 159 205 251 291
#     4  10  20  33  51  74 100 129 168 209 246 291
#
# _framework density 20.51369
#
# number of rings (size 3 to 8) (size 9 to 14) (size 15 to 20)
#    0.000    2.500    1.667    2.500    0.000    4.333 
#    0.000    0.833    0.000    1.000    0.000    3.500 
#    0.000    0.000    0.000    0.000    0.000    0.000 
#
# Total GULP energy -133996.089923 kJ/mol
# GULP energy per Si atom -5583.170413 kJ/mol
# Density = 2.046700 g / cm^3
# Si number density = 20.513690 Si / 1000 Ang^3
#
#
#
# Elastic Constant Matrix: (Units=GPa)
#
#
# Indices 1 2 3 4 5 6 
#
# 1 71.5630 -1.8159 21.4466 0.0000 30.9084 0.0000
# 2 -1.8159 59.6163 5.6462 0.0000 9.2459 0.0000
# 3 21.4466 5.6462 100.3969 0.0000 31.1972 0.0000
# 4 0.0000 0.0000 0.0000 3.4665 0.0000 -9.7121
# 5 30.9084 9.2459 31.1972 0.0000 41.0945 0.0000
# 6 0.0000 0.0000 0.0000 -9.7121 0.0000 14.7039
#
#
#
# Elastic Compliance Matrix: (Units=1/GPa)
#
#
# Indices 1 2 3 4 5 6 
#
# 1 0.021315 0.003264 0.000619 0.000000 -0.017236 0.000000
# 2 0.003264 0.017888 0.000406 0.000000 -0.006788 0.000000
# 3 0.000619 0.000406 0.013059 0.000000 -0.010471 0.000000
# 4 0.000000 0.000000 0.000000 -0.339162 0.000000 -0.224020
# 5 -0.017236 -0.006788 -0.010471 0.000000 0.046774 0.000000
# 6 0.000000 0.000000 0.000000 -0.224020 0.000000 -0.079958
#
#
# Mechanical properties :
#
#
# Convention : Reuss Voigt Hill
#
# Bulk Modulus (GPa) = 16.43664 31.34778 23.89221
# Shear Modulus (GPa) = -16.21370 25.60625 4.69627
#
# Velocity S-wave (km/s) = -2.81443 3.53689 1.51470
# Velocity P-wave (km/s) = 1.59104 5.65633 3.83814
#
# Compressibility (1/GPa) = 0.06083970
#
# Stress axis : x y z
#
# Youngs Moduli (GPa) = 46.91446 55.90468 76.57499
#
# Poissons Ratio (x) = -0.18246 -0.04740
# Poissons Ratio (y) = -0.15312 -0.03109
# Poissons Ratio (z) = -0.02904 -0.02270
#
# Static dielectric constant tensor:
#      x y z
#    x 1.704630 0.000000 0.031170 
#    y 0.000000 1.760780 0.000000 
#    z 0.031170 0.000000 1.722220 
# 
# From -- ./inp_files/244860.got.cif
#   From: 2010.05.17/outbox.cif.g08.bks.cpg/sg12_123_cif.got.tgz:244860.got - 2010.06.03 13:09:07.
