data_PCOD9182226
_publ_section_title
;
Structure prediction by ZEFSAII (Michael W. Deem and Ramdas Pophale) SiO2 
 PCOD9182226
Probable space group: C 2/M
;
_chemical_formula_sum "Si O2"
_cell_formula_units_Z 56
_cell_length_a 27.276592
_cell_length_b 17.107180
_cell_length_c 9.125736
_cell_angle_alpha 90.000000
_cell_angle_beta 136.484903
_cell_angle_gamma 90.000000
_cell_volume 2932.035288
_symmetry_space_group_name_H-M "C 2/M"
_symmetry_group_IT_number 12
_symmetry_cell_setting 'monoclinic'
loop_
_space_group_symop_operation_xyz
x,y,z
-x,y,-z
-x,-y,-z
x,-y,z
1/2+x,1/2+y,z
1/2-x,1/2+y,-z
1/2-x,1/2-y,-z
1/2+x,1/2-y,z
loop_
_atom_site_type_symbol
_atom_site_label
_atom_site_fract_x
_atom_site_fract_y
_atom_site_fract_z
Si Si1 0.457314 0.328732 0.044260
Si Si2 0.881702 0.410060 0.013469
Si Si3 0.481277 0.192028 0.628567
Si Si4 0.820214 0.265459 0.742976
Si Si5 0.577790 0.410028 0.737997
Si Si6 0.711034 0.686103 0.015197
Si Si7 0.154243 0.409924 0.721824
O O1 0.505378 0.266047 0.238837
O O2 0.430219 0.389460 0.107217
O O3 0.500000 0.362495 0.000000
O O4 0.389930 0.279673 0.837366
O O5 0.884528 0.500000 0.976579
O O6 0.838244 0.356074 0.807734
O O7 0.959854 0.372230 0.197452
O O8 0.849479 0.405154 0.108405
O O9 0.500000 0.212614 0.500000
O O10 0.404730 0.150713 0.465068
O O11 0.750000 0.250000 0.500000
O O12 0.808324 0.229741 0.877984
O O13 0.500000 0.399993 0.500000
O O14 0.599543 0.500000 0.764673
O O15 0.637218 0.351950 0.800481
O O16 0.768344 0.617466 0.161589
O O17 0.750000 0.750000 0.000000
O O18 0.138316 0.500000 0.648169
#
# Coordination Sequence:
#
# PCOD9182226 Si02
#       7
#     8   8   8   8   8   8   8
#     4  10  22  37  60  83 114 155 199 245 284 348
#     4   9  17  34  55  82 117 148 185 233 287 345
#     4   9  18  32  58  88 115 151 188 235 287 350
#     4  10  22  38  54  81 115 154 195 236 286 344
#     4  10  23  42  63  87 119 155 198 252 301 346
#     4  11  22  37  60  89 117 153 193 243 293 352
#     4  10  19  32  57  90 118 145 184 236 292 348
#
# _framework density 19.099360999999998
#
# number of rings (size 3 to 8) (size 9 to 14) (size 15 to 20)
#    0.000    2.143    1.429    1.286    6.000    2.000 
#    0.000    3.571    0.000    2.143    0.000    0.000 
#    0.000    0.000    0.000    0.000    0.000    0.000 
#
# Total GULP energy -156288.565006 kJ/mol
# GULP energy per Si atom -5581.734465 kJ/mol
# Density = 1.905589 g / cm^3
# Si number density = 19.099361 Si / 1000 Ang^3
#
#
#
# Elastic Constant Matrix: (Units=GPa)
#
#
# Indices 1 2 3 4 5 6 
#
# 1 61.0343 6.6680 2.1197 0.0000 15.5885 0.0000
# 2 6.6680 80.3671 32.2237 0.0000 6.9999 0.0000
# 3 2.1197 32.2237 91.3715 0.0000 16.4116 0.0000
# 4 0.0000 0.0000 0.0000 20.7991 0.0000 8.0408
# 5 15.5885 6.9999 16.4116 0.0000 18.5893 0.0000
# 6 0.0000 0.0000 0.0000 8.0408 0.0000 20.2762
#
#
#
# Elastic Compliance Matrix: (Units=1/GPa)
#
#
# Indices 1 2 3 4 5 6 
#
# 1 0.021799 -0.001500 0.003809 0.000000 -0.021079 0.000000
# 2 -0.001500 0.014615 -0.005178 0.000000 0.000326 0.000000
# 3 0.003809 -0.005178 0.015338 0.000000 -0.014786 0.000000
# 4 0.000000 0.000000 0.000000 0.056785 0.000000 -0.022519
# 5 -0.021079 0.000326 -0.014786 0.000000 0.084401 0.000000
# 6 0.000000 0.000000 0.000000 -0.022519 0.000000 0.058249
#
#
# Mechanical properties :
#
#
# Convention : Reuss Voigt Hill
#
# Bulk Modulus (GPa) = 21.73220 34.97731 28.35476
# Shear Modulus (GPa) = 18.36462 24.71703 21.54083
#
# Velocity S-wave (km/s) = 3.10422 3.60130 3.36196
# Velocity P-wave (km/s) = 4.92458 5.97039 5.47252
#
# Compressibility (1/GPa) = 0.04601466
#
# Stress axis : x y z
#
# Youngs Moduli (GPa) = 45.87280 68.42223 65.19860
#
# Poissons Ratio (x) = 0.10264 -0.24836
# Poissons Ratio (y) = 0.06881 0.33760
# Poissons Ratio (z) = -0.17474 0.35429
#
# Static dielectric constant tensor:
#      x y z
#    x 1.676310 0.000000 0.019530 
#    y 0.000000 1.701010 0.000000 
#    z 0.019530 0.000000 1.666810 
# 
# From -- ./inp_files/106042.got.cif
#   From: 2010.05.17/outbox.cif.g08.bks.cpg/sg12_54_cif.got.tgz:106042.got - 2010.06.03 13:09:07.
