data_PCOD9182183
_publ_section_title
;
Structure prediction by ZEFSAII (Michael W. Deem and Ramdas Pophale) SiO2 
 PCOD9182183
Probable space group: C 2/M
;
_chemical_formula_sum "Si O2"
_cell_formula_units_Z 48
_cell_length_a 15.821956
_cell_length_b 28.685992
_cell_length_c 5.733269
_cell_angle_alpha 90.000000
_cell_angle_beta 60.311649
_cell_angle_gamma 90.000000
_cell_volume 2260.571763
_symmetry_space_group_name_H-M "C 2/M"
_symmetry_group_IT_number 12
_symmetry_cell_setting 'monoclinic'
loop_
_space_group_symop_operation_xyz
x,y,z
-x,y,-z
-x,-y,-z
x,-y,z
1/2+x,1/2+y,z
1/2-x,1/2+y,-z
1/2-x,1/2-y,-z
1/2+x,1/2-y,z
loop_
_atom_site_type_symbol
_atom_site_label
_atom_site_fract_x
_atom_site_fract_y
_atom_site_fract_z
Si Si1 0.217502 0.198251 0.346321
Si Si2 0.102422 0.848687 0.106839
Si Si3 0.551537 0.943663 0.679307
Si Si4 0.606055 0.750609 0.863018
Si Si5 0.260968 0.396043 0.418210
Si Si6 0.540080 0.569630 0.694821
O O1 0.142738 0.171961 0.287073
O O2 0.314448 0.220319 0.102906
O O3 0.157850 0.240790 0.545030
O O4 0.254551 0.156068 0.459528
O O5 0.004570 0.878082 0.243097
O O6 0.094479 0.801787 0.969939
O O7 0.182516 0.884733 0.898996
O O8 0.500000 0.930316 0.500000
O O9 0.659897 0.922330 0.533800
O O10 0.556515 0.000000 0.671831
O O11 0.500000 0.930552 0.000000
O O12 0.500000 0.772596 0.000000
O O13 0.343209 0.425209 0.450209
O O14 0.500000 0.550743 0.500000
O O15 0.500000 0.550262 0.000000
#
# Coordination Sequence:
#
# PCOD9182183 Si02
#       6
#     8   8   8   8   8   8
#     4  10  20  35  52  79 113 157 211 256 314 364
#     4  10  19  34  55  81 114 159 203 251 305 368
#     4  10  24  45  69  96 125 165 206 246 306 379
#     4  10  21  33  48  74 113 160 211 261 310 362
#     4  10  21  36  61  88 117 153 204 256 303 365
#     4  10  19  32  56  89 116 149 199 243 295 359
#
# _framework density 21.233567000000001
#
# number of rings (size 3 to 8) (size 9 to 14) (size 15 to 20)
#    0.000    2.000    1.667    3.000    2.333    0.667 
#    0.000    0.000    0.000    5.000    0.000    0.000 
#    0.000    0.000    0.000    0.000    0.000    0.000 
#
# Total GULP energy -133631.249610 kJ/mol
# GULP energy per Si atom -5567.968734 kJ/mol
# Density = 2.118524 g / cm^3
# Si number density = 21.233567 Si / 1000 Ang^3
#
#
#
# Elastic Constant Matrix: (Units=GPa)
#
#
# Indices 1 2 3 4 5 6 
#
# 1 169.6456 40.3926 72.0839 0.0000 -24.8897 0.0000
# 2 40.3926 50.1037 15.7569 0.0000 -6.6325 0.0000
# 3 72.0839 15.7569 91.5594 0.0000 -5.9830 0.0000
# 4 0.0000 0.0000 0.0000 -148.5286 0.0000 44.6564
# 5 -24.8897 -6.6325 -5.9830 0.0000 41.8178 0.0000
# 6 0.0000 0.0000 0.0000 44.6564 0.0000 -32.7180
#
#
#
# Elastic Compliance Matrix: (Units=1/GPa)
#
#
# Indices 1 2 3 4 5 6 
#
# 1 0.011188 -0.006059 -0.007463 0.000000 0.004630 0.000000
# 2 -0.006059 0.024725 0.000541 0.000000 0.000392 0.000000
# 3 -0.007463 0.000541 0.016574 0.000000 -0.001984 0.000000
# 4 0.000000 0.000000 0.000000 -0.011418 0.000000 -0.015585
# 5 0.004630 0.000392 -0.001984 0.000000 0.026447 0.000000
# 6 0.000000 0.000000 0.000000 -0.015585 0.000000 -0.051836
#
#
# Mechanical properties :
#
#
# Convention : Reuss Voigt Hill
#
# Bulk Modulus (GPa) = 37.69966 63.08620 50.39293
# Shear Modulus (GPa) = 99.04114 -15.68074 41.68020
#
# Velocity S-wave (km/s) = 6.83703 -2.72046 4.43531
# Velocity P-wave (km/s) = 8.95097 4.46175 7.07202
#
# Compressibility (1/GPa) = 0.02652544
#
# Stress axis : x y z
#
# Youngs Moduli (GPa) = 89.38463 40.44420 60.33448
#
# Poissons Ratio (x) = 0.24507 0.45025
# Poissons Ratio (y) = 0.54162 -0.03265
# Poissons Ratio (z) = 0.66704 -0.02188
#
# Static dielectric constant tensor:
#      x y z
#    x 1.807350 0.000000 0.059680 
#    y 0.000000 1.760510 0.000000 
#    z 0.059680 0.000000 1.920080 
# 
# From -- ./inp_files/13057.got.cif
#   From: 2010.05.17/outbox.cif.g08.bks.cpg/sg12_7_cif.got.tgz:13057.got - 2010.06.03 13:09:07.
