data_PCOD9182847
_publ_section_title
;
Structure prediction by ZEFSAII (Michael W. Deem and Ramdas Pophale) SiO2 
 PCOD9182847
Probable space group: C 2/M
;
_chemical_formula_sum "Si O2"
_cell_formula_units_Z 56
_cell_length_a 20.327395
_cell_length_b 9.717271
_cell_length_c 14.219141
_cell_angle_alpha 90.000000
_cell_angle_beta 70.058346
_cell_angle_gamma 90.000000
_cell_volume 2640.255349
_symmetry_space_group_name_H-M "C 2/M"
_symmetry_group_IT_number 12
_symmetry_cell_setting 'monoclinic'
loop_
_space_group_symop_operation_xyz
x,y,z
-x,y,-z
-x,-y,-z
x,-y,z
1/2+x,1/2+y,z
1/2-x,1/2+y,-z
1/2-x,1/2-y,-z
1/2+x,1/2-y,z
loop_
_atom_site_type_symbol
_atom_site_label
_atom_site_fract_x
_atom_site_fract_y
_atom_site_fract_z
Si Si1 0.817731 0.660645 0.583901
Si Si2 0.523156 0.164338 0.723991
Si Si3 0.438895 0.148806 0.955272
Si Si4 0.206710 0.853192 0.149792
Si Si5 0.682490 0.158775 0.643054
Si Si6 0.319161 0.650775 0.061240
Si Si7 0.923791 0.161121 0.650846
O O1 0.818956 0.500000 0.614319
O O2 0.745273 0.740758 0.642102
O O3 0.821390 0.661034 0.468849
O O4 0.882489 0.748640 0.593591
O O5 0.473667 0.185193 0.838826
O O6 0.603539 0.196407 0.711868
O O7 0.491940 0.259080 0.656263
O O8 0.521032 0.000000 0.700931
O O9 0.386435 0.255364 0.025514
O O10 0.402716 0.000000 0.960025
O O11 0.500000 0.135325 0.000000
O O12 0.198895 0.857997 0.041152
O O13 0.132571 0.840612 0.236217
O O14 0.238043 0.000000 0.164268
O O15 0.256361 0.725676 0.144315
O O16 0.697341 0.000000 0.663193
O O17 0.332112 0.500000 0.092549
O O18 0.936207 0.000000 0.619047
#
# Coordination Sequence:
#
# PCOD9182847 Si02
#       7
#     8   8   8   8   8   8   8
#     4  10  21  38  61  88 117 150 193 240 287 344
#     4  10  21  38  60  83 113 154 195 237 288 345
#     4  10  21  36  54  78 110 148 188 229 279 340
#     4   9  19  34  52  75 105 142 179 222 275 329
#     4   9  20  40  62  85 116 155 195 236 286 345
#     4  10  19  33  53  77 104 138 183 229 274 321
#     4  11  22  37  58  86 120 152 191 240 292 345
#
# _framework density 21.210068
#
# number of rings (size 3 to 8) (size 9 to 14) (size 15 to 20)
#    0.000    2.143    1.429    1.286    0.000    4.857 
#    0.000    5.714    0.000    0.000    0.000    0.000 
#    0.000    0.000    0.000    0.000    0.000    0.000 
#
# Total GULP energy -156290.174346 kJ/mol
# GULP energy per Si atom -5581.791941 kJ/mol
# Density = 2.116179 g / cm^3
# Si number density = 21.210068 Si / 1000 Ang^3
#
#
#
# Elastic Constant Matrix: (Units=GPa)
#
#
# Indices 1 2 3 4 5 6 
#
# 1 68.4799 49.6697 7.9010 0.0000 3.6403 0.0000
# 2 49.6697 113.9828 5.6185 0.0000 -4.6485 0.0000
# 3 7.9010 5.6185 32.1602 0.0000 5.7586 0.0000
# 4 0.0000 0.0000 0.0000 10.5705 0.0000 -6.0203
# 5 3.6403 -4.6485 5.7586 0.0000 37.9443 0.0000
# 6 0.0000 0.0000 0.0000 -6.0203 0.0000 34.6269
#
#
#
# Elastic Compliance Matrix: (Units=1/GPa)
#
#
# Indices 1 2 3 4 5 6 
#
# 1 0.022068 -0.009570 -0.003249 0.000000 -0.002797 0.000000
# 2 -0.009570 0.013068 -0.000394 0.000000 0.002579 0.000000
# 3 -0.003249 -0.000394 0.032806 0.000000 -0.004715 0.000000
# 4 0.000000 0.000000 0.000000 0.105000 0.000000 0.018255
# 5 -0.002797 0.002579 -0.004715 0.000000 0.027654 0.000000
# 6 0.000000 0.000000 0.000000 0.018255 0.000000 0.032053
#
#
# Mechanical properties :
#
#
# Convention : Reuss Voigt Hill
#
# Bulk Modulus (GPa) = 24.08705 37.88904 30.98804
# Shear Modulus (GPa) = 18.32083 26.72392 22.52238
#
# Velocity S-wave (km/s) = 2.94220 3.55345 3.26217
# Velocity P-wave (km/s) = 4.78781 5.89394 5.36943
#
# Compressibility (1/GPa) = 0.04151609
#
# Stress axis : x y z
#
# Youngs Moduli (GPa) = 45.31492 76.52159 30.48260
#
# Poissons Ratio (x) = 0.73233 0.09903
# Poissons Ratio (y) = 0.43368 0.01200
# Poissons Ratio (z) = 0.14722 0.03012
#
# Static dielectric constant tensor:
#      x y z
#    x 1.745150 0.000000 0.010980 
#    y 0.000000 1.846310 0.000000 
#    z 0.010980 0.000000 1.788970 
# 
# From -- ./inp_files/275249.got.cif
#   From: 2010.05.17/outbox.cif.g08.bks.cpg/sg12_138_cif.got.tgz:275249.got - 2010.06.03 13:09:07.
