data_PCOD9182083
_publ_section_title
;
Structure prediction by ZEFSAII (Michael W. Deem and Ramdas Pophale) SiO2 
 PCOD9182083
Probable space group: C 2/M
;
_chemical_formula_sum "Si O2"
_cell_formula_units_Z 64
_cell_length_a 20.949376
_cell_length_b 8.803871
_cell_length_c 33.046785
_cell_angle_alpha 90.000000
_cell_angle_beta 36.557525
_cell_angle_gamma 90.000000
_cell_volume 3630.364397
_symmetry_space_group_name_H-M "C 2/M"
_symmetry_group_IT_number 12
_symmetry_cell_setting 'monoclinic'
loop_
_space_group_symop_operation_xyz
x,y,z
-x,y,-z
-x,-y,-z
x,-y,z
1/2+x,1/2+y,z
1/2-x,1/2+y,-z
1/2-x,1/2-y,-z
1/2+x,1/2-y,z
loop_
_atom_site_type_symbol
_atom_site_label
_atom_site_fract_x
_atom_site_fract_y
_atom_site_fract_z
Si Si1 0.864261 0.182219 0.714990
Si Si2 0.888493 0.319189 0.791733
Si Si3 0.237904 0.680679 0.571182
Si Si4 0.732318 0.319658 0.074968
Si Si5 0.588071 0.181431 0.078016
Si Si6 0.918678 0.680827 0.425305
Si Si7 0.886904 0.819171 0.292101
Si Si8 0.351687 0.182105 0.222231
O O1 0.870033 0.251772 0.756794
O O2 0.753272 0.223407 0.749622
O O3 0.965555 0.245203 0.638627
O O4 0.871302 0.000000 0.714132
O O5 0.896305 0.500000 0.785695
O O6 0.796236 0.267671 0.869719
O O7 0.999693 0.254026 0.752846
O O8 0.245812 0.500000 0.573034
O O9 0.147186 0.708605 0.582925
O O10 0.347264 0.746466 0.497028
O O11 0.199705 0.761130 0.631329
O O12 0.724838 0.500000 0.085682
O O13 0.645718 0.269853 0.085145
O O14 0.846785 0.284186 0.996081
O O15 0.462418 0.215462 0.142296
O O16 0.601527 0.000000 0.078720
O O17 0.926608 0.500000 0.426624
O O18 0.857259 0.764329 0.262422
O O19 0.896192 0.000000 0.288964
O O20 0.349051 0.000000 0.230669
#
# Coordination Sequence:
#
# PCOD9182083 Si02
#       8
#     8   8   8   8   8   8   8   8
#     4  11  23  39  60  85 116 154 195 236 284 346
#     4  12  23  37  57  83 116 153 193 241 290 337
#     4  10  20  35  58  86 117 151 187 236 286 336
#     4  10  19  32  55  87 114 145 190 241 289 339
#     4   9  18  34  56  82 116 151 187 233 290 346
#     4  10  20  35  57  85 118 153 188 234 287 338
#     4  12  23  36  59  89 117 148 192 242 285 338
#     4  10  22  40  60  84 117 156 191 232 289 349
#
# _framework density 17.629085
#
# number of rings (size 3 to 8) (size 9 to 14) (size 15 to 20)
#    0.000    1.500    2.500    3.750    0.000    2.500 
#    0.000    1.250    0.000    7.500    0.000    0.000 
#    0.000    0.000    0.000    0.000    0.000    0.000 
#
# Total GULP energy -178788.949644 kJ/mol
# GULP energy per Si atom -5587.154676 kJ/mol
# Density = 1.758896 g / cm^3
# Si number density = 17.629085 Si / 1000 Ang^3
#
#
#
# Elastic Constant Matrix: (Units=GPa)
#
#
# Indices 1 2 3 4 5 6 
#
# 1 98.3295 58.4598 73.6255 -0.0028 -6.1629 0.0135
# 2 58.4598 81.5069 65.7508 -0.0046 -6.3623 0.0033
# 3 73.6255 65.7508 163.4191 -0.0032 -7.7484 0.0004
# 4 -0.0028 -0.0046 -0.0032 31.9623 -0.0024 4.8908
# 5 -6.1629 -6.3623 -7.7484 -0.0024 24.0664 -0.0011
# 6 0.0135 0.0033 0.0004 4.8908 -0.0011 25.1412
#
#
#
# Elastic Compliance Matrix: (Units=1/GPa)
#
#
# Indices 1 2 3 4 5 6 
#
# 1 0.019995 -0.010425 -0.004775 0.000001 0.000827 -0.000010
# 2 -0.010425 0.023747 -0.004760 0.000002 0.002076 0.000002
# 3 -0.004775 -0.004760 0.010224 -0.000001 0.000811 0.000003
# 4 0.000001 0.000002 -0.000001 0.032247 0.000004 -0.006273
# 5 0.000827 0.002076 0.000811 0.000004 0.042573 0.000000
# 6 -0.000010 0.000002 0.000003 -0.006273 0.000000 0.040996
#
#
# Mechanical properties :
#
#
# Convention : Reuss Voigt Hill
#
# Bulk Modulus (GPa) = 71.18446 82.10308 76.64377
# Shear Modulus (GPa) = 23.32286 25.92860 24.62573
#
# Velocity S-wave (km/s) = 3.64122 3.83924 3.74154
# Velocity P-wave (km/s) = 7.62526 8.14412 7.88896
#
# Compressibility (1/GPa) = 0.01404801
#
# Stress axis : x y z
#
# Youngs Moduli (GPa) = 50.01359 42.10998 97.81075
#
# Poissons Ratio (x) = 0.43898 0.46702
# Poissons Ratio (y) = 0.52137 0.46554
# Poissons Ratio (z) = 0.23880 0.20043
#
# Static dielectric constant tensor:
#      x y z
#    x 1.563140 0.000000 -0.003230 
#    y 0.000000 1.586960 0.000000 
#    z -0.003230 0.000000 1.609850 
# 
# From -- ./inp_files/378120.got.cif
#   From: 2010.05.17/outbox.cif.g08.bks.cpg/sg12_190_cif.got.tgz:378120.got - 2010.06.03 13:09:07.
