data_PCOD9182153
_publ_section_title
;
Structure prediction by ZEFSAII (Michael W. Deem and Ramdas Pophale) SiO2 
 PCOD9182153
Probable space group: C 2/M
;
_chemical_formula_sum "Si O2"
_cell_formula_units_Z 64
_cell_length_a 30.891921
_cell_length_b 10.722667
_cell_length_c 23.857433
_cell_angle_alpha 90.000000
_cell_angle_beta 154.314888
_cell_angle_gamma 90.000000
_cell_volume 3425.195265
_symmetry_space_group_name_H-M "C 2/M"
_symmetry_group_IT_number 12
_symmetry_cell_setting 'monoclinic'
loop_
_space_group_symop_operation_xyz
x,y,z
-x,y,-z
-x,-y,-z
x,-y,z
1/2+x,1/2+y,z
1/2-x,1/2+y,-z
1/2-x,1/2-y,-z
1/2+x,1/2-y,z
loop_
_atom_site_type_symbol
_atom_site_label
_atom_site_fract_x
_atom_site_fract_y
_atom_site_fract_z
Si Si1 0.296380 0.762367 0.649220
Si Si2 0.977391 0.866357 0.718962
Si Si3 0.499830 0.349837 0.066658
Si Si4 0.715219 0.354693 0.003386
Si Si5 0.352866 0.867331 0.602689
Si Si6 0.711079 0.649975 0.125939
Si Si7 0.624338 0.360026 0.520335
Si Si8 0.097100 0.356633 0.573940
O O1 0.403272 0.713716 0.793248
O O2 0.302759 0.859280 0.605158
O O3 0.227877 0.655441 0.540545
O O4 0.234848 0.822617 0.628097
O O5 0.095506 0.860650 0.860242
O O6 0.927378 0.748498 0.688953
O O7 0.941502 0.862692 0.612947
O O8 0.944327 0.000000 0.705139
O O9 0.507319 0.500000 0.082351
O O10 0.500000 0.325251 0.000000
O O11 0.395936 0.306946 0.974556
O O12 0.751305 0.500000 0.036732
O O13 0.750000 0.250000 0.000000
O O14 0.736907 0.312056 0.092561
O O15 0.402985 0.000000 0.652929
O O16 0.702430 0.500000 0.112815
O O17 0.803110 0.675684 0.274531
O O18 0.622810 0.500000 0.543008
O O19 0.586523 0.249196 0.515162
O O20 0.108222 0.500000 0.565431
O O21 0.000000 0.355545 0.500000
#
# Coordination Sequence:
#
# PCOD9182153 Si02
#       8
#     8   8   8   8   8   8   8   8
#     4  10  20  33  53  80 116 150 184 230 280 327
#     4   9  20  37  55  80 114 149 185 229 281 332
#     4  10  19  32  56  85 113 150 192 230 274 339
#     4  10  21  37  58  81 110 147 186 232 284 337
#     4  10  20  33  54  83 113 148 189 230 272 329
#     4   9  19  36  56  82 115 147 183 230 286 336
#     4  10  21  37  57  82 114 151 186 225 277 338
#     4  10  22  39  60  84 109 140 184 238 287 328
#
# _framework density 18.685065000000002
#
# number of rings (size 3 to 8) (size 9 to 14) (size 15 to 20)
#    0.000    2.250    0.000    2.250    1.750    8.750 
#    0.000    0.625    0.000    8.250    0.000    0.000 
#    0.000    0.000    0.000    0.000    0.000    0.000 
#
# Total GULP energy -178439.449647 kJ/mol
# GULP energy per Si atom -5576.232801 kJ/mol
# Density = 1.864254 g / cm^3
# Si number density = 18.685065 Si / 1000 Ang^3
#
#
#
# Elastic Constant Matrix: (Units=GPa)
#
#
# Indices 1 2 3 4 5 6 
#
# 1 52.9639 38.3267 -13.6976 0.0000 -5.6486 0.0000
# 2 38.3267 121.8294 7.9352 0.0000 0.1249 0.0000
# 3 -13.6976 7.9352 43.1493 0.0000 2.5681 0.0000
# 4 0.0000 0.0000 0.0000 13.9568 0.0000 8.9299
# 5 -5.6486 0.1249 2.5681 0.0000 19.8048 0.0000
# 6 0.0000 0.0000 0.0000 8.9299 0.0000 13.5853
#
#
#
# Elastic Compliance Matrix: (Units=1/GPa)
#
#
# Indices 1 2 3 4 5 6 
#
# 1 0.029741 -0.010072 0.010869 0.000000 0.007137 0.000000
# 2 -0.010072 0.011719 -0.005217 0.000000 -0.002270 0.000000
# 3 0.010869 -0.005217 0.027612 0.000000 -0.000448 0.000000
# 4 0.000000 0.000000 0.000000 0.123657 0.000000 -0.081282
# 5 0.007137 -0.002270 -0.000448 0.000000 0.052601 0.000000
# 6 0.000000 0.000000 0.000000 -0.081282 0.000000 0.127038
#
#
# Mechanical properties :
#
#
# Convention : Reuss Voigt Hill
#
# Bulk Modulus (GPa) = 16.60271 31.45235 24.02753
# Shear Modulus (GPa) = 12.46001 21.82791 17.14396
#
# Velocity S-wave (km/s) = 2.58513 3.42160 3.03235
# Velocity P-wave (km/s) = 4.22083 5.69906 5.01471
#
# Compressibility (1/GPa) = 0.06023113
#
# Stress axis : x y z
#
# Youngs Moduli (GPa) = 33.62371 85.33319 36.21659
#
# Poissons Ratio (x) = 0.85943 -0.39362
# Poissons Ratio (y) = 0.33864 0.18895
# Poissons Ratio (z) = -0.36544 0.44520
#
# Static dielectric constant tensor:
#      x y z
#    x 1.673460 0.000000 -0.011640 
#    y 0.000000 1.664240 0.000000 
#    z -0.011640 0.000000 1.647660 
# 
# From -- ./inp_files/327868.got.cif
#   From: 2010.05.17/outbox.cif.g08.bks.cpg/sg12_164_cif.got.tgz:327868.got - 2010.06.03 13:09:07.
