data_PCOD9182441
_publ_section_title
;
Structure prediction by ZEFSAII (Michael W. Deem and Ramdas Pophale) SiO2 
 PCOD9182441
Probable space group: C 2/M
;
_chemical_formula_sum "Si O2"
_cell_formula_units_Z 64
_cell_length_a 30.210929
_cell_length_b 8.192201
_cell_length_c 17.295629
_cell_angle_alpha 90.000000
_cell_angle_beta 116.546956
_cell_angle_gamma 90.000000
_cell_volume 3829.257631
_symmetry_space_group_name_H-M "C 2/M"
_symmetry_group_IT_number 12
_symmetry_cell_setting 'monoclinic'
loop_
_space_group_symop_operation_xyz
x,y,z
-x,y,-z
-x,-y,-z
x,-y,z
1/2+x,1/2+y,z
1/2-x,1/2+y,-z
1/2-x,1/2-y,-z
1/2+x,1/2-y,z
loop_
_atom_site_type_symbol
_atom_site_label
_atom_site_fract_x
_atom_site_fract_y
_atom_site_fract_z
Si Si1 0.114571 0.310748 0.441653
Si Si2 0.489493 0.804457 0.579577
Si Si3 0.824216 0.197507 0.096913
Si Si4 0.720967 0.805376 0.094789
Si Si5 0.909500 0.803352 0.275399
Si Si6 0.703556 0.196894 0.410225
Si Si7 0.843724 0.810707 0.372157
Si Si8 0.763895 0.809488 0.731011
O O1 0.106454 0.500000 0.414404
O O2 0.061020 0.238031 0.421585
O O3 0.152060 0.240758 0.407265
O O4 0.144923 0.297966 0.545060
O O5 0.500000 0.741531 0.500000
O O6 0.536384 0.768448 0.669982
O O7 0.483315 0.000000 0.567213
O O8 0.775913 0.250296 0.109042
O O9 0.874883 0.251566 0.177438
O O10 0.823666 0.000000 0.096419
O O11 0.815323 0.258698 0.003432
O O12 0.708363 0.727644 0.167314
O O13 0.722273 0.000000 0.104177
O O14 0.878695 0.763222 0.328762
O O15 0.913499 0.000000 0.274611
O O16 0.750000 0.250000 0.500000
O O17 0.710218 0.258235 0.328272
O O18 0.703252 0.000000 0.410273
O O19 0.787116 0.790689 0.304348
O O20 0.853236 0.000000 0.399320
O O21 0.751923 0.000000 0.717799
#
# Coordination Sequence:
#
# PCOD9182441 Si02
#       8
#     8   8   8   8   8   8   8   8
#     4  10  21  36  50  70 101 136 171 212 256 298
#     4  10  20  33  50  73 101 134 172 211 249 298
#     4   9  18  33  49  72 104 134 166 206 252 301
#     4  10  19  33  51  74 102 133 169 207 249 301
#     4  10  20  33  49  73 103 137 172 208 250 297
#     4  11  22  35  52  74 101 134 174 213 253 301
#     4  11  20  31  49  72 101 135 173 213 249 295
#     4  12  23  34  50  73 102 138 174 209 255 303
#
# _framework density 16.713422000000001
#
# number of rings (size 3 to 8) (size 9 to 14) (size 15 to 20)
#    0.000    1.625    3.750    2.250    0.000    2.750 
#    0.000    0.000    0.000    0.000    0.000    0.875 
#    0.000    7.000    0.000    0.000    0.000    0.000 
#
# Total GULP energy -178536.605742 kJ/mol
# GULP energy per Si atom -5579.268929 kJ/mol
# Density = 1.667538 g / cm^3
# Si number density = 16.713422 Si / 1000 Ang^3
#
#
#
# Elastic Constant Matrix: (Units=GPa)
#
#
# Indices 1 2 3 4 5 6 
#
# 1 94.8065 6.7554 45.8510 0.0000 -13.2640 0.0000
# 2 6.7554 21.9102 6.3488 0.0000 -6.7506 0.0000
# 3 45.8510 6.3488 107.5211 0.0000 -10.4805 0.0000
# 4 0.0000 0.0000 0.0000 25.1146 0.0000 3.7128
# 5 -13.2640 -6.7506 -10.4805 0.0000 23.5112 0.0000
# 6 0.0000 0.0000 0.0000 3.7128 0.0000 11.1071
#
#
#
# Elastic Compliance Matrix: (Units=1/GPa)
#
#
# Indices 1 2 3 4 5 6 
#
# 1 0.013951 -0.001159 -0.005380 0.000000 0.005140 0.000000
# 2 -0.001159 0.050440 -0.001188 0.000000 0.013299 0.000000
# 3 -0.005380 -0.001188 0.011851 0.000000 0.001906 0.000000
# 4 0.000000 0.000000 0.000000 0.041887 0.000000 -0.014002
# 5 0.005140 0.013299 0.001906 0.000000 0.050101 0.000000
# 6 0.000000 0.000000 0.000000 -0.014002 0.000000 0.094713
#
#
# Mechanical properties :
#
#
# Convention : Reuss Voigt Hill
#
# Bulk Modulus (GPa) = 16.45050 38.01647 27.23348
# Shear Modulus (GPa) = 16.74149 22.96544 19.85347
#
# Velocity S-wave (km/s) = 3.16837 3.71087 3.45030
# Velocity P-wave (km/s) = 4.82170 6.41531 5.67472
#
# Compressibility (1/GPa) = 0.06078843
#
# Stress axis : x y z
#
# Youngs Moduli (GPa) = 71.67757 19.82560 84.38335
#
# Poissons Ratio (x) = 0.02298 0.45398
# Poissons Ratio (y) = 0.08307 0.10023
# Poissons Ratio (z) = 0.38562 0.02355
#
# Static dielectric constant tensor:
#      x y z
#    x 1.577150 0.000000 0.001690 
#    y 0.000000 1.594540 0.000000 
#    z 0.001690 0.000000 1.557500 
# 
# From -- ./inp_files/249234.got.cif
#   From: 2010.05.17/outbox.cif.g08.bks.cpg/sg12_125_cif.got.tgz:249234.got - 2010.06.03 13:09:07.
