data_PCOD9182365
_publ_section_title
;
Structure prediction by ZEFSAII (Michael W. Deem and Ramdas Pophale) SiO2 
 PCOD9182365
Probable space group: C 2/M
;
_chemical_formula_sum "Si O2"
_cell_formula_units_Z 56
_cell_length_a 31.050073
_cell_length_b 7.521946
_cell_length_c 12.152080
_cell_angle_alpha 90.000000
_cell_angle_beta 118.058274
_cell_angle_gamma 90.000000
_cell_volume 2504.628018
_symmetry_space_group_name_H-M "C 2/M"
_symmetry_group_IT_number 12
_symmetry_cell_setting 'monoclinic'
loop_
_space_group_symop_operation_xyz
x,y,z
-x,y,-z
-x,-y,-z
x,-y,z
1/2+x,1/2+y,z
1/2-x,1/2+y,-z
1/2-x,1/2-y,-z
1/2+x,1/2-y,z
loop_
_atom_site_type_symbol
_atom_site_label
_atom_site_fract_x
_atom_site_fract_y
_atom_site_fract_z
Si Si1 0.444156 0.291931 0.437729
Si Si2 0.393583 0.706216 0.752682
Si Si3 0.643346 0.717871 0.516432
Si Si4 0.250374 0.286728 0.369026
Si Si5 0.092783 0.716546 0.847935
Si Si6 0.999971 0.714100 0.874726
Si Si7 0.837923 0.297447 0.886617
O O1 0.500000 0.217930 0.500000
O O2 0.450054 0.500000 0.473220
O O3 0.403972 0.217036 0.474391
O O4 0.417502 0.276122 0.287933
O O5 0.384155 0.500000 0.762037
O O6 0.359844 0.774382 0.614627
O O7 0.447583 0.726782 0.769771
O O8 0.383393 0.801323 0.855186
O O9 0.641730 0.500000 0.515741
O O10 0.697409 0.771301 0.618278
O O11 0.247958 0.500000 0.359525
O O12 0.250000 0.250000 0.500000
O O13 0.205666 0.217331 0.239894
O O14 0.093860 0.500000 0.849572
O O15 0.045256 0.776991 0.858916
O O16 0.140176 0.779376 0.973893
O O17 0.001067 0.500000 0.876631
O O18 0.000000 0.778692 0.000000
O O19 0.823741 0.500000 0.895295
#
# Coordination Sequence:
#
# PCOD9182365 Si02
#       7
#     8   8   8   8   8   8   8
#     4  10  21  39  60  79 108 148 188 227 276 333
#     4  11  20  31  52  81 111 139 179 229 270 325
#     4   9  19  35  54  80 111 143 181 230 281 324
#     4  10  19  34  57  82 112 147 184 227 278 332
#     4  10  21  37  55  77 109 145 186 229 271 326
#     4  10  19  33  50  71 107 146 176 215 273 334
#     4  10  20  35  54  78 111 148 178 217 281 339
#
# _framework density 22.358608
#
# number of rings (size 3 to 8) (size 9 to 14) (size 15 to 20)
#    0.000    2.000    2.857    1.286    0.000    2.857 
#    0.000    2.857    0.000    0.000    0.000    0.000 
#    0.000    0.000    0.000    0.000    0.000    0.000 
#
# Total GULP energy -156200.343657 kJ/mol
# GULP energy per Si atom -5578.583702 kJ/mol
# Density = 2.230772 g / cm^3
# Si number density = 22.358608 Si / 1000 Ang^3
#
#
#
# Elastic Constant Matrix: (Units=GPa)
#
#
# Indices 1 2 3 4 5 6 
#
# 1 98.2027 0.9003 39.5660 0.0000 19.7056 0.0000
# 2 0.9003 60.3339 -7.6874 0.0000 1.6961 0.0000
# 3 39.5660 -7.6874 123.8041 0.0000 19.8362 0.0000
# 4 0.0000 0.0000 0.0000 26.9328 0.0000 -2.6566
# 5 19.7056 1.6961 19.8362 0.0000 42.9338 0.0000
# 6 0.0000 0.0000 0.0000 -2.6566 0.0000 8.2181
#
#
#
# Elastic Compliance Matrix: (Units=1/GPa)
#
#
# Indices 1 2 3 4 5 6 
#
# 1 0.012350 -0.000491 -0.003318 0.000000 -0.004116 0.000000
# 2 -0.000491 0.016787 0.001371 0.000000 -0.001071 0.000000
# 3 -0.003318 0.001371 0.009706 0.000000 -0.003016 0.000000
# 4 0.000000 0.000000 0.000000 0.038352 0.000000 0.012398
# 5 -0.004116 -0.001071 -0.003016 0.000000 0.026616 0.000000
# 6 0.000000 0.000000 0.000000 0.012398 0.000000 0.125690
#
#
# Mechanical properties :
#
#
# Convention : Reuss Voigt Hill
#
# Bulk Modulus (GPa) = 29.44115 38.65539 34.04827
# Shear Modulus (GPa) = 20.35001 32.25438 26.30219
#
# Velocity S-wave (km/s) = 3.02017 3.80227 3.43356
# Velocity P-wave (km/s) = 5.03569 6.05002 5.56601
#
# Compressibility (1/GPa) = 0.03396606
#
# Stress axis : x y z
#
# Youngs Moduli (GPa) = 80.96968 59.57149 103.02948
#
# Poissons Ratio (x) = 0.02927 0.34185
# Poissons Ratio (y) = 0.03978 -0.14125
# Poissons Ratio (z) = 0.26866 -0.08167
#
# Static dielectric constant tensor:
#      x y z
#    x 1.849740 0.000000 0.067220 
#    y 0.000000 1.835180 0.000000 
#    z 0.067220 0.000000 1.865680 
# 
# From -- ./inp_files/110550.got.cif
#   From: 2010.05.17/outbox.cif.g08.bks.cpg/sg12_56_cif.got.tgz:110550.got - 2010.06.03 13:09:07.
