data_PCOD9182016
_publ_section_title
;
Structure prediction by ZEFSAII (Michael W. Deem and Ramdas Pophale) SiO2 
 PCOD9182016
Probable space group: C 2/M
;
_chemical_formula_sum "Si O2"
_cell_formula_units_Z 40
_cell_length_a 31.685963
_cell_length_b 7.399566
_cell_length_c 23.844628
_cell_angle_alpha 90.000000
_cell_angle_beta 161.860911
_cell_angle_gamma 90.000000
_cell_volume 1740.513792
_symmetry_space_group_name_H-M "C 2/M"
_symmetry_group_IT_number 12
_symmetry_cell_setting 'monoclinic'
loop_
_space_group_symop_operation_xyz
x,y,z
-x,y,-z
-x,-y,-z
x,-y,z
1/2+x,1/2+y,z
1/2-x,1/2+y,-z
1/2-x,1/2-y,-z
1/2+x,1/2-y,z
loop_
_atom_site_type_symbol
_atom_site_label
_atom_site_fract_x
_atom_site_fract_y
_atom_site_fract_z
Si Si1 0.098923 0.780583 0.449316
Si Si2 0.089071 0.279680 0.166451
Si Si3 0.867968 0.279144 0.970944
Si Si4 0.835703 0.299481 0.053320
Si Si5 0.406543 0.719437 0.432691
O O1 0.254516 0.723648 0.637697
O O2 0.054515 0.723110 0.455860
O O3 0.991718 0.708041 0.269634
O O4 0.093250 0.000000 0.439466
O O5 0.091205 0.500000 0.167459
O O6 0.008995 0.222368 0.121172
O O7 0.000000 0.223461 0.000000
O O8 0.872879 0.500000 0.979139
O O9 0.832137 0.209081 0.987708
O O10 0.747163 0.231294 0.776090
O O11 0.785520 0.500000 0.978096
O O12 0.750000 0.250000 0.000000
O O13 0.500000 0.782884 0.500000
O O14 0.412717 0.500000 0.440780
#
# Coordination Sequence:
#
# PCOD9182016 Si02
#       5
#     8   8   8   8   8
#     4  10  19  32  55  83 109 138 174 221 272 316
#     4   9  15  28  52  84 112 133 172 228 269 305
#     4   9  17  30  50  78 108 139 178 223 265 306
#     4  11  23  38  55  76 109 146 180 219 266 320
#     4   9  15  25  46  76 103 131 176 225 260 296
#
# _framework density 22.981718999999998
#
# number of rings (size 3 to 8) (size 9 to 14) (size 15 to 20)
#    0.000    2.400    2.000    1.800    0.000    4.000 
#    0.000    0.000    0.000    8.400    0.000    0.000 
#    0.000    0.000    0.000    0.000    0.000    0.000 
#
# Total GULP energy -111681.338921 kJ/mol
# GULP energy per Si atom -5584.066946 kJ/mol
# Density = 2.292941 g / cm^3
# Si number density = 22.981719 Si / 1000 Ang^3
#
#
#
# Elastic Constant Matrix: (Units=GPa)
#
#
# Indices 1 2 3 4 5 6 
#
# 1 94.6827 1.5315 -11.0176 0.0000 3.5768 0.0000
# 2 1.5315 70.0725 -15.6370 0.0000 4.8059 0.0000
# 3 -11.0176 -15.6370 46.4589 0.0000 7.5296 0.0000
# 4 0.0000 0.0000 0.0000 5.9727 0.0000 -1.1074
# 5 3.5768 4.8059 7.5296 0.0000 46.8018 0.0000
# 6 0.0000 0.0000 0.0000 -1.1074 0.0000 -2.4145
#
#
#
# Elastic Compliance Matrix: (Units=1/GPa)
#
#
# Indices 1 2 3 4 5 6 
#
# 1 0.010954 0.000523 0.002996 0.000000 -0.001373 0.000000
# 2 0.000523 0.015742 0.005843 0.000000 -0.002597 0.000000
# 3 0.002996 0.005843 0.024987 0.000000 -0.004849 0.000000
# 4 0.000000 0.000000 0.000000 0.154307 0.000000 -0.070773
# 5 -0.001373 -0.002597 -0.004849 0.000000 0.022518 0.000000
# 6 0.000000 0.000000 0.000000 -0.070773 0.000000 -0.381707
#
#
# Mechanical properties :
#
#
# Convention : Reuss Voigt Hill
#
# Bulk Modulus (GPa) = 14.20286 17.88533 16.04410
# Shear Modulus (GPa) = -33.68023 25.82782 -3.92620
#
# Velocity S-wave (km/s) = -3.83237 3.35601 -1.30848
# Velocity P-wave (km/s) = 3.65913 4.77665 2.17108
#
# Compressibility (1/GPa) = 0.07040835
#
# Stress axis : x y z
#
# Youngs Moduli (GPa) = 91.29381 63.52632 40.02002
#
# Poissons Ratio (x) = -0.03325 -0.11991
# Poissons Ratio (y) = -0.04778 -0.23384
# Poissons Ratio (z) = -0.27354 -0.37119
#
# Static dielectric constant tensor:
#      x y z
#    x 1.863340 0.000000 0.032410 
#    y 0.000000 1.912230 0.000000 
#    z 0.032410 0.000000 1.809310 
# 
# From -- ./inp_files/151649.got.cif
#   From: 2010.05.17/outbox.cif.g08.bks.cpg/sg12_76_cif.got.tgz:151649.got - 2010.06.03 13:09:07.
