data_PCOD9182058
_publ_section_title
;
Structure prediction by ZEFSAII (Michael W. Deem and Ramdas Pophale) SiO2 
 PCOD9182058
Probable space group: C 2/M
;
_chemical_formula_sum "Si O2"
_cell_formula_units_Z 56
_cell_length_a 11.042279
_cell_length_b 15.613277
_cell_length_c 15.200336
_cell_angle_alpha 90.000000
_cell_angle_beta 88.882233
_cell_angle_gamma 90.000000
_cell_volume 2620.132895
_symmetry_space_group_name_H-M "C 2/M"
_symmetry_group_IT_number 12
_symmetry_cell_setting 'monoclinic'
loop_
_space_group_symop_operation_xyz
x,y,z
-x,y,-z
-x,-y,-z
x,-y,z
1/2+x,1/2+y,z
1/2-x,1/2+y,-z
1/2-x,1/2-y,-z
1/2+x,1/2-y,z
loop_
_atom_site_type_symbol
_atom_site_label
_atom_site_fract_x
_atom_site_fract_y
_atom_site_fract_z
Si Si1 0.187555 0.903393 0.645942
Si Si2 0.136515 0.096493 0.457378
Si Si3 0.459913 0.713032 0.684189
Si Si4 0.457143 0.673869 0.879590
Si Si5 0.452629 0.863556 0.910653
Si Si6 0.815176 0.899550 0.044089
Si Si7 0.951646 0.593207 0.714092
O O1 0.218893 0.888786 0.542191
O O2 0.087189 0.836089 0.674370
O O3 0.306477 0.902619 0.703020
O O4 0.135626 0.000000 0.651251
O O5 0.000000 0.095885 0.500000
O O6 0.130475 0.171412 0.385972
O O7 0.159977 0.000000 0.422059
O O8 0.411463 0.688402 0.781705
O O9 0.487297 0.814123 0.675054
O O10 0.504292 0.767783 0.905557
O O11 0.573522 0.613189 0.889981
O O12 0.359693 0.640468 0.951117
O O13 0.307628 0.857467 0.920706
O O14 0.482123 0.905478 0.817137
O O15 0.500000 0.904148 0.000000
O O16 0.792248 0.000000 0.033291
O O17 0.991381 0.500000 0.676584
#
# Coordination Sequence:
#
# PCOD9182058 Si02
#       7
#     8   8   8   8   8   8   8
#     4   9  18  36  60  83 110 143 182 225 267 326
#     4   8  15  29  54  85 112 138 175 224 272 319
#     4  10  19  32  55  85 110 142 178 228 276 322
#     4  10  21  35  54  81 110 145 178 226 279 332
#     4  11  22  38  60  76 104 147 195 231 270 321
#     4  11  22  36  55  80 109 143 182 227 280 335
#     4  10  22  37  54  80 107 143 190 226 269 325
#
# _framework density 21.372961
#
# number of rings (size 3 to 8) (size 9 to 14) (size 15 to 20)
#    0.000    2.143    1.429    3.857    0.000    5.143 
#    2.571    0.000    0.000    5.571    0.000    0.000 
#    0.000    0.000    0.000    0.000    0.000    0.000 
#
# Total GULP energy -156136.896890 kJ/mol
# GULP energy per Si atom -5576.317746 kJ/mol
# Density = 2.132432 g / cm^3
# Si number density = 21.372961 Si / 1000 Ang^3
#
#
#
# Elastic Constant Matrix: (Units=GPa)
#
#
# Indices 1 2 3 4 5 6 
#
# 1 9.5429 11.0685 -10.3650 0.0000 0.4198 0.0000
# 2 11.0685 144.9278 39.4460 0.0000 5.5266 0.0000
# 3 -10.3650 39.4460 76.5149 0.0000 21.2856 0.0000
# 4 0.0000 0.0000 0.0000 25.8213 0.0000 1.7345
# 5 0.4198 5.5266 21.2856 0.0000 20.1336 0.0000
# 6 0.0000 0.0000 0.0000 1.7345 0.0000 17.1457
#
#
#
# Elastic Compliance Matrix: (Units=1/GPa)
#
#
# Indices 1 2 3 4 5 6 
#
# 1 0.207465 -0.029938 0.060144 0.000000 -0.059693 0.000000
# 2 -0.029938 0.012483 -0.013758 0.000000 0.011742 0.000000
# 3 0.060144 -0.013758 0.039110 0.000000 -0.038825 0.000000
# 4 0.000000 0.000000 0.000000 0.038993 0.000000 -0.003945
# 5 -0.059693 0.011742 -0.038825 0.000000 0.088737 0.000000
# 6 0.000000 0.000000 0.000000 -0.003945 0.000000 0.058723
#
#
# Mechanical properties :
#
#
# Convention : Reuss Voigt Hill
#
# Bulk Modulus (GPa) = 3.42519 34.58718 19.00618
# Shear Modulus (GPa) = 9.80522 25.34250 17.57386
#
# Velocity S-wave (km/s) = 2.14421 3.44717 2.87060
# Velocity P-wave (km/s) = 2.78141 5.66232 4.46083
#
# Compressibility (1/GPa) = 0.29195496
#
# Stress axis : x y z
#
# Youngs Moduli (GPa) = 4.82008 80.10790 25.56892
#
# Poissons Ratio (x) = 2.39828 -1.53782
# Poissons Ratio (y) = 0.14430 0.35177
# Poissons Ratio (z) = -0.28990 1.10209
#
# Static dielectric constant tensor:
#      x y z
#    x 1.751260 0.000000 0.024110 
#    y 0.000000 1.787150 0.000000 
#    z 0.024110 0.000000 1.842550 
# 
# From -- ./inp_files/204984.got.cif
#   From: 2010.05.17/outbox.cif.g08.bks.cpg/sg12_103_cif.got.tgz:204984.got - 2010.06.03 13:09:07.
