data_PCOD9182906
_publ_section_title
;
Structure prediction by ZEFSAII (Michael W. Deem and Ramdas Pophale) SiO2 
 PCOD9182906
Probable space group: C 2/M
;
_chemical_formula_sum "Si O2"
_cell_formula_units_Z 64
_cell_length_a 28.536520
_cell_length_b 8.897064
_cell_length_c 18.637097
_cell_angle_alpha 90.000000
_cell_angle_beta 45.294834
_cell_angle_gamma 90.000000
_cell_volume 3363.057827
_symmetry_space_group_name_H-M "C 2/M"
_symmetry_group_IT_number 12
_symmetry_cell_setting 'monoclinic'
loop_
_space_group_symop_operation_xyz
x,y,z
-x,y,-z
-x,-y,-z
x,-y,z
1/2+x,1/2+y,z
1/2-x,1/2+y,-z
1/2-x,1/2-y,-z
1/2+x,1/2-y,z
loop_
_atom_site_type_symbol
_atom_site_label
_atom_site_fract_x
_atom_site_fract_y
_atom_site_fract_z
Si Si1 0.435271 0.818067 0.523715
Si Si2 0.572224 0.179467 0.773611
Si Si3 0.047017 0.176067 0.650775
Si Si4 0.221641 0.329035 0.099657
Si Si5 0.921038 0.676975 0.978768
Si Si6 0.584851 0.830005 0.176121
Si Si7 0.157161 0.179579 0.806228
Si Si8 0.790800 0.316662 0.731024
O O1 0.500000 0.771359 0.500000
O O2 0.436234 0.754186 0.442328
O O3 0.365317 0.770672 0.633378
O O4 0.436716 0.000000 0.519144
O O5 0.578824 0.249934 0.687416
O O6 0.498501 0.215124 0.883809
O O7 0.624932 0.243962 0.772085
O O8 0.576678 0.000000 0.764473
O O9 0.969481 0.209520 0.745794
O O10 0.060916 0.000000 0.633260
O O11 0.246695 0.500000 0.073360
O O12 0.143318 0.331956 0.169546
O O13 0.231883 0.259582 0.166476
O O14 0.250000 0.250000 0.000000
O O15 0.917032 0.500000 0.002063
O O16 0.890754 0.696675 0.931549
O O17 0.884924 0.770628 0.078617
O O18 0.554820 0.000000 0.207383
O O19 0.233437 0.223945 0.737206
O O20 0.153858 0.000000 0.802879
O O21 0.791940 0.500000 0.734120
#
# Coordination Sequence:
#
# PCOD9182906 Si02
#       8
#     8   8   8   8   8   8   8   8
#     4  10  20  39  66  86 106 145 189 223 265 327
#     4  10  21  38  58  79 107 146 191 229 266 325
#     4  11  22  36  57  86 114 135 170 230 289 330
#     4  10  19  33  53  78 110 149 189 224 264 318
#     4   9  18  32  51  77 108 144 187 230 268 318
#     4   9  18  33  53  77 108 148 190 225 265 330
#     4  11  21  33  51  78 113 147 182 229 282 327
#     4   9  20  36  54  80 112 145 184 228 271 324
#
# _framework density 19.0303
#
# number of rings (size 3 to 8) (size 9 to 14) (size 15 to 20)
#    0.000    2.125    0.000    4.500    0.000    6.750 
#    0.000    3.125    0.000    0.000    0.000    0.000 
#    0.000    0.000    0.000    0.000    0.000    0.000 
#
# Total GULP energy -178575.547602 kJ/mol
# GULP energy per Si atom -5580.485863 kJ/mol
# Density = 1.898699 g / cm^3
# Si number density = 19.030300 Si / 1000 Ang^3
#
#
#
# Elastic Constant Matrix: (Units=GPa)
#
#
# Indices 1 2 3 4 5 6 
#
# 1 122.6432 27.6856 45.0112 -0.0018 2.7096 -0.0014
# 2 27.6856 40.6919 27.4961 0.0031 1.9662 -0.0063
# 3 45.0112 27.4961 96.3837 -0.0007 8.5831 0.0013
# 4 -0.0018 0.0031 -0.0007 24.9373 0.0008 5.7334
# 5 2.7096 1.9662 8.5831 0.0008 23.0572 0.0003
# 6 -0.0014 -0.0063 0.0013 5.7334 0.0003 22.1481
#
#
#
# Elastic Compliance Matrix: (Units=1/GPa)
#
#
# Indices 1 2 3 4 5 6 
#
# 1 0.010542 -0.004757 -0.003612 0.000001 0.000511 -0.000001
# 2 -0.004757 0.032599 -0.007117 -0.000007 0.000428 0.000011
# 3 -0.003612 -0.007117 0.014480 0.000002 -0.004359 -0.000004
# 4 0.000001 -0.000007 0.000002 0.042638 -0.000002 -0.011038
# 5 0.000511 0.000428 -0.004359 -0.000002 0.044896 0.000000
# 6 -0.000001 0.000011 -0.000004 -0.011038 0.000000 0.048008
#
#
# Mechanical properties :
#
#
# Convention : Reuss Voigt Hill
#
# Bulk Modulus (GPa) = 37.52123 51.12274 44.32198
# Shear Modulus (GPa) = 21.45766 24.66359 23.06063
#
# Velocity S-wave (km/s) = 3.36155 3.60393 3.48485
# Velocity P-wave (km/s) = 5.90136 6.65131 6.28753
#
# Compressibility (1/GPa) = 0.02665158
#
# Stress axis : x y z
#
# Youngs Moduli (GPa) = 94.86166 30.67554 69.05992
#
# Poissons Ratio (x) = 0.14591 0.24941
# Poissons Ratio (y) = 0.45122 0.49148
# Poissons Ratio (z) = 0.34260 0.21831
#
# Static dielectric constant tensor:
#      x y z
#    x 1.678220 0.000000 -0.012590 
#    y 0.000000 1.658580 0.000000 
#    z -0.012590 0.000000 1.664260 
# 
# From -- ./inp_files/295606.got.cif
#   From: 2010.05.17/outbox.cif.g08.bks.cpg/sg12_148_cif.got.tgz:295606.got - 2010.06.03 13:09:07.
