data_PCOD9182662
_publ_section_title
;
Structure prediction by ZEFSAII (Michael W. Deem and Ramdas Pophale) SiO2 
 PCOD9182662
Probable space group: C 2/M
;
_chemical_formula_sum "Si O2"
_cell_formula_units_Z 48
_cell_length_a 23.981457
_cell_length_b 11.253498
_cell_length_c 11.974216
_cell_angle_alpha 90.000000
_cell_angle_beta 130.996144
_cell_angle_gamma 90.000000
_cell_volume 2439.020553
_symmetry_space_group_name_H-M "C 2/M"
_symmetry_group_IT_number 12
_symmetry_cell_setting 'monoclinic'
loop_
_space_group_symop_operation_xyz
x,y,z
-x,y,-z
-x,-y,-z
x,-y,z
1/2+x,1/2+y,z
1/2-x,1/2+y,-z
1/2-x,1/2-y,-z
1/2+x,1/2-y,z
loop_
_atom_site_type_symbol
_atom_site_label
_atom_site_fract_x
_atom_site_fract_y
_atom_site_fract_z
Si Si1 0.749972 0.719590 0.180380
Si Si2 0.108382 0.132710 0.613272
Si Si3 0.537137 0.640263 0.161708
Si Si4 0.786380 0.860071 0.618394
Si Si5 0.344279 0.129229 0.100315
Si Si6 0.021117 0.234010 0.686987
O O1 0.807733 0.826700 0.279948
O O2 0.732536 0.658008 0.274775
O O3 0.793616 0.643820 0.144019
O O4 0.680217 0.773070 0.022576
O O5 0.075163 0.140627 0.694490
O O6 0.056279 0.225381 0.479778
O O7 0.098148 0.000000 0.554658
O O8 0.521754 0.500000 0.149750
O O9 0.625365 0.654067 0.278930
O O10 0.499087 0.701607 0.215394
O O11 0.500000 0.685385 0.000000
O O12 0.750000 0.750000 0.500000
O O13 0.767991 0.000000 0.563656
O O14 0.428666 0.149666 0.247389
O O15 0.332749 0.000000 0.036342
#
# Coordination Sequence:
#
# PCOD9182662 Si02
#       6
#     8   8   8   8   8   8
#     4  10  21  38  60  86 115 150 195 241 294 351
#     4  10  19  33  57  84 110 144 190 245 292 339
#     4  10  20  35  56  80 110 149 192 237 282 336
#     4  11  24  41  62  88 120 158 199 244 293 349
#     4  10  21  37  59  86 117 151 189 242 302 357
#     4  10  19  33  52  80 111 141 185 234 289 343
#
# _framework density 19.680029999999999
#
# number of rings (size 3 to 8) (size 9 to 14) (size 15 to 20)
#    0.000    1.833    0.000    5.000    0.000    2.667 
#    0.000   16.667    0.000    2.000    0.000    0.000 
#    0.000    0.000    0.000    0.000    0.000    0.000 
#
# Total GULP energy -133791.902461 kJ/mol
# GULP energy per Si atom -5574.662603 kJ/mol
# Density = 1.963524 g / cm^3
# Si number density = 19.680030 Si / 1000 Ang^3
#
#
#
# Elastic Constant Matrix: (Units=GPa)
#
#
# Indices 1 2 3 4 5 6 
#
# 1 91.1098 22.1588 26.6340 0.0000 -15.1152 0.0000
# 2 22.1588 78.1550 40.2056 0.0000 -1.9970 0.0000
# 3 26.6340 40.2056 85.8277 0.0000 -5.2123 0.0000
# 4 0.0000 0.0000 0.0000 24.2020 0.0000 -3.1151
# 5 -15.1152 -1.9970 -5.2123 0.0000 34.3503 0.0000
# 6 0.0000 0.0000 0.0000 -3.1151 0.0000 -4.0686
#
#
#
# Elastic Compliance Matrix: (Units=1/GPa)
#
#
# Indices 1 2 3 4 5 6 
#
# 1 0.013183 -0.002191 -0.002745 0.000000 0.005257 0.000000
# 2 -0.002191 0.017223 -0.007455 0.000000 -0.001094 0.000000
# 3 -0.002745 -0.007455 0.016043 0.000000 0.000793 0.000000
# 4 0.000000 0.000000 0.000000 0.037612 0.000000 -0.028797
# 5 0.005257 -0.001094 0.000793 0.000000 0.031482 0.000000
# 6 0.000000 0.000000 0.000000 -0.028797 0.000000 -0.223736
#
#
# Mechanical properties :
#
#
# Convention : Reuss Voigt Hill
#
# Bulk Modulus (GPa) = 46.15146 48.12103 47.13624
# Shear Modulus (GPa) = -65.62811 21.96968 -21.82921
#
# Velocity S-wave (km/s) = -5.78100 3.34480 -3.33409
# Velocity P-wave (km/s) = 4.58891 6.27867 3.03015
#
# Compressibility (1/GPa) = 0.02166779
#
# Stress axis : x y z
#
# Youngs Moduli (GPa) = 75.85301 58.06087 62.33073
#
# Poissons Ratio (x) = 0.12722 0.17112
# Poissons Ratio (y) = 0.16621 0.46465
# Poissons Ratio (z) = 0.20824 0.43282
#
# Static dielectric constant tensor:
#      x y z
#    x 1.677080 0.000000 -0.027510 
#    y 0.000000 1.685370 0.000000 
#    z -0.027510 0.000000 1.726190 
# 
# From -- ./inp_files/165821.got.cif
#   From: 2010.05.17/outbox.cif.g08.bks.cpg/sg12_83_cif.got.tgz:165821.got - 2010.06.03 13:09:07.
