data_PCOD9182269
_publ_section_title
;
Structure prediction by ZEFSAII (Michael W. Deem and Ramdas Pophale) SiO2 
 PCOD9182269
Probable space group: C 2/M
;
_chemical_formula_sum "Si O2"
_cell_formula_units_Z 58
_cell_length_a 19.482365
_cell_length_b 7.824518
_cell_length_c 18.962367
_cell_angle_alpha 90.000000
_cell_angle_beta 82.276152
_cell_angle_gamma 90.000000
_cell_volume 2864.399772
_symmetry_space_group_name_H-M "C 2/M"
_symmetry_group_IT_number 12
_symmetry_cell_setting 'monoclinic'
loop_
_space_group_symop_operation_xyz
x,y,z
-x,y,-z
-x,-y,-z
x,-y,z
1/2+x,1/2+y,z
1/2-x,1/2+y,-z
1/2-x,1/2-y,-z
1/2+x,1/2-y,z
loop_
_atom_site_type_symbol
_atom_site_label
_atom_site_fract_x
_atom_site_fract_y
_atom_site_fract_z
Si Si1 0.505652 0.793030 0.258331
Si Si2 0.862831 0.701026 0.677204
Si Si3 0.965353 0.810111 0.904666
Si Si4 0.651139 0.791170 0.709211
Si Si5 0.737525 0.296528 0.421168
Si Si6 0.755493 0.195596 0.807242
Si Si7 0.500000 0.000000 0.000000
Si Si8 0.186235 0.692316 0.056597
O O1 0.559732 0.748410 0.312487
O O2 0.530628 0.720457 0.180012
O O3 0.427749 0.735578 0.284858
O O4 0.505071 0.000000 0.252187
O O5 0.855204 0.500000 0.694239
O O6 0.811699 0.799759 0.736996
O O7 0.834010 0.730744 0.603044
O O8 0.002194 0.653206 0.938794
O O9 0.884106 0.799386 0.937455
O O10 0.992606 0.000000 0.916728
O O11 0.700368 0.732422 0.638487
O O12 0.686130 0.739761 0.778632
O O13 0.652657 0.000000 0.708708
O O14 0.736490 0.500000 0.415700
O O15 0.750000 0.250000 0.500000
O O16 0.785017 0.300064 0.868035
O O17 0.745536 0.000000 0.832901
O O18 0.165107 0.500000 0.039644
O O19 0.250000 0.750000 0.000000
#
# Coordination Sequence:
#
# PCOD9182269 Si02
#       8
#     8   8   8   8   8   8   2   8
#     4  10  19  38  63  90 124 161 209 262 313 374
#     4  10  19  32  59  88 115 158 200 246 304 367
#     4  12  25  44  67  92 123 170 217 268 330 394
#     4   8  18  35  59  88 119 159 203 252 307 363
#     4  10  20  37  60  88 123 161 202 250 304 368
#     4  10  19  35  58  85 116 154 205 257 308 370
#     4  12  26  48  64  90 132 172 216 266 340 398
#     4  12  24  41  61  88 122 161 209 269 326 385
#
# _framework density 20.248569
#
# number of rings (size 3 to 8) (size 9 to 14) (size 15 to 20)
#    0.000    1.655    2.759    3.517    0.000    1.655 
#    2.483    6.207    0.000    4.138    0.000    0.000 
#    0.000    0.000    0.000    0.000    0.000    0.000 
#
# Total GULP energy -161678.793010 kJ/mol
# GULP energy per Si atom -5575.130793 kJ/mol
# Density = 2.020248 g / cm^3
# Si number density = 20.248569 Si / 1000 Ang^3
#
#
#
# Elastic Constant Matrix: (Units=GPa)
#
#
# Indices 1 2 3 4 5 6 
#
# 1 91.3840 15.7240 5.5706 0.0000 7.0541 0.0000
# 2 15.7240 94.6643 11.3190 0.0000 5.2096 0.0000
# 3 5.5706 11.3190 48.8773 0.0000 17.2829 0.0000
# 4 0.0000 0.0000 0.0000 23.1084 0.0000 6.2182
# 5 7.0541 5.2096 17.2829 0.0000 31.0542 0.0000
# 6 0.0000 0.0000 0.0000 6.2182 0.0000 14.1594
#
#
#
# Elastic Compliance Matrix: (Units=1/GPa)
#
#
# Indices 1 2 3 4 5 6 
#
# 1 0.011425 -0.001762 -0.000101 0.000000 -0.002244 0.000000
# 2 -0.001762 0.011143 -0.002316 0.000000 -0.000180 0.000000
# 3 -0.000101 -0.002316 0.025973 0.000000 -0.014044 0.000000
# 4 0.000000 0.000000 0.000000 0.049073 0.000000 -0.021551
# 5 -0.002244 -0.000180 -0.014044 0.000000 0.040557 0.000000
# 6 0.000000 0.000000 0.000000 -0.021551 0.000000 0.080089
#
#
# Mechanical properties :
#
#
# Convention : Reuss Voigt Hill
#
# Bulk Modulus (GPa) = 24.88581 33.35032 29.11806
# Shear Modulus (GPa) = 20.83212 27.15185 23.99199
#
# Velocity S-wave (km/s) = 3.21100 3.66584 3.44593
# Velocity P-wave (km/s) = 5.10531 5.86720 5.49947
#
# Compressibility (1/GPa) = 0.04018354
#
# Stress axis : x y z
#
# Youngs Moduli (GPa) = 87.52443 89.74084 38.50154
#
# Poissons Ratio (x) = 0.15815 0.00388
# Poissons Ratio (y) = 0.15424 0.08917
# Poissons Ratio (z) = 0.00882 0.20784
#
# Static dielectric constant tensor:
#      x y z
#    x 1.761090 0.000000 0.013700 
#    y 0.000000 1.753770 0.000000 
#    z 0.013700 0.000000 1.692380 
# 
# From -- ./inp_files/313930.got.cif
#   From: 2010.05.17/outbox.cif.g08.bks.cpg/sg12_157_cif.got.tgz:313930.got - 2010.06.03 13:09:07.
