data_PCOD9182544
_publ_section_title
;
Structure prediction by ZEFSAII (Michael W. Deem and Ramdas Pophale) SiO2 
 PCOD9182544
Probable space group: C 2/M
;
_chemical_formula_sum "Si O2"
_cell_formula_units_Z 56
_cell_length_a 30.342471
_cell_length_b 8.761195
_cell_length_c 19.201763
_cell_angle_alpha 90.000000
_cell_angle_beta 38.240296
_cell_angle_gamma 90.000000
_cell_volume 3159.502012
_symmetry_space_group_name_H-M "C 2/M"
_symmetry_group_IT_number 12
_symmetry_cell_setting 'monoclinic'
loop_
_space_group_symop_operation_xyz
x,y,z
-x,y,-z
-x,-y,-z
x,-y,z
1/2+x,1/2+y,z
1/2-x,1/2+y,-z
1/2-x,1/2-y,-z
1/2+x,1/2-y,z
loop_
_atom_site_type_symbol
_atom_site_label
_atom_site_fract_x
_atom_site_fract_y
_atom_site_fract_z
Si Si1 0.311981 0.815524 0.127380
Si Si2 0.531408 0.175768 0.059872
Si Si3 0.189376 0.817518 0.025816
Si Si4 0.888854 0.183122 0.409588
Si Si5 0.383435 0.682785 0.253293
Si Si6 0.256702 0.816320 0.657177
Si Si7 0.461269 0.176990 0.780091
O O1 0.301423 0.749521 0.063451
O O2 0.254461 0.754369 0.252834
O O3 0.313013 0.000000 0.123011
O O4 0.390666 0.762560 0.056531
O O5 0.458317 0.256909 0.130398
O O6 0.534274 0.180564 0.140908
O O7 0.526968 0.000000 0.043950
O O8 0.192351 0.000000 0.020226
O O9 0.250000 0.750000 0.000000
O O10 0.111456 0.762674 0.148053
O O11 0.878239 0.227552 0.341303
O O12 0.826908 0.256095 0.532235
O O13 0.966686 0.243312 0.334629
O O14 0.886483 0.000000 0.416724
O O15 0.385998 0.500000 0.247668
O O16 0.312794 0.733894 0.301065
O O17 0.257608 0.000000 0.659316
O O18 0.458179 0.000000 0.762882
#
# Coordination Sequence:
#
# PCOD9182544 Si02
#       7
#     8   8   8   8   8   8   8
#     4  10  21  37  53  75 105 138 174 214 262 318
#     4   8  16  30  49  70  97 132 171 215 263 308
#     4  11  21  36  60  88 112 135 164 205 254 309
#     4  10  19  33  52  74 101 140 184 225 263 305
#     4   9  19  32  48  71 100 135 181 227 266 305
#     4  11  22  34  48  71 103 142 181 223 268 311
#     4   9  17  32  53  79 107 136 170 212 257 305
#
# _framework density 17.724311
#
# number of rings (size 3 to 8) (size 9 to 14) (size 15 to 20)
#    0.000    2.286    0.000    4.286    0.000    6.286 
#    0.000    2.857    0.000    0.857    0.000    6.000 
#    0.000    0.000    0.000    0.000    0.000    0.000 
#
# Total GULP energy -156278.597105 kJ/mol
# GULP energy per Si atom -5581.378468 kJ/mol
# Density = 1.768397 g / cm^3
# Si number density = 17.724311 Si / 1000 Ang^3
#
#
#
# Elastic Constant Matrix: (Units=GPa)
#
#
# Indices 1 2 3 4 5 6 
#
# 1 96.0276 43.4978 65.5574 -0.0005 -19.9972 0.0008
# 2 43.4978 85.3715 46.7725 -0.0140 -7.1855 0.0039
# 3 65.5574 46.7725 129.3479 -0.0181 -7.9555 -0.0003
# 4 -0.0005 -0.0140 -0.0181 30.6575 0.0024 -7.6902
# 5 -19.9972 -7.1855 -7.9555 0.0024 24.4455 -0.0004
# 6 0.0008 0.0039 -0.0003 -7.6902 -0.0004 20.0542
#
#
#
# Elastic Compliance Matrix: (Units=1/GPa)
#
#
# Indices 1 2 3 4 5 6 
#
# 1 0.020863 -0.005216 -0.007891 -0.000008 0.012966 -0.000003
# 2 -0.005216 0.016079 -0.003206 0.000005 -0.000584 -0.000001
# 3 -0.007891 -0.003206 0.012689 0.000007 -0.003268 0.000004
# 4 -0.000008 0.000005 0.000007 0.036090 -0.000006 0.013839
# 5 0.012966 -0.000584 -0.003268 -0.000006 0.050279 -0.000002
# 6 -0.000003 -0.000001 0.000004 0.013839 -0.000002 0.055172
#
#
# Mechanical properties :
#
#
# Convention : Reuss Voigt Hill
#
# Bulk Modulus (GPa) = 58.80667 69.15582 63.98125
# Shear Modulus (GPa) = 21.78984 25.35940 23.57462
#
# Velocity S-wave (km/s) = 3.51005 3.78665 3.65097
# Velocity P-wave (km/s) = 7.04825 7.63024 7.34501
#
# Compressibility (1/GPa) = 0.01700487
#
# Stress axis : x y z
#
# Youngs Moduli (GPa) = 47.93138 62.19465 78.80979
#
# Poissons Ratio (x) = 0.32439 0.62186
# Poissons Ratio (y) = 0.25000 0.25270
# Poissons Ratio (z) = 0.37821 0.19943
#
# Static dielectric constant tensor:
#      x y z
#    x 1.603140 0.000000 0.001480 
#    y 0.000000 1.591440 0.000000 
#    z 0.001480 0.000000 1.602040 
# 
# From -- ./inp_files/281593.got.cif
#   From: 2010.05.17/outbox.cif.g08.bks.cpg/sg12_141_cif.got.tgz:281593.got - 2010.06.03 13:09:07.
