data_PCOD9182853
_publ_section_title
;
Structure prediction by ZEFSAII (Michael W. Deem and Ramdas Pophale) SiO2 
 PCOD9182853
Probable space group: C 2/M
;
_chemical_formula_sum "Si O2"
_cell_formula_units_Z 64
_cell_length_a 23.527230
_cell_length_b 8.119762
_cell_length_c 24.945813
_cell_angle_alpha 90.000000
_cell_angle_beta 44.634936
_cell_angle_gamma 90.000000
_cell_volume 3348.204062
_symmetry_space_group_name_H-M "C 2/M"
_symmetry_group_IT_number 12
_symmetry_cell_setting 'monoclinic'
loop_
_space_group_symop_operation_xyz
x,y,z
-x,y,-z
-x,-y,-z
x,-y,z
1/2+x,1/2+y,z
1/2-x,1/2+y,-z
1/2-x,1/2-y,-z
1/2+x,1/2-y,z
loop_
_atom_site_type_symbol
_atom_site_label
_atom_site_fract_x
_atom_site_fract_y
_atom_site_fract_z
Si Si1 0.834596 0.811738 0.469345
Si Si2 0.091029 0.805221 0.283574
Si Si3 0.000921 0.800410 0.157489
Si Si4 0.320131 0.301881 0.992341
Si Si5 0.728801 0.699519 0.855731
Si Si6 0.456841 0.187400 0.301904
Si Si7 0.434443 0.299105 0.088125
Si Si8 0.529188 0.299506 0.540059
O O1 0.750000 0.750000 0.500000
O O2 0.899066 0.797086 0.377647
O O3 0.886643 0.741783 0.486304
O O4 0.818862 0.000000 0.494281
O O5 0.185156 0.765891 0.220252
O O6 0.042688 0.757915 0.369910
O O7 0.046867 0.713002 0.264599
O O8 0.079446 0.000000 0.283392
O O9 0.959295 0.732721 0.238346
O O10 0.957590 0.748584 0.132007
O O11 0.000311 0.000000 0.161366
O O12 0.093651 0.744282 0.087901
O O13 0.325514 0.500000 0.991594
O O14 0.297009 0.244743 0.067392
O O15 0.250000 0.250000 0.000000
O O16 0.733085 0.500000 0.853205
O O17 0.655250 0.751461 0.867360
O O18 0.430772 0.000000 0.327368
O O19 0.437074 0.500000 0.085092
O O20 0.500000 0.243712 0.000000
O O21 0.500000 0.244715 0.500000
O O22 0.535021 0.500000 0.533830
#
# Coordination Sequence:
#
# PCOD9182853 Si02
#       8
#     8   8   8   8   8   8   8   8
#     4  10  20  37  62  89 119 152 187 226 277 338
#     4  10  20  35  56  81 109 142 179 223 276 331
#     4  10  19  34  55  77 104 140 182 226 272 327
#     4  10  20  31  48  73 100 134 175 220 266 319
#     4  10  19  33  53  77 105 139 180 222 270 328
#     4  11  22  37  57  81 111 145 184 230 276 324
#     4   9  16  32  56  76 101 142 186 224 271 330
#     4   8  16  34  59  83 109 145 183 221 271 329
#
# _framework density 19.114725
#
# number of rings (size 3 to 8) (size 9 to 14) (size 15 to 20)
#    0.000    2.250    1.250    3.375    0.000    3.000 
#    2.250    0.625    0.000   13.500    0.000    0.000 
#    0.000    0.000    0.000    0.000    0.000    0.000 
#
# Total GULP energy -178397.040573 kJ/mol
# GULP energy per Si atom -5574.907518 kJ/mol
# Density = 1.907122 g / cm^3
# Si number density = 19.114725 Si / 1000 Ang^3
#
#
#
# Elastic Constant Matrix: (Units=GPa)
#
#
# Indices 1 2 3 4 5 6 
#
# 1 153.3510 0.7639 50.1203 0.0005 3.9396 0.0019
# 2 0.7639 15.0915 -1.9548 -0.0004 2.0351 0.0089
# 3 50.1203 -1.9548 60.8727 -0.0004 3.7398 0.0011
# 4 0.0005 -0.0004 -0.0004 19.2021 -0.0002 -8.2809
# 5 3.9396 2.0351 3.7398 -0.0002 41.5042 -0.0003
# 6 0.0019 0.0089 0.0011 -8.2809 -0.0003 19.3816
#
#
#
# Elastic Compliance Matrix: (Units=1/GPa)
#
#
# Indices 1 2 3 4 5 6 
#
# 1 0.008952 -0.001397 -0.007409 0.000000 -0.000114 0.000000
# 2 -0.001397 0.067259 0.003524 -0.000015 -0.003483 -0.000037
# 3 -0.007409 0.003524 0.022734 0.000000 -0.001518 -0.000002
# 4 0.000000 -0.000015 0.000000 0.063840 0.000001 0.027276
# 5 -0.000114 -0.003483 -0.001518 0.000001 0.024412 0.000003
# 6 0.000000 -0.000037 -0.000002 0.027276 0.000003 0.063249
#
#
# Mechanical properties :
#
#
# Convention : Reuss Voigt Hill
#
# Bulk Modulus (GPa) = 11.31452 36.35266 23.83359
# Shear Modulus (GPa) = 17.21332 28.04330 22.62831
#
# Velocity S-wave (km/s) = 3.00413 3.83444 3.44439
# Velocity P-wave (km/s) = 4.23854 6.21798 5.32111
#
# Compressibility (1/GPa) = 0.08838204
#
# Stress axis : x y z
#
# Youngs Moduli (GPa) = 111.70242 14.86786 43.98620
#
# Poissons Ratio (x) = 0.02078 0.32589
# Poissons Ratio (y) = 0.15610 -0.15503
# Poissons Ratio (z) = 0.82760 -0.05240
#
# Static dielectric constant tensor:
#      x y z
#    x 1.676530 0.000000 0.002490 
#    y 0.000000 1.706730 0.000000 
#    z 0.002490 0.000000 1.630430 
# 
# From -- ./inp_files/345939.got.cif
#   From: 2010.05.17/outbox.cif.g08.bks.cpg/sg12_173_cif.got.tgz:345939.got - 2010.06.03 13:09:07.
