data_PCOD9182663
_publ_section_title
;
Structure prediction by ZEFSAII (Michael W. Deem and Ramdas Pophale) SiO2 
 PCOD9182663
Probable space group: C 2/M
;
_chemical_formula_sum "Si O2"
_cell_formula_units_Z 50
_cell_length_a 23.943937
_cell_length_b 7.291112
_cell_length_c 12.564286
_cell_angle_alpha 90.000000
_cell_angle_beta 72.543168
_cell_angle_gamma 90.000000
_cell_volume 2092.423932
_symmetry_space_group_name_H-M "C 2/M"
_symmetry_group_IT_number 12
_symmetry_cell_setting 'monoclinic'
loop_
_space_group_symop_operation_xyz
x,y,z
-x,y,-z
-x,-y,-z
x,-y,z
1/2+x,1/2+y,z
1/2-x,1/2+y,-z
1/2-x,1/2-y,-z
1/2+x,1/2-y,z
loop_
_atom_site_type_symbol
_atom_site_label
_atom_site_fract_x
_atom_site_fract_y
_atom_site_fract_z
Si Si1 0.812092 0.281805 0.022410
Si Si2 0.456883 0.217669 0.169605
Si Si3 0.367175 0.790205 0.622535
Si Si4 0.733857 0.777349 0.728241
Si Si5 0.500000 0.500000 0.000000
Si Si6 0.353746 0.778398 0.393893
Si Si7 0.416461 0.223730 0.811439
O O1 0.821408 0.500000 0.024813
O O2 0.803891 0.216993 0.148231
O O3 0.750000 0.250000 0.000000
O O4 0.864656 0.211763 0.918801
O O5 0.407266 0.258387 0.284001
O O6 0.519742 0.274063 0.182956
O O7 0.455460 0.000000 0.147841
O O8 0.454165 0.338872 0.066827
O O9 0.300007 0.788915 0.699831
O O10 0.365317 0.707436 0.505635
O O11 0.404516 0.711300 0.698087
O O12 0.387653 0.000000 0.597840
O O13 0.704201 0.715976 0.635134
O O14 0.735345 0.000000 0.728043
O O15 0.348729 0.000000 0.405366
O O16 0.414641 0.000000 0.810309
#
# Coordination Sequence:
#
# PCOD9182663 Si02
#       7
#     8   8   8   8   2   8   8
#     4  10  19  33  52  80 115 153 200 245 303 374
#     4  10  23  45  66  91 130 168 198 263 321 357
#     4  10  19  36  60  89 118 158 213 255 296 379
#     4  10  20  34  53  85 120 162 203 249 315 372
#     4  12  26  44  64 100 124 156 226 248 294 402
#     4   9  20  38  62  86 119 164 209 249 311 375
#     4   9  19  36  61  87 118 160 204 250 314 370
#
# _framework density 23.895728999999999
#
# number of rings (size 3 to 8) (size 9 to 14) (size 15 to 20)
#    0.000    2.240    1.600    0.720    2.240    0.640 
#    5.760    3.200    0.000    0.960    0.000    0.000 
#    0.000    0.000    0.000    0.000    0.000    0.000 
#
# Total GULP energy -139570.093969 kJ/mol
# GULP energy per Si atom -5582.803759 kJ/mol
# Density = 2.384134 g / cm^3
# Si number density = 23.895729 Si / 1000 Ang^3
#
#
#
# Elastic Constant Matrix: (Units=GPa)
#
#
# Indices 1 2 3 4 5 6 
#
# 1 77.5669 -11.5408 -6.5685 0.0000 21.8036 0.0000
# 2 -11.5408 109.3225 7.3885 0.0000 0.6995 0.0000
# 3 -6.5685 7.3885 88.5989 0.0000 30.6978 0.0000
# 4 0.0000 0.0000 0.0000 -21.7380 0.0000 5.6058
# 5 21.8036 0.6995 30.6978 0.0000 33.7864 0.0000
# 6 0.0000 0.0000 0.0000 5.6058 0.0000 -16.7494
#
#
#
# Elastic Compliance Matrix: (Units=1/GPa)
#
#
# Indices 1 2 3 4 5 6 
#
# 1 0.019501 0.001627 0.008293 0.000000 -0.020153 0.000000
# 2 0.001627 0.009348 -0.000333 0.000000 -0.000941 0.000000
# 3 0.008293 -0.000333 0.020113 0.000000 -0.023619 0.000000
# 4 0.000000 0.000000 0.000000 -0.050348 0.000000 -0.016851
# 5 -0.020153 -0.000941 -0.023619 0.000000 0.064083 0.000000
# 6 0.000000 0.000000 0.000000 -0.016851 0.000000 -0.065343
#
#
# Mechanical properties :
#
#
# Convention : Reuss Voigt Hill
#
# Bulk Modulus (GPa) = 14.67640 28.22740 21.45190
# Shear Modulus (GPa) = 5611.77204 18.14042 2814.95623
#
# Velocity S-wave (km/s) = 48.51329 2.75826 34.35948
# Velocity P-wave (km/s) = 56.07324 4.68853 39.78813
#
# Compressibility (1/GPa) = 0.06813661
#
# Stress axis : x y z
#
# Youngs Moduli (GPa) = 51.27817 106.98001 49.71922
#
# Poissons Ratio (x) = -0.17408 -0.41232
# Poissons Ratio (y) = -0.08344 0.01654
# Poissons Ratio (z) = -0.42524 0.03560
#
# Static dielectric constant tensor:
#      x y z
#    x 1.875370 0.000000 0.055060 
#    y 0.000000 1.941670 0.000000 
#    z 0.055060 0.000000 1.929550 
# 
# From -- ./inp_files/179834.got.cif
#   From: 2010.05.17/outbox.cif.g08.bks.cpg/sg12_90_cif.got.tgz:179834.got - 2010.06.03 13:09:07.
