data_PCOD9182689
_publ_section_title
;
Structure prediction by ZEFSAII (Michael W. Deem and Ramdas Pophale) SiO2 
 PCOD9182689
Probable space group: C 2/M
;
_chemical_formula_sum "Si O2"
_cell_formula_units_Z 48
_cell_length_a 23.588881
_cell_length_b 19.269210
_cell_length_c 10.715254
_cell_angle_alpha 90.000000
_cell_angle_beta 34.202629
_cell_angle_gamma 90.000000
_cell_volume 2737.813009
_symmetry_space_group_name_H-M "C 2/M"
_symmetry_group_IT_number 12
_symmetry_cell_setting 'monoclinic'
loop_
_space_group_symop_operation_xyz
x,y,z
-x,y,-z
-x,-y,-z
x,-y,z
1/2+x,1/2+y,z
1/2-x,1/2+y,-z
1/2-x,1/2-y,-z
1/2+x,1/2-y,z
loop_
_atom_site_type_symbol
_atom_site_label
_atom_site_fract_x
_atom_site_fract_y
_atom_site_fract_z
Si Si1 0.139371 0.420867 0.922006
Si Si2 0.784368 0.283163 0.134278
Si Si3 0.108422 0.712666 0.327261
Si Si4 0.616433 0.283899 0.801538
Si Si5 0.425051 0.080818 0.451034
Si Si6 0.316681 0.139027 0.417252
O O1 0.167041 0.500000 0.895789
O O2 0.218032 0.363479 0.824173
O O3 0.135682 0.406225 0.780921
O O4 0.032812 0.407080 0.185464
O O5 0.675906 0.249605 0.309032
O O6 0.848561 0.243451 0.124390
O O7 0.837504 0.282245 0.903663
O O8 0.091592 0.634135 0.406069
O O9 0.000000 0.745431 0.500000
O O10 0.632899 0.215519 0.685467
O O11 0.698153 0.342794 0.618232
O O12 0.500000 0.304398 0.000000
O O13 0.341975 0.100887 0.498989
O O14 0.419746 0.000000 0.496409
#
# Coordination Sequence:
#
# PCOD9182689 Si02
#       6
#     8   8   8   8   8   8
#     4  10  20  34  56  84 114 147 184 228 286 343
#     4  10  21  37  55  83 111 147 187 231 281 326
#     4  11  22  36  57  81 114 147 190 231 272 331
#     4  10  20  33  58  84 111 144 189 237 282 334
#     4  11  21  35  56  84 118 149 184 230 286 339
#     4  10  19  33  52  84 116 144 185 230 286 334
#
# _framework density 17.532243000000001
#
# number of rings (size 3 to 8) (size 9 to 14) (size 15 to 20)
#    0.000    1.667    3.333    3.000    0.000    2.333 
#    0.000    0.000    0.000    2.500    0.000    0.000 
#    0.000    0.000    0.000    0.000    0.000    0.000 
#
# Total GULP energy -133837.765551 kJ/mol
# GULP energy per Si atom -5576.573565 kJ/mol
# Density = 1.749234 g / cm^3
# Si number density = 17.532243 Si / 1000 Ang^3
#
#
#
# Elastic Constant Matrix: (Units=GPa)
#
#
# Indices 1 2 3 4 5 6 
#
# 1 75.5404 23.7043 30.1962 0.0000 -11.3498 0.0000
# 2 23.7043 79.3128 33.1428 0.0000 -17.6551 0.0000
# 3 30.1962 33.1428 83.8284 0.0000 -11.9971 0.0000
# 4 0.0000 0.0000 0.0000 25.1390 0.0000 3.7384
# 5 -11.3498 -17.6551 -11.9971 0.0000 33.0561 0.0000
# 6 0.0000 0.0000 0.0000 3.7384 0.0000 6.1682
#
#
#
# Elastic Compliance Matrix: (Units=1/GPa)
#
#
# Indices 1 2 3 4 5 6 
#
# 1 0.016183 -0.002357 -0.004517 0.000000 0.002658 0.000000
# 2 -0.002357 0.016767 -0.004867 0.000000 0.006379 0.000000
# 3 -0.004517 -0.004867 0.015702 0.000000 0.001549 0.000000
# 4 0.000000 0.000000 0.000000 0.043719 0.000000 -0.026497
# 5 0.002658 0.006379 0.001549 0.000000 0.035133 0.000000
# 6 0.000000 0.000000 0.000000 -0.026497 0.000000 0.178180
#
#
# Mechanical properties :
#
#
# Convention : Reuss Voigt Hill
#
# Bulk Modulus (GPa) = 39.73120 45.86314 42.79717
# Shear Modulus (GPa) = 14.81242 22.98188 18.89715
#
# Velocity S-wave (km/s) = 2.90981 3.62447 3.28663
# Velocity P-wave (km/s) = 5.83098 6.61301 6.23427
#
# Compressibility (1/GPa) = 0.02516914
#
# Stress axis : x y z
#
# Youngs Moduli (GPa) = 61.79496 59.64246 63.68648
#
# Poissons Ratio (x) = 0.14060 0.28766
# Poissons Ratio (y) = 0.14568 0.30995
# Poissons Ratio (z) = 0.27911 0.29027
#
# Static dielectric constant tensor:
#      x y z
#    x 1.652730 0.000000 0.018000 
#    y 0.000000 1.587710 0.000000 
#    z 0.018000 0.000000 1.633350 
# 
# From -- ./inp_files/131214.got.cif
#   From: 2010.05.17/outbox.cif.g08.bks.cpg/sg12_66_cif.got.tgz:131214.got - 2010.06.03 13:09:07.
