data_PCOD9182759
_publ_section_title
;
Structure prediction by ZEFSAII (Michael W. Deem and Ramdas Pophale) SiO2 
 PCOD9182759
Probable space group: C 2/M
;
_chemical_formula_sum "Si O2"
_cell_formula_units_Z 64
_cell_length_a 21.253743
_cell_length_b 7.802805
_cell_length_c 20.511073
_cell_angle_alpha 90.000000
_cell_angle_beta 78.162130
_cell_angle_gamma 90.000000
_cell_volume 3329.188241
_symmetry_space_group_name_H-M "C 2/M"
_symmetry_group_IT_number 12
_symmetry_cell_setting 'monoclinic'
loop_
_space_group_symop_operation_xyz
x,y,z
-x,y,-z
-x,-y,-z
x,-y,z
1/2+x,1/2+y,z
1/2-x,1/2+y,-z
1/2-x,1/2-y,-z
1/2+x,1/2-y,z
loop_
_atom_site_type_symbol
_atom_site_label
_atom_site_fract_x
_atom_site_fract_y
_atom_site_fract_z
Si Si1 0.088514 0.793945 0.649837
Si Si2 0.280727 0.792420 0.149303
Si Si3 0.177155 0.703658 0.994601
Si Si4 0.290183 0.704809 0.295259
Si Si5 0.047694 0.795004 0.269985
Si Si6 0.071644 0.706756 0.503598
Si Si7 0.362093 0.703869 0.860430
Si Si8 0.851643 0.707803 0.638042
O O1 0.151436 0.727026 0.673559
O O2 0.088979 0.757720 0.572960
O O3 0.021991 0.725820 0.694955
O O4 0.088005 0.000000 0.657494
O O5 0.325812 0.733975 0.079525
O O6 0.300899 0.737541 0.216584
O O7 0.207559 0.730255 0.149991
O O8 0.279361 0.000000 0.147954
O O9 0.170794 0.500000 0.995249
O O10 0.250000 0.750000 0.000000
O O11 0.133494 0.767969 0.063067
O O12 0.287843 0.500000 0.305333
O O13 0.219760 0.771932 0.330274
O O14 0.080754 0.727217 0.196812
O O15 0.098113 0.762436 0.317273
O O16 0.040524 0.000000 0.264523
O O17 0.070249 0.500000 0.501648
O O18 0.121453 0.765370 0.437688
O O19 0.000000 0.768294 0.500000
O O20 0.359849 0.500000 0.850865
O O21 0.850524 0.500000 0.638467
#
# Coordination Sequence:
#
# PCOD9182759 Si02
#       8
#     8   8   8   8   8   8   8   8
#     4  10  22  37  53  76 104 134 170 210 256 308
#     4   9  17  30  48  72 102 133 167 205 249 300
#     4   9  17  28  44  71 105 135 166 207 253 298
#     4  10  21  35  51  75 105 135 169 210 254 304
#     4  10  19  33  53  75 102 133 169 213 255 299
#     4  10  20  35  54  76 103 133 168 211 257 306
#     4   9  17  29  47  74 102 128 167 213 253 296
#     4  10  20  34  53  76 102 132 169 212 255 302
#
# _framework density 19.223905999999999
#
# number of rings (size 3 to 8) (size 9 to 14) (size 15 to 20)
#    0.000    2.375    2.500    1.125    0.000    4.750 
#    0.000    0.000    0.000    0.750    0.000    5.250 
#    0.000    0.000    0.000    0.000    0.000    0.000 
#
# Total GULP energy -178446.393114 kJ/mol
# GULP energy per Si atom -5576.449785 kJ/mol
# Density = 1.918015 g / cm^3
# Si number density = 19.223906 Si / 1000 Ang^3
#
#
#
# Elastic Constant Matrix: (Units=GPa)
#
#
# Indices 1 2 3 4 5 6 
#
# 1 106.9538 -1.1573 73.6657 0.0000 -0.3572 0.0000
# 2 -1.1573 15.8066 -8.5179 0.0000 -2.2819 0.0000
# 3 73.6657 -8.5179 161.7511 0.0000 -17.0453 0.0000
# 4 0.0000 0.0000 0.0000 26.6116 0.0000 3.5241
# 5 -0.3572 -2.2819 -17.0453 0.0000 29.5919 0.0000
# 6 0.0000 0.0000 0.0000 3.5241 0.0000 10.0861
#
#
#
# Elastic Compliance Matrix: (Units=1/GPa)
#
#
# Indices 1 2 3 4 5 6 
#
# 1 0.014168 -0.003372 -0.007068 0.000000 -0.004161 0.000000
# 2 -0.003372 0.067495 0.005998 0.000000 0.008619 0.000000
# 3 -0.007068 0.005998 0.010388 0.000000 0.006361 0.000000
# 4 0.000000 0.000000 0.000000 0.039401 0.000000 -0.013767
# 5 -0.004161 0.008619 0.006361 0.000000 0.038071 0.000000
# 6 0.000000 0.000000 0.000000 -0.013767 0.000000 0.103956
#
#
# Mechanical properties :
#
#
# Convention : Reuss Voigt Hill
#
# Bulk Modulus (GPa) = 12.02422 45.83252 28.92837
# Shear Modulus (GPa) = 16.12462 27.95933 22.04197
#
# Velocity S-wave (km/s) = 2.89931 3.81780 3.38981
# Velocity P-wave (km/s) = 4.18048 6.58235 5.51379
#
# Compressibility (1/GPa) = 0.08316544
#
# Stress axis : x y z
#
# Youngs Moduli (GPa) = 70.58183 14.81598 96.26788
#
# Poissons Ratio (x) = 0.04997 0.68047
# Poissons Ratio (y) = 0.23803 -0.57746
# Poissons Ratio (z) = 0.49891 -0.08887
#
# Static dielectric constant tensor:
#      x y z
#    x 1.662850 0.000000 -0.033790 
#    y 0.000000 1.707930 0.000000 
#    z -0.033790 0.000000 1.681430 
# 
# From -- ./inp_files/281283.got.cif
#   From: 2010.05.17/outbox.cif.g08.bks.cpg/sg12_141_cif.got.tgz:281283.got - 2010.06.03 13:09:07.
