data_PCOD9182062
_publ_section_title
;
Structure prediction by ZEFSAII (Michael W. Deem and Ramdas Pophale) SiO2 
 PCOD9182062
Probable space group: C 2/M
;
_chemical_formula_sum "Si O2"
_cell_formula_units_Z 64
_cell_length_a 23.052511
_cell_length_b 8.720129
_cell_length_c 16.699043
_cell_angle_alpha 90.000000
_cell_angle_beta 87.558766
_cell_angle_gamma 90.000000
_cell_volume 3353.809581
_symmetry_space_group_name_H-M "C 2/M"
_symmetry_group_IT_number 12
_symmetry_cell_setting 'monoclinic'
loop_
_space_group_symop_operation_xyz
x,y,z
-x,y,-z
-x,-y,-z
x,-y,z
1/2+x,1/2+y,z
1/2-x,1/2+y,-z
1/2-x,1/2-y,-z
1/2+x,1/2-y,z
loop_
_atom_site_type_symbol
_atom_site_label
_atom_site_fract_x
_atom_site_fract_y
_atom_site_fract_z
Si Si1 0.832938 0.185517 0.276775
Si Si2 0.963769 0.183345 0.257369
Si Si3 0.918606 0.815728 0.827106
Si Si4 0.752909 0.682514 0.410618
Si Si5 0.857688 0.681622 0.673988
Si Si6 0.840601 0.316755 0.961842
Si Si7 0.719364 0.684302 0.886210
Si Si8 0.018939 0.681947 0.410796
O O1 0.897992 0.236997 0.250473
O O2 0.809225 0.258497 0.359259
O O3 0.791741 0.227610 0.204640
O O4 0.832233 0.000000 0.285019
O O5 0.015578 0.237708 0.196186
O O6 0.984280 0.229232 0.344670
O O7 0.962495 0.000000 0.250167
O O8 0.878304 0.750365 0.757687
O O9 0.894407 0.756080 0.912420
O O10 0.916538 0.000000 0.824665
O O11 0.752995 0.500000 0.414794
O O12 0.750000 0.750000 0.500000
O O13 0.697938 0.740783 0.362224
O O14 0.846702 0.500000 0.684948
O O15 0.912921 0.702461 0.611798
O O16 0.844895 0.500000 0.961118
O O17 0.782753 0.270999 0.914760
O O18 0.827895 0.256695 0.051479
O O19 0.714930 0.500000 0.892239
O O20 0.006742 0.500000 0.403523
O O21 0.000000 0.731127 0.500000
#
# Coordination Sequence:
#
# PCOD9182062 Si02
#       8
#     8   8   8   8   8   8   8   8
#     4  10  21  40  61  82 113 150 189 231 282 340
#     4   9  20  36  55  81 109 145 188 231 277 334
#     4  10  19  34  56  83 114 148 187 230 281 333
#     4  12  26  41  58  82 112 148 188 231 281 335
#     4  10  20  36  56  80 111 143 182 229 278 332
#     4  10  19  32  55  85 114 144 187 237 283 333
#     4   9  19  35  56  82 112 147 183 227 283 339
#     4   9  19  34  54  79 106 139 180 228 279 329
#
# _framework density 19.082775999999999
#
# number of rings (size 3 to 8) (size 9 to 14) (size 15 to 20)
#    0.000    2.125    0.000    3.000    1.750    3.750 
#    0.000    0.625    0.000    3.750    0.000    0.000 
#    0.000    0.000    0.000    0.000    0.000    0.000 
#
# Total GULP energy -178681.691386 kJ/mol
# GULP energy per Si atom -5583.802856 kJ/mol
# Density = 1.903934 g / cm^3
# Si number density = 19.082776 Si / 1000 Ang^3
#
#
#
# Elastic Constant Matrix: (Units=GPa)
#
#
# Indices 1 2 3 4 5 6 
#
# 1 59.0013 23.2453 26.8258 0.0000 -6.2615 0.0000
# 2 23.2453 42.0971 25.8841 0.0000 -8.2440 0.0000
# 3 26.8258 25.8841 92.0555 0.0000 -30.2374 0.0000
# 4 0.0000 0.0000 0.0000 30.0592 0.0000 -5.4034
# 5 -6.2615 -8.2440 -30.2374 0.0000 26.8913 0.0000
# 6 0.0000 0.0000 0.0000 -5.4034 0.0000 21.9372
#
#
#
# Elastic Compliance Matrix: (Units=1/GPa)
#
#
# Indices 1 2 3 4 5 6 
#
# 1 0.022855 -0.010283 -0.004846 0.000000 -0.003280 0.000000
# 2 -0.010283 0.033349 -0.006040 0.000000 0.001039 0.000000
# 3 -0.004846 -0.006040 0.020605 0.000000 0.020189 0.000000
# 4 0.000000 0.000000 0.000000 0.034809 0.000000 0.008574
# 5 -0.003280 0.001039 0.020189 0.000000 0.059442 0.000000
# 6 0.000000 0.000000 0.000000 0.008574 0.000000 0.047696
#
#
# Mechanical properties :
#
#
# Convention : Reuss Voigt Hill
#
# Bulk Modulus (GPa) = 29.00877 38.34049 33.67463
# Shear Modulus (GPa) = 18.34286 23.59077 20.96681
#
# Velocity S-wave (km/s) = 3.10373 3.51983 3.31831
# Velocity P-wave (km/s) = 5.29894 6.05427 5.68915
#
# Compressibility (1/GPa) = 0.03447233
#
# Stress axis : x y z
#
# Youngs Moduli (GPa) = 43.75340 29.98548 48.53224
#
# Poissons Ratio (x) = 0.30833 0.23520
# Poissons Ratio (y) = 0.44991 0.29311
# Poissons Ratio (z) = 0.21204 0.18110
#
# Static dielectric constant tensor:
#      x y z
#    x 1.684490 0.000000 -0.020060 
#    y 0.000000 1.642260 0.000000 
#    z -0.020060 0.000000 1.634600 
# 
# From -- ./inp_files/238619.got.cif
#   From: 2010.05.17/outbox.cif.g08.bks.cpg/sg12_120_cif.got.tgz:238619.got - 2010.06.03 13:09:07.
