data_PCOD9182432
_publ_section_title
;
Structure prediction by ZEFSAII (Michael W. Deem and Ramdas Pophale) SiO2 
 PCOD9182432
Probable space group: C 2/M
;
_chemical_formula_sum "Si O2"
_cell_formula_units_Z 64
_cell_length_a 19.788724
_cell_length_b 8.792124
_cell_length_c 21.235235
_cell_angle_alpha 90.000000
_cell_angle_beta 95.216809
_cell_angle_gamma 90.000000
_cell_volume 3679.306622
_symmetry_space_group_name_H-M "C 2/M"
_symmetry_group_IT_number 12
_symmetry_cell_setting 'monoclinic'
loop_
_space_group_symop_operation_xyz
x,y,z
-x,y,-z
-x,-y,-z
x,-y,z
1/2+x,1/2+y,z
1/2-x,1/2+y,-z
1/2-x,1/2-y,-z
1/2+x,1/2-y,z
loop_
_atom_site_type_symbol
_atom_site_label
_atom_site_fract_x
_atom_site_fract_y
_atom_site_fract_z
Si Si1 0.284347 0.316890 0.708935
Si Si2 0.961569 0.819160 0.226629
Si Si3 0.485600 0.184617 0.428712
Si Si4 0.679987 0.181939 0.021393
Si Si5 0.770978 0.817543 0.853675
Si Si6 0.576858 0.182061 0.318690
Si Si7 0.380716 0.817363 0.110681
Si Si8 0.368320 0.183653 0.327996
O O1 0.291191 0.500000 0.705615
O O2 0.284758 0.274839 0.782986
O O3 0.346763 0.238769 0.679967
O O4 0.210373 0.275028 0.676123
O O5 0.938431 0.761621 0.156352
O O6 0.905084 0.757732 0.271128
O O7 0.031957 0.751374 0.258378
O O8 0.964197 0.000000 0.228605
O O9 0.500000 0.242206 0.500000
O O10 0.540847 0.230700 0.380992
O O11 0.412725 0.225594 0.392777
O O12 0.487408 0.000000 0.431395
O O13 0.677650 0.244755 0.091747
O O14 0.684940 0.000000 0.022972
O O15 0.750000 0.250000 0.000000
O O16 0.624137 0.222244 0.963853
O O17 0.693283 0.776199 0.865886
O O18 0.775061 0.000000 0.859593
O O19 0.573194 0.000000 0.314755
O O20 0.387539 0.000000 0.117037
O O21 0.372475 0.000000 0.319944
#
# Coordination Sequence:
#
# PCOD9182432 Si02
#       8
#     8   8   8   8   8   8   8   8
#     4  10  19  33  51  73 104 138 170 206 253 304
#     4  11  20  30  49  75 100 129 170 216 255 300
#     4   8  15  31  56  80 100 131 173 207 240 292
#     4   9  17  27  41  64  96 130 166 209 254 302
#     4   9  17  29  46  67  97 133 166 205 253 304
#     4  10  21  35  52  74 103 135 167 208 254 301
#     4   9  16  29  46  67  97 131 167 207 256 304
#     4   9  17  32  53  75 103 136 168 205 250 297
#
# _framework density 17.394582
#
# number of rings (size 3 to 8) (size 9 to 14) (size 15 to 20)
#    0.000    2.625    1.250    3.375    0.000    3.500 
#    0.000    0.625    0.000   10.125    0.000    5.250 
#    0.000    0.000    0.000    0.000    0.000    0.000 
#
# Total GULP energy -178357.318585 kJ/mol
# GULP energy per Si atom -5573.666206 kJ/mol
# Density = 1.735499 g / cm^3
# Si number density = 17.394582 Si / 1000 Ang^3
#
#
#
# Elastic Constant Matrix: (Units=GPa)
#
#
# Indices 1 2 3 4 5 6 
#
# 1 103.6565 30.9510 54.5131 0.0000 13.9070 0.0000
# 2 30.9510 31.3676 30.2306 0.0000 8.3982 0.0000
# 3 54.5131 30.2306 126.3795 0.0000 28.2243 0.0000
# 4 0.0000 0.0000 0.0000 14.9515 0.0000 -1.6245
# 5 13.9070 8.3982 28.2243 0.0000 19.9573 0.0000
# 6 0.0000 0.0000 0.0000 -1.6245 0.0000 23.0791
#
#
#
# Elastic Compliance Matrix: (Units=1/GPa)
#
#
# Indices 1 2 3 4 5 6 
#
# 1 0.014963 -0.011065 -0.003681 0.000000 -0.000564 0.000000
# 2 -0.011065 0.049958 -0.006145 0.000000 -0.004621 0.000000
# 3 -0.003681 -0.006145 0.014354 0.000000 -0.015148 0.000000
# 4 0.000000 0.000000 0.000000 0.067398 0.000000 0.004744
# 5 -0.000564 -0.004621 -0.015148 0.000000 0.073868 0.000000
# 6 0.000000 0.000000 0.000000 0.004744 0.000000 0.043663
#
#
# Mechanical properties :
#
#
# Convention : Reuss Voigt Hill
#
# Bulk Modulus (GPa) = 26.67306 54.75478 40.71392
# Shear Modulus (GPa) = 15.69933 21.31149 18.50541
#
# Velocity S-wave (km/s) = 3.00749 3.50405 3.26523
# Velocity P-wave (km/s) = 5.23712 6.92225 6.13779
#
# Compressibility (1/GPa) = 0.03749102
#
# Stress axis : x y z
#
# Youngs Moduli (GPa) = 66.83159 20.01671 69.66890
#
# Poissons Ratio (x) = 0.22149 0.25647
# Poissons Ratio (y) = 0.73952 0.42813
# Poissons Ratio (z) = 0.24603 0.12301
#
# Static dielectric constant tensor:
#      x y z
#    x 1.580710 0.000000 0.017920 
#    y 0.000000 1.585120 0.000000 
#    z 0.017920 0.000000 1.611470 
# 
# From -- ./inp_files/314128.got.cif
#   From: 2010.05.17/outbox.cif.g08.bks.cpg/sg12_158_cif.got.tgz:314128.got - 2010.06.03 13:09:07.
