data_PCOD9182118
_publ_section_title
;
Structure prediction by ZEFSAII (Michael W. Deem and Ramdas Pophale) SiO2 
 PCOD9182118
Probable space group: C 2/M
;
_chemical_formula_sum "Si O2"
_cell_formula_units_Z 64
_cell_length_a 30.227115
_cell_length_b 20.502685
_cell_length_c 16.073466
_cell_angle_alpha 90.000000
_cell_angle_beta 158.592905
_cell_angle_gamma 90.000000
_cell_volume 3635.803544
_symmetry_space_group_name_H-M "C 2/M"
_symmetry_group_IT_number 12
_symmetry_cell_setting 'monoclinic'
loop_
_space_group_symop_operation_xyz
x,y,z
-x,y,-z
-x,-y,-z
x,-y,z
1/2+x,1/2+y,z
1/2-x,1/2+y,-z
1/2-x,1/2-y,-z
1/2+x,1/2-y,z
loop_
_atom_site_type_symbol
_atom_site_label
_atom_site_fract_x
_atom_site_fract_y
_atom_site_fract_z
Si Si1 0.140439 0.667778 0.759664
Si Si2 0.984469 0.827228 0.219355
Si Si3 0.768352 0.076324 0.860931
Si Si4 0.030399 0.424989 0.955552
Si Si5 0.716803 0.922462 0.577612
Si Si6 0.735213 0.180276 0.280153
Si Si7 0.177770 0.723998 0.993614
Si Si8 0.388101 0.696981 0.865393
O O1 0.182653 0.604945 0.782312
O O2 0.163515 0.668972 0.898905
O O3 0.000000 0.680242 0.500000
O O4 0.220823 0.725913 0.861712
O O5 0.945232 0.766074 0.208412
O O6 0.126011 0.840278 0.467841
O O7 0.896674 0.886452 0.091027
O O8 0.945321 0.810760 0.057040
O O9 0.714224 0.088479 0.673204
O O10 0.785107 0.000000 0.899155
O O11 0.063574 0.500000 0.995084
O O12 0.911207 0.409612 0.691616
O O13 0.139625 0.376353 0.130215
O O14 0.000000 0.420719 0.000000
O O15 0.815168 0.869800 0.717442
O O16 0.746620 0.000000 0.616316
O O17 0.702820 0.241763 0.283240
O O18 0.715977 0.200551 0.150882
O O19 0.500000 0.709252 0.000000
#
# Coordination Sequence:
#
# PCOD9182118 Si02
#       8
#     8   8   8   8   8   8   8   8
#     4  10  19  32  56  80 108 141 175 222 277 330
#     4   9  20  36  53  79 107 152 182 218 287 327
#     4   9  19  37  57  81 108 139 184 233 277 323
#     4  10  23  40  56  80 112 154 194 227 278 334
#     4   9  20  39  60  78 113 154 184 228 278 333
#     4  11  22  35  58  81 113 150 186 233 279 332
#     4   9  20  35  51  81 111 141 180 222 270 340
#     4  10  22  34  55  87 114 140 189 239 280 324
#
# _framework density 17.602710999999999
#
# number of rings (size 3 to 8) (size 9 to 14) (size 15 to 20)
#    0.000    2.375    0.000    1.875    7.000    1.500 
#    0.000    0.625    0.000    0.750    0.000    0.000 
#    0.000    0.000    0.000    0.000    0.000    0.000 
#
# Total GULP energy -178446.421317 kJ/mol
# GULP energy per Si atom -5576.450666 kJ/mol
# Density = 1.756265 g / cm^3
# Si number density = 17.602711 Si / 1000 Ang^3
#
#
#
# Elastic Constant Matrix: (Units=GPa)
#
#
# Indices 1 2 3 4 5 6 
#
# 1 76.3401 38.2628 31.3054 0.0000 14.4034 0.0000
# 2 38.2628 60.0657 45.2444 0.0000 0.1365 0.0000
# 3 31.3054 45.2444 107.3836 0.0000 15.3066 0.0000
# 4 0.0000 0.0000 0.0000 13.2891 0.0000 0.7913
# 5 14.4034 0.1365 15.3066 0.0000 18.1569 0.0000
# 6 0.0000 0.0000 0.0000 0.7913 0.0000 20.8917
#
#
#
# Elastic Compliance Matrix: (Units=1/GPa)
#
#
# Indices 1 2 3 4 5 6 
#
# 1 0.025519 -0.019219 0.004004 0.000000 -0.023475 0.000000
# 2 -0.019219 0.040443 -0.015420 0.000000 0.027941 0.000000
# 3 0.004004 -0.015420 0.017138 0.000000 -0.017508 0.000000
# 4 0.000000 0.000000 0.000000 0.075420 0.000000 -0.002856
# 5 -0.023475 0.027941 -0.017508 0.000000 0.088247 0.000000
# 6 0.000000 0.000000 0.000000 -0.002856 0.000000 0.047974
#
#
# Mechanical properties :
#
#
# Convention : Reuss Voigt Hill
#
# Bulk Modulus (GPa) = 45.80788 52.60161 49.20475
# Shear Modulus (GPa) = 13.76328 19.06599 16.41464
#
# Velocity S-wave (km/s) = 2.79925 3.29466 3.05701
# Velocity P-wave (km/s) = 6.04379 6.66488 6.36192
#
# Compressibility (1/GPa) = 0.02183030
#
# Stress axis : x y z
#
# Youngs Moduli (GPa) = 39.18634 24.72645 58.35157
#
# Poissons Ratio (x) = 0.47521 -0.23365
# Poissons Ratio (y) = 0.75312 0.89976
# Poissons Ratio (z) = -0.15691 0.38127
#
# Static dielectric constant tensor:
#      x y z
#    x 1.603340 0.000000 -0.012630 
#    y 0.000000 1.608980 0.000000 
#    z -0.012630 0.000000 1.578720 
# 
# From -- ./inp_files/251944.got.cif
#   From: 2010.05.17/outbox.cif.g08.bks.cpg/sg12_126_cif.got.tgz:251944.got - 2010.06.03 13:09:07.
