data_PCOD9182468
_publ_section_title
;
Structure prediction by ZEFSAII (Michael W. Deem and Ramdas Pophale) SiO2 
 PCOD9182468
Probable space group: C 2/M
;
_chemical_formula_sum "Si O2"
_cell_formula_units_Z 64
_cell_length_a 15.561763
_cell_length_b 25.254602
_cell_length_c 9.455532
_cell_angle_alpha 90.000000
_cell_angle_beta 73.184888
_cell_angle_gamma 90.000000
_cell_volume 3557.194386
_symmetry_space_group_name_H-M "C 2/M"
_symmetry_group_IT_number 12
_symmetry_cell_setting 'monoclinic'
loop_
_space_group_symop_operation_xyz
x,y,z
-x,y,-z
-x,-y,-z
x,-y,z
1/2+x,1/2+y,z
1/2-x,1/2+y,-z
1/2-x,1/2-y,-z
1/2+x,1/2-y,z
loop_
_atom_site_type_symbol
_atom_site_label
_atom_site_fract_x
_atom_site_fract_y
_atom_site_fract_z
Si Si1 0.908838 0.436345 0.128148
Si Si2 0.283722 0.139858 0.687782
Si Si3 0.091184 0.563416 0.541650
Si Si4 0.597507 0.232641 0.990055
Si Si5 0.726773 0.136751 0.968221
Si Si6 0.604615 0.308848 0.728017
Si Si7 0.902698 0.184336 0.773472
Si Si8 0.605543 0.241860 0.464740
O O1 0.900525 0.500000 0.128426
O O2 0.914675 0.420030 0.290620
O O3 0.825241 0.409406 0.089201
O O4 0.000000 0.422492 0.000000
O O5 0.331155 0.093309 0.579368
O O6 0.182129 0.148412 0.686311
O O7 0.335268 0.194133 0.621074
O O8 0.284951 0.131791 0.856843
O O9 0.103285 0.500000 0.532638
O O10 0.000000 0.575882 0.500000
O O11 0.675908 0.190537 0.944527
O O12 0.606597 0.282434 0.881455
O O13 0.500000 0.208581 0.000000
O O14 0.599119 0.259527 0.142003
O O15 0.829847 0.145039 0.873235
O O16 0.506559 0.331686 0.738706
O O17 0.623125 0.258822 0.616831
O O18 0.879699 0.203234 0.627283
O O19 0.500000 0.228124 0.500000
#
# Coordination Sequence:
#
# PCOD9182468 Si02
#       8
#     8   8   8   8   8   8   8   8
#     4  10  23  42  62  85 110 138 178 225 278 335
#     4  12  22  34  55  83 112 147 191 226 273 330
#     4  10  23  42  62  84 112 140 172 225 283 333
#     4  10  19  33  51  76 113 149 185 225 269 321
#     4  12  22  33  57  83 109 149 190 229 270 324
#     4  10  22  34  52  79 113 156 188 228 272 318
#     4  10  20  37  51  75 117 152 187 226 269 317
#     4  10  21  34  50  77 114 149 187 232 272 326
#
# _framework density 17.991707999999999
#
# number of rings (size 3 to 8) (size 9 to 14) (size 15 to 20)
#    0.000    1.500    2.500    3.000    3.500    1.500 
#    0.000    0.000    0.000    0.750    0.000    3.500 
#    0.000    0.000    0.000    0.000    0.000    0.000 
#
# Total GULP energy -178653.770146 kJ/mol
# GULP energy per Si atom -5582.930317 kJ/mol
# Density = 1.795076 g / cm^3
# Si number density = 17.991708 Si / 1000 Ang^3
#
#
#
# Elastic Constant Matrix: (Units=GPa)
#
#
# Indices 1 2 3 4 5 6 
#
# 1 99.7868 38.3835 51.4359 0.0000 -10.1926 0.0000
# 2 38.3835 34.5683 23.9023 0.0000 -5.6692 0.0000
# 3 51.4359 23.9023 91.8671 0.0000 -10.2719 0.0000
# 4 0.0000 0.0000 0.0000 19.0554 0.0000 -2.2273
# 5 -10.1926 -5.6692 -10.2719 0.0000 26.1044 0.0000
# 6 0.0000 0.0000 0.0000 -2.2273 0.0000 23.8523
#
#
#
# Elastic Compliance Matrix: (Units=1/GPa)
#
#
# Indices 1 2 3 4 5 6 
#
# 1 0.020488 -0.017910 -0.006644 0.000000 0.001496 0.000000
# 2 -0.017910 0.051384 -0.003008 0.000000 0.002983 0.000000
# 3 -0.006644 -0.003008 0.015716 0.000000 0.002937 0.000000
# 4 0.000000 0.000000 0.000000 0.053058 0.000000 0.004954
# 5 0.001496 0.002983 0.002937 0.000000 0.040695 0.000000
# 6 0.000000 0.000000 0.000000 0.004954 0.000000 0.042387
#
#
# Mechanical properties :
#
#
# Convention : Reuss Voigt Hill
#
# Bulk Modulus (GPa) = 30.80319 50.40727 40.60523
# Shear Modulus (GPa) = 17.26082 21.30246 19.28164
#
# Velocity S-wave (km/s) = 3.10074 3.44469 3.27723
# Velocity P-wave (km/s) = 5.47516 6.62563 6.07768
#
# Compressibility (1/GPa) = 0.03246417
#
# Stress axis : x y z
#
# Youngs Moduli (GPa) = 48.80919 19.46135 63.62841
#
# Poissons Ratio (x) = 0.34855 0.42275
# Poissons Ratio (y) = 0.87417 0.19140
# Poissons Ratio (z) = 0.32429 0.05854
#
# Static dielectric constant tensor:
#      x y z
#    x 1.641120 0.000000 -0.014550 
#    y 0.000000 1.579260 0.000000 
#    z -0.014550 0.000000 1.628620 
# 
# From -- ./inp_files/66966.got.cif
#   From: 2010.05.17/outbox.cif.g08.bks.cpg/sg12_34_cif.got.tgz:66966.got - 2010.06.03 13:09:07.
