data_PCOD9182109
_publ_section_title
;
Structure prediction by ZEFSAII (Michael W. Deem and Ramdas Pophale) SiO2 
 PCOD9182109
Probable space group: C 2/M
;
_chemical_formula_sum "Si O2"
_cell_formula_units_Z 40
_cell_length_a 13.376850
_cell_length_b 20.377755
_cell_length_c 14.295431
_cell_angle_alpha 90.000000
_cell_angle_beta 29.846250
_cell_angle_gamma 90.000000
_cell_volume 1939.334115
_symmetry_space_group_name_H-M "C 2/M"
_symmetry_group_IT_number 12
_symmetry_cell_setting 'monoclinic'
loop_
_space_group_symop_operation_xyz
x,y,z
-x,y,-z
-x,-y,-z
x,-y,z
1/2+x,1/2+y,z
1/2-x,1/2+y,-z
1/2-x,1/2-y,-z
1/2+x,1/2-y,z
loop_
_atom_site_type_symbol
_atom_site_label
_atom_site_fract_x
_atom_site_fract_y
_atom_site_fract_z
Si Si1 0.904968 0.425027 0.677017
Si Si2 0.875777 0.293176 0.008607
Si Si3 0.439514 0.730642 0.443883
Si Si4 0.231884 0.864616 0.543091
Si Si5 0.144732 0.150708 0.032781
O O1 0.838966 0.500000 0.718805
O O2 0.730978 0.383395 0.869361
O O3 0.000000 0.402431 0.500000
O O4 0.098251 0.418707 0.587428
O O5 0.647685 0.275690 0.220702
O O6 0.950844 0.221659 0.915626
O O7 0.832250 0.338301 0.953101
O O8 0.000000 0.315246 0.000000
O O9 0.500000 0.734710 0.500000
O O10 0.328385 0.796991 0.505313
O O11 0.326841 0.662883 0.510937
O O12 0.035954 0.883692 0.763356
#
# Coordination Sequence:
#
# PCOD9182109 Si02
#       5
#     8   8   8   8   8
#     4  11  25  42  59  81 113 159 205 239 284 340
#     4  10  20  32  57  93 122 149 182 231 300 356
#     4  10  19  32  55  91 122 148 183 232 296 356
#     4  10  21  36  57  85 119 150 188 240 291 343
#     4  10  22  37  56  88 119 151 191 236 292 347
#
# _framework density 20.625636
#
# number of rings (size 3 to 8) (size 9 to 14) (size 15 to 20)
#    0.000    1.800    2.000    1.800    8.400    0.800 
#    0.000    2.000    0.000    1.200    0.000    0.000 
#    0.000    0.000    0.000    0.000    0.000    0.000 
#
# Total GULP energy -111472.004691 kJ/mol
# GULP energy per Si atom -5573.600235 kJ/mol
# Density = 2.057869 g / cm^3
# Si number density = 20.625636 Si / 1000 Ang^3
#
#
#
# Elastic Constant Matrix: (Units=GPa)
#
#
# Indices 1 2 3 4 5 6 
#
# 1 90.1955 9.1484 2.6694 0.0154 12.8849 -0.0044
# 2 9.1484 38.3465 22.2517 0.0233 9.0920 -0.0063
# 3 2.6694 22.2517 80.7183 0.0201 0.4521 -0.0133
# 4 0.0154 0.0233 0.0201 8.9978 -0.0075 0.3384
# 5 12.8849 9.0920 0.4521 -0.0075 33.9802 0.0082
# 6 -0.0044 -0.0063 -0.0133 0.3384 0.0082 16.6232
#
#
#
# Elastic Compliance Matrix: (Units=1/GPa)
#
#
# Indices 1 2 3 4 5 6 
#
# 1 0.011850 -0.001991 0.000179 -0.000019 -0.003963 0.000005
# 2 -0.001991 0.033840 -0.009217 -0.000071 -0.008177 0.000010
# 3 0.000179 -0.009217 0.014911 -0.000008 0.002200 0.000008
# 4 -0.000019 -0.000071 -0.000008 0.111224 0.000051 -0.002264
# 5 -0.003963 -0.008177 0.002200 0.000051 0.033090 -0.000020
# 6 0.000005 0.000010 0.000008 -0.002264 -0.000020 0.060203
#
#
# Mechanical properties :
#
#
# Convention : Reuss Voigt Hill
#
# Bulk Modulus (GPa) = 25.94505 30.82216 28.38360
# Shear Modulus (GPa) = 16.66528 23.59962 20.13245
#
# Velocity S-wave (km/s) = 2.84560 3.38626 3.12763
# Velocity P-wave (km/s) = 4.83765 5.50137 5.18015
#
# Compressibility (1/GPa) = 0.03854300
#
# Stress axis : x y z
#
# Youngs Moduli (GPa) = 84.38936 29.55050 67.06274
#
# Poissons Ratio (x) = 0.05885 -0.01203
# Poissons Ratio (y) = 0.16806 0.61813
# Poissons Ratio (z) = -0.01513 0.27237
#
# Static dielectric constant tensor:
#      x y z
#    x 1.727030 -0.000010 -0.228880 
#    y -0.000010 1.748670 0.000010 
#    z -0.228880 0.000010 1.305280 
# 
# From -- ./inp_files/218058.got.cif
#   From: 2010.05.17/outbox.cif.g08.bks.cpg/sg12_110_cif.got.tgz:218058.got - 2010.06.03 13:09:07.
