data_PCOD9182525
_publ_section_title
;
Structure prediction by ZEFSAII (Michael W. Deem and Ramdas Pophale) SiO2 
 PCOD9182525
Probable space group: C 2/M
;
_chemical_formula_sum "Si O2"
_cell_formula_units_Z 64
_cell_length_a 25.120321
_cell_length_b 8.644418
_cell_length_c 16.597938
_cell_angle_alpha 90.000000
_cell_angle_beta 90.421373
_cell_angle_gamma 90.000000
_cell_volume 3604.153979
_symmetry_space_group_name_H-M "C 2/M"
_symmetry_group_IT_number 12
_symmetry_cell_setting 'monoclinic'
loop_
_space_group_symop_operation_xyz
x,y,z
-x,y,-z
-x,-y,-z
x,-y,z
1/2+x,1/2+y,z
1/2-x,1/2+y,-z
1/2-x,1/2-y,-z
1/2+x,1/2-y,z
loop_
_atom_site_type_symbol
_atom_site_label
_atom_site_fract_x
_atom_site_fract_y
_atom_site_fract_z
Si Si1 0.712060 0.186025 0.612291
Si Si2 0.484390 0.183657 0.806238
Si Si3 0.411833 0.312820 0.948161
Si Si4 0.301180 0.187750 0.202670
Si Si5 0.683958 0.687268 0.160685
Si Si6 0.171811 0.813552 0.452582
Si Si7 0.590505 0.314716 0.867367
Si Si8 0.895384 0.813050 0.695848
O O1 0.699175 0.233336 0.703008
O O2 0.772098 0.234635 0.588247
O O3 0.673371 0.249330 0.542717
O O4 0.711238 0.000000 0.610026
O O5 0.453950 0.245059 0.885776
O O6 0.543980 0.247461 0.811279
O O7 0.449731 0.244357 0.730751
O O8 0.484623 0.000000 0.806495
O O9 0.415840 0.500000 0.943711
O O10 0.353250 0.267111 0.914555
O O11 0.419856 0.265286 0.040138
O O12 0.244659 0.240631 0.164704
O O13 0.351965 0.256715 0.159256
O O14 0.303310 0.000000 0.198925
O O15 0.685994 0.500000 0.161224
O O16 0.651001 0.731212 0.240597
O O17 0.124350 0.764864 0.392679
O O18 0.171667 0.000000 0.455635
O O19 0.588655 0.500000 0.865090
O O20 0.899088 0.000000 0.697991
#
# Coordination Sequence:
#
# PCOD9182525 Si02
#       8
#     8   8   8   8   8   8   8   8
#     4   9  17  29  47  75 108 140 169 203 248 298
#     4  11  22  35  54  79 102 128 168 218 265 302
#     4   9  19  36  57  76  99 133 170 212 259 307
#     4  10  19  33  52  73 104 143 175 205 249 304
#     4   8  14  29  52  74  99 135 170 200 247 305
#     4   9  16  28  50  78 105 137 172 203 245 300
#     4  11  23  37  52  73 100 136 178 214 255 304
#     4   9  16  31  54  77 104 137 170 206 253 306
#
# _framework density 17.757287000000002
#
# number of rings (size 3 to 8) (size 9 to 14) (size 15 to 20)
#    0.000    2.500    1.250    2.625    0.000    4.000 
#    0.000    2.500    0.000    0.750    0.000    5.250 
#    0.000    0.000    0.000    0.000    0.000    0.000 
#
# Total GULP energy -178461.609574 kJ/mol
# GULP energy per Si atom -5576.925299 kJ/mol
# Density = 1.771687 g / cm^3
# Si number density = 17.757287 Si / 1000 Ang^3
#
#
#
# Elastic Constant Matrix: (Units=GPa)
#
#
# Indices 1 2 3 4 5 6 
#
# 1 98.6260 16.1851 12.9671 0.0000 28.8204 0.0000
# 2 16.1851 22.0361 11.6473 0.0000 7.8569 0.0000
# 3 12.9671 11.6473 40.1496 0.0000 26.1353 0.0000
# 4 0.0000 0.0000 0.0000 21.3312 0.0000 -1.8340
# 5 28.8204 7.8569 26.1353 0.0000 27.6742 0.0000
# 6 0.0000 0.0000 0.0000 -1.8340 0.0000 22.0840
#
#
#
# Elastic Compliance Matrix: (Units=1/GPa)
#
#
# Indices 1 2 3 4 5 6 
#
# 1 0.020880 -0.013320 0.022878 0.000000 -0.039568 0.000000
# 2 -0.013320 0.062116 -0.029249 0.000000 0.023859 0.000000
# 3 0.022878 -0.029249 0.093722 0.000000 -0.104032 0.000000
# 4 0.000000 0.000000 0.000000 0.047217 0.000000 0.003921
# 5 -0.039568 0.023859 -0.104032 0.000000 0.168815 0.000000
# 6 0.000000 0.000000 0.000000 0.003921 0.000000 0.045607
#
#
# Mechanical properties :
#
#
# Convention : Reuss Voigt Hill
#
# Bulk Modulus (GPa) = 7.28138 26.93453 17.10796
# Shear Modulus (GPa) = 9.55075 22.21868 15.88471
#
# Velocity S-wave (km/s) = 2.32167 3.54113 2.99414
# Velocity P-wave (km/s) = 3.36100 5.64983 4.64849
#
# Compressibility (1/GPa) = 0.13733655
#
# Stress axis : x y z
#
# Youngs Moduli (GPa) = 47.89276 16.09882 10.66980
#
# Poissons Ratio (x) = 0.21444 -0.24410
# Poissons Ratio (y) = 0.63794 0.31208
# Poissons Ratio (z) = -1.09567 0.47087
#
# Static dielectric constant tensor:
#      x y z
#    x 1.602260 0.000000 0.025300 
#    y 0.000000 1.603660 0.000000 
#    z 0.025300 0.000000 1.605320 
# 
# From -- ./inp_files/238636.got.cif
#   From: 2010.05.17/outbox.cif.g08.bks.cpg/sg12_120_cif.got.tgz:238636.got - 2010.06.03 13:09:07.
