data_PCOD9182648
_publ_section_title
;
Structure prediction by ZEFSAII (Michael W. Deem and Ramdas Pophale) SiO2 
 PCOD9182648
Probable space group: C 2/M
;
_chemical_formula_sum "Si O2"
_cell_formula_units_Z 56
_cell_length_a 24.760416
_cell_length_b 7.636548
_cell_length_c 14.536058
_cell_angle_alpha 90.000000
_cell_angle_beta 69.511484
_cell_angle_gamma 90.000000
_cell_volume 2574.671535
_symmetry_space_group_name_H-M "C 2/M"
_symmetry_group_IT_number 12
_symmetry_cell_setting 'monoclinic'
loop_
_space_group_symop_operation_xyz
x,y,z
-x,y,-z
-x,-y,-z
x,-y,z
1/2+x,1/2+y,z
1/2-x,1/2+y,-z
1/2-x,1/2-y,-z
1/2+x,1/2-y,z
loop_
_atom_site_type_symbol
_atom_site_label
_atom_site_fract_x
_atom_site_fract_y
_atom_site_fract_z
Si Si1 0.129621 0.212895 0.215984
Si Si2 0.080703 0.197236 0.701973
Si Si3 0.342699 0.290925 0.185899
Si Si4 0.814568 0.789102 0.998385
Si Si5 0.486998 0.284946 0.613041
Si Si6 0.283789 0.290914 0.685555
Si Si7 0.316060 0.802384 0.475134
O O1 0.139451 0.271967 0.105839
O O2 0.074605 0.268602 0.308089
O O3 0.187268 0.262996 0.236517
O O4 0.127228 0.000000 0.215627
O O5 0.104378 0.278082 0.783322
O O6 0.137961 0.188360 0.605142
O O7 0.033713 0.276759 0.661017
O O8 0.059996 0.000000 0.735671
O O9 0.351482 0.500000 0.174369
O O10 0.282639 0.262484 0.275485
O O11 0.330614 0.220983 0.090457
O O12 0.817624 0.000000 0.001493
O O13 0.750000 0.750000 0.000000
O O14 0.500000 0.228727 0.500000
O O15 0.488982 0.500000 0.609582
O O16 0.286578 0.500000 0.674677
O O17 0.321518 0.212632 0.581231
O O18 0.250000 0.750000 0.500000
O O19 0.324771 0.000000 0.438290
#
# Coordination Sequence:
#
# PCOD9182648 Si02
#       7
#     8   8   8   8   8   8   8
#     4   9  18  32  53  81 108 140 187 232 271 321
#     4  10  20  35  54  77 106 143 184 226 275 325
#     4  10  20  32  49  76 111 141 172 224 280 328
#     4  10  19  33  52  78 111 144 181 228 280 329
#     4   9  17  32  55  79 105 141 187 235 272 318
#     4  11  20  32  53  79 107 142 181 222 270 325
#     4  12  23  34  50  76 109 142 177 221 274 330
#
# _framework density 21.750346
#
# number of rings (size 3 to 8) (size 9 to 14) (size 15 to 20)
#    0.000    1.857    2.857    2.571    0.000    2.286 
#    0.000    0.714    0.000    9.857    0.000    0.000 
#    0.000    3.429    0.000    0.000    0.000    0.000 
#
# Total GULP energy -156228.993459 kJ/mol
# GULP energy per Si atom -5579.606909 kJ/mol
# Density = 2.170084 g / cm^3
# Si number density = 21.750346 Si / 1000 Ang^3
#
#
#
# Elastic Constant Matrix: (Units=GPa)
#
#
# Indices 1 2 3 4 5 6 
#
# 1 139.2452 1.0239 52.6417 0.0000 23.9208 0.0000
# 2 1.0239 56.2344 -4.0948 0.0000 5.3727 0.0000
# 3 52.6417 -4.0948 135.0203 0.0000 24.4061 0.0000
# 4 0.0000 0.0000 0.0000 9.2599 0.0000 0.0878
# 5 23.9208 5.3727 24.4061 0.0000 39.1080 0.0000
# 6 0.0000 0.0000 0.0000 0.0878 0.0000 9.9359
#
#
#
# Elastic Compliance Matrix: (Units=1/GPa)
#
#
# Indices 1 2 3 4 5 6 
#
# 1 0.008870 -0.000013 -0.002793 0.000000 -0.003680 0.000000
# 2 -0.000013 0.018171 0.001134 0.000000 -0.003196 0.000000
# 3 -0.002793 0.001134 0.009298 0.000000 -0.004250 0.000000
# 4 0.000000 0.000000 0.000000 0.108002 0.000000 -0.000954
# 5 -0.003680 -0.003196 -0.004250 0.000000 0.030912 0.000000
# 6 0.000000 0.000000 0.000000 -0.000954 0.000000 0.100654
#
#
# Mechanical properties :
#
#
# Convention : Reuss Voigt Hill
#
# Bulk Modulus (GPa) = 30.30918 47.73792 39.02355
# Shear Modulus (GPa) = 17.22653 30.38936 23.80795
#
# Velocity S-wave (km/s) = 2.81732 3.74196 3.31206
# Velocity P-wave (km/s) = 4.95463 6.37694 5.71024
#
# Compressibility (1/GPa) = 0.03299330
#
# Stress axis : x y z
#
# Youngs Moduli (GPa) = 112.74027 55.03315 107.55075
#
# Poissons Ratio (x) = 0.00073 0.30043
# Poissons Ratio (y) = 0.00150 -0.12196
# Poissons Ratio (z) = 0.31492 -0.06240
#
# Static dielectric constant tensor:
#      x y z
#    x 1.815090 0.000000 0.066930 
#    y 0.000000 1.840670 0.000000 
#    z 0.066930 0.000000 1.825750 
# 
# From -- ./inp_files/238345.got.cif
#   From: 2010.05.17/outbox.cif.g08.bks.cpg/sg12_120_cif.got.tgz:238345.got - 2010.06.03 13:09:07.
