data_PCOD9182222
_publ_section_title
;
Structure prediction by ZEFSAII (Michael W. Deem and Ramdas Pophale) SiO2 
 PCOD9182222
Probable space group: C 2/M
;
_chemical_formula_sum "Si O2"
_cell_formula_units_Z 40
_cell_length_a 14.659026
_cell_length_b 9.449409
_cell_length_c 13.754281
_cell_angle_alpha 90.000000
_cell_angle_beta 102.489906
_cell_angle_gamma 90.000000
_cell_volume 1860.142104
_symmetry_space_group_name_H-M "C 2/M"
_symmetry_group_IT_number 12
_symmetry_cell_setting 'monoclinic'
loop_
_space_group_symop_operation_xyz
x,y,z
-x,y,-z
-x,-y,-z
x,-y,z
1/2+x,1/2+y,z
1/2-x,1/2+y,-z
1/2-x,1/2-y,-z
1/2+x,1/2-y,z
loop_
_atom_site_type_symbol
_atom_site_label
_atom_site_fract_x
_atom_site_fract_y
_atom_site_fract_z
Si Si1 0.838468 0.837461 0.623058
Si Si2 0.351113 0.334471 0.409021
Si Si3 0.298326 0.664475 0.925944
Si Si4 0.530325 0.334818 0.158164
Si Si5 0.615123 0.836554 0.767422
O O1 0.755121 0.725046 0.612080
O O2 0.885517 0.819036 0.527940
O O3 0.908971 0.826626 0.728517
O O4 0.800005 0.000000 0.614767
O O5 0.353936 0.500000 0.383819
O O6 0.400229 0.244447 0.336846
O O7 0.306170 0.500000 0.955681
O O8 0.399492 0.711731 0.911094
O O9 0.224754 0.670630 0.819751
O O10 0.250000 0.750000 0.000000
O O11 0.505927 0.500000 0.137145
O O12 0.441276 0.239974 0.159563
O O13 0.587870 0.000000 0.754353
#
# Coordination Sequence:
#
# PCOD9182222 Si02
#       5
#     8   8   8   8   8
#     4   9  18  35  57  83 121 159 196 240 287 338
#     4  10  19  32  57  88 117 158 201 238 283 342
#     4  10  23  43  65  85 115 152 190 242 301 351
#     4  10  21  40  62  86 118 157 196 237 289 350
#     4  11  23  40  60  87 122 156 192 242 294 345
#
# _framework density 21.503733
#
# number of rings (size 3 to 8) (size 9 to 14) (size 15 to 20)
#    0.000    2.000    2.000    1.200    0.000    5.600 
#    0.000    8.000    0.000    0.000    0.000    0.000 
#    0.000    0.000    0.000    0.000    0.000    0.000 
#
# Total GULP energy -111789.829571 kJ/mol
# GULP energy per Si atom -5589.491479 kJ/mol
# Density = 2.145479 g / cm^3
# Si number density = 21.503733 Si / 1000 Ang^3
#
#
#
# Elastic Constant Matrix: (Units=GPa)
#
#
# Indices 1 2 3 4 5 6 
#
# 1 98.6162 47.3713 24.2465 0.0000 -29.3223 0.0000
# 2 47.3713 90.5015 43.3955 0.0000 -26.2458 0.0000
# 3 24.2465 43.3955 95.8385 0.0000 -24.8018 0.0000
# 4 0.0000 0.0000 0.0000 32.6262 0.0000 -10.8785
# 5 -29.3223 -26.2458 -24.8018 0.0000 46.6908 0.0000
# 6 0.0000 0.0000 0.0000 -10.8785 0.0000 30.3033
#
#
#
# Elastic Compliance Matrix: (Units=1/GPa)
#
#
# Indices 1 2 3 4 5 6 
#
# 1 0.014826 -0.006316 0.000695 0.000000 0.006130 0.000000
# 2 -0.006316 0.018016 -0.005757 0.000000 0.003102 0.000000
# 3 0.000695 -0.005757 0.014075 0.000000 0.004678 0.000000
# 4 0.000000 0.000000 0.000000 0.034818 0.000000 0.012499
# 5 0.006130 0.003102 0.004678 0.000000 0.029496 0.000000
# 6 0.000000 0.000000 0.000000 0.012499 0.000000 0.037487
#
#
# Mechanical properties :
#
#
# Convention : Reuss Voigt Hill
#
# Bulk Modulus (GPa) = 41.38692 57.22029 49.30361
# Shear Modulus (GPa) = 27.85111 33.25360 30.55236
#
# Velocity S-wave (km/s) = 3.60276 3.93671 3.77343
# Velocity P-wave (km/s) = 6.04935 6.87974 6.47787
#
# Compressibility (1/GPa) = 0.02416222
#
# Stress axis : x y z
#
# Youngs Moduli (GPa) = 67.44907 55.50734 71.04608
#
# Poissons Ratio (x) = 0.35059 -0.04940
# Poissons Ratio (y) = 0.42602 0.40899
# Poissons Ratio (z) = -0.04690 0.31954
#
# Static dielectric constant tensor:
#      x y z
#    x 1.790690 0.000000 0.005020 
#    y 0.000000 1.721780 0.000000 
#    z 0.005020 0.000000 1.824040 
# 
# From -- ./inp_files/211334.got.cif
#   From: 2010.05.17/outbox.cif.g08.bks.cpg/sg12_106_cif.got.tgz:211334.got - 2010.06.03 13:09:07.
