data_PCOD9182976
_publ_section_title
;
Structure prediction by ZEFSAII (Michael W. Deem and Ramdas Pophale) SiO2 
 PCOD9182976
Probable space group: C 2/M
;
_chemical_formula_sum "Si O2"
_cell_formula_units_Z 64
_cell_length_a 21.241858
_cell_length_b 7.783586
_cell_length_c 20.707728
_cell_angle_alpha 90.000000
_cell_angle_beta 65.705944
_cell_angle_gamma 90.000000
_cell_volume 3120.582058
_symmetry_space_group_name_H-M "C 2/M"
_symmetry_group_IT_number 12
_symmetry_cell_setting 'monoclinic'
loop_
_space_group_symop_operation_xyz
x,y,z
-x,y,-z
-x,-y,-z
x,-y,z
1/2+x,1/2+y,z
1/2-x,1/2+y,-z
1/2-x,1/2-y,-z
1/2+x,1/2-y,z
loop_
_atom_site_type_symbol
_atom_site_label
_atom_site_fract_x
_atom_site_fract_y
_atom_site_fract_z
Si Si1 0.804205 0.707699 0.064351
Si Si2 0.653230 0.300514 0.314270
Si Si3 0.149747 0.797775 0.090591
Si Si4 0.693986 0.789671 0.791050
Si Si5 0.423346 0.201761 0.524697
Si Si6 0.171915 0.293206 0.549810
Si Si7 0.053391 0.301697 0.242419
Si Si8 0.602503 0.789570 0.710432
O O1 0.804527 0.500000 0.062395
O O2 0.725545 0.764330 0.081815
O O3 0.821827 0.764811 0.129101
O O4 0.851528 0.769651 0.985584
O O5 0.662274 0.500000 0.327292
O O6 0.728845 0.233292 0.262202
O O7 0.619028 0.215767 0.391125
O O8 0.601761 0.286145 0.275232
O O9 0.091511 0.709181 0.157565
O O10 0.145641 0.000000 0.106345
O O11 0.638207 0.734125 0.761810
O O12 0.695296 0.000000 0.791219
O O13 0.500000 0.277595 0.500000
O O14 0.379292 0.275042 0.483998
O O15 0.432651 0.000000 0.505862
O O16 0.166842 0.500000 0.552641
O O17 0.250000 0.250000 0.500000
O O18 0.148568 0.233977 0.630255
O O19 0.048054 0.500000 0.265463
O O20 0.976033 0.232017 0.267763
O O21 0.601219 0.000000 0.712509
#
# Coordination Sequence:
#
# PCOD9182976 Si02
#       8
#     8   8   8   8   8   8   8   8
#     4   9  17  32  54  80 108 140 181 226 269 315
#     4  11  21  35  57  83 108 137 178 230 280 321
#     4  10  19  33  53  81 113 143 179 224 272 317
#     4   9  17  33  55  80 107 136 179 229 268 311
#     4  10  21  37  55  77 108 144 182 226 271 324
#     4  10  20  36  57  80 108 142 183 226 273 326
#     4  11  21  35  56  82 111 146 183 217 268 330
#     4   9  19  35  56  79 106 144 183 221 264 320
#
# _framework density 20.508994999999999
#
# number of rings (size 3 to 8) (size 9 to 14) (size 15 to 20)
#    0.000    2.125    1.250    2.625    0.000    4.250 
#    0.000    3.125    0.000    9.000    0.000    0.000 
#    0.000    0.000    0.000    0.000    0.000    0.000 
#
# Total GULP energy -178723.952390 kJ/mol
# GULP energy per Si atom -5585.123512 kJ/mol
# Density = 2.046232 g / cm^3
# Si number density = 20.508995 Si / 1000 Ang^3
#
#
#
# Elastic Constant Matrix: (Units=GPa)
#
#
# Indices 1 2 3 4 5 6 
#
# 1 92.5653 -2.7602 21.5892 0.0000 19.6334 0.0007
# 2 -2.7602 26.4479 -12.5780 -0.0010 1.3281 -0.0009
# 3 21.5892 -12.5780 86.5556 0.0004 24.5910 0.0009
# 4 0.0000 -0.0010 0.0004 14.7530 0.0000 -0.0587
# 5 19.6334 1.3281 24.5910 0.0000 28.5606 -0.0002
# 6 0.0007 -0.0009 0.0009 -0.0587 -0.0002 11.1050
#
#
#
# Elastic Compliance Matrix: (Units=1/GPa)
#
#
# Indices 1 2 3 4 5 6 
#
# 1 0.012751 0.001459 -0.000607 0.000000 -0.008310 -0.000001
# 2 0.001459 0.042708 0.008858 0.000003 -0.010616 0.000003
# 3 -0.000607 0.008858 0.017197 0.000000 -0.014801 -0.000001
# 4 0.000000 0.000003 0.000000 0.067784 0.000000 0.000358
# 5 -0.008310 -0.010616 -0.014801 0.000000 0.053964 0.000002
# 6 -0.000001 0.000003 -0.000001 0.000358 0.000002 0.090051
#
#
# Mechanical properties :
#
#
# Convention : Reuss Voigt Hill
#
# Bulk Modulus (GPa) = 10.86047 24.23010 17.54529
# Shear Modulus (GPa) = 16.90745 24.17158 20.53952
#
# Velocity S-wave (km/s) = 2.87434 3.43678 3.16806
# Velocity P-wave (km/s) = 4.04014 5.25249 4.68569
#
# Compressibility (1/GPa) = 0.09207701
#
# Stress axis : x y z
#
# Youngs Moduli (GPa) = 78.42529 23.41459 58.14907
#
# Poissons Ratio (x) = -0.03417 0.03532
# Poissons Ratio (y) = -0.11444 -0.51511
# Poissons Ratio (z) = 0.04763 -0.20742
#
# Static dielectric constant tensor:
#      x y z
#    x 1.660230 0.000000 0.003250 
#    y 0.000000 1.790440 0.000000 
#    z 0.003250 0.000000 1.702430 
# 
# From -- ./inp_files/319877.got.cif
#   From: 2010.05.17/outbox.cif.g08.bks.cpg/sg12_160_cif.got.tgz:319877.got - 2010.06.03 13:09:07.
