data_PCOD9182241
_publ_section_title
;
Structure prediction by ZEFSAII (Michael W. Deem and Ramdas Pophale) SiO2 
 PCOD9182241
Probable space group: C 2/M
;
_chemical_formula_sum "Si O2"
_cell_formula_units_Z 56
_cell_length_a 16.562012
_cell_length_b 15.345705
_cell_length_c 24.140302
_cell_angle_alpha 90.000000
_cell_angle_beta 25.737799
_cell_angle_gamma 90.000000
_cell_volume 2664.317103
_symmetry_space_group_name_H-M "C 2/M"
_symmetry_group_IT_number 12
_symmetry_cell_setting 'monoclinic'
loop_
_space_group_symop_operation_xyz
x,y,z
-x,y,-z
-x,-y,-z
x,-y,z
1/2+x,1/2+y,z
1/2-x,1/2+y,-z
1/2-x,1/2-y,-z
1/2+x,1/2-y,z
loop_
_atom_site_type_symbol
_atom_site_label
_atom_site_fract_x
_atom_site_fract_y
_atom_site_fract_z
Si Si1 0.438936 0.268396 0.209746
Si Si2 0.876043 0.770965 0.676874
Si Si3 0.690016 0.401039 0.494015
Si Si4 0.205813 0.814327 0.955405
Si Si5 0.891005 0.399891 0.741329
Si Si6 0.693451 0.139449 0.896262
Si Si7 0.412026 0.407615 0.314061
O O1 0.266495 0.226538 0.285359
O O2 0.600004 0.203925 0.132477
O O3 0.366245 0.326120 0.305003
O O4 0.547074 0.331090 0.098646
O O5 0.891900 0.673057 0.692384
O O6 0.783768 0.824451 0.784277
O O7 0.066245 0.822718 0.547005
O O8 0.634635 0.500000 0.510720
O O9 0.661588 0.397821 0.578216
O O10 0.909576 0.390451 0.351210
O O11 0.240508 0.877390 0.882052
O O12 0.149673 0.722246 0.962101
O O13 0.874044 0.500000 0.732756
O O14 0.863070 0.091333 0.820702
O O15 0.500000 0.095701 0.000000
O O16 0.344119 0.500000 0.333671
#
# Coordination Sequence:
#
# PCOD9182241 Si02
#       7
#     8   8   8   8   8   8   8
#     4  10  19  33  53  78 111 145 176 220 280 343
#     4  10  19  32  58  83 106 143 185 229 280 329
#     4   9  19  39  60  79 107 142 192 241 275 320
#     4   9  19  34  52  74 108 147 179 216 275 330
#     4  10  21  37  58  82 108 147 193 234 272 325
#     4   9  15  29  51  72  97 134 179 219 259 312
#     4   9  19  32  49  75 106 140 171 219 279 326
#
# _framework density 21.018519999999999
#
# number of rings (size 3 to 8) (size 9 to 14) (size 15 to 20)
#    0.000    2.571    1.429    1.286    0.000    1.429 
#    0.000    4.286    0.000    4.286    0.000    0.000 
#    0.000    0.000    0.000    0.000    0.000    0.000 
#
# Total GULP energy -156158.606953 kJ/mol
# GULP energy per Si atom -5577.093105 kJ/mol
# Density = 2.097068 g / cm^3
# Si number density = 21.018520 Si / 1000 Ang^3
#
#
#
# Elastic Constant Matrix: (Units=GPa)
#
#
# Indices 1 2 3 4 5 6 
#
# 1 63.2740 22.4823 -3.4713 0.0004 -14.5102 -0.0022
# 2 22.4823 82.1169 15.3141 -0.0009 -2.5996 -0.0051
# 3 -3.4713 15.3141 47.7229 -0.0092 5.3148 0.0003
# 4 0.0004 -0.0009 -0.0092 0.0389 0.0015 8.0558
# 5 -14.5102 -2.5996 5.3148 0.0015 17.7319 -0.0021
# 6 -0.0022 -0.0051 0.0003 8.0558 -0.0021 -1.1785
#
#
#
# Elastic Compliance Matrix: (Units=1/GPa)
#
#
# Indices 1 2 3 4 5 6 
#
# 1 0.021691 -0.005713 0.001580 0.000006 0.016438 -0.000003
# 2 -0.005713 0.014642 -0.004999 0.000007 -0.001030 -0.000004
# 3 0.001580 -0.004999 0.023392 -0.000001 -0.006451 0.000027
# 4 0.000006 0.000007 -0.000001 0.018146 0.000020 0.124046
# 5 0.016438 -0.001030 -0.006451 0.000020 0.071630 -0.000022
# 6 -0.000003 -0.000004 0.000027 0.124046 -0.000022 -0.000598
#
#
# Mechanical properties :
#
#
# Convention : Reuss Voigt Hill
#
# Bulk Modulus (GPa) = 24.11940 29.08488 26.60214
# Shear Modulus (GPa) = 27.62649 13.90438 20.76543
#
# Velocity S-wave (km/s) = 3.62938 2.57481 3.14659
# Velocity P-wave (km/s) = 5.39105 4.76522 5.08777
#
# Compressibility (1/GPa) = 0.04146041
#
# Stress axis : x y z
#
# Youngs Moduli (GPa) = 46.10297 68.29875 42.74974
#
# Poissons Ratio (x) = 0.39018 -0.06756
# Poissons Ratio (y) = 0.26338 0.21372
# Poissons Ratio (z) = -0.07286 0.34144
#
# Static dielectric constant tensor:
#      x y z
#    x 1.742460 0.000000 -0.003550 
#    y 0.000000 1.801570 0.000000 
#    z -0.003550 0.000000 1.790240 
# 
# From -- ./inp_files/340315.got.cif
#   From: 2010.05.17/outbox.cif.g08.bks.cpg/sg12_171_cif.got.tgz:340315.got - 2010.06.03 13:09:07.
