data_PCOD9182288
_publ_section_title
;
Structure prediction by ZEFSAII (Michael W. Deem and Ramdas Pophale) SiO2 
 PCOD9182288
Probable space group: C 2/M
;
_chemical_formula_sum "Si O2"
_cell_formula_units_Z 48
_cell_length_a 25.183772
_cell_length_b 13.885311
_cell_length_c 10.316813
_cell_angle_alpha 90.000000
_cell_angle_beta 35.293956
_cell_angle_gamma 90.000000
_cell_volume 2084.385704
_symmetry_space_group_name_H-M "C 2/M"
_symmetry_group_IT_number 12
_symmetry_cell_setting 'monoclinic'
loop_
_space_group_symop_operation_xyz
x,y,z
-x,y,-z
-x,-y,-z
x,-y,z
1/2+x,1/2+y,z
1/2-x,1/2+y,-z
1/2-x,1/2-y,-z
1/2+x,1/2-y,z
loop_
_atom_site_type_symbol
_atom_site_label
_atom_site_fract_x
_atom_site_fract_y
_atom_site_fract_z
Si Si1 0.904519 0.000000 0.810796
Si Si2 0.224126 0.500000 0.350491
Si Si3 0.594868 0.186188 0.870603
Si Si4 0.333128 0.786463 0.545214
Si Si5 0.480606 0.705271 0.736410
Si Si6 0.190658 0.298868 0.007701
Si Si7 0.284605 0.000000 0.329396
Si Si8 0.720567 0.500000 0.186453
O O1 0.960031 0.096737 0.734435
O O2 0.813912 0.000000 0.082210
O O3 0.135159 0.000000 0.257476
O O4 0.168255 0.401940 0.435579
O O5 0.249058 0.500000 0.454391
O O6 0.649359 0.231531 0.641235
O O7 0.651799 0.095229 0.811084
O O8 0.500000 0.144075 0.000000
O O9 0.558787 0.265941 0.042982
O O10 0.413396 0.734561 0.466228
O O11 0.236860 0.746540 0.786649
O O12 0.415516 0.771650 0.776687
O O13 0.216154 0.408829 0.967019
O O14 0.250000 0.250000 0.000000
O O15 0.207894 0.000000 0.368590
#
# Coordination Sequence:
#
# PCOD9182288 Si02
#       8
#     4   4   8   8   8   8   4   4
#     4  12  24  45  67  95 135 189 222 272 336 414
#     4  10  20  42  71 101 134 173 229 278 337 407
#     4   9  19  37  61  99 132 167 214 282 332 405
#     4  10  23  41  67 100 133 171 226 280 334 402
#     4  11  23  41  68  94 133 178 219 274 346 392
#     4  12  24  43  64  93 134 177 227 278 329 402
#     4  10  19  32  65 101 127 171 218 277 346 392
#     4  12  24  39  64  98 132 169 226 279 329 395
#
# _framework density 23.028365999999998
#
# number of rings (size 3 to 8) (size 9 to 14) (size 15 to 20)
#    0.000    1.333    5.000    0.250    0.000    6.000 
#    0.000    4.583    0.000    3.000    0.000    0.000 
#    0.000    0.000    0.000    0.000    0.000    0.000 
#
# Total GULP energy -134235.352800 kJ/mol
# GULP energy per Si atom -5593.139700 kJ/mol
# Density = 2.297595 g / cm^3
# Si number density = 23.028366 Si / 1000 Ang^3
#
#
#
# Elastic Constant Matrix: (Units=GPa)
#
#
# Indices 1 2 3 4 5 6 
#
# 1 138.8707 58.6104 36.5472 0.0000 -12.0574 0.0000
# 2 58.6104 158.9179 14.0493 0.0000 -6.3037 0.0000
# 3 36.5472 14.0493 96.0732 0.0000 -4.0807 0.0000
# 4 0.0000 0.0000 0.0000 9.4873 0.0000 -6.5442
# 5 -12.0574 -6.3037 -4.0807 0.0000 38.9363 0.0000
# 6 0.0000 0.0000 0.0000 -6.5442 0.0000 42.5322
#
#
#
# Elastic Compliance Matrix: (Units=1/GPa)
#
#
# Indices 1 2 3 4 5 6 
#
# 1 0.009526 -0.003158 -0.003072 0.000000 0.002117 0.000000
# 2 -0.003158 0.007456 0.000121 0.000000 0.000242 0.000000
# 3 -0.003072 0.000121 0.011572 0.000000 0.000281 0.000000
# 4 0.000000 0.000000 0.000000 0.117920 0.000000 0.018144
# 5 0.002117 0.000242 0.000281 0.000000 0.026407 0.000000
# 6 0.000000 0.000000 0.000000 0.018144 0.000000 0.026303
#
#
# Mechanical properties :
#
#
# Convention : Reuss Voigt Hill
#
# Bulk Modulus (GPa) = 61.21330 68.03061 64.62196
# Shear Modulus (GPa) = 23.05781 37.16816 30.11298
#
# Velocity S-wave (km/s) = 3.16773 4.02184 3.62006
# Velocity P-wave (km/s) = 6.32604 7.15354 6.75248
#
# Compressibility (1/GPa) = 0.01633632
#
# Stress axis : x y z
#
# Youngs Moduli (GPa) = 104.97674 134.11960 86.41850
#
# Poissons Ratio (x) = 0.42351 0.26548
# Poissons Ratio (y) = 0.33148 -0.01047
# Poissons Ratio (z) = 0.32250 -0.01625
#
# Static dielectric constant tensor:
#      x y z
#    x 1.985850 0.000000 0.059460 
#    y 0.000000 1.754680 0.000000 
#    z 0.059460 0.000000 1.836530 
# 
# From -- ./inp_files/183723.got.cif
#   From: 2010.05.17/outbox.cif.g08.bks.cpg/sg12_92_cif.got.tgz:183723.got - 2010.06.03 13:09:07.
