data_PCOD9182835
_publ_section_title
;
Structure prediction by ZEFSAII (Michael W. Deem and Ramdas Pophale) SiO2 
 PCOD9182835
Probable space group: C 2/M
;
_chemical_formula_sum "Si O2"
_cell_formula_units_Z 64
_cell_length_a 14.623150
_cell_length_b 8.389811
_cell_length_c 29.183069
_cell_angle_alpha 90.000000
_cell_angle_beta 88.255813
_cell_angle_gamma 90.000000
_cell_volume 3578.679554
_symmetry_space_group_name_H-M "C 2/M"
_symmetry_group_IT_number 12
_symmetry_cell_setting 'monoclinic'
loop_
_space_group_symop_operation_xyz
x,y,z
-x,y,-z
-x,-y,-z
x,-y,z
1/2+x,1/2+y,z
1/2-x,1/2+y,-z
1/2-x,1/2-y,-z
1/2+x,1/2-y,z
loop_
_atom_site_type_symbol
_atom_site_label
_atom_site_fract_x
_atom_site_fract_y
_atom_site_fract_z
Si Si1 0.100227 0.692582 0.378879
Si Si2 0.889751 0.691202 0.124259
Si Si3 0.250995 0.690924 0.051747
Si Si4 0.391728 0.807355 0.372461
Si Si5 0.757373 0.307245 0.801707
Si Si6 0.241551 0.809363 0.448544
Si Si7 0.750232 0.807425 0.302784
Si Si8 0.098380 0.694193 0.125752
O O1 0.099462 0.500000 0.379006
O O2 0.150952 0.748899 0.424024
O O3 0.164468 0.745300 0.335507
O O4 0.995971 0.748342 0.375767
O O5 0.890043 0.500000 0.124773
O O6 0.837453 0.747916 0.079477
O O7 0.830129 0.751390 0.168034
O O8 0.994223 0.749491 0.124881
O O9 0.252561 0.500000 0.052227
O O10 0.161009 0.743573 0.081713
O O11 0.250000 0.750000 0.000000
O O12 0.327368 0.754916 0.415791
O O13 0.341106 0.749562 0.327433
O O14 0.392333 0.000000 0.372084
O O15 0.757135 0.500000 0.801442
O O16 0.756422 0.251165 0.749382
O O17 0.846437 0.256079 0.829517
O O18 0.250000 0.750000 0.500000
O O19 0.240997 0.000000 0.448406
O O20 0.749963 0.000000 0.302481
O O21 0.096588 0.500000 0.125761
#
# Coordination Sequence:
#
# PCOD9182835 Si02
#       8
#     8   8   8   8   8   8   8   8
#     4   9  18  34  53  73  97 130 167 203 242 293
#     4  10  19  33  53  76  98 129 170 207 241 287
#     4  10  20  36  54  74 101 132 163 202 247 294
#     4   9  19  34  52  73  99 128 163 205 247 287
#     4   9  18  34  51  72 102 134 163 199 246 293
#     4  10  20  34  51  73 100 130 162 203 248 293
#     4   9  18  32  52  74  99 130 165 201 243 293
#     4   8  17  33  52  71  98 133 166 198 240 292
#
# _framework density 17.883692
#
# number of rings (size 3 to 8) (size 9 to 14) (size 15 to 20)
#    0.000    2.750    0.000    1.875    0.000    3.500 
#    0.000   13.750    0.000    0.000    0.000    0.000 
#    0.000    0.000    0.000    0.000    0.000    0.000 
#
# Total GULP energy -178453.372093 kJ/mol
# GULP energy per Si atom -5576.667878 kJ/mol
# Density = 1.784299 g / cm^3
# Si number density = 17.883692 Si / 1000 Ang^3
#
#
#
# Elastic Constant Matrix: (Units=GPa)
#
#
# Indices 1 2 3 4 5 6 
#
# 1 180.2547 19.1306 95.5545 0.0000 23.7545 0.0000
# 2 19.1306 14.2939 19.6785 0.0000 2.3651 0.0000
# 3 95.5545 19.6785 188.1131 0.0000 11.4947 0.0000
# 4 0.0000 0.0000 0.0000 29.1333 0.0000 2.2767
# 5 23.7545 2.3651 11.4947 0.0000 9.7921 0.0000
# 6 0.0000 0.0000 0.0000 2.2767 0.0000 22.8929
#
#
#
# Elastic Compliance Matrix: (Units=1/GPa)
#
#
# Indices 1 2 3 4 5 6 
#
# 1 0.010807 -0.006119 -0.003596 0.000000 -0.020518 0.000000
# 2 -0.006119 0.086200 -0.005972 0.000000 0.001035 0.000000
# 3 -0.003596 -0.005972 0.007698 0.000000 0.001129 0.000000
# 4 0.000000 0.000000 0.000000 0.034594 0.000000 -0.003440
# 5 -0.020518 0.001035 0.001129 0.000000 0.150324 0.000000
# 6 0.000000 0.000000 0.000000 -0.003440 0.000000 0.044024
#
#
# Mechanical properties :
#
#
# Convention : Reuss Voigt Hill
#
# Bulk Modulus (GPa) = 13.63673 72.37653 43.00663
# Shear Modulus (GPa) = 12.83813 28.91685 20.87749
#
# Velocity S-wave (km/s) = 2.68221 4.02548 3.42044
# Velocity P-wave (km/s) = 4.15140 7.88445 6.30074
#
# Compressibility (1/GPa) = 0.07333134
#
# Stress axis : x y z
#
# Youngs Moduli (GPa) = 92.53073 11.60093 129.89884
#
# Poissons Ratio (x) = 0.07098 0.46709
# Poissons Ratio (y) = 0.56618 0.77582
# Poissons Ratio (z) = 0.33272 0.06929
#
# Static dielectric constant tensor:
#      x y z
#    x 1.605400 0.000000 -0.008800 
#    y 0.000000 1.619100 0.000000 
#    z -0.008800 0.000000 1.592030 
# 
# From -- ./inp_files/359924.got.cif
#   From: 2010.05.17/outbox.cif.g08.bks.cpg/sg12_180_cif.got.tgz:359924.got - 2010.06.03 13:09:07.
