data_PCOD9182256
_publ_section_title
;
Structure prediction by ZEFSAII (Michael W. Deem and Ramdas Pophale) SiO2 
 PCOD9182256
Probable space group: C 2/M
;
_chemical_formula_sum "Si O2"
_cell_formula_units_Z 56
_cell_length_a 11.806884
_cell_length_b 22.144937
_cell_length_c 11.042374
_cell_angle_alpha 90.000000
_cell_angle_beta 99.173776
_cell_angle_gamma 90.000000
_cell_volume 2850.240146
_symmetry_space_group_name_H-M "C 2/M"
_symmetry_group_IT_number 12
_symmetry_cell_setting 'monoclinic'
loop_
_space_group_symop_operation_xyz
x,y,z
-x,y,-z
-x,-y,-z
x,-y,z
1/2+x,1/2+y,z
1/2-x,1/2+y,-z
1/2-x,1/2-y,-z
1/2+x,1/2-y,z
loop_
_atom_site_type_symbol
_atom_site_label
_atom_site_fract_x
_atom_site_fract_y
_atom_site_fract_z
Si Si1 0.617796 0.774760 0.595369
Si Si2 0.280630 0.346150 0.436521
Si Si3 0.369058 0.571950 0.650244
Si Si4 0.642871 0.885573 0.757061
Si Si5 0.449366 0.573078 0.120164
Si Si6 0.311013 0.928575 0.971230
Si Si7 0.398098 0.068943 0.729180
O O1 0.500000 0.775320 0.500000
O O2 0.653856 0.705933 0.625054
O O3 0.709741 0.808684 0.525475
O O4 0.617164 0.817062 0.712710
O O5 0.361502 0.391662 0.524223
O O6 0.189733 0.385135 0.346474
O O7 0.375828 0.500000 0.631656
O O8 0.252108 0.587100 0.704831
O O9 0.474051 0.592736 0.753497
O O10 0.526762 0.921442 0.704781
O O11 0.665314 0.892613 0.903084
O O12 0.458673 0.500000 0.121122
O O13 0.315249 0.587143 0.101102
O O14 0.500000 0.594439 0.000000
O O15 0.396665 0.921015 0.873816
O O16 0.310431 0.000000 0.004491
O O17 0.360293 0.000000 0.701509
#
# Coordination Sequence:
#
# PCOD9182256 Si02
#       7
#     8   8   8   8   8   8   8
#     4  10  21  41  61  79 108 156 210 251 284 333
#     4  10  22  38  58  85 115 152 199 246 294 352
#     4  10  19  32  58  91 119 150 192 245 301 353
#     4  11  20  35  59  88 119 159 200 240 287 357
#     4   9  16  30  51  79 119 158 193 232 280 351
#     4  10  20  34  55  87 126 161 189 232 303 365
#     4  11  22  36  58  92 131 157 183 238 308 368
#
# _framework density 19.647466999999999
#
# number of rings (size 3 to 8) (size 9 to 14) (size 15 to 20)
#    0.000    1.857    2.857    2.143    0.000    2.286 
#    0.000    2.857    0.000    4.286    0.000    0.000 
#    0.000    0.000    0.000    0.000    0.000    0.000 
#
# Total GULP energy -156349.935372 kJ/mol
# GULP energy per Si atom -5583.926263 kJ/mol
# Density = 1.960275 g / cm^3
# Si number density = 19.647467 Si / 1000 Ang^3
#
#
#
# Elastic Constant Matrix: (Units=GPa)
#
#
# Indices 1 2 3 4 5 6 
#
# 1 55.2625 27.2930 18.8036 0.0000 13.5516 0.0000
# 2 27.2930 114.9904 65.9941 0.0000 14.2947 0.0000
# 3 18.8036 65.9941 97.4473 0.0000 26.2311 0.0000
# 4 0.0000 0.0000 0.0000 -1.4520 0.0000 -21.6352
# 5 13.5516 14.2947 26.2311 0.0000 30.4929 0.0000
# 6 0.0000 0.0000 0.0000 -21.6352 0.0000 -1.5875
#
#
#
# Elastic Compliance Matrix: (Units=1/GPa)
#
#
# Indices 1 2 3 4 5 6 
#
# 1 0.022235 -0.005039 0.001492 0.000000 -0.008803 0.000000
# 2 -0.005039 0.015472 -0.010614 0.000000 0.004117 0.000000
# 3 0.001492 -0.010614 0.020823 0.000000 -0.013600 0.000000
# 4 0.000000 0.000000 0.000000 0.003408 0.000000 -0.046450
# 5 -0.008803 0.004117 -0.013600 0.000000 0.046476 0.000000
# 6 0.000000 0.000000 0.000000 -0.046450 0.000000 0.003117
#
#
# Mechanical properties :
#
#
# Convention : Reuss Voigt Hill
#
# Bulk Modulus (GPa) = 33.10452 54.65351 43.87902
# Shear Modulus (GPa) = 33.35013 15.86466 24.60740
#
# Velocity S-wave (km/s) = 4.12445 2.84468 3.54283
# Velocity P-wave (km/s) = 6.29026 6.21828 6.25437
#
# Compressibility (1/GPa) = 0.03020735
#
# Stress axis : x y z
#
# Youngs Moduli (GPa) = 44.97341 64.63220 48.02358
#
# Poissons Ratio (x) = 0.32571 -0.07164
# Poissons Ratio (y) = 0.22664 0.50972
# Poissons Ratio (z) = -0.06709 0.68601
#
# Static dielectric constant tensor:
#      x y z
#    x 1.726310 0.000000 -0.010550 
#    y 0.000000 1.675190 0.000000 
#    z -0.010550 0.000000 1.676740 
# 
# From -- ./inp_files/133956.got.cif
#   From: 2010.05.17/outbox.cif.g08.bks.cpg/sg12_67_cif.got.tgz:133956.got - 2010.06.03 13:09:07.
