data_PCOD9182672
_publ_section_title
;
Structure prediction by ZEFSAII (Michael W. Deem and Ramdas Pophale) SiO2 
 PCOD9182672
Probable space group: C 2/M
;
_chemical_formula_sum "Si O2"
_cell_formula_units_Z 64
_cell_length_a 24.171336
_cell_length_b 12.536358
_cell_length_c 23.928626
_cell_angle_alpha 90.000000
_cell_angle_beta 29.894818
_cell_angle_gamma 90.000000
_cell_volume 3613.898653
_symmetry_space_group_name_H-M "C 2/M"
_symmetry_group_IT_number 12
_symmetry_cell_setting 'monoclinic'
loop_
_space_group_symop_operation_xyz
x,y,z
-x,y,-z
-x,-y,-z
x,-y,z
1/2+x,1/2+y,z
1/2-x,1/2+y,-z
1/2-x,1/2-y,-z
1/2+x,1/2-y,z
loop_
_atom_site_type_symbol
_atom_site_label
_atom_site_fract_x
_atom_site_fract_y
_atom_site_fract_z
Si Si1 0.030182 0.878573 0.719075
Si Si2 0.262043 0.311084 0.782228
Si Si3 0.511376 0.371694 0.366598
Si Si4 0.898257 0.228384 0.230041
Si Si5 0.802891 0.121906 0.621725
Si Si6 0.766082 0.877156 0.967368
Si Si7 0.591619 0.883731 0.019653
Si Si8 0.618234 0.377973 0.869613
O O1 0.045199 0.838895 0.642445
O O2 0.077953 0.812525 0.728788
O O3 0.896962 0.881267 0.842202
O O4 0.072552 0.000000 0.685539
O O5 0.371013 0.316480 0.725099
O O6 0.293324 0.367429 0.696815
O O7 0.216909 0.194421 0.806608
O O8 0.157438 0.364139 0.904756
O O9 0.532250 0.500000 0.344990
O O10 0.425095 0.351396 0.491948
O O11 0.788686 0.300247 0.323593
O O12 0.886242 0.137433 0.193312
O O13 0.000826 0.298024 0.116760
O O14 0.780840 0.000000 0.624369
O O15 0.744037 0.000000 0.014366
O O16 0.750000 0.750000 0.000000
O O17 0.687550 0.882417 0.982361
O O18 0.537386 0.000000 0.065701
O O19 0.634915 0.500000 0.870238
O O20 0.500000 0.344113 0.000000
#
# Coordination Sequence:
#
# PCOD9182672 Si02
#       8
#     8   8   8   8   8   8   8   8
#     4  10  20  34  56  79 108 146 189 233 277 334
#     4  11  20  35  59  83 109 143 181 226 282 334
#     4  10  20  37  59  83 108 140 186 236 281 328
#     4  11  21  35  54  80 113 148 185 221 279 339
#     4  10  22  36  55  82 111 145 184 229 280 333
#     4  10  19  33  52  81 115 151 188 232 286 345
#     4  11  20  31  52  83 117 144 174 226 286 342
#     4  10  21  37  54  78 112 147 184 225 268 333
#
# _framework density 17.709406999999999
#
# number of rings (size 3 to 8) (size 9 to 14) (size 15 to 20)
#    0.000    1.625    3.750    2.250    0.000    1.500 
#    0.000    2.500    0.000    8.250    0.000    0.000 
#    0.000    0.000    0.000    0.000    0.000    0.000 
#
# Total GULP energy -178192.753541 kJ/mol
# GULP energy per Si atom -5568.523548 kJ/mol
# Density = 1.766910 g / cm^3
# Si number density = 17.709407 Si / 1000 Ang^3
#
#
#
# Elastic Constant Matrix: (Units=GPa)
#
#
# Indices 1 2 3 4 5 6 
#
# 1 72.5530 29.9302 21.4083 0.0000 6.3596 0.0000
# 2 29.9302 81.1786 29.2672 0.0000 6.4321 0.0000
# 3 21.4083 29.2672 60.8783 0.0000 1.5918 0.0000
# 4 0.0000 0.0000 0.0000 6.6117 0.0000 -5.4165
# 5 6.3596 6.4321 1.5918 0.0000 23.4397 0.0000
# 6 0.0000 0.0000 0.0000 -5.4165 0.0000 -2.3453
#
#
#
# Elastic Compliance Matrix: (Units=1/GPa)
#
#
# Indices 1 2 3 4 5 6 
#
# 1 0.017085 -0.004739 -0.003649 0.000000 -0.003087 0.000000
# 2 -0.004739 0.016527 -0.006205 0.000000 -0.002828 0.000000
# 3 -0.003649 -0.006205 0.020659 0.000000 0.001290 0.000000
# 4 0.000000 0.000000 0.000000 0.052298 0.000000 -0.120782
# 5 -0.003087 -0.002828 0.001290 0.000000 0.044189 0.000000
# 6 0.000000 0.000000 0.000000 -0.120782 0.000000 -0.147434
#
#
# Mechanical properties :
#
#
# Convention : Reuss Voigt Hill
#
# Bulk Modulus (GPa) = 39.86466 41.75792 40.81129
# Shear Modulus (GPa) = 122.33355 14.47483 68.40419
#
# Velocity S-wave (km/s) = 8.32035 2.86204 6.22172
# Velocity P-wave (km/s) = 10.71745 5.87813 8.64338
#
# Compressibility (1/GPa) = 0.02508487
#
# Stress axis : x y z
#
# Youngs Moduli (GPa) = 58.52943 60.50744 48.40567
#
# Poissons Ratio (x) = 0.28675 0.17664
# Poissons Ratio (y) = 0.27737 0.30035
# Poissons Ratio (z) = 0.21359 0.37544
#
# Static dielectric constant tensor:
#      x y z
#    x 1.618260 0.000000 0.028420 
#    y 0.000000 1.627790 0.000000 
#    z 0.028420 0.000000 1.591570 
# 
# From -- ./inp_files/174699.got.cif
#   From: 2010.05.17/outbox.cif.g08.bks.cpg/sg12_88_cif.got.tgz:174699.got - 2010.06.03 13:09:07.
