data_PCOD9182623
_publ_section_title
;
Structure prediction by ZEFSAII (Michael W. Deem and Ramdas Pophale) SiO2 
 PCOD9182623
Probable space group: C 2/M
;
_chemical_formula_sum "Si O2"
_cell_formula_units_Z 64
_cell_length_a 32.774467
_cell_length_b 7.639265
_cell_length_c 15.131265
_cell_angle_alpha 90.000000
_cell_angle_beta 48.522976
_cell_angle_gamma 90.000000
_cell_volume 2838.393543
_symmetry_space_group_name_H-M "C 2/M"
_symmetry_group_IT_number 12
_symmetry_cell_setting 'monoclinic'
loop_
_space_group_symop_operation_xyz
x,y,z
-x,y,-z
-x,-y,-z
x,-y,z
1/2+x,1/2+y,z
1/2-x,1/2+y,-z
1/2-x,1/2-y,-z
1/2+x,1/2-y,z
loop_
_atom_site_type_symbol
_atom_site_label
_atom_site_fract_x
_atom_site_fract_y
_atom_site_fract_z
Si Si1 0.062258 0.788736 0.902365
Si Si2 0.278943 0.290674 0.550065
Si Si3 0.565986 0.202784 0.249375
Si Si4 0.122439 0.708500 0.997366
Si Si5 0.742546 0.214915 0.791987
Si Si6 0.598731 0.713173 0.655936
Si Si7 0.144890 0.201932 0.285130
Si Si8 0.451537 0.201161 0.450906
O O1 0.097397 0.735068 0.936499
O O2 0.085762 0.731287 0.774261
O O3 0.061811 0.000000 0.902164
O O4 0.000000 0.727536 0.000000
O O5 0.281734 0.500000 0.553734
O O6 0.250000 0.250000 0.500000
O O7 0.248582 0.227371 0.681268
O O8 0.340829 0.227329 0.456937
O O9 0.617229 0.209775 0.240794
O O10 0.512283 0.277844 0.374413
O O11 0.550943 0.000000 0.256140
O O12 0.583717 0.281667 0.130137
O O13 0.125513 0.500000 0.008393
O O14 0.184472 0.774936 0.911987
O O15 0.797105 0.272146 0.764665
O O16 0.742659 0.000000 0.792820
O O17 0.596111 0.500000 0.656197
O O18 0.558628 0.786199 0.639511
O O19 0.099531 0.210431 0.427730
O O20 0.153227 0.000000 0.249617
O O21 0.449806 0.000000 0.485184
#
# Coordination Sequence:
#
# PCOD9182623 Si02
#       8
#     8   8   8   8   8   8   8   8
#     4  10  21  36  55  83 119 154 191 238 284 330
#     4  10  19  33  52  77 109 142 181 228 273 326
#     4  10  23  40  57  84 117 148 188 240 290 336
#     4  10  21  39  61  82 113 155 193 234 284 339
#     4   9  19  37  58  81 113 148 185 234 283 331
#     4  10  20  35  55  80 114 151 186 232 284 334
#     4  11  22  39  62  86 113 149 191 234 288 347
#     4  11  22  37  58  85 118 149 186 238 288 341
#
# _framework density 22.547965999999999
#
# number of rings (size 3 to 8) (size 9 to 14) (size 15 to 20)
#    0.000    1.875    1.250    2.625    0.000    4.750 
#    0.000    1.250    0.000    0.000    0.000    0.000 
#    0.000    0.000    0.000    0.000    0.000    0.000 
#
# Total GULP energy -178841.554427 kJ/mol
# GULP energy per Si atom -5588.798576 kJ/mol
# Density = 2.249665 g / cm^3
# Si number density = 22.547966 Si / 1000 Ang^3
#
#
#
# Elastic Constant Matrix: (Units=GPa)
#
#
# Indices 1 2 3 4 5 6 
#
# 1 96.9464 -9.3328 5.9276 0.0001 -12.3981 -0.0001
# 2 -9.3328 44.8963 2.8530 0.0001 -6.1248 0.0000
# 3 5.9276 2.8530 83.5172 0.0000 -9.6868 -0.0001
# 4 0.0001 0.0001 0.0000 18.8068 0.0000 9.8909
# 5 -12.3981 -6.1248 -9.6868 0.0000 44.2183 0.0000
# 6 -0.0001 0.0000 -0.0001 9.8909 0.0000 28.5702
#
#
#
# Elastic Compliance Matrix: (Units=1/GPa)
#
#
# Indices 1 2 3 4 5 6 
#
# 1 0.011045 0.002788 -0.000488 0.000000 0.003376 0.000000
# 2 0.002788 0.023421 -0.000545 0.000000 0.003906 0.000000
# 3 -0.000488 -0.000545 0.012315 0.000000 0.002486 0.000000
# 4 0.000000 0.000000 0.000000 0.065008 0.000000 -0.022506
# 5 0.003376 0.003906 0.002486 0.000000 0.024647 0.000000
# 6 0.000000 0.000000 0.000000 -0.022506 0.000000 0.042793
#
#
# Mechanical properties :
#
#
# Convention : Reuss Voigt Hill
#
# Bulk Modulus (GPa) = 19.88435 24.91726 22.40080
# Shear Modulus (GPa) = 25.97641 33.37988 29.67814
#
# Velocity S-wave (km/s) = 3.39787 3.85176 3.63191
# Velocity P-wave (km/s) = 4.92259 5.55484 5.24824
#
# Compressibility (1/GPa) = 0.05029081
#
# Stress axis : x y z
#
# Youngs Moduli (GPa) = 90.53956 42.69760 81.20108
#
# Poissons Ratio (x) = -0.11902 0.03959
# Poissons Ratio (y) = -0.25238 0.04424
# Poissons Ratio (z) = 0.04414 0.02326
#
# Static dielectric constant tensor:
#      x y z
#    x 1.823050 0.000000 -0.014320 
#    y 0.000000 1.896090 0.000000 
#    z -0.014320 0.000000 1.848510 
# 
# From -- ./inp_files/249678.got.cif
#   From: 2010.05.17/outbox.cif.g08.bks.cpg/sg12_125_cif.got.tgz:249678.got - 2010.06.03 13:09:07.
