data_PCOD9182639
_publ_section_title
;
Structure prediction by ZEFSAII (Michael W. Deem and Ramdas Pophale) SiO2 
 PCOD9182639
Probable space group: C 2/M
;
_chemical_formula_sum "Si O2"
_cell_formula_units_Z 58
_cell_length_a 19.599017
_cell_length_b 7.196911
_cell_length_c 16.785210
_cell_angle_alpha 90.000000
_cell_angle_beta 77.728917
_cell_angle_gamma 90.000000
_cell_volume 2313.501339
_symmetry_space_group_name_H-M "C 2/M"
_symmetry_group_IT_number 12
_symmetry_cell_setting 'monoclinic'
loop_
_space_group_symop_operation_xyz
x,y,z
-x,y,-z
-x,-y,-z
x,-y,z
1/2+x,1/2+y,z
1/2-x,1/2+y,-z
1/2-x,1/2-y,-z
1/2+x,1/2-y,z
loop_
_atom_site_type_symbol
_atom_site_label
_atom_site_fract_x
_atom_site_fract_y
_atom_site_fract_z
Si Si1 0.152725 0.276413 0.167432
Si Si2 0.000000 0.000000 0.000000
Si Si3 0.504800 0.209028 0.795732
Si Si4 0.235695 0.208706 0.305514
Si Si5 0.856552 0.273807 0.175507
Si Si6 0.889712 0.774021 0.560171
Si Si7 0.870348 0.724417 0.999861
Si Si8 0.466971 0.724017 0.387428
O O1 0.155738 0.500000 0.176260
O O2 0.195342 0.198974 0.230743
O O3 0.169963 0.230039 0.071763
O O4 0.072019 0.212374 0.195332
O O5 0.057204 0.837237 0.015300
O O6 0.564310 0.296710 0.835209
O O7 0.538621 0.204000 0.699828
O O8 0.493773 0.000000 0.828530
O O9 0.308174 0.295289 0.259001
O O10 0.181701 0.292202 0.382006
O O11 0.250712 0.000000 0.330324
O O12 0.857495 0.500000 0.181099
O O13 0.832390 0.227198 0.092553
O O14 0.908135 0.719269 0.465521
O O15 0.957449 0.720210 0.595548
O O16 0.888238 0.000000 0.562793
O O17 0.881925 0.500000 0.997369
O O18 0.466499 0.500000 0.384071
#
# Coordination Sequence:
#
# PCOD9182639 Si02
#       8
#     8   2   8   8   8   8   8   8
#     4  10  21  36  57  81 112 149 185 237 293 336
#     4  12  22  36  64  94 112 152 208 236 292 342
#     4  10  19  33  52  78 108 142 184 224 282 347
#     4  10  19  35  60  83 106 145 197 236 276 345
#     4   9  20  39  58  77 113 158 185 227 295 346
#     4   8  15  29  51  79 107 136 178 233 283 337
#     4  10  22  41  58  84 124 159 192 244 293 342
#     4   9  16  30  51  77 107 138 177 230 289 329
#
# _framework density 25.070226000000002
#
# number of rings (size 3 to 8) (size 9 to 14) (size 15 to 20)
#    0.000    2.483    1.379    1.862    0.966    2.759 
#    4.966    2.759    0.000    0.000    0.000    0.000 
#    0.000    0.000    0.000    0.000    0.000    0.000 
#
# Total GULP energy -161798.718463 kJ/mol
# GULP energy per Si atom -5579.266154 kJ/mol
# Density = 2.501317 g / cm^3
# Si number density = 25.070226 Si / 1000 Ang^3
#
#
#
# Elastic Constant Matrix: (Units=GPa)
#
#
# Indices 1 2 3 4 5 6 
#
# 1 48.0228 -13.0876 -10.1907 0.0000 -17.3456 0.0000
# 2 -13.0876 140.9629 -17.4978 0.0000 -2.7084 0.0000
# 3 -10.1907 -17.4978 112.4813 0.0000 -24.0274 0.0000
# 4 0.0000 0.0000 0.0000 14.4063 0.0000 2.5256
# 5 -17.3456 -2.7084 -24.0274 0.0000 46.5083 0.0000
# 6 0.0000 0.0000 0.0000 2.5256 0.0000 4.4099
#
#
#
# Elastic Compliance Matrix: (Units=1/GPa)
#
#
# Indices 1 2 3 4 5 6 
#
# 1 0.028089 0.003626 0.006061 0.000000 0.013818 0.000000
# 2 0.003626 0.007755 0.002158 0.000000 0.002919 0.000000
# 3 0.006061 0.002158 0.011561 0.000000 0.008359 0.000000
# 4 0.000000 0.000000 0.000000 0.077161 0.000000 -0.044191
# 5 0.013818 0.002919 0.008359 0.000000 0.031143 0.000000
# 6 0.000000 0.000000 0.000000 -0.044191 0.000000 0.252072
#
#
# Mechanical properties :
#
#
# Convention : Reuss Voigt Hill
#
# Bulk Modulus (GPa) = 14.06609 24.43499 19.25054
# Shear Modulus (GPa) = 12.26123 35.88111 24.07117
#
# Velocity S-wave (km/s) = 2.21390 3.78726 3.10199
# Velocity P-wave (km/s) = 3.48683 5.37515 4.53046
#
# Compressibility (1/GPa) = 0.07109299
#
# Stress axis : x y z
#
# Youngs Moduli (GPa) = 35.60161 128.95438 86.50003
#
# Poissons Ratio (x) = -0.46754 -0.52424
# Poissons Ratio (y) = -0.12908 -0.18669
# Poissons Ratio (z) = -0.21576 -0.27832
#
# Static dielectric constant tensor:
#      x y z
#    x 1.952370 0.000000 -0.043220 
#    y 0.000000 1.700550 0.000000 
#    z -0.043220 0.000000 2.000590 
# 
# From -- ./inp_files/281090.got.cif
#   From: 2010.05.17/outbox.cif.g08.bks.cpg/sg12_141_cif.got.tgz:281090.got - 2010.06.03 13:09:07.
