data_PCOD9182954
_publ_section_title
;
Structure prediction by ZEFSAII (Michael W. Deem and Ramdas Pophale) SiO2 
 PCOD9182954
Probable space group: C 2/M
;
_chemical_formula_sum "Si O2"
_cell_formula_units_Z 64
_cell_length_a 16.191000
_cell_length_b 7.754988
_cell_length_c 31.530304
_cell_angle_alpha 90.000000
_cell_angle_beta 50.581134
_cell_angle_gamma 90.000000
_cell_volume 3058.406727
_symmetry_space_group_name_H-M "C 2/M"
_symmetry_group_IT_number 12
_symmetry_cell_setting 'monoclinic'
loop_
_space_group_symop_operation_xyz
x,y,z
-x,y,-z
-x,-y,-z
x,-y,z
1/2+x,1/2+y,z
1/2-x,1/2+y,-z
1/2-x,1/2-y,-z
1/2+x,1/2-y,z
loop_
_atom_site_type_symbol
_atom_site_label
_atom_site_fract_x
_atom_site_fract_y
_atom_site_fract_z
Si Si1 0.205441 0.206762 0.060637
Si Si2 0.316722 0.793057 0.174718
Si Si3 0.171633 0.210702 0.436425
Si Si4 0.998163 0.792448 0.174483
Si Si5 0.077761 0.204100 0.239111
Si Si6 0.604165 0.789161 0.940575
Si Si7 0.914391 0.703622 0.365261
Si Si8 0.985177 0.791834 0.436756
O O1 0.088297 0.271827 0.111799
O O2 0.290683 0.264665 0.067985
O O3 0.201847 0.000000 0.064157
O O4 0.250000 0.250000 0.000000
O O5 0.381436 0.752202 0.195837
O O6 0.195689 0.725803 0.211275
O O7 0.383132 0.730586 0.111921
O O8 0.312498 0.000000 0.173089
O O9 0.293505 0.272485 0.398461
O O10 0.106100 0.263109 0.499904
O O11 0.098882 0.263899 0.419918
O O12 0.173105 0.000000 0.435986
O O13 0.029321 0.726410 0.210921
O O14 0.003498 0.000000 0.173486
O O15 0.996650 0.225084 0.304117
O O16 0.092513 0.000000 0.227182
O O17 0.600922 0.000000 0.941493
O O18 0.500000 0.729793 0.000000
O O19 0.909090 0.500000 0.359885
O O20 0.956759 0.733868 0.398977
O O21 0.985935 0.000000 0.436251
#
# Coordination Sequence:
#
# PCOD9182954 Si02
#       8
#     8   8   8   8   8   8   8   8
#     4  10  19  33  53  80 111 141 175 220 271 328
#     4  10  20  37  60  81 102 139 187 225 267 333
#     4   8  17  34  57  83 114 150 188 227 271 329
#     4  10  21  38  58  80 110 142 177 229 286 327
#     4  10  22  41  58  75 106 151 193 226 269 335
#     4   9  16  29  52  79 105 134 173 216 259 320
#     4  11  22  35  54  84 116 144 184 237 283 319
#     4   9  17  35  60  83 111 152 191 223 270 332
#
# _framework density 20.925927999999999
#
# number of rings (size 3 to 8) (size 9 to 14) (size 15 to 20)
#    0.000    2.375    1.250    2.250    0.000    3.500 
#    0.000    7.500    0.000    2.250    0.000    0.000 
#    0.000    0.000    0.000    0.000    0.000    0.000 
#
# Total GULP energy -178649.922955 kJ/mol
# GULP energy per Si atom -5582.810092 kJ/mol
# Density = 2.087830 g / cm^3
# Si number density = 20.925928 Si / 1000 Ang^3
#
#
#
# Elastic Constant Matrix: (Units=GPa)
#
#
# Indices 1 2 3 4 5 6 
#
# 1 192.9924 3.5177 92.9437 -0.0006 -8.8740 0.0001
# 2 3.5177 27.9049 -1.4364 -0.0002 -2.5904 0.0066
# 3 92.9437 -1.4364 115.4879 -0.0014 -10.9277 -0.0008
# 4 -0.0006 -0.0002 -0.0014 15.9762 -0.0007 0.9525
# 5 -8.8740 -2.5904 -10.9277 -0.0007 15.5187 -0.0013
# 6 0.0001 0.0066 -0.0008 0.9525 -0.0013 14.1862
#
#
#
# Elastic Compliance Matrix: (Units=1/GPa)
#
#
# Indices 1 2 3 4 5 6 
#
# 1 0.008518 -0.001450 -0.006895 0.000000 -0.000226 0.000000
# 2 -0.001450 0.036778 0.002278 0.000002 0.006914 -0.000016
# 3 -0.006895 0.002278 0.014891 0.000001 0.006924 0.000000
# 4 0.000000 0.000002 0.000001 0.062845 0.000003 -0.004220
# 5 -0.000226 0.006914 0.006924 0.000003 0.070339 0.000003
# 6 0.000000 -0.000016 0.000000 -0.004220 0.000003 0.070775
#
#
# Mechanical properties :
#
#
# Convention : Reuss Voigt Hill
#
# Bulk Modulus (GPa) = 20.80942 58.49279 39.65110
# Shear Modulus (GPa) = 17.10601 25.22690 21.16646
#
# Velocity S-wave (km/s) = 2.86222 3.47585 3.18385
# Velocity P-wave (km/s) = 4.57045 6.64241 5.70134
#
# Compressibility (1/GPa) = 0.04805516
#
# Stress axis : x y z
#
# Youngs Moduli (GPa) = 117.39889 27.19022 67.15421
#
# Poissons Ratio (x) = 0.03942 0.46300
# Poissons Ratio (y) = 0.17019 -0.15300
# Poissons Ratio (z) = 0.80942 -0.06195
#
# Static dielectric constant tensor:
#      x y z
#    x 1.753890 0.000000 -0.015620 
#    y 0.000000 1.783840 0.000000 
#    z -0.015620 0.000000 1.730630 
# 
# From -- ./inp_files/360008.got.cif
#   From: 2010.05.17/outbox.cif.g08.bks.cpg/sg12_181_cif.got.tgz:360008.got - 2010.06.03 13:09:07.
