data_PCOD9182915
_publ_section_title
;
Structure prediction by ZEFSAII (Michael W. Deem and Ramdas Pophale) SiO2 
 PCOD9182915
Probable space group: C 2/M
;
_chemical_formula_sum "Si O2"
_cell_formula_units_Z 64
_cell_length_a 27.938605
_cell_length_b 14.847356
_cell_length_c 9.413181
_cell_angle_alpha 90.000000
_cell_angle_beta 47.177139
_cell_angle_gamma 90.000000
_cell_volume 2863.953213
_symmetry_space_group_name_H-M "C 2/M"
_symmetry_group_IT_number 12
_symmetry_cell_setting 'monoclinic'
loop_
_space_group_symop_operation_xyz
x,y,z
-x,y,-z
-x,-y,-z
x,-y,z
1/2+x,1/2+y,z
1/2-x,1/2+y,-z
1/2-x,1/2-y,-z
1/2+x,1/2-y,z
loop_
_atom_site_type_symbol
_atom_site_label
_atom_site_fract_x
_atom_site_fract_y
_atom_site_fract_z
Si Si1 0.811995 0.653626 0.166874
Si Si2 0.619697 0.108125 0.703067
Si Si3 0.977074 0.600319 0.341667
Si Si4 0.052615 0.778859 0.283570
Si Si5 0.646228 0.853993 0.216723
Si Si6 0.690423 0.596022 0.603786
Si Si7 0.561727 0.609452 0.976022
Si Si8 0.239600 0.339302 0.279600
O O1 0.872140 0.640887 0.153174
O O2 0.749333 0.621213 0.382898
O O3 0.785969 0.753008 0.183843
O O4 0.832581 0.608484 0.978554
O O5 0.552055 0.115480 0.756691
O O6 0.672938 0.166142 0.507289
O O7 0.636417 0.000000 0.664241
O O8 0.006214 0.500000 0.292011
O O9 0.913115 0.602037 0.574619
O O10 0.021967 0.682943 0.295292
O O11 0.117147 0.746176 0.238863
O O12 0.000000 0.818461 0.500000
O O13 0.060754 0.841404 0.130251
O O14 0.710430 0.858461 0.184933
O O15 0.668635 0.500000 0.592890
O O16 0.623466 0.647814 0.761982
O O17 0.719534 0.593325 0.704632
O O18 0.566688 0.500000 0.988511
O O19 0.500000 0.625625 0.000000
#
# Coordination Sequence:
#
# PCOD9182915 Si02
#       8
#     8   8   8   8   8   8   8   8
#     4  11  20  32  55  85 114 149 192 240 284 335
#     4   9  18  34  54  79 112 150 193 237 287 344
#     4   9  20  39  60  84 121 166 202 238 291 355
#     4  10  22  39  62  89 119 157 203 250 295 348
#     4  10  22  35  53  86 122 158 197 240 289 343
#     4  10  21  38  58  83 114 149 192 237 292 356
#     4  10  23  43  66  89 114 150 197 251 309 364
#     4  10  19  33  53  78 115 157 193 233 285 344
#
# _framework density 22.346734000000001
#
# number of rings (size 3 to 8) (size 9 to 14) (size 15 to 20)
#    0.000    2.125    0.000    4.125    0.000    9.000 
#    0.000    0.000    0.000    6.375    0.000    0.000 
#    0.000    0.000    0.000    0.000    0.000    0.000 
#
# Total GULP energy -178367.906706 kJ/mol
# GULP energy per Si atom -5573.997085 kJ/mol
# Density = 2.229587 g / cm^3
# Si number density = 22.346734 Si / 1000 Ang^3
#
#
#
# Elastic Constant Matrix: (Units=GPa)
#
#
# Indices 1 2 3 4 5 6 
#
# 1 91.9273 -4.5635 39.7809 0.0000 16.9080 0.0000
# 2 -4.5635 56.7492 18.8561 0.0000 -0.8161 0.0000
# 3 39.7809 18.8561 138.4946 0.0000 17.3344 0.0000
# 4 0.0000 0.0000 0.0000 -40.8420 0.0000 -3.6820
# 5 16.9080 -0.8161 17.3344 0.0000 38.4928 0.0000
# 6 0.0000 0.0000 0.0000 -3.6820 0.0000 23.6206
#
#
#
# Elastic Compliance Matrix: (Units=1/GPa)
#
#
# Indices 1 2 3 4 5 6 
#
# 1 0.013315 0.002208 -0.003602 0.000000 -0.004180 0.000000
# 2 0.002208 0.018917 -0.003326 0.000000 0.000929 0.000000
# 3 -0.003602 -0.003326 0.009028 0.000000 -0.002554 0.000000
# 4 0.000000 0.000000 0.000000 -0.024145 0.000000 -0.003764
# 5 -0.004180 0.000929 -0.002554 0.000000 0.028985 0.000000
# 6 0.000000 0.000000 0.000000 -0.003764 0.000000 0.041749
#
#
# Mechanical properties :
#
#
# Convention : Reuss Voigt Hill
#
# Bulk Modulus (GPa) = 31.42753 43.92422 37.67588
# Shear Modulus (GPa) = 46.34079 19.79413 33.06746
#
# Velocity S-wave (km/s) = 4.55875 2.97942 3.85092
# Velocity P-wave (km/s) = 6.46558 5.61555 6.05550
#
# Compressibility (1/GPa) = 0.03181923
#
# Stress axis : x y z
#
# Youngs Moduli (GPa) = 75.10155 52.86138 110.77131
#
# Poissons Ratio (x) = -0.11669 0.39900
# Poissons Ratio (y) = -0.16579 0.36842
# Poissons Ratio (z) = 0.27052 0.17582
#
# Static dielectric constant tensor:
#      x y z
#    x 1.846360 0.000000 -0.012820 
#    y 0.000000 1.858700 0.000000 
#    z -0.012820 0.000000 1.882490 
# 
# From -- ./inp_files/111944.got.cif
#   From: 2010.05.17/outbox.cif.g08.bks.cpg/sg12_56_cif.got.tgz:111944.got - 2010.06.03 13:09:07.
