data_PCOD9182198
_publ_section_title
;
Structure prediction by ZEFSAII (Michael W. Deem and Ramdas Pophale) SiO2 
 PCOD9182198
Probable space group: C 2/M
;
_chemical_formula_sum "Si O2"
_cell_formula_units_Z 64
_cell_length_a 21.540269
_cell_length_b 19.753452
_cell_length_c 9.580869
_cell_angle_alpha 90.000000
_cell_angle_beta 54.309844
_cell_angle_gamma 90.000000
_cell_volume 3310.955429
_symmetry_space_group_name_H-M "C 2/M"
_symmetry_group_IT_number 12
_symmetry_cell_setting 'monoclinic'
loop_
_space_group_symop_operation_xyz
x,y,z
-x,y,-z
-x,-y,-z
x,-y,z
1/2+x,1/2+y,z
1/2-x,1/2+y,-z
1/2-x,1/2-y,-z
1/2+x,1/2-y,z
loop_
_atom_site_type_symbol
_atom_site_label
_atom_site_fract_x
_atom_site_fract_y
_atom_site_fract_z
Si Si1 0.835909 0.721685 0.390540
Si Si2 0.203615 0.079518 0.878489
Si Si3 0.998865 0.574932 0.338510
Si Si4 0.581217 0.688555 0.949456
Si Si5 0.234450 0.176525 0.093209
Si Si6 0.674542 0.926099 0.531228
Si Si7 0.601754 0.187116 0.111747
Si Si8 0.908682 0.242303 0.594700
O O1 0.750000 0.750000 0.500000
O O2 0.880795 0.764340 0.217388
O O3 0.825898 0.641786 0.378359
O O4 0.882301 0.733094 0.475886
O O5 0.132857 0.124643 0.918599
O O6 0.268459 0.084393 0.674254
O O7 0.187246 0.000000 0.921326
O O8 0.228133 0.117640 0.987517
O O9 0.034671 0.500000 0.280661
O O10 0.911145 0.570340 0.412709
O O11 0.000000 0.594135 0.500000
O O12 0.040675 0.627855 0.183418
O O13 0.500000 0.666002 0.000000
O O14 0.574931 0.740820 0.086756
O O15 0.154987 0.184929 0.281234
O O16 0.250000 0.250000 0.000000
O O17 0.316245 0.167838 0.060334
O O18 0.693486 0.000000 0.570135
O O19 0.608809 0.199380 0.268950
O O20 0.000000 0.226304 0.500000
#
# Coordination Sequence:
#
# PCOD9182198 Si02
#       8
#     8   8   8   8   8   8   8   8
#     4  12  23  37  62  95 123 164 214 258 313 372
#     4  11  22  39  63  92 123 163 208 258 314 369
#     4  10  19  32  56  91 127 158 198 250 307 373
#     4  12  24  39  61  93 125 163 211 264 308 368
#     4  10  19  35  61  85 120 154 202 253 311 361
#     4  10  20  36  56  85 125 164 200 245 307 377
#     4  11  21  38  60  90 128 159 208 254 308 370
#     4  11  21  36  61  89 119 160 210 261 308 360
#
# _framework density 19.329768000000001
#
# number of rings (size 3 to 8) (size 9 to 14) (size 15 to 20)
#    0.000    1.125    3.750    6.375    0.000    1.750 
#    0.000    0.625    0.000    5.625    0.000    0.000 
#    0.000    0.000    0.000    0.000    0.000    0.000 
#
# Total GULP energy -178419.253440 kJ/mol
# GULP energy per Si atom -5575.601670 kJ/mol
# Density = 1.928577 g / cm^3
# Si number density = 19.329768 Si / 1000 Ang^3
#
#
#
# Elastic Constant Matrix: (Units=GPa)
#
#
# Indices 1 2 3 4 5 6 
#
# 1 108.3812 43.2005 30.6801 0.0000 -22.0919 0.0000
# 2 43.2005 143.4458 38.6078 0.0000 -7.9320 0.0000
# 3 30.6801 38.6078 59.5548 0.0000 -11.5780 0.0000
# 4 0.0000 0.0000 0.0000 -157.5875 0.0000 52.0879
# 5 -22.0919 -7.9320 -11.5780 0.0000 43.7203 0.0000
# 6 0.0000 0.0000 0.0000 52.0879 0.0000 11.6243
#
#
#
# Elastic Compliance Matrix: (Units=1/GPa)
#
#
# Indices 1 2 3 4 5 6 
#
# 1 0.012228 -0.002390 -0.003830 0.000000 0.004731 0.000000
# 2 -0.002390 0.008912 -0.004709 0.000000 -0.000838 0.000000
# 3 -0.003830 -0.004709 0.022430 0.000000 0.003150 0.000000
# 4 0.000000 0.000000 0.000000 -0.002558 0.000000 0.011461
# 5 0.004731 -0.000838 0.003150 0.000000 0.025945 0.000000
# 6 0.000000 0.000000 0.000000 0.011461 0.000000 0.034673
#
#
# Mechanical properties :
#
#
# Convention : Reuss Voigt Hill
#
# Bulk Modulus (GPa) = 46.05982 59.59540 52.82761
# Shear Modulus (GPa) = 38.24794 -7.18901 15.52947
#
# Velocity S-wave (km/s) = 4.45309 -1.93060 2.83750
# Velocity P-wave (km/s) = 7.09367 5.09197 6.17448
#
# Compressibility (1/GPa) = 0.02171090
#
# Stress axis : x y z
#
# Youngs Moduli (GPa) = 81.78004 112.20568 44.58401
#
# Poissons Ratio (x) = 0.26819 0.17076
# Poissons Ratio (y) = 0.19547 0.20995
# Poissons Ratio (z) = 0.31323 0.52839
#
# Static dielectric constant tensor:
#      x y z
#    x 1.701800 0.000000 0.018640 
#    y 0.000000 1.723290 0.000000 
#    z 0.018640 0.000000 1.671300 
# 
# From -- ./inp_files/89565.got.cif
#   From: 2010.05.17/outbox.cif.g08.bks.cpg/sg12_45_cif.got.tgz:89565.got - 2010.06.03 13:09:07.
