data_PCOD9182326
_publ_section_title
;
Structure prediction by ZEFSAII (Michael W. Deem and Ramdas Pophale) SiO2 
 PCOD9182326
Probable space group: C 2/M
;
_chemical_formula_sum "Si O2"
_cell_formula_units_Z 52
_cell_length_a 21.174352
_cell_length_b 24.675581
_cell_length_c 5.478597
_cell_angle_alpha 90.000000
_cell_angle_beta 64.880360
_cell_angle_gamma 90.000000
_cell_volume 2591.782513
_symmetry_space_group_name_H-M "C 2/M"
_symmetry_group_IT_number 12
_symmetry_cell_setting 'monoclinic'
loop_
_space_group_symop_operation_xyz
x,y,z
-x,y,-z
-x,-y,-z
x,-y,z
1/2+x,1/2+y,z
1/2-x,1/2+y,-z
1/2-x,1/2-y,-z
1/2+x,1/2-y,z
loop_
_atom_site_type_symbol
_atom_site_label
_atom_site_fract_x
_atom_site_fract_y
_atom_site_fract_z
Si Si1 0.799830 0.170989 0.405805
Si Si2 0.500000 0.647002 0.500000
Si Si3 0.932548 0.059776 0.879785
Si Si4 0.677365 0.779783 0.347846
Si Si5 0.903094 0.222856 0.883098
Si Si6 0.343244 0.439556 0.524441
Si Si7 0.478665 0.187353 0.274573
O O1 0.735980 0.177070 0.319751
O O2 0.797115 0.222391 0.588463
O O3 0.798765 0.114614 0.550603
O O4 0.870518 0.183481 0.136373
O O5 0.488010 0.607292 0.746153
O O6 0.432043 0.684942 0.616584
O O7 0.882708 0.065018 0.721020
O O8 0.965720 0.000000 0.807665
O O9 0.890965 0.060946 0.200473
O O10 0.656075 0.764791 0.106851
O O11 0.602663 0.797083 0.585688
O O12 0.970260 0.259707 0.827064
O O13 0.310088 0.500000 0.580918
O O14 0.500000 0.162711 0.500000
O O15 0.500000 0.154519 0.000000
#
# Coordination Sequence:
#
# PCOD9182326 Si02
#       7
#     8   4   8   8   8   8   8
#     4  11  21  34  54  73 108 139 181 222 268 325
#     4  12  19  32  52  74 102 144 183 218 268 310
#     4  10  22  37  52  75 103 136 187 229 260 300
#     4  10  21  34  50  80 103 142 177 219 271 319
#     4  11  20  33  50  72 107 140 176 217 261 326
#     4  10  22  39  55  74 104 141 182 227 268 311
#     4  10  19  33  49  70 102 134 168 204 251 311
#
# _framework density 20.063413000000001
#
# number of rings (size 3 to 8) (size 9 to 14) (size 15 to 20)
#    0.000    1.538    5.385    1.615    0.000    0.615 
#    2.769    2.308    0.000    0.000    0.000    0.000 
#    0.000    6.154    0.000    0.000    0.000    2.615 
#
# Total GULP energy -144980.656616 kJ/mol
# GULP energy per Si atom -5576.179101 kJ/mol
# Density = 2.001775 g / cm^3
# Si number density = 20.063413 Si / 1000 Ang^3
#
#
#
# Elastic Constant Matrix: (Units=GPa)
#
#
# Indices 1 2 3 4 5 6 
#
# 1 83.7480 35.4826 21.0467 0.0000 11.8593 0.0000
# 2 35.4826 66.8550 1.8080 0.0000 10.1926 0.0000
# 3 21.0467 1.8080 84.3828 0.0000 11.6750 0.0000
# 4 0.0000 0.0000 0.0000 13.1146 0.0000 -5.0010
# 5 11.8593 10.1926 11.6750 0.0000 35.4597 0.0000
# 6 0.0000 0.0000 0.0000 -5.0010 0.0000 16.8958
#
#
#
# Elastic Compliance Matrix: (Units=1/GPa)
#
#
# Indices 1 2 3 4 5 6 
#
# 1 0.016750 -0.008495 -0.003728 0.000000 -0.001933 0.000000
# 2 -0.008495 0.019958 0.002192 0.000000 -0.003618 0.000000
# 3 -0.003728 0.002192 0.013252 0.000000 -0.003746 0.000000
# 4 0.000000 0.000000 0.000000 0.085952 0.000000 0.025441
# 5 -0.001933 -0.003618 -0.003746 0.000000 0.031121 0.000000
# 6 0.000000 0.000000 0.000000 0.025441 0.000000 0.066717
#
#
# Mechanical properties :
#
#
# Convention : Reuss Voigt Hill
#
# Bulk Modulus (GPa) = 33.44708 39.07337 36.26023
# Shear Modulus (GPa) = 18.95528 24.87059 21.91294
#
# Velocity S-wave (km/s) = 3.07704 3.52461 3.30841
# Velocity P-wave (km/s) = 5.41582 6.00675 5.71893
#
# Compressibility (1/GPa) = 0.02989797
#
# Stress axis : x y z
#
# Youngs Moduli (GPa) = 59.70054 50.10427 75.45995
#
# Poissons Ratio (x) = 0.42561 0.28135
# Poissons Ratio (y) = 0.50713 -0.16538
# Poissons Ratio (z) = 0.22259 -0.10981
#
# Static dielectric constant tensor:
#      x y z
#    x 1.804730 0.000000 0.053120 
#    y 0.000000 1.725720 0.000000 
#    z 0.053120 0.000000 1.841710 
# 
# From -- ./inp_files/22154.got.cif
#   From: 2010.05.17/outbox.cif.g08.bks.cpg/sg12_12_cif.got.tgz:22154.got - 2010.06.03 13:09:07.
