data_PCOD9182211
_publ_section_title
;
Structure prediction by ZEFSAII (Michael W. Deem and Ramdas Pophale) SiO2 
 PCOD9182211
Probable space group: C 2/M
;
_chemical_formula_sum "Si O2"
_cell_formula_units_Z 40
_cell_length_a 7.868173
_cell_length_b 28.459559
_cell_length_c 15.582320
_cell_angle_alpha 90.000000
_cell_angle_beta 153.187960
_cell_angle_gamma 90.000000
_cell_volume 1573.886492
_symmetry_space_group_name_H-M "C 2/M"
_symmetry_group_IT_number 12
_symmetry_cell_setting 'monoclinic'
loop_
_space_group_symop_operation_xyz
x,y,z
-x,y,-z
-x,-y,-z
x,-y,z
1/2+x,1/2+y,z
1/2-x,1/2+y,-z
1/2-x,1/2-y,-z
1/2+x,1/2-y,z
loop_
_atom_site_type_symbol
_atom_site_label
_atom_site_fract_x
_atom_site_fract_y
_atom_site_fract_z
Si Si1 0.914612 0.121914 0.734150
Si Si2 0.437792 0.815072 0.213668
Si Si3 0.301629 0.447956 0.272491
Si Si4 0.764755 0.778021 0.700763
Si Si5 0.499867 0.916029 0.705064
O O1 0.500000 0.123519 0.500000
O O2 0.025503 0.176190 0.800333
O O3 0.832023 0.097027 0.788413
O O4 0.180785 0.091948 0.792162
O O5 0.470560 0.792953 0.322789
O O6 0.566850 0.773639 0.209300
O O7 0.615567 0.865965 0.302731
O O8 0.000000 0.822941 0.000000
O O9 0.318312 0.500000 0.241356
O O10 0.680499 0.438955 0.500456
O O11 0.973143 0.445898 0.196034
O O12 0.500000 0.774779 0.500000
#
# Coordination Sequence:
#
# PCOD9182211 Si02
#       5
#     8   8   8   8   8
#     4   8  17  32  48  79 114 142 184 241 292 338
#     4  11  23  37  56  86 124 160 195 236 301 359
#     4  10  19  32  57  86 109 146 200 253 296 340
#     4  10  21  36  58  84 116 160 202 239 288 348
#     4   9  19  32  51  78 115 145 188 238 292 343
#
# _framework density 25.414795000000002
#
# number of rings (size 3 to 8) (size 9 to 14) (size 15 to 20)
#    0.000    2.400    0.000    3.600    5.600    4.400 
#    0.000    0.000    0.000    2.400    0.000    5.600 
#    0.000    0.000    0.000    0.000    0.000    0.000 
#
# Total GULP energy -111685.763398 kJ/mol
# GULP energy per Si atom -5584.288170 kJ/mol
# Density = 2.535695 g / cm^3
# Si number density = 25.414795 Si / 1000 Ang^3
#
#
#
# Elastic Constant Matrix: (Units=GPa)
#
#
# Indices 1 2 3 4 5 6 
#
# 1 113.9140 45.2910 -6.7054 0.0000 -5.7239 0.0000
# 2 45.2910 156.0751 -7.1639 0.0000 -2.7464 0.0000
# 3 -6.7054 -7.1639 65.7085 0.0000 -3.5920 0.0000
# 4 0.0000 0.0000 0.0000 10.2798 0.0000 -1.4389
# 5 -5.7239 -2.7464 -3.5920 0.0000 19.3210 0.0000
# 6 0.0000 0.0000 0.0000 -1.4389 0.0000 42.0081
#
#
#
# Elastic Compliance Matrix: (Units=1/GPa)
#
#
# Indices 1 2 3 4 5 6 
#
# 1 0.010098 -0.002842 0.000871 0.000000 0.002749 0.000000
# 2 -0.002842 0.007261 0.000517 0.000000 0.000286 0.000000
# 3 0.000871 0.000517 0.015540 0.000000 0.003221 0.000000
# 4 0.000000 0.000000 0.000000 0.097747 0.000000 0.003348
# 5 0.002749 0.000286 0.003221 0.000000 0.053211 0.000000
# 6 0.000000 0.000000 0.000000 0.003348 0.000000 0.023920
#
#
# Mechanical properties :
#
#
# Convention : Reuss Voigt Hill
#
# Bulk Modulus (GPa) = 33.34329 44.28234 38.81281
# Shear Modulus (GPa) = 22.65719 34.60685 28.63202
#
# Velocity S-wave (km/s) = 2.98903 3.69410 3.36011
# Velocity P-wave (km/s) = 5.00605 5.97133 5.50987
#
# Compressibility (1/GPa) = 0.02999104
#
# Stress axis : x y z
#
# Youngs Moduli (GPa) = 99.03059 137.72890 64.34988
#
# Poissons Ratio (x) = 0.39141 -0.05604
# Poissons Ratio (y) = 0.28144 -0.03328
# Poissons Ratio (z) = -0.08625 -0.07124
#
# Static dielectric constant tensor:
#      x y z
#    x 2.026540 0.000000 0.050970 
#    y 0.000000 2.048300 0.000000 
#    z 0.050970 0.000000 2.063580 
# 
# From -- ./inp_files/40326.got.cif
#   From: 2010.05.17/outbox.cif.g08.bks.cpg/sg12_21_cif.got.tgz:40326.got - 2010.06.03 13:09:07.
