data_PCOD9182909
_publ_section_title
;
Structure prediction by ZEFSAII (Michael W. Deem and Ramdas Pophale) SiO2 
 PCOD9182909
Probable space group: C 2/M
;
_chemical_formula_sum "Si O2"
_cell_formula_units_Z 64
_cell_length_a 12.947252
_cell_length_b 18.165679
_cell_length_c 28.091671
_cell_angle_alpha 90.000000
_cell_angle_beta 149.680069
_cell_angle_gamma 90.000000
_cell_volume 3335.417395
_symmetry_space_group_name_H-M "C 2/M"
_symmetry_group_IT_number 12
_symmetry_cell_setting 'monoclinic'
loop_
_space_group_symop_operation_xyz
x,y,z
-x,y,-z
-x,-y,-z
x,-y,z
1/2+x,1/2+y,z
1/2-x,1/2+y,-z
1/2-x,1/2-y,-z
1/2+x,1/2-y,z
loop_
_atom_site_type_symbol
_atom_site_label
_atom_site_fract_x
_atom_site_fract_y
_atom_site_fract_z
Si Si1 0.222863 0.916657 0.090609
Si Si2 0.908434 0.418049 0.516521
Si Si3 0.382594 0.210457 0.339926
Si Si4 0.013695 0.145790 0.674026
Si Si5 0.779866 0.849331 0.821019
Si Si6 0.533248 0.912093 0.135725
Si Si7 0.944742 0.220096 0.209849
Si Si8 0.777496 0.175688 0.041425
O O1 0.284628 0.914752 0.170060
O O2 0.391799 0.884746 0.123351
O O3 0.196034 0.000000 0.062867
O O4 0.000000 0.879436 0.000000
O O5 0.954202 0.500000 0.555286
O O6 0.665554 0.407232 0.414128
O O7 0.000000 0.416799 0.500000
O O8 0.998287 0.346399 0.579027
O O9 0.496462 0.281160 0.363070
O O10 0.326314 0.162152 0.271290
O O11 0.170556 0.240160 0.279112
O O12 0.239848 0.112631 0.762039
O O13 0.996965 0.166171 0.723342
O O14 0.703078 0.780033 0.823167
O O15 0.017975 0.857656 0.901701
O O16 0.528456 0.000000 0.128751
O O17 0.423328 0.873364 0.047328
O O18 0.826916 0.189620 0.116479
O O19 0.750000 0.250000 0.000000
#
# Coordination Sequence:
#
# PCOD9182909 Si02
#       8
#     8   8   8   8   8   8   8   8
#     4  10  19  33  53  78 112 155 199 236 287 357
#     4  11  23  42  66  91 121 160 200 250 319 383
#     4  10  21  39  63  93 118 151 206 256 304 371
#     4  11  22  41  64  87 122 158 205 257 305 365
#     4  10  20  33  56  83 114 153 192 248 299 343
#     4  11  23  38  57  87 122 164 208 250 306 366
#     4  10  21  36  56  88 119 153 205 250 301 356
#     4  11  21  34  54  82 119 159 201 242 290 354
#
# _framework density 19.188003999999999
#
# number of rings (size 3 to 8) (size 9 to 14) (size 15 to 20)
#    0.000    1.500    2.500    4.500    0.000    2.000 
#    0.000    3.750    0.000    0.000    0.000    6.125 
#    0.000    0.000    0.000    0.000    0.000    0.000 
#
# Total GULP energy -178268.864082 kJ/mol
# GULP energy per Si atom -5570.902003 kJ/mol
# Density = 1.914433 g / cm^3
# Si number density = 19.188004 Si / 1000 Ang^3
#
#
#
# Elastic Constant Matrix: (Units=GPa)
#
#
# Indices 1 2 3 4 5 6 
#
# 1 88.3794 11.7142 34.1970 -0.0001 -1.4157 0.0000
# 2 11.7142 75.7713 41.2946 0.0001 -9.0844 0.0001
# 3 34.1970 41.2946 92.2980 -0.0011 12.2467 0.0003
# 4 -0.0001 0.0001 -0.0011 28.9306 0.0005 -4.6141
# 5 -1.4157 -9.0844 12.2467 0.0005 26.3447 0.0000
# 6 0.0000 0.0001 0.0003 -4.6141 0.0000 18.0485
#
#
#
# Elastic Compliance Matrix: (Units=1/GPa)
#
#
# Indices 1 2 3 4 5 6 
#
# 1 0.013653 0.001988 -0.006540 0.000000 0.004459 0.000000
# 2 0.001988 0.020817 -0.011741 -0.000001 0.012743 0.000000
# 3 -0.006540 -0.011741 0.020349 0.000001 -0.013860 0.000000
# 4 0.000000 -0.000001 0.000001 0.036035 -0.000001 0.009212
# 5 0.004459 0.012743 -0.013860 -0.000001 0.049035 0.000000
# 6 0.000000 0.000000 0.000000 0.009212 0.000000 0.057761
#
#
# Mechanical properties :
#
#
# Convention : Reuss Voigt Hill
#
# Bulk Modulus (GPa) = 44.97602 47.87335 46.42469
# Shear Modulus (GPa) = 21.03962 25.94764 23.49363
#
# Velocity S-wave (km/s) = 3.31493 3.68133 3.50293
# Velocity P-wave (km/s) = 6.17594 6.56303 6.37243
#
# Compressibility (1/GPa) = 0.02223407
#
# Stress axis : x y z
#
# Youngs Moduli (GPa) = 73.24277 48.03829 49.14155
#
# Poissons Ratio (x) = -0.09550 0.32137
# Poissons Ratio (y) = -0.14560 0.57696
# Poissons Ratio (z) = 0.47898 0.56401
#
# Static dielectric constant tensor:
#      x y z
#    x 1.701850 0.000000 0.018110 
#    y 0.000000 1.719970 0.000000 
#    z 0.018110 0.000000 1.694810 
# 
# From -- ./inp_files/359034.got.cif
#   From: 2010.05.17/outbox.cif.g08.bks.cpg/sg12_180_cif.got.tgz:359034.got - 2010.06.03 13:09:07.
