data_PCOD9182121
_publ_section_title
;
Structure prediction by ZEFSAII (Michael W. Deem and Ramdas Pophale) SiO2 
 PCOD9182121
Probable space group: C 2/M
;
_chemical_formula_sum "Si O2"
_cell_formula_units_Z 64
_cell_length_a 22.553250
_cell_length_b 23.722324
_cell_length_c 12.811444
_cell_angle_alpha 90.000000
_cell_angle_beta 28.856151
_cell_angle_gamma 90.000000
_cell_volume 3307.979295
_symmetry_space_group_name_H-M "C 2/M"
_symmetry_group_IT_number 12
_symmetry_cell_setting 'monoclinic'
loop_
_space_group_symop_operation_xyz
x,y,z
-x,y,-z
-x,-y,-z
x,-y,z
1/2+x,1/2+y,z
1/2-x,1/2+y,-z
1/2-x,1/2-y,-z
1/2+x,1/2-y,z
loop_
_atom_site_type_symbol
_atom_site_label
_atom_site_fract_x
_atom_site_fract_y
_atom_site_fract_z
Si Si1 0.699401 0.174879 0.694925
Si Si2 0.650994 0.264296 0.246247
Si Si3 0.854606 0.898671 0.739951
Si Si4 0.895520 0.935955 0.902982
Si Si5 0.309895 0.437456 0.585230
Si Si6 0.511344 0.218312 0.134755
Si Si7 0.830251 0.719638 0.562515
Si Si8 0.599021 0.342530 0.931299
O O1 0.747938 0.112064 0.614291
O O2 0.605491 0.198150 0.753733
O O3 0.807368 0.220032 0.542433
O O4 0.622312 0.181497 0.920995
O O5 0.500000 0.256686 0.500000
O O6 0.663215 0.331666 0.237305
O O7 0.696018 0.228467 0.275917
O O8 0.750000 0.250000 0.000000
O O9 0.829814 0.921295 0.894459
O O10 0.789972 0.926532 0.739709
O O11 0.000000 0.909888 0.500000
O O12 0.873348 0.888443 0.023598
O O13 0.043166 0.933992 0.657672
O O14 0.864194 0.000000 0.982726
O O15 0.268177 0.500000 0.621124
O O16 0.469604 0.206606 0.316712
O O17 0.544054 0.283220 0.059936
O O18 0.727611 0.676309 0.681342
O O19 0.500000 0.363636 0.000000
#
# Coordination Sequence:
#
# PCOD9182121 Si02
#       8
#     8   8   8   8   8   8   8   8
#     4  10  19  35  53  81 110 140 187 231 276 333
#     4  11  24  36  55  87 120 154 186 235 293 349
#     4   9  18  33  51  78 111 142 178 224 282 339
#     4  10  21  35  53  75 110 144 180 229 278 334
#     4  10  19  32  56  81 103 140 184 231 280 329
#     4  10  21  35  53  80 109 149 182 224 283 338
#     4  11  21  34  58  81 115 149 185 233 280 351
#     4  11  22  35  55  82 110 147 190 229 280 338
#
# _framework density 19.347159000000001
#
# number of rings (size 3 to 8) (size 9 to 14) (size 15 to 20)
#    0.000    1.750    3.750    2.250    8.750    1.750 
#    0.000    1.250    0.000    0.750    0.000    0.000 
#    0.000    5.500    0.000    0.000    0.000    0.000 
#
# Total GULP energy -178229.408901 kJ/mol
# GULP energy per Si atom -5569.669028 kJ/mol
# Density = 1.930312 g / cm^3
# Si number density = 19.347159 Si / 1000 Ang^3
#
#
#
# Elastic Constant Matrix: (Units=GPa)
#
#
# Indices 1 2 3 4 5 6 
#
# 1 43.6339 22.7970 7.2504 0.0005 -0.3428 -0.0001
# 2 22.7970 113.2562 14.3706 0.0005 1.0661 -0.0003
# 3 7.2504 14.3706 92.6037 0.0013 3.9517 -0.0009
# 4 0.0005 0.0005 0.0013 15.0388 -0.0006 1.5212
# 5 -0.3428 1.0661 3.9517 -0.0006 20.5152 0.0005
# 6 -0.0001 -0.0003 -0.0009 1.5212 0.0005 21.0672
#
#
#
# Elastic Compliance Matrix: (Units=1/GPa)
#
#
# Indices 1 2 3 4 5 6 
#
# 1 0.025767 -0.005033 -0.001276 0.000000 0.000938 0.000000
# 2 -0.005033 0.009991 -0.001140 0.000000 -0.000384 0.000000
# 3 -0.001276 -0.001140 0.011166 -0.000001 -0.002113 0.000001
# 4 0.000000 0.000000 -0.000001 0.066984 0.000002 -0.004837
# 5 0.000938 -0.000384 -0.002113 0.000002 0.049187 -0.000002
# 6 0.000000 0.000000 0.000001 -0.004837 -0.000002 0.047816
#
#
# Mechanical properties :
#
#
# Convention : Reuss Voigt Hill
#
# Bulk Modulus (GPa) = 31.22629 37.59220 34.40925
# Shear Modulus (GPa) = 21.14293 24.99595 23.06944
#
# Velocity S-wave (km/s) = 3.30937 3.59830 3.45685
# Velocity P-wave (km/s) = 5.54775 6.06104 5.81007
#
# Compressibility (1/GPa) = 0.03202429
#
# Stress axis : x y z
#
# Youngs Moduli (GPa) = 38.80898 100.09034 89.56002
#
# Poissons Ratio (x) = 0.50380 0.11431
# Poissons Ratio (y) = 0.19534 0.10210
# Poissons Ratio (z) = 0.04953 0.11410
#
# Static dielectric constant tensor:
#      x y z
#    x 1.762760 0.000000 0.031550 
#    y 0.000000 1.641530 0.000000 
#    z 0.031550 0.000000 1.751280 
# 
# From -- ./inp_files/178416.got.cif
#   From: 2010.05.17/outbox.cif.g08.bks.cpg/sg12_90_cif.got.tgz:178416.got - 2010.06.03 13:09:07.
