data_PCOD9182942
_publ_section_title
;
Structure prediction by ZEFSAII (Michael W. Deem and Ramdas Pophale) SiO2 
 PCOD9182942
Probable space group: C 2/M
;
_chemical_formula_sum "Si O2"
_cell_formula_units_Z 64
_cell_length_a 21.856527
_cell_length_b 26.458861
_cell_length_c 18.360796
_cell_angle_alpha 90.000000
_cell_angle_beta 161.334263
_cell_angle_gamma 90.000000
_cell_volume 3398.262205
_symmetry_space_group_name_H-M "C 2/M"
_symmetry_group_IT_number 12
_symmetry_cell_setting 'monoclinic'
loop_
_space_group_symop_operation_xyz
x,y,z
-x,y,-z
-x,-y,-z
x,-y,z
1/2+x,1/2+y,z
1/2-x,1/2+y,-z
1/2-x,1/2-y,-z
1/2+x,1/2-y,z
loop_
_atom_site_type_symbol
_atom_site_label
_atom_site_fract_x
_atom_site_fract_y
_atom_site_fract_z
Si Si1 0.303354 0.862166 0.083602
Si Si2 0.764687 0.307958 0.621547
Si Si3 0.410539 0.882990 0.978276
Si Si4 0.453069 0.940683 0.729667
Si Si5 0.597551 0.671021 0.705447
Si Si6 0.440166 0.297488 0.849255
Si Si7 0.607557 0.629062 0.317196
Si Si8 0.373016 0.788993 0.287799
O O1 0.430056 0.908372 0.198192
O O2 0.407488 0.822978 0.255075
O O3 0.228276 0.835167 0.925256
O O4 0.110937 0.880576 0.907323
O O5 0.619327 0.337145 0.511797
O O6 0.796313 0.248935 0.672019
O O7 0.683736 0.323282 0.451601
O O8 0.969474 0.333169 0.863722
O O9 0.461988 0.925779 0.095343
O O10 0.500000 0.896093 0.000000
O O11 0.194841 0.864406 0.754083
O O12 0.240131 0.917839 0.486219
O O13 0.460919 0.000000 0.726414
O O14 0.589288 0.729688 0.676521
O O15 0.368771 0.350848 0.737873
O O16 0.500000 0.297775 0.000000
O O17 0.644093 0.290456 0.039780
O O18 0.500000 0.807197 0.500000
#
# Coordination Sequence:
#
# PCOD9182942 Si02
#       8
#     8   8   8   8   8   8   8   8
#     4   9  21  39  55  82 113 146 188 235 279 333
#     4  10  19  33  53  79 116 156 188 216 259 331
#     4  10  21  36  53  83 122 147 184 229 273 332
#     4  10  22  40  64  83 100 144 197 243 295 333
#     4  10  20  33  54  78 116 160 187 213 267 329
#     4  11  21  33  50  82 119 154 183 223 275 329
#     4   9  21  37  56  82 110 144 185 238 278 333
#     4  11  22  32  51  85 119 157 185 220 270 333
#
# _framework density 18.833154
#
# number of rings (size 3 to 8) (size 9 to 14) (size 15 to 20)
#    0.000    2.000    1.250    1.875    5.250    0.750 
#    0.000    0.000    0.000    0.750    0.000    7.000 
#    0.000    0.000    0.000    0.000    0.000    0.000 
#
# Total GULP energy -178389.528107 kJ/mol
# GULP energy per Si atom -5574.672753 kJ/mol
# Density = 1.879029 g / cm^3
# Si number density = 18.833154 Si / 1000 Ang^3
#
#
#
# Elastic Constant Matrix: (Units=GPa)
#
#
# Indices 1 2 3 4 5 6 
#
# 1 74.6491 46.2437 16.8685 -0.0002 2.4766 -0.0001
# 2 46.2437 93.2264 26.6031 -0.0003 -8.2090 0.0001
# 3 16.8685 26.6031 71.5334 -0.0005 13.1219 -0.0003
# 4 -0.0002 -0.0003 -0.0005 4.6590 0.0000 4.1855
# 5 2.4766 -8.2090 13.1219 0.0000 32.4392 -0.0002
# 6 -0.0001 0.0001 -0.0003 4.1855 -0.0002 -0.9233
#
#
#
# Elastic Compliance Matrix: (Units=1/GPa)
#
#
# Indices 1 2 3 4 5 6 
#
# 1 0.019859 -0.010157 -0.000169 0.000000 -0.004018 0.000000
# 2 -0.010157 0.018076 -0.005734 -0.000001 0.007669 0.000000
# 3 -0.000169 -0.005734 0.017731 0.000001 -0.008611 0.000001
# 4 0.000000 -0.000001 0.000001 0.042316 0.000000 0.191818
# 5 -0.004018 0.007669 -0.008611 0.000000 0.036558 -0.000002
# 6 0.000000 0.000000 0.000001 0.191818 -0.000002 -0.213520
#
#
# Mechanical properties :
#
#
# Convention : Reuss Voigt Hill
#
# Bulk Modulus (GPa) = 42.46723 46.53774 44.50248
# Shear Modulus (GPa) = -128.16915 17.21454 -55.47731
#
# Velocity S-wave (km/s) = -8.25850 3.02661 -5.43334
# Velocity P-wave (km/s) = 8.26674 6.08096 3.95985
#
# Compressibility (1/GPa) = 0.02354757
#
# Stress axis : x y z
#
# Youngs Moduli (GPa) = 50.35439 55.32117 56.39710
#
# Poissons Ratio (x) = 0.56187 0.00952
# Poissons Ratio (y) = 0.51143 0.32340
# Poissons Ratio (z) = 0.00850 0.31723
#
# Static dielectric constant tensor:
#      x y z
#    x 1.765170 0.000000 0.039080 
#    y 0.000000 1.591360 0.000000 
#    z 0.039080 0.000000 1.721560 
# 
# From -- ./inp_files/286691.got.cif
#   From: 2010.05.17/outbox.cif.g08.bks.cpg/sg12_144_cif.got.tgz:286691.got - 2010.06.03 13:09:07.
