data_PCOD9182389
_publ_section_title
;
Structure prediction by ZEFSAII (Michael W. Deem and Ramdas Pophale) SiO2 
 PCOD9182389
Probable space group: C 2/M
;
_chemical_formula_sum "Si O2"
_cell_formula_units_Z 52
_cell_length_a 20.658561
_cell_length_b 17.896519
_cell_length_c 12.798044
_cell_angle_alpha 90.000000
_cell_angle_beta 32.010269
_cell_angle_gamma 90.000000
_cell_volume 2508.109429
_symmetry_space_group_name_H-M "C 2/M"
_symmetry_group_IT_number 12
_symmetry_cell_setting 'monoclinic'
loop_
_space_group_symop_operation_xyz
x,y,z
-x,y,-z
-x,-y,-z
x,-y,z
1/2+x,1/2+y,z
1/2-x,1/2+y,-z
1/2-x,1/2-y,-z
1/2+x,1/2-y,z
loop_
_atom_site_type_symbol
_atom_site_label
_atom_site_fract_x
_atom_site_fract_y
_atom_site_fract_z
Si Si1 0.593689 0.140506 0.467158
Si Si2 0.431668 0.584038 0.300624
Si Si3 0.000000 0.165640 0.000000
Si Si4 0.345920 0.733595 0.460880
Si Si5 0.887672 0.583787 0.903341
Si Si6 0.287718 0.382508 0.046503
Si Si7 0.117035 0.261485 0.000214
O O1 0.500000 0.157747 0.500000
O O2 0.648949 0.214753 0.444164
O O3 0.513549 0.099331 0.665777
O O4 0.704352 0.095823 0.260747
O O5 0.387176 0.500000 0.368953
O O6 0.439085 0.613632 0.170963
O O7 0.351426 0.644667 0.472518
O O8 0.574305 0.588334 0.139188
O O9 0.100440 0.220715 0.912249
O O10 0.250000 0.750000 0.500000
O O11 0.479927 0.750514 0.230906
O O12 0.889360 0.500000 0.943479
O O13 0.782914 0.592248 0.958905
O O14 0.861985 0.650878 0.019367
O O15 0.299568 0.292130 0.042189
#
# Coordination Sequence:
#
# PCOD9182389 Si02
#       7
#     8   8   4   8   8   8   8
#     4   9  19  33  51  77 104 139 180 210 255 314
#     4  10  20  33  53  81 107 129 167 221 268 303
#     4   8  17  32  49  72 100 130 170 210 249 302
#     4   9  19  33  53  72 103 143 175 204 256 323
#     4  10  19  33  50  77 110 136 168 215 264 306
#     4   9  18  31  55  77 101 136 172 212 256 315
#     4   9  19  33  52  72 100 138 181 205 251 316
#
# _framework density 20.732748999999998
#
# number of rings (size 3 to 8) (size 9 to 14) (size 15 to 20)
#    0.000    3.077    0.000    1.154    8.615    4.615 
#    0.000    3.462    0.000    1.385    0.000    0.000 
#    0.000    0.000    0.000    0.000    0.000    0.000 
#
# Total GULP energy -144826.445714 kJ/mol
# GULP energy per Si atom -5570.247912 kJ/mol
# Density = 2.068556 g / cm^3
# Si number density = 20.732749 Si / 1000 Ang^3
#
#
#
# Elastic Constant Matrix: (Units=GPa)
#
#
# Indices 1 2 3 4 5 6 
#
# 1 36.9646 27.1590 3.7311 0.0000 -5.6708 0.0000
# 2 27.1590 176.3615 -3.2955 0.0000 -10.3491 0.0000
# 3 3.7311 -3.2955 47.7254 0.0000 -14.2278 0.0000
# 4 0.0000 0.0000 0.0000 8.8886 0.0000 -2.4143
# 5 -5.6708 -10.3491 -14.2278 0.0000 13.7952 0.0000
# 6 0.0000 0.0000 0.0000 -2.4143 0.0000 12.0929
#
#
#
# Elastic Compliance Matrix: (Units=1/GPa)
#
#
# Indices 1 2 3 4 5 6 
#
# 1 0.031726 -0.004292 0.000219 0.000000 0.010047 0.000000
# 2 -0.004292 0.006727 0.002568 0.000000 0.005931 0.000000
# 3 0.000219 0.002568 0.031355 0.000000 0.034355 0.000000
# 4 0.000000 0.000000 0.000000 0.118954 0.000000 0.023749
# 5 0.010047 0.005931 0.034355 0.000000 0.116502 0.000000
# 6 0.000000 0.000000 0.000000 0.023749 0.000000 0.087435
#
#
# Mechanical properties :
#
#
# Convention : Reuss Voigt Hill
#
# Bulk Modulus (GPa) = 14.97054 35.13786 25.05420
# Shear Modulus (GPa) = 11.96244 22.51912 17.24078
#
# Velocity S-wave (km/s) = 2.40465 3.29927 2.88683
# Velocity P-wave (km/s) = 3.86603 5.61234 4.81895
#
# Compressibility (1/GPa) = 0.06679788
#
# Stress axis : x y z
#
# Youngs Moduli (GPa) = 31.52027 148.65123 31.89241
#
# Poissons Ratio (x) = 0.63801 -0.00697
# Poissons Ratio (y) = 0.13528 -0.08191
# Poissons Ratio (z) = -0.00689 -0.38177
#
# Static dielectric constant tensor:
#      x y z
#    x 1.774830 0.000000 0.056720 
#    y 0.000000 1.798850 0.000000 
#    z 0.056720 0.000000 1.854880 
# 
# From -- ./inp_files/234436.got.cif
#   From: 2010.05.17/outbox.cif.g08.bks.cpg/sg12_118_cif.got.tgz:234436.got - 2010.06.03 13:09:07.
