data_PCOD9182177
_publ_section_title
;
Structure prediction by ZEFSAII (Michael W. Deem and Ramdas Pophale) SiO2 
 PCOD9182177
Probable space group: C 2/M
;
_chemical_formula_sum "Si O2"
_cell_formula_units_Z 64
_cell_length_a 20.395949
_cell_length_b 8.845943
_cell_length_c 22.053796
_cell_angle_alpha 90.000000
_cell_angle_beta 120.721104
_cell_angle_gamma 90.000000
_cell_volume 3420.583760
_symmetry_space_group_name_H-M "C 2/M"
_symmetry_group_IT_number 12
_symmetry_cell_setting 'monoclinic'
loop_
_space_group_symop_operation_xyz
x,y,z
-x,y,-z
-x,-y,-z
x,-y,z
1/2+x,1/2+y,z
1/2-x,1/2+y,-z
1/2-x,1/2-y,-z
1/2+x,1/2-y,z
loop_
_atom_site_type_symbol
_atom_site_label
_atom_site_fract_x
_atom_site_fract_y
_atom_site_fract_z
Si Si1 0.352007 0.180201 0.090171
Si Si2 0.348377 0.181369 0.706219
Si Si3 0.195773 0.320587 0.063937
Si Si4 0.729461 0.179481 0.554906
Si Si5 0.411807 0.321251 0.450971
Si Si6 0.368372 0.322295 0.290026
Si Si7 0.704160 0.679216 0.193577
Si Si8 0.520623 0.819480 0.752857
O O1 0.281462 0.269433 0.086275
O O2 0.428647 0.211675 0.163314
O O3 0.335610 0.000000 0.088000
O O4 0.353613 0.215151 0.019411
O O5 0.285449 0.252645 0.632375
O O6 0.335414 0.242237 0.767775
O O7 0.432856 0.220059 0.722437
O O8 0.339795 0.000000 0.702121
O O9 0.194312 0.500000 0.073517
O O10 0.172961 0.236287 0.114371
O O11 0.750000 0.250000 0.500000
O O12 0.644268 0.226831 0.533420
O O13 0.737196 0.000000 0.556656
O O14 0.500000 0.279679 0.500000
O O15 0.403871 0.500000 0.461860
O O16 0.386959 0.300969 0.369520
O O17 0.353505 0.500000 0.272463
O O18 0.292991 0.229021 0.237694
O O19 0.438727 0.267445 0.282573
O O20 0.698408 0.500000 0.195911
O O21 0.525002 0.000000 0.743374
#
# Coordination Sequence:
#
# PCOD9182177 Si02
#       8
#     8   8   8   8   8   8   8   8
#     4   9  18  34  55  85 121 155 196 247 302 361
#     4  11  24  43  64  89 122 160 203 248 300 359
#     4  10  19  32  56  87 118 156 199 247 304 358
#     4  12  26  44  66  91 123 163 203 246 298 358
#     4  10  23  43  65  93 126 158 197 250 302 353
#     4  11  22  37  62  91 122 156 198 251 302 353
#     4  12  23  38  60  87 119 160 206 250 299 354
#     4  10  22  39  61  89 123 159 198 249 302 359
#
# _framework density 18.710256000000001
#
# number of rings (size 3 to 8) (size 9 to 14) (size 15 to 20)
#    0.000    1.375    2.500    3.375    1.750    2.250 
#    0.000    0.625    0.000    3.750    0.000    0.000 
#    0.000    0.000    0.000    0.000    0.000    0.000 
#
# Total GULP energy -178886.886293 kJ/mol
# GULP energy per Si atom -5590.215197 kJ/mol
# Density = 1.866767 g / cm^3
# Si number density = 18.710256 Si / 1000 Ang^3
#
#
#
# Elastic Constant Matrix: (Units=GPa)
#
#
# Indices 1 2 3 4 5 6 
#
# 1 105.2794 53.9044 27.9110 0.0000 -17.1368 0.0000
# 2 53.9044 86.3982 35.3343 0.0000 -11.3113 0.0000
# 3 27.9110 35.3343 57.3699 0.0000 -16.4013 0.0000
# 4 0.0000 0.0000 0.0000 24.7441 0.0000 -5.0244
# 5 -17.1368 -11.3113 -16.4013 0.0000 31.2918 0.0000
# 6 0.0000 0.0000 0.0000 -5.0244 0.0000 31.1756
#
#
#
# Elastic Compliance Matrix: (Units=1/GPa)
#
#
# Indices 1 2 3 4 5 6 
#
# 1 0.014674 -0.008248 -0.000723 0.000000 0.004676 0.000000
# 2 -0.008248 0.020120 -0.008930 0.000000 -0.001924 0.000000
# 3 -0.000723 -0.008930 0.026167 0.000000 0.010092 0.000000
# 4 0.000000 0.000000 0.000000 0.041781 0.000000 0.006734
# 5 0.004676 -0.001924 0.010092 0.000000 0.039112 0.000000
# 6 0.000000 0.000000 0.000000 0.006734 0.000000 0.033162
#
#
# Mechanical properties :
#
#
# Convention : Reuss Voigt Hill
#
# Bulk Modulus (GPa) = 39.74256 53.70521 46.72389
# Shear Modulus (GPa) = 22.80995 26.23548 24.52272
#
# Velocity S-wave (km/s) = 3.49537 3.74866 3.62423
# Velocity P-wave (km/s) = 6.13003 6.89221 6.52226
#
# Compressibility (1/GPa) = 0.02516194
#
# Stress axis : x y z
#
# Youngs Moduli (GPa) = 68.14716 49.70173 38.21594
#
# Poissons Ratio (x) = 0.40992 0.02761
# Poissons Ratio (y) = 0.56205 0.34125
# Poissons Ratio (z) = 0.04924 0.44381
#
# Static dielectric constant tensor:
#      x y z
#    x 1.617080 0.000000 -0.002610 
#    y 0.000000 1.626480 0.000000 
#    z -0.002610 0.000000 1.649500 
# 
# From -- ./inp_files/320007.got.cif
#   From: 2010.05.17/outbox.cif.g08.bks.cpg/sg12_161_cif.got.tgz:320007.got - 2010.06.03 13:09:07.
