data_PCOD9182072
_publ_section_title
;
Structure prediction by ZEFSAII (Michael W. Deem and Ramdas Pophale) SiO2 
 PCOD9182072
Probable space group: C 2/M
;
_chemical_formula_sum "Si O2"
_cell_formula_units_Z 40
_cell_length_a 14.775850
_cell_length_b 9.463305
_cell_length_c 14.125966
_cell_angle_alpha 90.000000
_cell_angle_beta 79.418428
_cell_angle_gamma 90.000000
_cell_volume 1941.621351
_symmetry_space_group_name_H-M "C 2/M"
_symmetry_group_IT_number 12
_symmetry_cell_setting 'monoclinic'
loop_
_space_group_symop_operation_xyz
x,y,z
-x,y,-z
-x,-y,-z
x,-y,z
1/2+x,1/2+y,z
1/2-x,1/2+y,-z
1/2-x,1/2-y,-z
1/2+x,1/2-y,z
loop_
_atom_site_type_symbol
_atom_site_label
_atom_site_fract_x
_atom_site_fract_y
_atom_site_fract_z
Si Si1 0.219301 0.332123 0.912687
Si Si2 0.140238 0.163175 0.617627
Si Si3 0.133156 0.334014 0.224694
Si Si4 0.863320 0.661542 0.563509
Si Si5 0.938329 0.666247 0.190297
O O1 0.229651 0.500000 0.923329
O O2 0.285974 0.271147 0.818442
O O3 0.116068 0.302550 0.895702
O O4 0.250000 0.250000 0.000000
O O5 0.108728 0.236797 0.526513
O O6 0.251982 0.169647 0.595644
O O7 0.103447 0.243434 0.716353
O O8 0.112835 0.000000 0.625661
O O9 0.162349 0.500000 0.214905
O O10 0.100047 0.307849 0.338464
O O11 0.047729 0.313527 0.170477
O O12 0.886491 0.500000 0.533752
O O13 0.922210 0.500000 0.214154
#
# Coordination Sequence:
#
# PCOD9182072 Si02
#       5
#     8   8   8   8   8
#     4  11  24  42  64  88 115 149 188 239 296 348
#     4  10  19  32  55  85 118 156 196 238 280 332
#     4  10  21  40  63  87 116 153 196 238 283 341
#     4   9  18  33  55  82 115 157 196 233 281 337
#     4  10  22  39  61  87 117 153 193 237 288 344
#
# _framework density 20.601338999999999
#
# number of rings (size 3 to 8) (size 9 to 14) (size 15 to 20)
#    0.000    2.000    2.000    1.200    0.000    4.800 
#    0.000    8.000    0.000    0.000    0.000    0.000 
#    0.000    0.000    0.000    0.000    0.000    0.000 
#
# Total GULP energy -111753.621495 kJ/mol
# GULP energy per Si atom -5587.681075 kJ/mol
# Density = 2.055445 g / cm^3
# Si number density = 20.601339 Si / 1000 Ang^3
#
#
#
# Elastic Constant Matrix: (Units=GPa)
#
#
# Indices 1 2 3 4 5 6 
#
# 1 64.8726 23.6221 12.4973 0.0000 30.7907 0.0000
# 2 23.6221 49.1678 27.9241 0.0000 19.6662 0.0000
# 3 12.4973 27.9241 63.5980 0.0000 31.6971 0.0000
# 4 0.0000 0.0000 0.0000 40.5075 0.0000 -0.0418
# 5 30.7907 19.6662 31.6971 0.0000 34.7570 0.0000
# 6 0.0000 0.0000 0.0000 -0.0418 0.0000 14.2460
#
#
#
# Elastic Compliance Matrix: (Units=1/GPa)
#
#
# Indices 1 2 3 4 5 6 
#
# 1 0.036566 -0.011113 0.019625 0.000000 -0.044002 0.000000
# 2 -0.011113 0.031816 -0.014153 0.000000 0.004750 0.000000
# 3 0.019625 -0.014153 0.041716 0.000000 -0.047420 0.000000
# 4 0.000000 0.000000 0.000000 0.024687 0.000000 0.000072
# 5 -0.044002 0.004750 -0.047420 0.000000 0.108310 0.000000
# 6 0.000000 0.000000 0.000000 0.000072 0.000000 0.070196
#
#
# Mechanical properties :
#
#
# Convention : Reuss Voigt Hill
#
# Bulk Modulus (GPa) = 10.12001 33.96950 22.04475
# Shear Modulus (GPa) = 13.98557 25.47507 19.73032
#
# Velocity S-wave (km/s) = 2.60833 3.52031 3.09806
# Velocity P-wave (km/s) = 3.74088 5.74876 4.84987
#
# Compressibility (1/GPa) = 0.09881418
#
# Stress axis : x y z
#
# Youngs Moduli (GPa) = 27.34796 31.43090 23.97166
#
# Poissons Ratio (x) = 0.34930 -0.47044
# Poissons Ratio (y) = 0.30392 0.33927
# Poissons Ratio (z) = -0.53669 0.44485
#
# Static dielectric constant tensor:
#      x y z
#    x 1.781870 0.000000 0.025720 
#    y 0.000000 1.684890 0.000000 
#    z 0.025720 0.000000 1.736420 
# 
# From -- ./inp_files/211176.got.cif
#   From: 2010.05.17/outbox.cif.g08.bks.cpg/sg12_106_cif.got.tgz:211176.got - 2010.06.03 13:09:07.
