data_PCOD9182119
_publ_section_title
;
Structure prediction by ZEFSAII (Michael W. Deem and Ramdas Pophale) SiO2 
 PCOD9182119
Probable space group: C 2/M
;
_chemical_formula_sum "Si O2"
_cell_formula_units_Z 50
_cell_length_a 13.238566
_cell_length_b 12.528759
_cell_length_c 14.457446
_cell_angle_alpha 90.000000
_cell_angle_beta 99.266859
_cell_angle_gamma 90.000000
_cell_volume 2366.656901
_symmetry_space_group_name_H-M "C 2/M"
_symmetry_group_IT_number 12
_symmetry_cell_setting 'monoclinic'
loop_
_space_group_symop_operation_xyz
x,y,z
-x,y,-z
-x,-y,-z
x,-y,z
1/2+x,1/2+y,z
1/2-x,1/2+y,-z
1/2-x,1/2-y,-z
1/2+x,1/2-y,z
loop_
_atom_site_type_symbol
_atom_site_label
_atom_site_fract_x
_atom_site_fract_y
_atom_site_fract_z
Si Si1 0.500000 0.000000 0.000000
Si Si2 0.543019 0.372645 0.738142
Si Si3 0.855764 0.311942 0.908188
Si Si4 0.224710 0.622822 0.282063
Si Si5 0.316140 0.114994 0.506937
Si Si6 0.129090 0.126116 0.947791
Si Si7 0.413404 0.675489 0.550945
O O1 0.564354 0.905394 0.062827
O O2 0.521636 0.500000 0.731729
O O3 0.654906 0.354813 0.709584
O O4 0.558976 0.344116 0.848519
O O5 0.462652 0.315982 0.659494
O O6 0.835263 0.300772 0.796281
O O7 0.746297 0.353744 0.932325
O O8 0.883748 0.204451 0.967385
O O9 0.211133 0.500000 0.247494
O O10 0.192148 0.624704 0.383088
O O11 0.385290 0.215142 0.492590
O O12 0.198657 0.123404 0.456426
O O13 0.358130 0.000000 0.486354
O O14 0.115634 0.000000 0.965891
O O15 0.500000 0.620526 0.500000
#
# Coordination Sequence:
#
# PCOD9182119 Si02
#       7
#     2   8   8   8   8   8   8
#     4  12  20  32  50  88 104 144 186 234 288 316
#     4   9  17  31  57  81 108 141 191 233 273 326
#     4  10  19  32  56  80 116 144 188 240 274 340
#     4   9  16  33  54  79 108 146 186 231 279 326
#     4  10  22  36  56  84 115 147 180 232 283 333
#     4   9  18  36  56  82 110 156 188 231 285 338
#     4  11  21  35  58  87 110 143 190 229 279 342
#
# _framework density 21.126849
#
# number of rings (size 3 to 8) (size 9 to 14) (size 15 to 20)
#    0.000    2.240    3.200    1.440    0.000    2.240 
#    0.000    0.400    0.000    4.800    0.000    0.000 
#    0.000    0.000    0.000    0.000    0.000    0.000 
#
# Total GULP energy -139241.280264 kJ/mol
# GULP energy per Si atom -5569.651211 kJ/mol
# Density = 2.107876 g / cm^3
# Si number density = 21.126849 Si / 1000 Ang^3
#
#
#
# Elastic Constant Matrix: (Units=GPa)
#
#
# Indices 1 2 3 4 5 6 
#
# 1 44.6007 1.4649 18.3750 0.0000 9.6806 0.0000
# 2 1.4649 102.8164 36.9537 0.0000 10.0763 0.0000
# 3 18.3750 36.9537 126.0778 0.0000 26.2981 0.0000
# 4 0.0000 0.0000 0.0000 28.4184 0.0000 0.0239
# 5 9.6806 10.0763 26.2981 0.0000 34.4514 0.0000
# 6 0.0000 0.0000 0.0000 0.0239 0.0000 2.0734
#
#
#
# Elastic Compliance Matrix: (Units=1/GPa)
#
#
# Indices 1 2 3 4 5 6 
#
# 1 0.024672 0.001182 -0.002883 0.000000 -0.005078 0.000000
# 2 0.001182 0.010951 -0.003146 0.000000 -0.001134 0.000000
# 3 -0.002883 -0.003146 0.010601 0.000000 -0.006362 0.000000
# 4 0.000000 0.000000 0.000000 0.035189 0.000000 -0.000405
# 5 -0.005078 -0.001134 -0.006362 0.000000 0.035641 0.000000
# 6 0.000000 0.000000 0.000000 -0.000405 0.000000 0.482307
#
#
# Mechanical properties :
#
#
# Convention : Reuss Voigt Hill
#
# Bulk Modulus (GPa) = 27.37382 43.00911 35.19147
# Shear Modulus (GPa) = 8.04854 27.43539 17.74196
#
# Velocity S-wave (km/s) = 1.95394 3.60752 2.90104
# Velocity P-wave (km/s) = 4.25153 6.14443 5.28345
#
# Compressibility (1/GPa) = 0.03653125
#
# Stress axis : x y z
#
# Youngs Moduli (GPa) = 40.53129 91.31656 94.33278
#
# Poissons Ratio (x) = -0.10797 0.27198
# Poissons Ratio (y) = -0.04792 0.29673
# Poissons Ratio (z) = 0.11686 0.28724
#
# Static dielectric constant tensor:
#      x y z
#    x 1.781060 0.000000 -0.006060 
#    y 0.000000 1.786660 0.000000 
#    z -0.006060 0.000000 1.769330 
# 
# From -- ./inp_files/268524.got.cif
#   From: 2010.05.17/outbox.cif.g08.bks.cpg/sg12_135_cif.got.tgz:268524.got - 2010.06.03 13:09:07.
