data_PCOD9182385
_publ_section_title
;
Structure prediction by ZEFSAII (Michael W. Deem and Ramdas Pophale) SiO2 
 PCOD9182385
Probable space group: C 2/M
;
_chemical_formula_sum "Si O2"
_cell_formula_units_Z 64
_cell_length_a 8.666008
_cell_length_b 27.888654
_cell_length_c 18.254810
_cell_angle_alpha 90.000000
_cell_angle_beta 111.581176
_cell_angle_gamma 90.000000
_cell_volume 4102.598160
_symmetry_space_group_name_H-M "C 2/M"
_symmetry_group_IT_number 12
_symmetry_cell_setting 'monoclinic'
loop_
_space_group_symop_operation_xyz
x,y,z
-x,y,-z
-x,-y,-z
x,-y,z
1/2+x,1/2+y,z
1/2-x,1/2+y,-z
1/2-x,1/2-y,-z
1/2+x,1/2-y,z
loop_
_atom_site_type_symbol
_atom_site_label
_atom_site_fract_x
_atom_site_fract_y
_atom_site_fract_z
Si Si1 0.054097 0.848566 0.426073
Si Si2 0.756739 0.784618 0.829981
Si Si3 0.051064 0.651868 0.703284
Si Si4 0.573497 0.767323 0.940447
Si Si5 0.277932 0.445358 0.545816
Si Si6 0.496488 0.054907 0.622609
Si Si7 0.641266 0.209550 0.577956
Si Si8 0.232423 0.207203 0.700173
O O1 0.085377 0.904923 0.420236
O O2 0.226851 0.821515 0.443038
O O3 0.076559 0.826126 0.653503
O O4 0.000000 0.841478 0.500000
O O5 0.720654 0.829736 0.771272
O O6 0.627622 0.791211 0.874046
O O7 0.718227 0.737054 0.773585
O O8 0.939243 0.773615 0.894291
O O9 0.026198 0.595603 0.687784
O O10 0.056818 0.675228 0.623429
O O11 0.897733 0.676196 0.718822
O O12 0.500000 0.793406 0.000000
O O13 0.750000 0.750000 0.000000
O O14 0.339933 0.500000 0.553139
O O15 0.145950 0.442462 0.589401
O O16 0.170774 0.435497 0.453493
O O17 0.489712 0.000000 0.648233
O O18 0.500000 0.228894 0.500000
O O19 0.731289 0.251857 0.637284
#
# Coordination Sequence:
#
# PCOD9182385 Si02
#       8
#     8   8   8   8   8   8   8   8
#     4  12  23  32  45  66  90 124 173 215 257 290
#     4  10  19  33  50  76 104 135 159 186 237 284
#     4  11  20  32  50  67  95 132 165 203 247 287
#     4   9  18  33  54  76 103 134 157 185 219 279
#     4   9  18  33  49  64  84 117 169 229 269 293
#     4   9  17  31  51  68  85 120 172 219 257 294
#     4  11  21  33  45  60  89 131 174 205 237 290
#     4  11  23  32  44  67 101 132 162 201 243 285
#
# _framework density 15.599871
#
# number of rings (size 3 to 8) (size 9 to 14) (size 15 to 20)
#    0.000    1.750    2.500    4.875    1.750    1.750 
#    0.000    0.625    0.000    0.000    0.000    0.000 
#    0.000    5.000    0.000    0.000    0.000    1.625 
#
# Total GULP energy -178360.379062 kJ/mol
# GULP energy per Si atom -5573.761846 kJ/mol
# Density = 1.556436 g / cm^3
# Si number density = 15.599871 Si / 1000 Ang^3
#
#
#
# Elastic Constant Matrix: (Units=GPa)
#
#
# Indices 1 2 3 4 5 6 
#
# 1 50.3706 19.9598 24.5985 0.0000 0.6775 0.0000
# 2 19.9598 102.2717 34.4722 0.0000 7.7760 0.0000
# 3 24.5985 34.4722 76.6492 0.0000 4.1625 0.0000
# 4 0.0000 0.0000 0.0000 9.9814 0.0000 1.4504
# 5 0.6775 7.7760 4.1625 0.0000 28.8971 0.0000
# 6 0.0000 0.0000 0.0000 1.4504 0.0000 32.4732
#
#
#
# Elastic Compliance Matrix: (Units=1/GPa)
#
#
# Indices 1 2 3 4 5 6 
#
# 1 0.024092 -0.002544 -0.006646 0.000000 0.001077 0.000000
# 2 -0.002544 0.011957 -0.004424 0.000000 -0.002521 0.000000
# 3 -0.006646 -0.004424 0.017231 0.000000 -0.001136 0.000000
# 4 0.000000 0.000000 0.000000 0.100841 0.000000 -0.004504
# 5 0.001077 -0.002521 -0.001136 0.000000 0.035422 0.000000
# 6 0.000000 0.000000 0.000000 -0.004504 0.000000 0.030996
#
#
# Mechanical properties :
#
#
# Convention : Reuss Voigt Hill
#
# Bulk Modulus (GPa) = 38.38531 43.03915 40.71223
# Shear Modulus (GPa) = 19.49688 24.28773 21.89231
#
# Velocity S-wave (km/s) = 3.53910 3.95006 3.75021
# Velocity P-wave (km/s) = 6.43117 6.96084 6.70124
#
# Compressibility (1/GPa) = 0.02605163
#
# Stress axis : x y z
#
# Youngs Moduli (GPa) = 41.50766 83.63102 58.03523
#
# Poissons Ratio (x) = 0.21272 0.38571
# Poissons Ratio (y) = 0.10558 0.25678
# Poissons Ratio (z) = 0.27587 0.37003
#
# Static dielectric constant tensor:
#      x y z
#    x 1.571300 0.000000 -0.013000 
#    y 0.000000 1.521220 0.000000 
#    z -0.013000 0.000000 1.546360 
# 
# From -- ./inp_files/259964.got.cif
#   From: 2010.05.17/outbox.cif.g08.bks.cpg/sg12_130_cif.got.tgz:259964.got - 2010.06.03 13:09:07.
