data_PCOD9182140
_publ_section_title
;
Structure prediction by ZEFSAII (Michael W. Deem and Ramdas Pophale) SiO2 
 PCOD9182140
Probable space group: C 2/M
;
_chemical_formula_sum "Si O2"
_cell_formula_units_Z 48
_cell_length_a 19.012525
_cell_length_b 14.423999
_cell_length_c 14.126661
_cell_angle_alpha 90.000000
_cell_angle_beta 132.293510
_cell_angle_gamma 90.000000
_cell_volume 2865.661729
_symmetry_space_group_name_H-M "C 2/M"
_symmetry_group_IT_number 12
_symmetry_cell_setting 'monoclinic'
loop_
_space_group_symop_operation_xyz
x,y,z
-x,y,-z
-x,-y,-z
x,-y,z
1/2+x,1/2+y,z
1/2-x,1/2+y,-z
1/2-x,1/2-y,-z
1/2+x,1/2-y,z
loop_
_atom_site_type_symbol
_atom_site_label
_atom_site_fract_x
_atom_site_fract_y
_atom_site_fract_z
Si Si1 0.606230 0.000000 0.636683
Si Si2 0.148992 0.290535 0.639820
Si Si3 0.343129 0.810369 0.853141
Si Si4 0.903433 0.500000 0.145658
Si Si5 0.009172 0.790535 0.360180
Si Si6 0.489988 0.189631 0.146859
Si Si7 0.030454 0.000000 0.636684
Si Si8 0.742224 0.000000 0.145657
O O1 0.500000 0.000000 0.500000
O O2 0.648429 0.098006 0.641240
O O3 0.605839 0.000000 0.750268
O O4 0.255116 0.254651 0.749188
O O5 0.082181 0.250001 0.664363
O O6 0.098586 0.250000 0.500000
O O7 0.416975 0.818319 0.833951
O O8 0.298951 0.909861 0.839584
O O9 0.404496 0.778786 0.000000
O O10 0.959367 0.590139 0.160416
O O11 0.802135 0.500000 0.000000
O O12 0.007187 0.901994 0.358759
O O13 0.005929 0.754652 0.250813
O O14 0.000000 0.000000 0.500000
O O15 0.144430 0.000000 0.750269
#
# Coordination Sequence:
#
# PCOD9182140 Si02
#       8
#     4   8   8   4   8   8   4   4
#     4  12  20  35  56  84 114 138 182 227 274 324
#     4  11  21  36  58  83 110 147 179 227 274 326
#     4  10  21  37  56  81 114 148 184 226 273 324
#     4  10  19  32  56  84 109 142 184 232 273 314
#     4  11  21  36  58  83 110 147 179 227 274 326
#     4  10  21  37  56  81 114 148 184 226 273 324
#     4  12  20  35  56  84 114 138 182 227 274 324
#     4  10  19  32  56  84 109 142 184 232 273 314
#
# _framework density 16.750057999999999
#
# number of rings (size 3 to 8) (size 9 to 14) (size 15 to 20)
#    0.000    1.333    6.667    0.500    0.000    4.667 
#    0.000    0.833    0.000    2.000    0.000    0.000 
#    0.000    0.000    0.000    0.000    0.000    0.000 
#
# Total GULP energy -133929.154643 kJ/mol
# GULP energy per Si atom -5580.381443 kJ/mol
# Density = 1.671193 g / cm^3
# Si number density = 16.750058 Si / 1000 Ang^3
#
#
#
# Elastic Constant Matrix: (Units=GPa)
#
#
# Indices 1 2 3 4 5 6 
#
# 1 55.3702 46.0868 84.6862 0.0000 -4.6142 0.0000
# 2 46.0868 157.2212 89.7533 0.0000 -2.0465 0.0000
# 3 84.6862 89.7533 166.0039 0.0000 -0.5707 0.0000
# 4 0.0000 0.0000 0.0000 22.6448 0.0000 -0.8086
# 5 -4.6142 -2.0465 -0.5707 0.0000 34.3795 0.0000
# 6 0.0000 0.0000 0.0000 -0.8086 0.0000 5.4439
#
#
#
# Elastic Compliance Matrix: (Units=1/GPa)
#
#
# Indices 1 2 3 4 5 6 
#
# 1 0.086027 -0.000064 -0.043815 0.000000 0.010815 0.000000
# 2 -0.000064 0.009208 -0.004944 0.000000 0.000457 0.000000
# 3 -0.043815 -0.004944 0.031029 0.000000 -0.005660 0.000000
# 4 0.000000 0.000000 0.000000 0.044396 0.000000 0.006594
# 5 0.010815 0.000457 -0.005660 0.000000 0.030472 0.000000
# 6 0.000000 0.000000 0.000000 0.006594 0.000000 0.184670
#
#
# Mechanical properties :
#
#
# Convention : Reuss Voigt Hill
#
# Bulk Modulus (GPa) = 34.94200 91.07198 63.00699
# Shear Modulus (GPa) = 10.14226 23.03158 16.58692
#
# Velocity S-wave (km/s) = 2.46337 3.71214 3.15025
# Velocity P-wave (km/s) = 5.38489 8.53595 7.13651
#
# Compressibility (1/GPa) = 0.02861885
#
# Stress axis : x y z
#
# Youngs Moduli (GPa) = 11.62421 108.60583 32.22745
#
# Poissons Ratio (x) = 0.00696 1.41204
# Poissons Ratio (y) = 0.00075 0.15933
# Poissons Ratio (z) = 0.50931 0.53695
#
# Static dielectric constant tensor:
#      x y z
#    x 1.528950 0.000000 -0.001540 
#    y 0.000000 1.665050 0.000000 
#    z -0.001540 0.000000 1.561850 
# 
# From -- ./inp_files/233512.got.cif
#   From: 2010.05.17/outbox.cif.g08.bks.cpg/sg12_117_cif.got.tgz:233512.got - 2010.06.03 13:09:07.
