data_PCOD9182224
_publ_section_title
;
Structure prediction by ZEFSAII (Michael W. Deem and Ramdas Pophale) SiO2 
 PCOD9182224
Probable space group: C 2/M
;
_chemical_formula_sum "Si O2"
_cell_formula_units_Z 48
_cell_length_a 10.819646
_cell_length_b 22.312427
_cell_length_c 11.232223
_cell_angle_alpha 90.000000
_cell_angle_beta 56.964740
_cell_angle_gamma 90.000000
_cell_volume 2273.229598
_symmetry_space_group_name_H-M "C 2/M"
_symmetry_group_IT_number 12
_symmetry_cell_setting 'monoclinic'
loop_
_space_group_symop_operation_xyz
x,y,z
-x,y,-z
-x,-y,-z
x,-y,z
1/2+x,1/2+y,z
1/2-x,1/2+y,-z
1/2-x,1/2-y,-z
1/2+x,1/2-y,z
loop_
_atom_site_type_symbol
_atom_site_label
_atom_site_fract_x
_atom_site_fract_y
_atom_site_fract_z
Si Si1 0.324917 0.427793 0.095905
Si Si2 0.823460 0.430586 0.338200
Si Si3 0.441969 0.616021 0.393711
Si Si4 0.282176 0.568574 0.856520
Si Si5 0.434640 0.128492 0.666750
Si Si6 0.929154 0.247638 0.404901
O O1 0.303188 0.500000 0.124575
O O2 0.237408 0.387216 0.236494
O O3 0.500000 0.418340 0.000000
O O4 0.264276 0.407325 0.997907
O O5 0.778776 0.500000 0.358457
O O6 0.726398 0.399803 0.492308
O O7 0.794119 0.404507 0.221372
O O8 0.989063 0.421891 0.292066
O O9 0.500000 0.612690 0.500000
O O10 0.543280 0.571774 0.265664
O O11 0.464664 0.682759 0.332101
O O12 0.231952 0.500000 0.889207
O O13 0.500000 0.124440 0.500000
O O14 0.493025 0.192664 0.685810
O O15 0.750000 0.250000 0.500000
O O16 0.000000 0.244377 0.500000
#
# Coordination Sequence:
#
# PCOD9182224 Si02
#       6
#     8   8   8   8   8   8
#     4  10  23  41  60  85 125 168 199 244 312 371
#     4  10  19  32  57  89 119 151 197 251 294 353
#     4   9  17  32  56  86 118 149 196 243 297 356
#     4   9  19  35  57  85 117 154 194 241 302 363
#     4  11  24  39  59  89 120 159 206 253 299 361
#     4  10  20  36  59  88 121 160 201 253 309 359
#
# _framework density 21.115333
#
# number of rings (size 3 to 8) (size 9 to 14) (size 15 to 20)
#    0.000    2.167    1.667    1.000    2.333    4.000 
#    0.000    3.333    0.000    0.000    0.000    0.000 
#    0.000    0.000    0.000    0.000    0.000    0.000 
#
# Total GULP energy -133678.030512 kJ/mol
# GULP energy per Si atom -5569.917938 kJ/mol
# Density = 2.106727 g / cm^3
# Si number density = 21.115333 Si / 1000 Ang^3
#
#
#
# Elastic Constant Matrix: (Units=GPa)
#
#
# Indices 1 2 3 4 5 6 
#
# 1 82.3947 15.5702 21.6562 0.0000 -8.2991 0.0000
# 2 15.5702 70.6838 28.7569 0.0000 -4.5296 0.0000
# 3 21.6562 28.7569 96.5912 0.0000 -2.9418 0.0000
# 4 0.0000 0.0000 0.0000 13.1098 0.0000 -1.7476
# 5 -8.2991 -4.5296 -2.9418 0.0000 35.4809 0.0000
# 6 0.0000 0.0000 0.0000 -1.7476 0.0000 21.0368
#
#
#
# Elastic Compliance Matrix: (Units=1/GPa)
#
#
# Indices 1 2 3 4 5 6 
#
# 1 0.013375 -0.001805 -0.002379 0.000000 0.002701 0.000000
# 2 -0.001805 0.016439 -0.004450 0.000000 0.001307 0.000000
# 3 -0.002379 -0.004450 0.012208 0.000000 -0.000112 0.000000
# 4 0.000000 0.000000 0.000000 0.077133 0.000000 0.006408
# 5 0.002701 0.001307 -0.000112 0.000000 0.028973 0.000000
# 6 0.000000 0.000000 0.000000 0.006408 0.000000 0.048068
#
#
# Mechanical properties :
#
#
# Convention : Reuss Voigt Hill
#
# Bulk Modulus (GPa) = 40.39753 42.40404 41.40078
# Shear Modulus (GPa) = 22.55135 26.17126 24.36130
#
# Velocity S-wave (km/s) = 3.27158 3.52439 3.40034
# Velocity P-wave (km/s) = 5.78311 6.05702 5.92165
#
# Compressibility (1/GPa) = 0.02475399
#
# Stress axis : x y z
#
# Youngs Moduli (GPa) = 74.76525 60.82990 81.91599
#
# Poissons Ratio (x) = 0.10982 0.19488
# Poissons Ratio (y) = 0.13498 0.36450
# Poissons Ratio (z) = 0.17787 0.27067
#
# Static dielectric constant tensor:
#      x y z
#    x 1.708740 0.000000 -0.011590 
#    y 0.000000 1.794010 0.000000 
#    z -0.011590 0.000000 1.789080 
# 
# From -- ./inp_files/133715.got.cif
#   From: 2010.05.17/outbox.cif.g08.bks.cpg/sg12_67_cif.got.tgz:133715.got - 2010.06.03 13:09:07.
