data_PCOD9182783
_publ_section_title
;
Structure prediction by ZEFSAII (Michael W. Deem and Ramdas Pophale) SiO2 
 PCOD9182783
Probable space group: C 2/M
;
_chemical_formula_sum "Si O2"
_cell_formula_units_Z 64
_cell_length_a 24.421698
_cell_length_b 23.726645
_cell_length_c 5.243973
_cell_angle_alpha 90.000000
_cell_angle_beta 67.663768
_cell_angle_gamma 90.000000
_cell_volume 2810.606748
_symmetry_space_group_name_H-M "C 2/M"
_symmetry_group_IT_number 12
_symmetry_cell_setting 'monoclinic'
loop_
_space_group_symop_operation_xyz
x,y,z
-x,y,-z
-x,-y,-z
x,-y,z
1/2+x,1/2+y,z
1/2-x,1/2+y,-z
1/2-x,1/2-y,-z
1/2+x,1/2-y,z
loop_
_atom_site_type_symbol
_atom_site_label
_atom_site_fract_x
_atom_site_fract_y
_atom_site_fract_z
Si Si1 0.462675 0.724670 0.816586
Si Si2 0.846975 0.262848 0.759447
Si Si3 0.251899 0.696970 0.681986
Si Si4 0.352328 0.064276 0.938469
Si Si5 0.846927 0.365935 0.423505
Si Si6 0.332749 0.435799 0.179102
Si Si7 0.286642 0.436399 0.768583
Si Si8 0.535924 0.411370 0.183831
O O1 0.500000 0.739446 0.500000
O O2 0.397608 0.748538 0.873727
O O3 0.457703 0.656552 0.832979
O O4 0.500000 0.741918 0.000000
O O5 0.817086 0.206915 0.689731
O O6 0.869073 0.306259 0.501995
O O7 0.794331 0.294851 0.003562
O O8 0.250000 0.750000 0.500000
O O9 0.219126 0.650242 0.564242
O O10 0.352175 0.091471 0.655409
O O11 0.376360 0.000000 0.894671
O O12 0.376914 0.105004 0.120528
O O13 0.283079 0.058767 0.138020
O O14 0.309162 0.500000 0.256906
O O15 0.323389 0.410186 0.473201
O O16 0.296833 0.406525 0.018466
O O17 0.399092 0.435808 0.963827
O O18 0.310754 0.500000 0.760255
O O19 0.500000 0.427165 0.500000
O O20 0.500000 0.429087 0.000000
#
# Coordination Sequence:
#
# PCOD9182783 Si02
#       8
#     8   8   8   8   8   8   8   8
#     4  10  24  41  61  83 114 161 201 249 313 370
#     4  10  21  41  62  89 127 159 206 265 306 364
#     4   9  20  37  61  89 127 164 196 257 308 363
#     4  11  22  37  56  83 125 165 196 236 293 359
#     4  11  21  37  58  88 120 160 207 247 292 362
#     4  10  19  33  53  75  98 136 189 242 294 338
#     4   9  19  34  49  71 104 140 183 229 274 339
#     4  10  21  38  51  72 104 134 184 239 296 357
#
# _framework density 22.770883000000001
#
# number of rings (size 3 to 8) (size 9 to 14) (size 15 to 20)
#    0.000    2.000    1.250    1.875    3.500    3.500 
#    6.750    0.000    0.000    0.000    0.000    0.000 
#    0.000   10.000    0.000    0.000    0.000    0.125 
#
# Total GULP energy -178367.561655 kJ/mol
# GULP energy per Si atom -5573.986302 kJ/mol
# Density = 2.271906 g / cm^3
# Si number density = 22.770883 Si / 1000 Ang^3
#
#
#
# Elastic Constant Matrix: (Units=GPa)
#
#
# Indices 1 2 3 4 5 6 
#
# 1 87.3855 19.0560 17.4863 0.0000 25.3636 0.0000
# 2 19.0560 93.3968 26.1551 0.0000 27.7828 0.0000
# 3 17.4863 26.1551 129.9101 0.0000 41.3062 0.0000
# 4 0.0000 0.0000 0.0000 26.5868 0.0000 7.4273
# 5 25.3636 27.7828 41.3062 0.0000 37.3025 0.0000
# 6 0.0000 0.0000 0.0000 7.4273 0.0000 19.9116
#
#
#
# Elastic Compliance Matrix: (Units=1/GPa)
#
#
# Indices 1 2 3 4 5 6 
#
# 1 0.014534 0.000083 0.001835 0.000000 -0.011976 0.000000
# 2 0.000083 0.013803 0.000766 0.000000 -0.011186 0.000000
# 3 0.001835 0.000766 0.012154 0.000000 -0.015277 0.000000
# 4 0.000000 0.000000 0.000000 0.041988 0.000000 -0.015662
# 5 -0.011976 -0.011186 -0.015277 0.000000 0.060198 0.000000
# 6 0.000000 0.000000 0.000000 -0.015662 0.000000 0.056064
#
#
# Mechanical properties :
#
#
# Convention : Reuss Voigt Hill
#
# Bulk Modulus (GPa) = 21.80551 48.45413 35.12982
# Shear Modulus (GPa) = 23.96255 33.29319 28.62787
#
# Velocity S-wave (km/s) = 3.24749 3.82788 3.54957
# Velocity P-wave (km/s) = 4.86399 6.39235 5.67981
#
# Compressibility (1/GPa) = 0.04585998
#
# Stress axis : x y z
#
# Youngs Moduli (GPa) = 68.80245 72.44938 82.27951
#
# Poissons Ratio (x) = -0.00603 -0.15097
# Poissons Ratio (y) = -0.00573 -0.06306
# Poissons Ratio (z) = -0.12624 -0.05553
#
# Static dielectric constant tensor:
#      x y z
#    x 1.831950 0.000000 0.031570 
#    y 0.000000 2.010330 0.000000 
#    z 0.031570 0.000000 1.908880 
# 
# From -- ./inp_files/26206.got.cif
#   From: 2010.05.17/outbox.cif.g08.bks.cpg/sg12_14_cif.got.tgz:26206.got - 2010.06.03 13:09:07.
