data_PCOD9182916
_publ_section_title
;
Structure prediction by ZEFSAII (Michael W. Deem and Ramdas Pophale) SiO2 
 PCOD9182916
Probable space group: C 2/M
;
_chemical_formula_sum "Si O2"
_cell_formula_units_Z 56
_cell_length_a 24.350244
_cell_length_b 8.619981
_cell_length_c 16.119561
_cell_angle_alpha 90.000000
_cell_angle_beta 56.278651
_cell_angle_gamma 90.000000
_cell_volume 2814.195395
_symmetry_space_group_name_H-M "C 2/M"
_symmetry_group_IT_number 12
_symmetry_cell_setting 'monoclinic'
loop_
_space_group_symop_operation_xyz
x,y,z
-x,y,-z
-x,-y,-z
x,-y,z
1/2+x,1/2+y,z
1/2-x,1/2+y,-z
1/2-x,1/2-y,-z
1/2+x,1/2-y,z
loop_
_atom_site_type_symbol
_atom_site_label
_atom_site_fract_x
_atom_site_fract_y
_atom_site_fract_z
Si Si1 0.931389 0.689519 0.016705
Si Si2 0.575325 0.184674 0.643934
Si Si3 0.569601 0.813076 0.173563
Si Si4 0.424115 0.684374 0.536949
Si Si5 0.205970 0.312598 0.790434
Si Si6 0.335883 0.686703 0.768632
Si Si7 0.204957 0.816274 0.611444
O O1 0.931740 0.500000 0.017328
O O2 0.866870 0.739420 0.121476
O O3 0.926490 0.738000 0.925078
O O4 0.000000 0.740902 0.000000
O O5 0.500998 0.236300 0.728853
O O6 0.589246 0.226751 0.536840
O O7 0.630076 0.265080 0.654608
O O8 0.579706 0.000000 0.652847
O O9 0.629161 0.754196 0.180093
O O10 0.570440 0.000000 0.174007
O O11 0.500000 0.707828 0.500000
O O12 0.414057 0.500000 0.530706
O O13 0.378441 0.732735 0.651863
O O14 0.206157 0.500000 0.785864
O O15 0.260886 0.266694 0.812020
O O16 0.224343 0.250251 0.684648
O O17 0.338652 0.500000 0.771809
O O18 0.250000 0.750000 0.500000
O O19 0.210644 0.000000 0.607087
#
# Coordination Sequence:
#
# PCOD9182916 Si02
#       7
#     8   8   8   8   8   8   8
#     4   9  18  36  61  85 113 151 197 245 295 349
#     4  11  22  36  58  87 118 154 199 249 296 346
#     4  10  21  36  58  87 116 153 199 244 288 346
#     4  10  19  33  53  78 115 159 196 237 298 358
#     4  10  21  39  62  86 116 156 199 242 293 351
#     4  10  21  36  55  82 116 153 192 241 299 356
#     4  12  25  41  62  88 119 154 193 240 295 354
#
# _framework density 19.899117
#
# number of rings (size 3 to 8) (size 9 to 14) (size 15 to 20)
#    0.000    1.714    1.429    3.429    0.000    6.000 
#    0.000    0.714    0.000    1.714    0.000    0.000 
#    0.000    0.000    0.000    0.000    0.000    0.000 
#
# Total GULP energy -156511.837561 kJ/mol
# GULP energy per Si atom -5589.708484 kJ/mol
# Density = 1.985383 g / cm^3
# Si number density = 19.899117 Si / 1000 Ang^3
#
#
#
# Elastic Constant Matrix: (Units=GPa)
#
#
# Indices 1 2 3 4 5 6 
#
# 1 159.1470 33.3916 69.2476 0.0000 5.1052 0.0000
# 2 33.3916 23.2887 18.2709 -0.0001 -0.1146 0.0000
# 3 69.2476 18.2709 111.9490 -0.0001 9.5073 0.0000
# 4 0.0000 -0.0001 -0.0001 12.5808 0.0000 9.5706
# 5 5.1052 -0.1146 9.5073 0.0000 36.1462 0.0000
# 6 0.0000 0.0000 0.0000 9.5706 0.0000 31.5939
#
#
#
# Elastic Compliance Matrix: (Units=1/GPa)
#
#
# Indices 1 2 3 4 5 6 
#
# 1 0.010840 -0.011818 -0.004749 0.000000 -0.000319 0.000000
# 2 -0.011818 0.062320 -0.003089 0.000001 0.002679 0.000000
# 3 -0.004749 -0.003089 0.012600 0.000000 -0.002653 0.000000
# 4 0.000000 0.000001 0.000000 0.103288 0.000000 -0.031289
# 5 -0.000319 0.002679 -0.002653 0.000000 0.028417 0.000000
# 6 0.000000 0.000000 0.000000 -0.031289 0.000000 0.041130
#
#
# Mechanical properties :
#
#
# Convention : Reuss Voigt Hill
#
# Bulk Modulus (GPa) = 21.52928 59.57832 40.55380
# Shear Modulus (GPa) = 15.95463 27.62916 21.79190
#
# Velocity S-wave (km/s) = 2.83464 3.73025 3.31285
# Velocity P-wave (km/s) = 4.64287 6.96837 5.92091
#
# Compressibility (1/GPa) = 0.04644838
#
# Stress axis : x y z
#
# Youngs Moduli (GPa) = 92.25293 16.04620 79.36687
#
# Poissons Ratio (x) = 0.18963 0.37693
# Poissons Ratio (y) = 1.09023 0.24513
# Poissons Ratio (z) = 0.43813 0.04956
#
# Static dielectric constant tensor:
#      x y z
#    x 1.696070 0.000000 -0.017730 
#    y 0.000000 1.677750 0.000000 
#    z -0.017730 0.000000 1.687540 
# 
# From -- ./inp_files/238291.got.cif
#   From: 2010.05.17/outbox.cif.g08.bks.cpg/sg12_120_cif.got.tgz:238291.got - 2010.06.03 13:09:07.
