data_PCOD9182953
_publ_section_title
;
Structure prediction by ZEFSAII (Michael W. Deem and Ramdas Pophale) SiO2 
 PCOD9182953
Probable space group: C 2/M
;
_chemical_formula_sum "Si O2"
_cell_formula_units_Z 56
_cell_length_a 29.287206
_cell_length_b 12.648492
_cell_length_c 8.992271
_cell_angle_alpha 90.000000
_cell_angle_beta 60.319264
_cell_angle_gamma 90.000000
_cell_volume 2894.042575
_symmetry_space_group_name_H-M "C 2/M"
_symmetry_group_IT_number 12
_symmetry_cell_setting 'monoclinic'
loop_
_space_group_symop_operation_xyz
x,y,z
-x,y,-z
-x,-y,-z
x,-y,z
1/2+x,1/2+y,z
1/2-x,1/2+y,-z
1/2-x,1/2-y,-z
1/2+x,1/2-y,z
loop_
_atom_site_type_symbol
_atom_site_label
_atom_site_fract_x
_atom_site_fract_y
_atom_site_fract_z
Si Si1 0.418917 0.309449 0.174581
Si Si2 0.846381 0.380421 0.209160
Si Si3 0.604852 0.378389 0.240316
Si Si4 0.208358 0.772939 0.934792
Si Si5 0.154997 0.884821 0.466744
Si Si6 0.720489 0.187053 0.419058
Si Si7 0.511874 0.377788 0.205397
O O1 0.395315 0.199277 0.154612
O O2 0.371377 0.370678 0.330316
O O3 0.464289 0.304936 0.226813
O O4 0.445947 0.371924 0.997561
O O5 0.859902 0.500000 0.145628
O O6 0.809666 0.326319 0.140768
O O7 0.817697 0.382655 0.417988
O O8 0.607524 0.500000 0.184095
O O9 0.612548 0.381087 0.404224
O O10 0.547164 0.340520 0.286076
O O11 0.654289 0.318395 0.088902
O O12 0.237873 0.851577 0.769922
O O13 0.250000 0.750000 0.000000
O O14 0.188992 0.780624 0.387858
O O15 0.182035 0.000000 0.413815
O O16 0.750000 0.250000 0.500000
O O17 0.493898 0.500000 0.252517
#
# Coordination Sequence:
#
# PCOD9182953 Si02
#       7
#     8   8   8   8   8   8   8
#     4  10  19  35  57  79 108 144 178 224 278 326
#     4  10  22  39  57  80 111 149 192 233 272 326
#     4  10  21  34  53  83 114 141 176 222 279 342
#     4  11  20  37  58  80 114 145 188 230 280 323
#     4  10  19  33  53  80 110 140 175 218 274 336
#     4   9  20  34  52  78 108 149 183 228 269 318
#     4  10  19  34  57  86 114 141 176 227 287 338
#
# _framework density 19.350096000000001
#
# number of rings (size 3 to 8) (size 9 to 14) (size 15 to 20)
#    0.000    2.000    2.857    1.714    0.000    4.000 
#    0.000    3.571    0.000    0.000    0.000    4.000 
#    0.000    0.000    0.000    0.000    0.000    0.000 
#
# Total GULP energy -155887.142524 kJ/mol
# GULP energy per Si atom -5567.397947 kJ/mol
# Density = 1.930605 g / cm^3
# Si number density = 19.350096 Si / 1000 Ang^3
#
#
#
# Elastic Constant Matrix: (Units=GPa)
#
#
# Indices 1 2 3 4 5 6 
#
# 1 125.6864 45.8936 3.8335 0.0000 23.3079 0.0000
# 2 45.8936 88.8944 11.9530 0.0000 8.9127 0.0000
# 3 3.8335 11.9530 73.0559 0.0000 -0.8102 0.0000
# 4 0.0000 0.0000 0.0000 9.5140 0.0000 11.3125
# 5 23.3079 8.9127 -0.8102 0.0000 28.4912 0.0000
# 6 0.0000 0.0000 0.0000 11.3125 0.0000 8.7027
#
#
#
# Elastic Compliance Matrix: (Units=1/GPa)
#
#
# Indices 1 2 3 4 5 6 
#
# 1 0.011198 -0.005042 0.000153 0.000000 -0.007579 0.000000
# 2 -0.005042 0.014166 -0.002057 0.000000 -0.000365 0.000000
# 3 0.000153 -0.002057 0.014027 0.000000 0.000917 0.000000
# 4 0.000000 0.000000 0.000000 -0.192641 0.000000 0.250412
# 5 -0.007579 -0.000365 0.000917 0.000000 0.041439 0.000000
# 6 0.000000 0.000000 0.000000 0.250412 0.000000 -0.210600
#
#
# Mechanical properties :
#
#
# Convention : Reuss Voigt Hill
#
# Bulk Modulus (GPa) = 39.21744 45.66633 42.44188
# Shear Modulus (GPa) = -16.66558 24.40534 3.86988
#
# Velocity S-wave (km/s) = -2.93792 3.55526 1.41572
# Velocity P-wave (km/s) = 2.96696 6.36431 4.96524
#
# Compressibility (1/GPa) = 0.02549886
#
# Stress axis : x y z
#
# Youngs Moduli (GPa) = 89.29943 70.59365 71.29187
#
# Poissons Ratio (x) = 0.35594 -0.01093
# Poissons Ratio (y) = 0.45025 0.14666
# Poissons Ratio (z) = -0.01369 0.14522
#
# Static dielectric constant tensor:
#      x y z
#    x 0.959020 0.000000 0.027960 
#    y 0.000000 1.660090 0.000000 
#    z 0.027960 0.000000 1.735790 
# 
# From -- ./inp_files/109854.got.cif
#   From: 2010.05.17/outbox.cif.g08.bks.cpg/sg12_55_cif.got.tgz:109854.got - 2010.06.03 13:09:07.
