data_PCOD9182192
_publ_section_title
;
Structure prediction by ZEFSAII (Michael W. Deem and Ramdas Pophale) SiO2 
 PCOD9182192
Probable space group: C 2/M
;
_chemical_formula_sum "Si O2"
_cell_formula_units_Z 56
_cell_length_a 17.961641
_cell_length_b 14.715073
_cell_length_c 20.257352
_cell_angle_alpha 90.000000
_cell_angle_beta 149.131489
_cell_angle_gamma 90.000000
_cell_volume 2747.055191
_symmetry_space_group_name_H-M "C 2/M"
_symmetry_group_IT_number 12
_symmetry_cell_setting 'monoclinic'
loop_
_space_group_symop_operation_xyz
x,y,z
-x,y,-z
-x,-y,-z
x,-y,z
1/2+x,1/2+y,z
1/2-x,1/2+y,-z
1/2-x,1/2-y,-z
1/2+x,1/2-y,z
loop_
_atom_site_type_symbol
_atom_site_label
_atom_site_fract_x
_atom_site_fract_y
_atom_site_fract_z
Si Si1 0.550849 0.798028 0.316485
Si Si2 0.337125 0.895845 0.903303
Si Si3 0.184093 0.350151 0.958451
Si Si4 0.766933 0.102949 0.701620
Si Si5 0.695251 0.217537 0.764445
Si Si6 0.103980 0.900399 0.992064
Si Si7 0.189896 0.893181 0.416197
O O1 0.473193 0.842913 0.194696
O O2 0.441598 0.805945 0.294733
O O3 0.695449 0.853685 0.443934
O O4 0.573104 0.689135 0.324447
O O5 0.229045 0.823736 0.788642
O O6 0.299958 0.000000 0.860780
O O7 0.500000 0.879394 0.000000
O O8 0.326779 0.880171 0.974507
O O9 0.293438 0.403719 0.994235
O O10 0.250000 0.250000 0.000000
O O11 0.685862 0.173581 0.685846
O O12 0.740131 0.109431 0.603542
O O13 0.732911 0.000000 0.696907
O O14 0.939871 0.117875 0.844905
O O15 0.830623 0.171941 0.907378
O O16 0.110536 0.000000 0.028662
O O17 0.147178 0.000000 0.394851
#
# Coordination Sequence:
#
# PCOD9182192 Si02
#       7
#     8   8   8   8   8   8   8
#     4  10  23  40  62  90 117 160 201 242 304 351
#     4  11  24  38  56  88 126 164 197 235 294 358
#     4  11  20  38  61  90 120 155 197 246 298 352
#     4  10  21  36  61  90 121 157 193 245 307 361
#     4  11  22  36  59  86 125 155 194 248 298 366
#     4  10  19  32  56  90 121 151 190 243 307 365
#     4  10  23  42  63  89 118 155 205 252 294 351
#
# _framework density 20.385466000000001
#
# number of rings (size 3 to 8) (size 9 to 14) (size 15 to 20)
#    0.000    1.571    2.857    3.000    2.000    5.714 
#    0.000    1.429    0.000    0.000    0.000    3.000 
#    0.000    0.000    0.000    0.000    0.000    0.000 
#
# Total GULP energy -156355.366407 kJ/mol
# GULP energy per Si atom -5584.120229 kJ/mol
# Density = 2.033907 g / cm^3
# Si number density = 20.385466 Si / 1000 Ang^3
#
#
#
# Elastic Constant Matrix: (Units=GPa)
#
#
# Indices 1 2 3 4 5 6 
#
# 1 83.3647 29.9166 -0.1282 -0.0004 -8.4926 -0.0001
# 2 29.9166 95.6808 3.6149 -0.0014 -0.2731 -0.0005
# 3 -0.1282 3.6149 13.0394 -0.0025 -6.1246 -0.0009
# 4 -0.0004 -0.0014 -0.0025 0.6466 -0.0006 -3.2165
# 5 -8.4926 -0.2731 -6.1246 -0.0006 17.6504 -0.0001
# 6 -0.0001 -0.0005 -0.0009 -3.2165 -0.0001 22.9715
#
#
#
# Elastic Compliance Matrix: (Units=1/GPa)
#
#
# Indices 1 2 3 4 5 6 
#
# 1 0.014621 -0.004760 0.005655 0.000099 0.008924 0.000014
# 2 -0.004760 0.012127 -0.005252 0.000000 -0.003925 0.000000
# 3 0.005655 -0.005252 0.094911 0.001335 0.035573 0.000191
# 4 0.000099 0.000000 0.001335 5.095543 0.000684 0.713487
# 5 0.008924 -0.003925 0.035573 0.000684 0.073233 0.000097
# 6 0.000014 0.000000 0.000191 0.713487 0.000097 0.143436
#
#
# Mechanical properties :
#
#
# Convention : Reuss Voigt Hill
#
# Bulk Modulus (GPa) = 8.85391 28.76573 18.80982
# Shear Modulus (GPa) = 0.91237 18.83247 9.87242
#
# Velocity S-wave (km/s) = 0.66972 3.04274 2.20304
# Velocity P-wave (km/s) = 2.22502 5.14644 3.96463
#
# Compressibility (1/GPa) = 0.11294446
#
# Stress axis : x y z
#
# Youngs Moduli (GPa) = 68.39292 82.46124 10.53619
#
# Poissons Ratio (x) = 0.39250 -0.05958
# Poissons Ratio (y) = 0.32554 0.05534
# Poissons Ratio (z) = -0.38674 0.43311
#
# Static dielectric constant tensor:
#      x y z
#    x 1.728380 0.000000 0.012760 
#    y 0.000000 1.910210 0.000000 
#    z 0.012760 0.000000 1.747190 
# 
# From -- ./inp_files/316754.got.cif
#   From: 2010.05.17/outbox.cif.g08.bks.cpg/sg12_159_cif.got.tgz:316754.got - 2010.06.03 13:09:07.
