data_PCOD9182311
_publ_section_title
;
Structure prediction by ZEFSAII (Michael W. Deem and Ramdas Pophale) SiO2 
 PCOD9182311
Probable space group: C 2/M
;
_chemical_formula_sum "Si O2"
_cell_formula_units_Z 64
_cell_length_a 29.638815
_cell_length_b 25.237155
_cell_length_c 9.918447
_cell_angle_alpha 90.000000
_cell_angle_beta 150.148425
_cell_angle_gamma 90.000000
_cell_volume 3692.839530
_symmetry_space_group_name_H-M "C 2/M"
_symmetry_group_IT_number 12
_symmetry_cell_setting 'monoclinic'
loop_
_space_group_symop_operation_xyz
x,y,z
-x,y,-z
-x,-y,-z
x,-y,z
1/2+x,1/2+y,z
1/2-x,1/2+y,-z
1/2-x,1/2-y,-z
1/2+x,1/2-y,z
loop_
_atom_site_type_symbol
_atom_site_label
_atom_site_fract_x
_atom_site_fract_y
_atom_site_fract_z
Si Si1 0.819751 0.353210 0.769207
Si Si2 0.248557 0.870307 0.307396
Si Si3 0.779734 0.708470 0.921582
Si Si4 0.418416 0.061322 0.694986
Si Si5 0.536085 0.937354 0.741939
Si Si6 0.648576 0.203114 0.622328
Si Si7 0.961975 0.265805 0.053492
Si Si8 0.414887 0.696439 0.179139
O O1 0.751543 0.370775 0.476291
O O2 0.770678 0.327646 0.769219
O O3 0.885007 0.399561 0.994858
O O4 0.878299 0.306099 0.850566
O O5 0.316732 0.917465 0.444849
O O6 0.306791 0.822863 0.391397
O O7 0.148577 0.855792 0.995254
O O8 0.686575 0.737039 0.719551
O O9 0.816055 0.678574 0.147398
O O10 0.853376 0.754534 0.076799
O O11 0.454362 0.066995 0.636981
O O12 0.414867 0.000000 0.724534
O O13 0.500000 0.086079 0.000000
O O14 0.500000 0.922492 0.500000
O O15 0.563305 0.000000 0.809806
O O16 0.542414 0.202917 0.337034
O O17 0.941690 0.215434 0.096947
O O18 0.000000 0.255798 0.000000
O O19 0.500000 0.690583 0.500000
#
# Coordination Sequence:
#
# PCOD9182311 Si02
#       8
#     8   8   8   8   8   8   8   8
#     4  11  22  31  49  74 104 137 174 211 257 309
#     4  11  22  33  53  77 104 136 174 214 261 306
#     4   9  21  33  48  69 100 140 181 214 253 298
#     4  10  20  37  57  79 107 134 165 205 256 315
#     4  10  22  36  52  76 108 138 167 207 253 308
#     4  10  19  33  48  71 101 137 179 213 248 301
#     4  11  21  31  50  71 104 139 176 214 256 300
#     4  10  21  37  50  70 103 140 176 218 260 301
#
# _framework density 17.330836999999999
#
# number of rings (size 3 to 8) (size 9 to 14) (size 15 to 20)
#    0.000    1.750    3.750    0.750    5.250    1.500 
#    0.000    0.000    0.000    0.375    0.000    0.000 
#    0.000    0.500    0.000    0.375    0.000    0.000 
#
# Total GULP energy -178222.159908 kJ/mol
# GULP energy per Si atom -5569.442497 kJ/mol
# Density = 1.729139 g / cm^3
# Si number density = 17.330837 Si / 1000 Ang^3
#
#
#
# Elastic Constant Matrix: (Units=GPa)
#
#
# Indices 1 2 3 4 5 6 
#
# 1 56.1499 10.8532 10.8841 0.0000 -21.3019 0.0000
# 2 10.8532 42.1523 25.0734 0.0000 -2.5202 0.0000
# 3 10.8841 25.0734 67.5723 0.0000 -10.9851 0.0000
# 4 0.0000 0.0000 0.0000 18.5526 0.0000 0.1291
# 5 -21.3019 -2.5202 -10.9851 0.0000 30.9040 0.0000
# 6 0.0000 0.0000 0.0000 0.1291 0.0000 20.8850
#
#
#
# Elastic Compliance Matrix: (Units=1/GPa)
#
#
# Indices 1 2 3 4 5 6 
#
# 1 0.025375 -0.006086 0.000991 0.000000 0.017346 0.000000
# 2 -0.006086 0.031980 -0.011828 0.000000 -0.005791 0.000000
# 3 0.000991 -0.011828 0.020146 0.000000 0.006880 0.000000
# 4 0.000000 0.000000 0.000000 0.053903 0.000000 -0.000333
# 5 0.017346 -0.005791 0.006880 0.000000 0.046288 0.000000
# 6 0.000000 0.000000 0.000000 -0.000333 0.000000 0.047883
#
#
# Mechanical properties :
#
#
# Convention : Reuss Voigt Hill
#
# Bulk Modulus (GPa) = 22.90634 28.83289 25.86962
# Shear Modulus (GPa) = 18.25007 22.00592 20.12800
#
# Velocity S-wave (km/s) = 3.24858 3.56723 3.41163
# Velocity P-wave (km/s) = 5.22655 5.79997 5.52071
#
# Compressibility (1/GPa) = 0.04365603
#
# Stress axis : x y z
#
# Youngs Moduli (GPa) = 39.40964 31.27001 49.63642
#
# Poissons Ratio (x) = 0.19030 -0.04919
# Poissons Ratio (y) = 0.23983 0.58708
# Poissons Ratio (z) = -0.03905 0.36985
#
# Static dielectric constant tensor:
#      x y z
#    x 1.614530 0.000000 -0.019070 
#    y 0.000000 1.641980 0.000000 
#    z -0.019070 0.000000 1.647480 
# 
# From -- ./inp_files/113753.got.cif
#   From: 2010.05.17/outbox.cif.g08.bks.cpg/sg12_57_cif.got.tgz:113753.got - 2010.06.03 13:09:07.
