data_PCOD9182196
_publ_section_title
;
Structure prediction by ZEFSAII (Michael W. Deem and Ramdas Pophale) SiO2 
 PCOD9182196
Probable space group: C 2/M
;
_chemical_formula_sum "Si O2"
_cell_formula_units_Z 52
_cell_length_a 11.766146
_cell_length_b 28.245661
_cell_length_c 17.183732
_cell_angle_alpha 90.000000
_cell_angle_beta 29.891350
_cell_angle_gamma 90.000000
_cell_volume 2846.059041
_symmetry_space_group_name_H-M "C 2/M"
_symmetry_group_IT_number 12
_symmetry_cell_setting 'monoclinic'
loop_
_space_group_symop_operation_xyz
x,y,z
-x,y,-z
-x,-y,-z
x,-y,z
1/2+x,1/2+y,z
1/2-x,1/2+y,-z
1/2-x,1/2-y,-z
1/2+x,1/2-y,z
loop_
_atom_site_type_symbol
_atom_site_label
_atom_site_fract_x
_atom_site_fract_y
_atom_site_fract_z
Si Si1 0.100236 0.638532 0.106271
Si Si2 0.455095 0.309545 0.119516
Si Si3 0.635548 0.268403 0.281331
Si Si4 0.318631 0.186412 0.402772
Si Si5 0.000000 0.661315 0.000000
Si Si6 0.950690 0.383226 0.619128
Si Si7 0.269121 0.946027 0.858527
O O1 0.180737 0.591744 0.103565
O O2 0.897763 0.660310 0.278111
O O3 0.305852 0.676787 0.985346
O O4 0.031261 0.631236 0.058960
O O5 0.320382 0.261751 0.221244
O O6 0.279556 0.351915 0.239581
O O7 0.500000 0.306762 0.000000
O O8 0.494089 0.229701 0.315111
O O9 0.437278 0.294983 0.445067
O O10 0.783337 0.304610 0.143348
O O11 0.361884 0.150175 0.449492
O O12 0.904670 0.427937 0.701803
O O13 0.000000 0.393445 0.500000
O O14 0.327950 0.000000 0.843401
O O15 0.000000 0.943790 0.000000
#
# Coordination Sequence:
#
# PCOD9182196 Si02
#       7
#     8   8   8   8   4   8   8
#     4  11  21  40  56  79 116 153 187 242 286 335
#     4  11  17  38  57  78 117 155 192 229 285 326
#     4  10  20  36  50  88 102 158 202 235 273 323
#     4   9  20  37  54  75 120 151 196 236 282 324
#     4  12  26  34  53  78 110 160 205 230 274 326
#     4  10  19  32  56  91 118 151 172 231 298 341
#     4  10  19  37  67  90 108 141 183 230 297 364
#
# _framework density 18.270879000000001
#
# number of rings (size 3 to 8) (size 9 to 14) (size 15 to 20)
#    0.000    1.692    6.923    0.000    2.154    3.385 
#   13.846    0.385    0.000    0.000    0.000    8.615 
#    0.000    0.000    0.000    0.000    0.000    0.000 
#
# Total GULP energy -145173.561367 kJ/mol
# GULP energy per Si atom -5583.598514 kJ/mol
# Density = 1.822929 g / cm^3
# Si number density = 18.270879 Si / 1000 Ang^3
#
#
#
# Elastic Constant Matrix: (Units=GPa)
#
#
# Indices 1 2 3 4 5 6 
#
# 1 114.7109 43.7583 47.9298 -0.0005 25.1675 0.0027
# 2 43.7583 96.1588 54.7637 0.0006 8.7668 0.0004
# 3 47.9298 54.7637 107.9902 -0.0053 -1.0051 0.0049
# 4 -0.0005 0.0006 -0.0053 16.5476 0.0028 -5.9409
# 5 25.1675 8.7668 -1.0051 0.0028 13.9091 -0.0049
# 6 0.0027 0.0004 0.0049 -5.9409 -0.0049 1.5482
#
#
#
# Elastic Compliance Matrix: (Units=1/GPa)
#
#
# Indices 1 2 3 4 5 6 
#
# 1 0.021669 -0.000822 -0.009567 0.000115 -0.039381 0.000307
# 2 -0.000822 0.016109 -0.007891 0.000011 -0.009237 0.000036
# 3 -0.009567 -0.007891 0.017727 -0.000040 0.023565 -0.000117
# 4 0.000115 0.000011 -0.000040 -0.160025 -0.000402 -0.614050
# 5 -0.039381 -0.009237 0.023565 -0.000402 0.150677 -0.001069
# 6 0.000307 0.000036 -0.000117 -0.614050 -0.001069 -1.710352
#
#
# Mechanical properties :
#
#
# Convention : Reuss Voigt Hill
#
# Bulk Modulus (GPa) = 52.78079 67.97371 60.37725
# Shear Modulus (GPa) = -3.08391 17.89486 7.40548
#
# Velocity S-wave (km/s) = -1.30059 3.13296 2.01543
# Velocity P-wave (km/s) = 5.16674 7.09728 6.20752
#
# Compressibility (1/GPa) = 0.01894629
#
# Stress axis : x y z
#
# Youngs Moduli (GPa) = 46.14973 62.07592 56.41060
#
# Poissons Ratio (x) = 0.05100 0.53969
# Poissons Ratio (y) = 0.03791 0.44512
# Poissons Ratio (z) = 0.44152 0.48982
#
# Static dielectric constant tensor:
#      x y z
#    x 1.651650 0.000000 -0.002110 
#    y 0.000000 1.619350 0.000000 
#    z -0.002110 0.000000 1.632590 
# 
# From -- ./inp_files/53765.got.cif
#   From: 2010.05.17/outbox.cif.g08.bks.cpg/sg12_27_cif.got.tgz:53765.got - 2010.06.03 13:09:07.
