data_PCOD9182699
_publ_section_title
;
Structure prediction by ZEFSAII (Michael W. Deem and Ramdas Pophale) SiO2 
 PCOD9182699
Probable space group: C 2/M
;
_chemical_formula_sum "Si O2"
_cell_formula_units_Z 48
_cell_length_a 8.315973
_cell_length_b 20.839226
_cell_length_c 16.246393
_cell_angle_alpha 90.000000
_cell_angle_beta 66.758492
_cell_angle_gamma 90.000000
_cell_volume 2586.997986
_symmetry_space_group_name_H-M "C 2/M"
_symmetry_group_IT_number 12
_symmetry_cell_setting 'monoclinic'
loop_
_space_group_symop_operation_xyz
x,y,z
-x,y,-z
-x,-y,-z
x,-y,z
1/2+x,1/2+y,z
1/2-x,1/2+y,-z
1/2-x,1/2-y,-z
1/2+x,1/2-y,z
loop_
_atom_site_type_symbol
_atom_site_label
_atom_site_fract_x
_atom_site_fract_y
_atom_site_fract_z
Si Si1 0.218139 0.922882 0.375930
Si Si2 0.058959 0.423940 0.202190
Si Si3 0.741963 0.841602 0.291467
Si Si4 0.519565 0.178072 0.899757
Si Si5 0.893562 0.769907 0.785289
Si Si6 0.313889 0.422101 0.429546
O O1 0.381893 0.903603 0.287465
O O2 0.239570 0.903509 0.466810
O O3 0.023150 0.906858 0.383796
O O4 0.219447 0.000000 0.377396
O O5 0.070564 0.500000 0.197707
O O6 0.214235 0.392432 0.223495
O O7 0.044560 0.391688 0.116243
O O8 0.626259 0.780060 0.286893
O O9 0.713513 0.881126 0.381153
O O10 0.936208 0.813147 0.255968
O O11 0.719095 0.189257 0.831766
O O12 0.412659 0.227509 0.864270
O O13 0.500000 0.188923 0.000000
O O14 0.291514 0.500000 0.423317
#
# Coordination Sequence:
#
# PCOD9182699 Si02
#       6
#     8   8   8   8   8   8
#     4   8  16  30  49  76 105 132 164 200 240 297
#     4  10  20  33  51  77 105 130 161 205 256 300
#     4  10  19  33  53  72 101 134 168 208 241 290
#     4  10  19  34  57  77  99 129 164 207 247 297
#     4   9  20  35  52  76  99 131 173 204 242 289
#     4   9  16  29  53  80 102 129 165 203 247 293
#
# _framework density 18.554324999999999
#
# number of rings (size 3 to 8) (size 9 to 14) (size 15 to 20)
#    0.000    2.667    0.000    3.000    0.000    1.000 
#    0.000    3.333    0.000   35.000    0.000    0.000 
#    0.000    0.000    0.000    0.000    0.000    0.000 
#
# Total GULP energy -133747.342415 kJ/mol
# GULP energy per Si atom -5572.805934 kJ/mol
# Density = 1.851209 g / cm^3
# Si number density = 18.554325 Si / 1000 Ang^3
#
#
#
# Elastic Constant Matrix: (Units=GPa)
#
#
# Indices 1 2 3 4 5 6 
#
# 1 76.7336 43.9262 22.4663 0.0000 21.1652 0.0000
# 2 43.9262 80.9544 33.8259 0.0000 9.5634 0.0000
# 3 22.4663 33.8259 66.0727 0.0000 31.9694 0.0000
# 4 0.0000 0.0000 0.0000 14.4427 0.0000 5.6511
# 5 21.1652 9.5634 31.9694 0.0000 25.4181 0.0000
# 6 0.0000 0.0000 0.0000 5.6511 0.0000 21.9465
#
#
#
# Elastic Compliance Matrix: (Units=1/GPa)
#
#
# Indices 1 2 3 4 5 6 
#
# 1 0.031212 -0.020882 0.022613 0.000000 -0.046574 0.000000
# 2 -0.020882 0.030925 -0.029417 0.000000 0.042752 0.000000
# 3 0.022613 -0.029417 0.067089 0.000000 -0.092142 0.000000
# 4 0.000000 0.000000 0.000000 0.076997 0.000000 -0.019826
# 5 -0.046574 0.042752 -0.092142 0.000000 0.177929 0.000000
# 6 0.000000 0.000000 0.000000 -0.019826 0.000000 0.050670
#
#
# Mechanical properties :
#
#
# Convention : Reuss Voigt Hill
#
# Bulk Modulus (GPa) = 13.54056 47.13304 30.33680
# Shear Modulus (GPa) = 9.71227 20.59763 15.15495
#
# Velocity S-wave (km/s) = 2.29039 3.33547 2.86105
# Velocity P-wave (km/s) = 3.78261 6.34757 5.22493
#
# Compressibility (1/GPa) = 0.07385221
#
# Stress axis : x y z
#
# Youngs Moduli (GPa) = 32.03917 32.33675 14.90550
#
# Poissons Ratio (x) = 0.67526 -0.33705
# Poissons Ratio (y) = 0.66905 0.43848
# Poissons Ratio (z) = -0.72449 0.95126
#
# Static dielectric constant tensor:
#      x y z
#    x 1.665290 0.000000 0.002610 
#    y 0.000000 1.638840 0.000000 
#    z 0.002610 0.000000 1.627810 
# 
# From -- ./inp_files/196915.got.cif
#   From: 2010.05.17/outbox.cif.g08.bks.cpg/sg12_99_cif.got.tgz:196915.got - 2010.06.03 13:09:07.
