data_PCOD9182993
_publ_section_title
;
Structure prediction by ZEFSAII (Michael W. Deem and Ramdas Pophale) SiO2 
 PCOD9182993
Probable space group: C 2/M
;
_chemical_formula_sum "Si O2"
_cell_formula_units_Z 48
_cell_length_a 27.419840
_cell_length_b 7.674082
_cell_length_c 14.160241
_cell_angle_alpha 90.000000
_cell_angle_beta 73.797309
_cell_angle_gamma 90.000000
_cell_volume 2861.278578
_symmetry_space_group_name_H-M "C 2/M"
_symmetry_group_IT_number 12
_symmetry_cell_setting 'monoclinic'
loop_
_space_group_symop_operation_xyz
x,y,z
-x,y,-z
-x,-y,-z
x,-y,z
1/2+x,1/2+y,z
1/2-x,1/2+y,-z
1/2-x,1/2-y,-z
1/2+x,1/2-y,z
loop_
_atom_site_type_symbol
_atom_site_label
_atom_site_fract_x
_atom_site_fract_y
_atom_site_fract_z
Si Si1 0.800188 0.802641 0.748392
Si Si2 0.060450 0.500000 0.080573
Si Si3 0.766154 0.291548 0.385463
Si Si4 0.795178 0.796731 0.087808
Si Si5 0.366310 0.713006 0.878357
Si Si6 0.132667 0.804166 0.771216
Si Si7 0.559585 0.000000 0.853236
O O1 0.775292 0.720836 0.668136
O O2 0.752853 0.805222 0.846974
O O3 0.846848 0.732636 0.784777
O O4 0.814622 0.000000 0.715720
O O5 0.087036 0.328750 0.110817
O O6 0.000371 0.500000 0.131072
O O7 0.067706 0.500000 0.962815
O O8 0.768488 0.500000 0.371066
O O9 0.750000 0.250000 0.500000
O O10 0.821833 0.222294 0.328267
O O11 0.838602 0.781490 0.144022
O O12 0.780354 0.000000 0.090566
O O13 0.820659 0.744660 0.976334
O O14 0.373691 0.500000 0.878001
O O15 0.088058 0.665624 0.793543
O O16 0.113165 0.000000 0.775257
#
# Coordination Sequence:
#
# PCOD9182993 Si02
#       7
#     8   4   8   8   8   8   4
#     4   9  19  30  47  70 103 143 173 206 262 319
#     4  11  24  34  56  73 105 147 191 230 261 304
#     4  10  19  33  53  82 114 140 172 213 261 328
#     4   9  17  27  45  72 100 136 173 207 252 313
#     4  10  20  34  47  72 104 137 179 222 258 308
#     4  10  19  34  54  75 107 141 176 222 267 312
#     4  11  22  38  52  79 101 147 191 224 271 305
#
# _framework density 16.775718000000001
#
# number of rings (size 3 to 8) (size 9 to 14) (size 15 to 20)
#    0.000    2.167    2.500    1.000    3.500    1.333 
#    0.000    1.667    0.000    0.000    0.000    2.333 
#    0.000    5.333    0.000    0.000    0.000    0.000 
#
# Total GULP energy -133774.468954 kJ/mol
# GULP energy per Si atom -5573.936206 kJ/mol
# Density = 1.673754 g / cm^3
# Si number density = 16.775718 Si / 1000 Ang^3
#
#
#
# Elastic Constant Matrix: (Units=GPa)
#
#
# Indices 1 2 3 4 5 6 
#
# 1 93.0992 39.4492 53.5135 0.0000 12.0599 0.0000
# 2 39.4492 66.9886 20.4322 0.0000 1.6458 0.0000
# 3 53.5135 20.4322 94.0138 0.0000 4.0285 0.0000
# 4 0.0000 0.0000 0.0000 18.2590 0.0000 -2.2309
# 5 12.0599 1.6458 4.0285 0.0000 12.4718 0.0000
# 6 0.0000 0.0000 0.0000 -2.2309 0.0000 12.8732
#
#
#
# Elastic Compliance Matrix: (Units=1/GPa)
#
#
# Indices 1 2 3 4 5 6 
#
# 1 0.023235 -0.010115 -0.010264 0.000000 -0.017817 0.000000
# 2 -0.010115 0.020403 0.001034 0.000000 0.006754 0.000000
# 3 -0.010264 0.001034 0.016057 0.000000 0.004602 0.000000
# 4 0.000000 0.000000 0.000000 0.055952 0.000000 0.009696
# 5 -0.017817 0.006754 0.004602 0.000000 0.095032 0.000000
# 6 0.000000 0.000000 0.000000 0.009696 0.000000 0.079361
#
#
# Mechanical properties :
#
#
# Convention : Reuss Voigt Hill
#
# Bulk Modulus (GPa) = 47.60619 53.43237 50.51928
# Shear Modulus (GPa) = 14.89286 18.10125 16.49706
#
# Velocity S-wave (km/s) = 2.98277 3.28840 3.13931
# Velocity P-wave (km/s) = 6.34840 6.80722 6.58181
#
# Compressibility (1/GPa) = 0.02100567
#
# Stress axis : x y z
#
# Youngs Moduli (GPa) = 43.03915 49.01216 62.27776
#
# Poissons Ratio (x) = 0.49573 0.63920
# Poissons Ratio (y) = 0.43532 -0.06437
# Poissons Ratio (z) = 0.44174 -0.05066
#
# Static dielectric constant tensor:
#      x y z
#    x 1.561990 0.000000 0.035020 
#    y 0.000000 1.603120 0.000000 
#    z 0.035020 0.000000 1.557870 
# 
# From -- ./inp_files/242616.got.cif
#   From: 2010.05.17/outbox.cif.g08.bks.cpg/sg12_122_cif.got.tgz:242616.got - 2010.06.03 13:09:07.
