data_PCOD9182524
_publ_section_title
;
Structure prediction by ZEFSAII (Michael W. Deem and Ramdas Pophale) SiO2 
 PCOD9182524
Probable space group: C 2/M
;
_chemical_formula_sum "Si O2"
_cell_formula_units_Z 48
_cell_length_a 22.364268
_cell_length_b 7.916167
_cell_length_c 15.855368
_cell_angle_alpha 90.000000
_cell_angle_beta 99.234298
_cell_angle_gamma 90.000000
_cell_volume 2770.644993
_symmetry_space_group_name_H-M "C 2/M"
_symmetry_group_IT_number 12
_symmetry_cell_setting 'monoclinic'
loop_
_space_group_symop_operation_xyz
x,y,z
-x,y,-z
-x,-y,-z
x,-y,z
1/2+x,1/2+y,z
1/2-x,1/2+y,-z
1/2-x,1/2-y,-z
1/2+x,1/2-y,z
loop_
_atom_site_type_symbol
_atom_site_label
_atom_site_fract_x
_atom_site_fract_y
_atom_site_fract_z
Si Si1 0.955201 0.000000 0.115669
Si Si2 0.206016 0.295984 0.374110
Si Si3 0.838701 0.698722 0.455007
Si Si4 0.623567 0.803181 0.197479
Si Si5 0.514587 0.187464 0.769694
Si Si6 0.537173 0.304147 0.588905
Si Si7 0.093570 0.000000 0.076161
O O1 0.950821 0.834169 0.172421
O O2 0.023879 0.000000 0.094046
O O3 0.911063 0.000000 0.025665
O O4 0.209897 0.500000 0.379477
O O5 0.169852 0.240933 0.450147
O O6 0.273570 0.225102 0.396992
O O7 0.171012 0.253104 0.280930
O O8 0.853273 0.500000 0.459643
O O9 0.892510 0.790984 0.419466
O O10 0.556564 0.796339 0.223912
O O11 0.623337 0.668370 0.122035
O O12 0.633924 0.000000 0.175409
O O13 0.523281 0.209657 0.672130
O O14 0.534187 0.000000 0.800369
O O15 0.500000 0.237609 0.500000
O O16 0.519780 0.500000 0.597549
#
# Coordination Sequence:
#
# PCOD9182524 Si02
#       7
#     4   8   8   8   8   8   4
#     4   9  18  34  47  76 106 130 167 208 255 308
#     4   9  18  33  48  69 103 133 168 213 251 292
#     4  10  20  32  48  71  99 136 175 207 250 295
#     4   9  18  31  50  76 103 133 168 206 257 300
#     4  10  19  33  52  73 104 139 170 206 251 302
#     4  11  22  34  49  72 103 137 177 210 245 294
#     4   9  18  30  52  74 104 132 163 210 255 309
#
# _framework density 17.324484999999999
#
# number of rings (size 3 to 8) (size 9 to 14) (size 15 to 20)
#    0.000    2.333    0.833    2.000    1.167    4.000 
#    0.000    3.333    0.000    0.000    0.000    1.167 
#    0.000    0.000    0.000    0.000    0.000    0.000 
#
# Total GULP energy -133889.932336 kJ/mol
# GULP energy per Si atom -5578.747181 kJ/mol
# Density = 1.728505 g / cm^3
# Si number density = 17.324485 Si / 1000 Ang^3
#
#
#
# Elastic Constant Matrix: (Units=GPa)
#
#
# Indices 1 2 3 4 5 6 
#
# 1 22.6468 19.4605 24.8730 0.0000 5.7307 0.0000
# 2 19.4605 88.5763 63.0411 0.0000 14.3793 0.0000
# 3 24.8730 63.0411 123.0761 0.0000 24.6735 0.0000
# 4 0.0000 0.0000 0.0000 -0.5666 0.0000 2.0472
# 5 5.7307 14.3793 24.6735 0.0000 24.1492 0.0000
# 6 0.0000 0.0000 0.0000 2.0472 0.0000 14.8883
#
#
#
# Elastic Compliance Matrix: (Units=1/GPa)
#
#
# Indices 1 2 3 4 5 6 
#
# 1 0.059514 -0.007054 -0.008080 0.000000 -0.001667 0.000000
# 2 -0.007054 0.018653 -0.007844 0.000000 -0.001418 0.000000
# 3 -0.008080 -0.007844 0.015663 0.000000 -0.009415 0.000000
# 4 0.000000 0.000000 0.000000 -1.179184 0.000000 0.162141
# 5 -0.001667 -0.001418 -0.009415 0.000000 0.052269 0.000000
# 6 0.000000 0.000000 0.000000 0.162141 0.000000 0.044872
#
#
# Mechanical properties :
#
#
# Convention : Reuss Voigt Hill
#
# Bulk Modulus (GPa) = 20.88842 49.89427 35.39135
# Shear Modulus (GPa) = -5.39783 16.15583 5.37900
#
# Velocity S-wave (km/s) = -1.76706 3.05707 1.76397
# Velocity P-wave (km/s) = 2.81425 6.42832 4.96202
#
# Compressibility (1/GPa) = 0.04787341
#
# Stress axis : x y z
#
# Youngs Moduli (GPa) = 16.80267 53.61201 63.84308
#
# Poissons Ratio (x) = 0.37819 0.51586
# Poissons Ratio (y) = 0.11853 0.50080
# Poissons Ratio (z) = 0.13577 0.42054
#
# Static dielectric constant tensor:
#      x y z
#    x 1.563480 0.000000 0.007140 
#    y 0.000000 1.615820 0.000000 
#    z 0.007140 0.000000 1.567960 
# 
# From -- ./inp_files/221751.got.cif
#   From: 2010.05.17/outbox.cif.g08.bks.cpg/sg12_111_cif.got.tgz:221751.got - 2010.06.03 13:09:07.
