data_PCOD9182528
_publ_section_title
;
Structure prediction by ZEFSAII (Michael W. Deem and Ramdas Pophale) SiO2 
 PCOD9182528
Probable space group: C 2/M
;
_chemical_formula_sum "Si O2"
_cell_formula_units_Z 58
_cell_length_a 33.598848
_cell_length_b 9.571458
_cell_length_c 25.705192
_cell_angle_alpha 90.000000
_cell_angle_beta 156.070352
_cell_angle_gamma 90.000000
_cell_volume 3353.026110
_symmetry_space_group_name_H-M "C 2/M"
_symmetry_group_IT_number 12
_symmetry_cell_setting 'monoclinic'
loop_
_space_group_symop_operation_xyz
x,y,z
-x,y,-z
-x,-y,-z
x,-y,z
1/2+x,1/2+y,z
1/2-x,1/2+y,-z
1/2-x,1/2-y,-z
1/2+x,1/2-y,z
loop_
_atom_site_type_symbol
_atom_site_label
_atom_site_fract_x
_atom_site_fract_y
_atom_site_fract_z
Si Si1 0.753202 0.836865 0.584900
Si Si2 0.142679 0.156061 0.532314
Si Si3 0.401128 0.163772 0.694443
Si Si4 0.912650 0.163221 0.234604
Si Si5 0.000000 0.500000 0.500000
Si Si6 0.911908 0.160868 0.113736
Si Si7 0.198695 0.663177 0.811307
Si Si8 0.904473 0.223856 0.409757
O O1 0.711502 0.768572 0.587373
O O2 0.666631 0.825022 0.438229
O O3 0.843670 0.748794 0.670198
O O4 0.777499 0.000000 0.619582
O O5 0.140215 0.162825 0.591729
O O6 0.029806 0.178007 0.380160
O O7 0.171559 0.000000 0.549376
O O8 0.504775 0.235632 0.806459
O O9 0.410761 0.000000 0.718457
O O10 0.885921 0.192206 0.142823
O O11 0.859768 0.266554 0.211181
O O12 0.888359 0.000000 0.217265
O O13 0.048865 0.375704 0.522310
O O14 0.949126 0.000000 0.157501
O O15 0.812775 0.166349 0.961880
O O16 0.166631 0.500000 0.764172
O O17 0.172027 0.747922 0.727709
O O18 0.000000 0.147325 0.500000
#
# Coordination Sequence:
#
# PCOD9182528 Si02
#       8
#     8   8   8   8   2   8   8   8
#     4  10  21  34  58  83 108 141 176 220 271 323
#     4  11  22  34  54  81 112 143 177 223 274 322
#     4  10  20  36  55  82 111 140 177 219 269 324
#     4  10  20  34  50  76 111 146 179 223 270 320
#     4   8  16  32  50  72 100 142 178 236 264 298
#     4  10  21  35  54  77 111 148 184 220 269 325
#     4  11  21  35  53  77 107 149 190 228 265 315
#     4  10  19  33  52  73 106 142 186 228 267 307
#
# _framework density 17.297808
#
# number of rings (size 3 to 8) (size 9 to 14) (size 15 to 20)
#    0.414    1.379    3.448    1.241    0.966    3.586 
#    0.000    0.000    0.000    0.828    0.000    4.828 
#    0.000    0.000    0.000    0.000    0.000    0.000 
#
# Total GULP energy -161529.124384 kJ/mol
# GULP energy per Si atom -5569.969806 kJ/mol
# Density = 1.725844 g / cm^3
# Si number density = 17.297808 Si / 1000 Ang^3
#
#
#
# Elastic Constant Matrix: (Units=GPa)
#
#
# Indices 1 2 3 4 5 6 
#
# 1 95.0153 47.7918 22.5743 0.0000 -0.9914 0.0000
# 2 47.7918 104.5979 19.1683 0.0000 11.7434 0.0000
# 3 22.5743 19.1683 51.7420 0.0000 -13.1292 0.0000
# 4 0.0000 0.0000 0.0000 10.3801 0.0000 11.1935
# 5 -0.9914 11.7434 -13.1292 0.0000 23.5635 0.0000
# 6 0.0000 0.0000 0.0000 11.1935 0.0000 27.9063
#
#
#
# Elastic Compliance Matrix: (Units=1/GPa)
#
#
# Indices 1 2 3 4 5 6 
#
# 1 0.014494 -0.006142 -0.003630 0.000000 0.001649 0.000000
# 2 -0.006142 0.014527 -0.005363 0.000000 -0.010486 0.000000
# 3 -0.003630 -0.005363 0.027412 0.000000 0.017793 0.000000
# 4 0.000000 0.000000 0.000000 0.169772 0.000000 -0.068097
# 5 0.001649 -0.010486 0.017793 0.000000 0.057648 0.000000
# 6 0.000000 0.000000 0.000000 -0.068097 0.000000 0.063149
#
#
# Mechanical properties :
#
#
# Convention : Reuss Voigt Hill
#
# Bulk Modulus (GPa) = 38.22144 47.82487 43.02316
# Shear Modulus (GPa) = 12.95366 23.15803 18.05584
#
# Velocity S-wave (km/s) = 2.73950 3.66291 3.23433
# Velocity P-wave (km/s) = 5.67015 6.75257 6.23489
#
# Compressibility (1/GPa) = 0.02616332
#
# Stress axis : x y z
#
# Youngs Moduli (GPa) = 68.99571 68.83770 36.48068
#
# Poissons Ratio (x) = 0.42282 0.13241
# Poissons Ratio (y) = 0.42379 0.19563
# Poissons Ratio (z) = 0.25043 0.36915
#
# Static dielectric constant tensor:
#      x y z
#    x 1.568240 0.000000 0.041760 
#    y 0.000000 1.587550 0.000000 
#    z 0.041760 0.000000 1.220030 
# 
# From -- ./inp_files/353092.got.cif
#   From: 2010.05.17/outbox.cif.g08.bks.cpg/sg12_177_cif.got.tgz:353092.got - 2010.06.03 13:09:07.
