data_PCOD9182056
_publ_section_title
;
Structure prediction by ZEFSAII (Michael W. Deem and Ramdas Pophale) SiO2 
 PCOD9182056
Probable space group: C 2/M
;
_chemical_formula_sum "Si O2"
_cell_formula_units_Z 56
_cell_length_a 17.600640
_cell_length_b 15.342018
_cell_length_c 12.543075
_cell_angle_alpha 90.000000
_cell_angle_beta 51.783914
_cell_angle_gamma 90.000000
_cell_volume 2661.107733
_symmetry_space_group_name_H-M "C 2/M"
_symmetry_group_IT_number 12
_symmetry_cell_setting 'monoclinic'
loop_
_space_group_symop_operation_xyz
x,y,z
-x,y,-z
-x,-y,-z
x,-y,z
1/2+x,1/2+y,z
1/2-x,1/2+y,-z
1/2-x,1/2-y,-z
1/2+x,1/2-y,z
loop_
_atom_site_type_symbol
_atom_site_label
_atom_site_fract_x
_atom_site_fract_y
_atom_site_fract_z
Si Si1 0.755599 0.100299 0.106401
Si Si2 0.297480 0.359208 0.299600
Si Si3 0.857592 0.895082 0.805906
Si Si4 0.626255 0.128693 0.608945
Si Si5 0.927115 0.167941 0.373883
Si Si6 0.757370 0.155006 0.680952
Si Si7 0.555112 0.097893 0.352050
O O1 0.809218 0.101597 0.172896
O O2 0.651577 0.142230 0.225276
O O3 0.735059 0.000000 0.092887
O O4 0.814854 0.136715 0.956333
O O5 0.205401 0.392608 0.448639
O O6 0.389347 0.373476 0.295895
O O7 0.272091 0.256994 0.301454
O O8 0.780679 0.873313 0.779990
O O9 0.961869 0.850473 0.698568
O O10 0.873001 0.000000 0.794570
O O11 0.601977 0.231282 0.618050
O O12 0.674158 0.110216 0.681321
O O13 0.523560 0.089147 0.671306
O O14 0.856555 0.138251 0.529817
O O15 0.500000 0.141585 0.500000
O O16 0.582899 0.000000 0.365747
#
# Coordination Sequence:
#
# PCOD9182056 Si02
#       7
#     8   8   8   8   8   8   8
#     4  10  22  37  54  81 116 147 181 227 280 332
#     4   9  18  36  58  82 110 140 181 234 282 323
#     4  11  24  39  54  79 117 158 190 223 272 332
#     4   9  18  35  59  85 109 139 180 234 284 322
#     4   9  20  36  57  83 109 142 188 231 273 326
#     4   9  20  37  57  82 111 145 187 227 271 331
#     4  10  19  32  55  85 107 134 183 233 280 329
#
# _framework density 21.043866999999999
#
# number of rings (size 3 to 8) (size 9 to 14) (size 15 to 20)
#    0.000    2.429    1.429    2.143    2.000    3.429 
#    0.000    5.000    0.000    2.571    0.000    0.000 
#    0.000    0.000    0.000    0.000    0.000    0.000 
#
# Total GULP energy -156132.938324 kJ/mol
# GULP energy per Si atom -5576.176369 kJ/mol
# Density = 2.099597 g / cm^3
# Si number density = 21.043867 Si / 1000 Ang^3
#
#
#
# Elastic Constant Matrix: (Units=GPa)
#
#
# Indices 1 2 3 4 5 6 
#
# 1 106.8363 9.4729 28.8566 0.0000 25.7570 0.0000
# 2 9.4729 32.4605 6.7458 0.0000 1.4331 0.0000
# 3 28.8566 6.7458 79.9834 0.0000 20.2690 0.0000
# 4 0.0000 0.0000 0.0000 25.9644 0.0000 3.8749
# 5 25.7570 1.4331 20.2690 0.0000 31.2722 0.0000
# 6 0.0000 0.0000 0.0000 3.8749 0.0000 -0.5009
#
#
#
# Elastic Compliance Matrix: (Units=1/GPa)
#
#
# Indices 1 2 3 4 5 6 
#
# 1 0.012230 -0.002774 -0.001984 0.000000 -0.008660 0.000000
# 2 -0.002774 0.031989 -0.002279 0.000000 0.002296 0.000000
# 3 -0.001984 -0.002279 0.015519 0.000000 -0.008320 0.000000
# 4 0.000000 0.000000 0.000000 0.017877 0.000000 0.138286
# 5 -0.008660 0.002296 -0.008320 0.000000 0.044398 0.000000
# 6 0.000000 0.000000 0.000000 0.138286 0.000000 -0.926615
#
#
# Mechanical properties :
#
#
# Convention : Reuss Voigt Hill
#
# Bulk Modulus (GPa) = 21.89941 34.38121 28.14031
# Shear Modulus (GPa) = -6.44904 22.96079 8.25587
#
# Velocity S-wave (km/s) = -1.75249 3.30675 1.98285
# Velocity P-wave (km/s) = 2.51678 5.56353 4.31781
#
# Compressibility (1/GPa) = 0.04566334
#
# Stress axis : x y z
#
# Youngs Moduli (GPa) = 81.76789 31.26121 64.43726
#
# Poissons Ratio (x) = 0.08673 0.12782
# Poissons Ratio (y) = 0.22686 0.14684
# Poissons Ratio (z) = 0.16220 0.07124
#
# Static dielectric constant tensor:
#      x y z
#    x 1.764710 0.000000 0.012710 
#    y 0.000000 1.918670 0.000000 
#    z 0.012710 0.000000 1.767360 
# 
# From -- ./inp_files/157734.got.cif
#   From: 2010.05.17/outbox.cif.g08.bks.cpg/sg12_79_cif.got.tgz:157734.got - 2010.06.03 13:09:07.
