data_PCOD9182913
_publ_section_title
;
Structure prediction by ZEFSAII (Michael W. Deem and Ramdas Pophale) SiO2 
 PCOD9182913
Probable space group: C 2/M
;
_chemical_formula_sum "Si O2"
_cell_formula_units_Z 52
_cell_length_a 28.184964
_cell_length_b 9.928686
_cell_length_c 14.013181
_cell_angle_alpha 90.000000
_cell_angle_beta 43.281000
_cell_angle_gamma 90.000000
_cell_volume 2688.451565
_symmetry_space_group_name_H-M "C 2/M"
_symmetry_group_IT_number 12
_symmetry_cell_setting 'monoclinic'
loop_
_space_group_symop_operation_xyz
x,y,z
-x,y,-z
-x,-y,-z
x,-y,z
1/2+x,1/2+y,z
1/2-x,1/2+y,-z
1/2-x,1/2-y,-z
1/2+x,1/2-y,z
loop_
_atom_site_type_symbol
_atom_site_label
_atom_site_fract_x
_atom_site_fract_y
_atom_site_fract_z
Si Si1 0.292456 0.849905 0.307968
Si Si2 0.866659 0.848753 0.510062
Si Si3 0.677390 0.342767 0.211089
Si Si4 0.597303 0.849849 0.696990
Si Si5 0.842611 0.657932 0.938930
Si Si6 0.000000 0.236195 0.000000
Si Si7 0.623134 0.347067 0.945515
O O1 0.210321 0.850584 0.422769
O O2 0.328144 0.838184 0.358844
O O3 0.314891 0.000000 0.237628
O O4 0.320647 0.728038 0.203180
O O5 0.854216 0.812135 0.638755
O O6 0.909821 0.751925 0.379487
O O7 0.894917 0.000000 0.465564
O O8 0.660792 0.500000 0.211661
O O9 0.653583 0.235648 0.167297
O O10 0.761380 0.336021 0.089900
O O11 0.589939 0.000000 0.671170
O O12 0.543813 0.822744 0.860635
O O13 0.861833 0.500000 0.906887
O O14 0.884132 0.747936 0.953950
O O15 0.054135 0.152968 0.983175
O O16 0.642505 0.500000 0.943342
#
# Coordination Sequence:
#
# PCOD9182913 Si02
#       7
#     8   8   8   8   8   4   8
#     4   9  18  34  51  75 111 147 179 217 272 330
#     4  10  19  33  53  78 114 148 174 218 275 329
#     4   9  18  33  52  79 114 149 182 215 265 329
#     4  10  21  35  55  78 104 142 187 230 273 324
#     4  10  19  33  54  80 113 148 181 222 271 323
#     4  10  24  42  56  76 108 146 188 234 276 322
#     4  11  21  34  56  82 109 143 187 233 272 320
#
# _framework density 19.341989000000002
#
# number of rings (size 3 to 8) (size 9 to 14) (size 15 to 20)
#    0.000    2.154    1.538    1.846    0.000    6.769 
#    0.000    0.000    0.000    0.923    0.000    5.385 
#    0.000    0.000    0.000    0.000    0.000    0.000 
#
# Total GULP energy -145001.660765 kJ/mol
# GULP energy per Si atom -5576.986953 kJ/mol
# Density = 1.929797 g / cm^3
# Si number density = 19.341989 Si / 1000 Ang^3
#
#
#
# Elastic Constant Matrix: (Units=GPa)
#
#
# Indices 1 2 3 4 5 6 
#
# 1 51.3633 62.7653 30.2460 0.0000 22.5874 0.0000
# 2 62.7653 158.6241 57.2630 0.0000 36.4412 0.0000
# 3 30.2460 57.2630 69.2411 0.0000 35.2430 0.0000
# 4 0.0000 0.0000 0.0000 12.7789 0.0000 16.6503
# 5 22.5874 36.4412 35.2430 0.0000 30.5793 0.0000
# 6 0.0000 0.0000 0.0000 16.6503 0.0000 19.6925
#
#
#
# Elastic Compliance Matrix: (Units=1/GPa)
#
#
# Indices 1 2 3 4 5 6 
#
# 1 0.042530 -0.013348 0.000857 -0.000001 -0.016495 0.000000
# 2 -0.013348 0.013530 -0.005250 0.000001 -0.000213 0.000000
# 3 0.000857 -0.005250 0.037611 0.000000 -0.037723 0.000000
# 4 -0.000001 0.000001 0.000000 -0.769762 -0.000001 0.650843
# 5 -0.016495 -0.000213 -0.037723 -0.000001 0.088617 0.000000
# 6 0.000000 0.000000 0.000000 0.650843 0.000000 -0.499516
#
#
# Mechanical properties :
#
#
# Convention : Reuss Voigt Hill
#
# Bulk Modulus (GPa) = 17.18572 64.41969 40.80270
# Shear Modulus (GPa) = -4.84444 21.20708 8.18132
#
# Velocity S-wave (km/s) = -1.58432 3.31483 2.05888
# Velocity P-wave (km/s) = 2.35748 6.93027 5.17622
#
# Compressibility (1/GPa) = 0.05818786
#
# Stress axis : x y z
#
# Youngs Moduli (GPa) = 23.51288 73.90815 26.58831
#
# Poissons Ratio (x) = 0.98656 -0.02279
# Poissons Ratio (y) = 0.31386 0.13960
# Poissons Ratio (z) = -0.02016 0.38804
#
# Static dielectric constant tensor:
#      x y z
#    x 1.689280 0.000000 -0.006700 
#    y 0.000000 1.683280 0.000000 
#    z -0.006700 0.000000 1.682120 
# 
# From -- ./inp_files/249620.got.cif
#   From: 2010.05.17/outbox.cif.g08.bks.cpg/sg12_125_cif.got.tgz:249620.got - 2010.06.03 13:09:07.
