data_PCOD9182352
_publ_section_title
;
Structure prediction by ZEFSAII (Michael W. Deem and Ramdas Pophale) SiO2 
 PCOD9182352
Probable space group: C 2/M
;
_chemical_formula_sum "Si O2"
_cell_formula_units_Z 56
_cell_length_a 18.198145
_cell_length_b 13.445391
_cell_length_c 20.554735
_cell_angle_alpha 90.000000
_cell_angle_beta 41.185881
_cell_angle_gamma 90.000000
_cell_volume 3311.851652
_symmetry_space_group_name_H-M "C 2/M"
_symmetry_group_IT_number 12
_symmetry_cell_setting 'monoclinic'
loop_
_space_group_symop_operation_xyz
x,y,z
-x,y,-z
-x,-y,-z
x,-y,z
1/2+x,1/2+y,z
1/2-x,1/2+y,-z
1/2-x,1/2-y,-z
1/2+x,1/2-y,z
loop_
_atom_site_type_symbol
_atom_site_label
_atom_site_fract_x
_atom_site_fract_y
_atom_site_fract_z
Si Si1 0.862553 0.381160 0.779192
Si Si2 0.376994 0.888264 0.114102
Si Si3 0.120299 0.112239 0.916454
Si Si4 0.777143 0.384691 0.041341
Si Si5 0.841657 0.792867 0.236661
Si Si6 0.617124 0.881480 0.388352
Si Si7 0.930050 0.748983 0.849408
O O1 0.870107 0.500000 0.785824
O O2 0.731880 0.349627 0.876390
O O3 0.889661 0.364559 0.685291
O O4 0.932822 0.316990 0.782311
O O5 0.295121 0.880554 0.106843
O O6 0.348449 0.804935 0.186066
O O7 0.370147 0.000000 0.146612
O O8 0.500000 0.879564 0.000000
O O9 0.145254 0.116707 0.823460
O O10 0.107387 0.000000 0.949395
O O11 0.000000 0.163281 0.000000
O O12 0.784938 0.500000 0.015955
O O13 0.658941 0.337422 0.100654
O O14 0.874932 0.321861 0.941260
O O15 0.719712 0.814892 0.346300
O O16 0.948301 0.786371 0.211550
O O17 0.500000 0.857345 0.500000
O O18 0.637571 0.000000 0.384708
#
# Coordination Sequence:
#
# PCOD9182352 Si02
#       7
#     8   8   8   8   8   8   8
#     4   9  18  33  51  72 102 132 164 206 253 307
#     4  10  19  33  50  69  99 145 187 210 226 271
#     4   9  18  29  46  70  97 132 169 210 252 292
#     4  10  21  33  44  64 103 147 177 198 232 284
#     4  11  20  31  52  75 102 129 170 214 249 298
#     4   9  19  38  62  81  95 120 162 214 271 320
#     4  11  22  30  45  74 104 137 167 204 249 294
#
# _framework density 16.908968999999999
#
# number of rings (size 3 to 8) (size 9 to 14) (size 15 to 20)
#    0.000    2.143    1.429    3.857    4.000    1.714 
#    0.000    0.714    0.000    0.429    0.000    0.000 
#    0.000    0.000    0.000    0.000    0.000    0.000 
#
# Total GULP energy -156073.586999 kJ/mol
# GULP energy per Si atom -5574.056679 kJ/mol
# Density = 1.687048 g / cm^3
# Si number density = 16.908969 Si / 1000 Ang^3
#
#
#
# Elastic Constant Matrix: (Units=GPa)
#
#
# Indices 1 2 3 4 5 6 
#
# 1 108.3798 20.4028 34.9477 0.0000 -21.1725 0.0000
# 2 20.4028 69.9615 17.4316 0.0000 -13.7122 0.0000
# 3 34.9477 17.4316 80.2762 0.0000 -26.0853 0.0000
# 4 0.0000 0.0000 0.0000 19.6291 0.0000 0.2878
# 5 -21.1725 -13.7122 -26.0853 0.0000 24.2377 0.0000
# 6 0.0000 0.0000 0.0000 0.2878 0.0000 18.5676
#
#
#
# Elastic Compliance Matrix: (Units=1/GPa)
#
#
# Indices 1 2 3 4 5 6 
#
# 1 0.011618 -0.001460 -0.002632 0.000000 0.006490 0.000000
# 2 -0.001460 0.016295 -0.000495 0.000000 0.007411 0.000000
# 3 -0.002632 -0.000495 0.019795 0.000000 0.018725 0.000000
# 4 0.000000 0.000000 0.000000 0.050956 0.000000 -0.000790
# 5 0.006490 0.007411 0.018725 0.000000 0.071272 0.000000
# 6 0.000000 0.000000 0.000000 -0.000790 0.000000 0.053870
#
#
# Mechanical properties :
#
#
# Convention : Reuss Voigt Hill
#
# Bulk Modulus (GPa) = 25.95078 44.90908 35.42993
# Shear Modulus (GPa) = 20.33972 24.87591 22.60782
#
# Velocity S-wave (km/s) = 3.47204 3.83974 3.66051
# Velocity P-wave (km/s) = 5.60839 6.80258 6.23415
#
# Compressibility (1/GPa) = 0.03853448
#
# Stress axis : x y z
#
# Youngs Moduli (GPa) = 86.07117 61.36782 50.51882
#
# Poissons Ratio (x) = 0.08962 0.13296
# Poissons Ratio (y) = 0.12570 0.02498
# Poissons Ratio (z) = 0.22653 0.03035
#
# Static dielectric constant tensor:
#      x y z
#    x 1.594070 0.000000 -0.026660 
#    y 0.000000 1.609940 0.000000 
#    z -0.026660 0.000000 1.568960 
# 
# From -- ./inp_files/270167.got.cif
#   From: 2010.05.17/outbox.cif.g08.bks.cpg/sg12_136_cif.got.tgz:270167.got - 2010.06.03 13:09:07.
