data_PCOD9182383
_publ_section_title
;
Structure prediction by ZEFSAII (Michael W. Deem and Ramdas Pophale) SiO2 
 PCOD9182383
Probable space group: C 2/M
;
_chemical_formula_sum "Si O2"
_cell_formula_units_Z 56
_cell_length_a 20.329028
_cell_length_b 14.445149
_cell_length_c 22.986612
_cell_angle_alpha 90.000000
_cell_angle_beta 27.716656
_cell_angle_gamma 90.000000
_cell_volume 3139.492107
_symmetry_space_group_name_H-M "C 2/M"
_symmetry_group_IT_number 12
_symmetry_cell_setting 'monoclinic'
loop_
_space_group_symop_operation_xyz
x,y,z
-x,y,-z
-x,-y,-z
x,-y,z
1/2+x,1/2+y,z
1/2-x,1/2+y,-z
1/2-x,1/2-y,-z
1/2+x,1/2-y,z
loop_
_atom_site_type_symbol
_atom_site_label
_atom_site_fract_x
_atom_site_fract_y
_atom_site_fract_z
Si Si1 0.415574 0.263140 0.690155
Si Si2 0.651661 0.345273 0.372282
Si Si3 0.944573 0.402549 0.108739
Si Si4 0.832154 0.728458 0.024852
Si Si5 0.544306 0.108033 0.668034
Si Si6 0.824793 0.888598 0.519015
Si Si7 0.270940 0.108197 0.962489
O O1 0.386046 0.263618 0.643866
O O2 0.269457 0.273848 0.839592
O O3 0.494224 0.174100 0.655222
O O4 0.522354 0.348937 0.618731
O O5 0.500000 0.393633 0.500000
O O6 0.776692 0.398032 0.242480
O O7 0.705598 0.335985 0.396064
O O8 0.990112 0.500000 0.102253
O O9 0.000000 0.404309 0.000000
O O10 0.015001 0.313330 0.081885
O O11 0.829170 0.831340 0.001184
O O12 0.768084 0.659690 0.026355
O O13 0.698764 0.131135 0.572585
O O14 0.427315 0.118487 0.811106
O O15 0.543322 0.000000 0.651915
O O16 0.825962 0.000000 0.527586
O O17 0.237291 0.000000 0.992098
#
# Coordination Sequence:
#
# PCOD9182383 Si02
#       7
#     8   8   8   8   8   8   8
#     4  10  20  33  51  77 107 140 175 219 266 313
#     4  10  21  36  52  76 110 144 175 212 260 324
#     4  11  21  32  50  76 106 136 167 210 260 312
#     4  10  19  33  50  75 107 134 171 218 262 316
#     4   9  18  35  56  76 100 136 184 223 259 312
#     4  10  20  32  51  77 108 141 175 214 263 322
#     4   9  18  32  53  75 100 136 173 215 265 313
#
# _framework density 17.83728
#
# number of rings (size 3 to 8) (size 9 to 14) (size 15 to 20)
#    0.000    2.143    1.429    2.143    0.000    7.429 
#    0.000    0.000    0.000    5.143    0.000    0.000 
#    0.000    0.000    0.000    0.000    0.000    0.000 
#
# Total GULP energy -155881.133641 kJ/mol
# GULP energy per Si atom -5567.183344 kJ/mol
# Density = 1.779668 g / cm^3
# Si number density = 17.837280 Si / 1000 Ang^3
#
#
#
# Elastic Constant Matrix: (Units=GPa)
#
#
# Indices 1 2 3 4 5 6 
#
# 1 70.0433 40.5140 14.2259 0.0003 1.1357 -0.0002
# 2 40.5140 84.2482 14.9108 -0.0001 -0.7223 0.0000
# 3 14.2259 14.9108 78.1459 0.0000 -4.1456 0.0000
# 4 0.0003 -0.0001 0.0000 6.8054 0.0002 -12.2338
# 5 1.1357 -0.7223 -4.1456 0.0002 26.3584 0.0002
# 6 -0.0002 0.0000 0.0000 -12.2338 0.0002 16.3550
#
#
#
# Elastic Compliance Matrix: (Units=1/GPa)
#
#
# Indices 1 2 3 4 5 6 
#
# 1 0.020093 -0.009329 -0.001954 0.000002 -0.001429 0.000001
# 2 -0.009329 0.016616 -0.001439 -0.000002 0.000631 -0.000001
# 3 -0.001954 -0.001439 0.013542 0.000000 0.002175 0.000000
# 4 0.000002 -0.000002 0.000000 -0.426299 0.000005 -0.318880
# 5 -0.001429 0.000631 0.002175 0.000005 0.038359 0.000003
# 6 0.000001 -0.000001 0.000000 -0.318880 0.000003 -0.177385
#
#
# Mechanical properties :
#
#
# Convention : Reuss Voigt Hill
#
# Bulk Modulus (GPa) = 40.30871 41.30431 40.80651
# Shear Modulus (GPa) = -10.38718 20.75620 5.18451
#
# Velocity S-wave (km/s) = -2.41577 3.41492 1.70671
# Velocity P-wave (km/s) = 3.85562 6.22538 5.17789
#
# Compressibility (1/GPa) = 0.02480853
#
# Stress axis : x y z
#
# Youngs Moduli (GPa) = 49.76922 60.18341 73.84389
#
# Poissons Ratio (x) = 0.56144 0.14426
# Poissons Ratio (y) = 0.46429 0.10624
# Poissons Ratio (z) = 0.09723 0.08659
#
# Static dielectric constant tensor:
#      x y z
#    x 1.643850 0.000000 -0.000760 
#    y 0.000000 1.603950 0.000000 
#    z -0.000760 0.000000 1.631620 
# 
# From -- ./inp_files/189181.got.cif
#   From: 2010.05.17/outbox.cif.g08.bks.cpg/sg12_95_cif.got.tgz:189181.got - 2010.06.03 13:09:07.
