data_PCOD9182242
_publ_section_title
;
Structure prediction by ZEFSAII (Michael W. Deem and Ramdas Pophale) SiO2 
 PCOD9182242
Probable space group: C 2/M
;
_chemical_formula_sum "Si O2"
_cell_formula_units_Z 64
_cell_length_a 18.745044
_cell_length_b 18.680846
_cell_length_c 20.978504
_cell_angle_alpha 90.000000
_cell_angle_beta 28.816731
_cell_angle_gamma 90.000000
_cell_volume 3540.895889
_symmetry_space_group_name_H-M "C 2/M"
_symmetry_group_IT_number 12
_symmetry_cell_setting 'monoclinic'
loop_
_space_group_symop_operation_xyz
x,y,z
-x,y,-z
-x,-y,-z
x,-y,z
1/2+x,1/2+y,z
1/2-x,1/2+y,-z
1/2-x,1/2-y,-z
1/2+x,1/2-y,z
loop_
_atom_site_type_symbol
_atom_site_label
_atom_site_fract_x
_atom_site_fract_y
_atom_site_fract_z
Si Si1 0.327090 0.085617 0.002414
Si Si2 0.165610 0.365837 0.359342
Si Si3 0.248818 0.659900 0.065232
Si Si4 0.424430 0.305976 0.230671
Si Si5 0.083855 0.804686 0.230315
Si Si6 0.432207 0.179030 0.120505
Si Si7 0.340155 0.419932 0.111661
Si Si8 0.893088 0.205555 0.642153
O O1 0.177808 0.122639 0.146776
O O2 0.319675 0.000000 0.005977
O O3 0.338848 0.120512 0.922411
O O4 0.463479 0.114742 0.937822
O O5 0.273651 0.347808 0.333546
O O6 0.254943 0.418082 0.244272
O O7 0.147183 0.288955 0.338425
O O8 0.000000 0.391677 0.500000
O O9 0.195009 0.740798 0.120096
O O10 0.241727 0.620254 0.137554
O O11 0.422162 0.656125 0.910491
O O12 0.448756 0.296292 0.286880
O O13 0.427969 0.236315 0.181888
O O14 0.044095 0.799026 0.335631
O O15 0.260927 0.162615 0.240592
O O16 0.500000 0.207046 0.000000
O O17 0.367864 0.500000 0.066162
O O18 0.500000 0.384948 0.000000
O O19 0.000000 0.185151 0.500000
#
# Coordination Sequence:
#
# PCOD9182242 Si02
#       8
#     8   8   8   8   8   8   8   8
#     4  11  22  34  54  89 121 145 188 242 292 344
#     4  10  21  36  53  81 117 149 186 236 284 334
#     4  11  18  35  58  86 114 149 189 239 286 338
#     4  10  19  32  58  83 110 147 190 232 282 341
#     4  11  19  37  60  84 113 154 193 233 298 343
#     4  11  19  34  56  85 115 148 189 239 289 329
#     4  11  22  34  55  84 114 151 190 235 288 340
#     4  10  21  36  58  86 115 143 194 248 280 334
#
# _framework density 18.074522000000002
#
# number of rings (size 3 to 8) (size 9 to 14) (size 15 to 20)
#    0.000    1.375    6.250    1.125    1.750    0.500 
#    0.000    6.875    0.000    1.500    0.000    0.000 
#    0.000    0.000    0.000    0.000    0.000    0.000 
#
# Total GULP energy -178328.909974 kJ/mol
# GULP energy per Si atom -5572.778437 kJ/mol
# Density = 1.803338 g / cm^3
# Si number density = 18.074522 Si / 1000 Ang^3
#
#
#
# Elastic Constant Matrix: (Units=GPa)
#
#
# Indices 1 2 3 4 5 6 
#
# 1 159.2142 21.9488 46.3960 -0.0002 9.2594 0.0008
# 2 21.9488 66.8151 9.7505 0.0003 1.8506 0.0016
# 3 46.3960 9.7505 88.0360 0.0026 1.2441 0.0017
# 4 -0.0002 0.0003 0.0026 18.9841 0.0000 -5.5428
# 5 9.2594 1.8506 1.2441 0.0000 24.7535 -0.0012
# 6 0.0008 0.0016 0.0017 -5.5428 -0.0012 12.9419
#
#
#
# Elastic Compliance Matrix: (Units=1/GPa)
#
#
# Indices 1 2 3 4 5 6 
#
# 1 0.007827 -0.001934 -0.003874 0.000001 -0.002588 0.000000
# 2 -0.001934 0.015718 -0.000716 -0.000001 -0.000416 -0.000002
# 3 -0.003874 -0.000716 0.013468 -0.000003 0.000826 -0.000003
# 4 0.000001 -0.000001 -0.000003 0.060204 0.000001 0.025784
# 5 -0.002588 -0.000416 0.000826 0.000001 0.041356 0.000004
# 6 0.000000 -0.000002 -0.000003 0.025784 0.000004 0.088311
#
#
# Mechanical properties :
#
#
# Convention : Reuss Voigt Hill
#
# Bulk Modulus (GPa) = 41.72675 52.25065 46.98870
# Shear Modulus (GPa) = 20.16771 27.06723 23.61747
#
# Velocity S-wave (km/s) = 3.34400 3.87400 3.61871
# Velocity P-wave (km/s) = 6.16813 6.99869 6.59650
#
# Compressibility (1/GPa) = 0.02396544
#
# Stress axis : x y z
#
# Youngs Moduli (GPa) = 127.76356 63.62136 74.24843
#
# Poissons Ratio (x) = 0.12305 0.28765
# Poissons Ratio (y) = 0.24711 0.05314
# Poissons Ratio (z) = 0.49497 0.04553
#
# Static dielectric constant tensor:
#      x y z
#    x 1.676160 0.000000 0.001970 
#    y 0.000000 1.617750 0.000000 
#    z 0.001970 0.000000 1.644260 
# 
# From -- ./inp_files/317334.got.cif
#   From: 2010.05.17/outbox.cif.g08.bks.cpg/sg12_159_cif.got.tgz:317334.got - 2010.06.03 13:09:07.
