data_PCOD9182871
_publ_section_title
;
Structure prediction by ZEFSAII (Michael W. Deem and Ramdas Pophale) SiO2 
 PCOD9182871
Probable space group: C 2/M
;
_chemical_formula_sum "Si O2"
_cell_formula_units_Z 64
_cell_length_a 20.112736
_cell_length_b 25.358559
_cell_length_c 11.376019
_cell_angle_alpha 90.000000
_cell_angle_beta 40.379149
_cell_angle_gamma 90.000000
_cell_volume 3758.855373
_symmetry_space_group_name_H-M "C 2/M"
_symmetry_group_IT_number 12
_symmetry_cell_setting 'monoclinic'
loop_
_space_group_symop_operation_xyz
x,y,z
-x,y,-z
-x,-y,-z
x,-y,z
1/2+x,1/2+y,z
1/2-x,1/2+y,-z
1/2-x,1/2-y,-z
1/2+x,1/2-y,z
loop_
_atom_site_type_symbol
_atom_site_label
_atom_site_fract_x
_atom_site_fract_y
_atom_site_fract_z
Si Si1 0.618694 0.936976 0.357776
Si Si2 0.127109 0.856621 0.611105
Si Si3 0.770653 0.644919 0.632534
Si Si4 0.109289 0.937113 0.419424
Si Si5 0.599957 0.361385 0.057712
Si Si6 0.365164 0.731596 0.807803
Si Si7 0.596004 0.248955 0.518466
Si Si8 0.784162 0.062568 0.954286
O O1 0.500000 0.925560 0.500000
O O2 0.666313 0.904314 0.400405
O O3 0.631999 0.000000 0.355732
O O4 0.679541 0.920119 0.157719
O O5 0.219496 0.865411 0.575995
O O6 0.120761 0.899713 0.515785
O O7 0.128961 0.797806 0.555295
O O8 0.016962 0.859959 0.823452
O O9 0.842042 0.696251 0.536721
O O10 0.678373 0.653838 0.850130
O O11 0.192763 0.920273 0.208879
O O12 0.000000 0.930013 0.500000
O O13 0.118304 0.000000 0.434213
O O14 0.617852 0.323168 0.145900
O O15 0.629454 0.417931 0.071407
O O16 0.375545 0.732439 0.652728
O O17 0.472769 0.761236 0.696657
O O18 0.250000 0.750000 0.000000
O O19 0.785947 0.000000 0.947237
#
# Coordination Sequence:
#
# PCOD9182871 Si02
#       8
#     8   8   8   8   8   8   8   8
#     4   9  20  37  58  81 105 138 185 236 275 315
#     4  11  22  35  52  79 116 149 181 217 269 333
#     4  11  22  36  54  77 112 152 181 219 274 332
#     4  10  19  33  56  82 111 144 180 225 273 322
#     4  10  19  33  53  77 110 145 181 218 267 321
#     4  10  19  34  56  82 101 133 185 231 264 310
#     4  10  22  34  55  79 109 144 180 223 273 316
#     4   9  17  31  54  83 108 135 176 224 271 316
#
# _framework density 17.02646
#
# number of rings (size 3 to 8) (size 9 to 14) (size 15 to 20)
#    0.000    2.000    2.500    1.500    3.500    0.500 
#    0.000    0.000    0.000    6.000    0.000    3.500 
#    0.000    0.000    0.000    0.000    0.000    0.000 
#
# Total GULP energy -178269.574887 kJ/mol
# GULP energy per Si atom -5570.924215 kJ/mol
# Density = 1.698771 g / cm^3
# Si number density = 17.026460 Si / 1000 Ang^3
#
#
#
# Elastic Constant Matrix: (Units=GPa)
#
#
# Indices 1 2 3 4 5 6 
#
# 1 119.2440 53.9560 58.6193 -0.0001 -8.5851 0.0001
# 2 53.9560 47.6961 40.3557 0.0000 -1.6588 0.0000
# 3 58.6193 40.3557 104.7022 0.0000 -11.5110 0.0000
# 4 -0.0001 0.0000 0.0000 21.4792 0.0000 -0.3740
# 5 -8.5851 -1.6588 -11.5110 0.0000 17.4327 0.0000
# 6 0.0001 0.0000 0.0000 -0.3740 0.0000 12.3381
#
#
#
# Elastic Compliance Matrix: (Units=1/GPa)
#
#
# Indices 1 2 3 4 5 6 
#
# 1 0.018401 -0.018439 -0.002579 0.000000 0.005604 0.000000
# 2 -0.018439 0.050058 -0.010185 0.000000 -0.011042 0.000000
# 3 -0.002579 -0.010185 0.015823 0.000000 0.008209 0.000000
# 4 0.000000 0.000000 0.000000 0.046581 0.000000 0.001412
# 5 0.005604 -0.011042 0.008209 0.000000 0.064493 0.000000
# 6 0.000000 0.000000 0.000000 0.001412 0.000000 0.081092
#
#
# Mechanical properties :
#
#
# Convention : Reuss Voigt Hill
#
# Bulk Modulus (GPa) = 45.71075 64.16715 54.93895
# Shear Modulus (GPa) = 14.44479 18.16408 16.30444
#
# Velocity S-wave (km/s) = 2.91584 3.26976 3.09786
# Velocity P-wave (km/s) = 6.18396 7.21274 6.71807
#
# Compressibility (1/GPa) = 0.02187669
#
# Stress axis : x y z
#
# Youngs Moduli (GPa) = 54.34579 19.97674 63.20011
#
# Poissons Ratio (x) = 0.36835 0.16298
# Poissons Ratio (y) = 1.00207 0.64368
# Poissons Ratio (z) = 0.14015 0.20346
#
# Static dielectric constant tensor:
#      x y z
#    x 1.547780 0.000000 -0.011320 
#    y 0.000000 1.579490 0.000000 
#    z -0.011320 0.000000 1.621280 
# 
# From -- ./inp_files/170144.got.cif
#   From: 2010.05.17/outbox.cif.g08.bks.cpg/sg12_86_cif.got.tgz:170144.got - 2010.06.03 13:09:07.
