data_PCOD9182804
_publ_section_title
;
Structure prediction by ZEFSAII (Michael W. Deem and Ramdas Pophale) SiO2 
 PCOD9182804
Probable space group: C 2/M
;
_chemical_formula_sum "Si O2"
_cell_formula_units_Z 56
_cell_length_a 19.565341
_cell_length_b 8.776322
_cell_length_c 26.382579
_cell_angle_alpha 90.000000
_cell_angle_beta 139.869484
_cell_angle_gamma 90.000000
_cell_volume 2919.852998
_symmetry_space_group_name_H-M "C 2/M"
_symmetry_group_IT_number 12
_symmetry_cell_setting 'monoclinic'
loop_
_space_group_symop_operation_xyz
x,y,z
-x,y,-z
-x,-y,-z
x,-y,z
1/2+x,1/2+y,z
1/2-x,1/2+y,-z
1/2-x,1/2-y,-z
1/2+x,1/2-y,z
loop_
_atom_site_type_symbol
_atom_site_label
_atom_site_fract_x
_atom_site_fract_y
_atom_site_fract_z
Si Si1 0.789703 0.314363 0.751690
Si Si2 0.974019 0.315966 0.928348
Si Si3 0.640609 0.819004 0.418775
Si Si4 0.930719 0.316201 0.735565
Si Si5 0.074216 0.820250 0.671665
Si Si6 0.851475 0.821830 0.169971
Si Si7 0.317101 0.680109 0.992280
O O1 0.785481 0.500000 0.749877
O O2 0.852500 0.270423 0.736569
O O3 0.668568 0.262213 0.689028
O O4 0.862292 0.268443 0.840777
O O5 0.975969 0.500000 0.929664
O O6 0.068160 0.255682 0.946581
O O7 0.000000 0.263208 0.000000
O O8 0.750000 0.750000 0.500000
O O9 0.619104 0.778662 0.347564
O O10 0.538690 0.761270 0.392319
O O11 0.645919 0.000000 0.424913
O O12 0.946409 0.500000 0.747084
O O13 0.044971 0.235855 0.801556
O O14 0.120461 0.804994 0.754997
O O15 0.056837 0.000000 0.652557
O O16 0.750186 0.726357 0.095550
O O17 0.831020 0.000000 0.148203
O O18 0.325583 0.500000 0.002151
O O19 0.250000 0.750000 0.000000
#
# Coordination Sequence:
#
# PCOD9182804 Si02
#       7
#     8   8   8   8   8   8   8
#     4   9  17  32  54  77 103 136 174 215 258 309
#     4  10  20  35  55  79 109 145 182 221 271 329
#     4  10  20  35  56  81 107 136 171 212 258 309
#     4   9  18  33  54  79 105 137 177 218 260 310
#     4   9  18  34  57  81 104 134 170 207 252 310
#     4  10  19  33  53  76 102 135 176 219 267 322
#     4  12  24  36  51  73 103 140 185 235 282 323
#
# _framework density 19.179047000000001
#
# number of rings (size 3 to 8) (size 9 to 14) (size 15 to 20)
#    0.000    2.143    0.000    3.857    0.000    4.857 
#    0.000    2.143    0.000    4.286    0.000    0.000 
#    0.000    0.000    0.000    0.000    0.000    0.000 
#
# Total GULP energy -156361.210328 kJ/mol
# GULP energy per Si atom -5584.328940 kJ/mol
# Density = 1.913539 g / cm^3
# Si number density = 19.179047 Si / 1000 Ang^3
#
#
#
# Elastic Constant Matrix: (Units=GPa)
#
#
# Indices 1 2 3 4 5 6 
#
# 1 104.5116 6.1851 19.8280 0.0000 25.7900 0.0000
# 2 6.1851 5.5007 14.0364 0.0000 2.3118 0.0000
# 3 19.8280 14.0364 78.9882 0.0000 28.3644 0.0000
# 4 0.0000 0.0000 0.0000 27.1776 0.0000 6.7066
# 5 25.7900 2.3118 28.3644 0.0000 29.6509 0.0000
# 6 0.0000 0.0000 0.0000 6.7066 0.0000 23.4903
#
#
#
# Elastic Compliance Matrix: (Units=1/GPa)
#
#
# Indices 1 2 3 4 5 6 
#
# 1 0.014083 -0.028331 0.007776 0.000000 -0.017479 0.000000
# 2 -0.028331 0.438110 -0.102553 0.000000 0.088586 0.000000
# 3 0.007776 -0.102553 0.043397 0.000000 -0.040282 0.000000
# 4 0.000000 0.000000 0.000000 0.039584 0.000000 -0.011301
# 5 -0.017479 0.088586 -0.040282 0.000000 0.080555 0.000000
# 6 0.000000 0.000000 0.000000 -0.011301 0.000000 0.045797
#
#
# Mechanical properties :
#
#
# Convention : Reuss Voigt Hill
#
# Bulk Modulus (GPa) = 4.01004 29.89995 16.95500
# Shear Modulus (GPa) = 5.04608 25.99382 15.51995
#
# Velocity S-wave (km/s) = 1.62381 3.68547 2.84775
# Velocity P-wave (km/s) = 2.36877 5.80809 4.43537
#
# Compressibility (1/GPa) = 0.24937411
#
# Stress axis : x y z
#
# Youngs Moduli (GPa) = 71.00808 2.28253 23.04305
#
# Poissons Ratio (x) = 0.06467 -0.17918
# Poissons Ratio (y) = 2.01176 2.36313
# Poissons Ratio (z) = -0.55216 0.23408
#
# Static dielectric constant tensor:
#      x y z
#    x 1.691550 0.000000 -0.020340 
#    y 0.000000 1.647970 0.000000 
#    z -0.020340 0.000000 1.671360 
# 
# From -- ./inp_files/280420.got.cif
#   From: 2010.05.17/outbox.cif.g08.bks.cpg/sg12_141_cif.got.tgz:280420.got - 2010.06.03 13:09:07.
