data_PCOD9182406
_publ_section_title
;
Structure prediction by ZEFSAII (Michael W. Deem and Ramdas Pophale) SiO2 
 PCOD9182406
Probable space group: C 2/M
;
_chemical_formula_sum "Si O2"
_cell_formula_units_Z 56
_cell_length_a 25.764925
_cell_length_b 14.333355
_cell_length_c 9.809556
_cell_angle_alpha 90.000000
_cell_angle_beta 62.858782
_cell_angle_gamma 90.000000
_cell_volume 3223.739263
_symmetry_space_group_name_H-M "C 2/M"
_symmetry_group_IT_number 12
_symmetry_cell_setting 'monoclinic'
loop_
_space_group_symop_operation_xyz
x,y,z
-x,y,-z
-x,-y,-z
x,-y,z
1/2+x,1/2+y,z
1/2-x,1/2+y,-z
1/2-x,1/2-y,-z
1/2+x,1/2-y,z
loop_
_atom_site_type_symbol
_atom_site_label
_atom_site_fract_x
_atom_site_fract_y
_atom_site_fract_z
Si Si1 0.586026 0.302290 0.553076
Si Si2 0.718512 0.731339 0.396703
Si Si3 0.186111 0.391630 0.228726
Si Si4 0.489908 0.611965 0.859134
Si Si5 0.936845 0.395948 0.508101
Si Si6 0.741078 0.611434 0.120654
Si Si7 0.894927 0.887606 0.759379
O O1 0.654562 0.312038 0.501355
O O2 0.544167 0.359129 0.700819
O O3 0.570517 0.192789 0.579726
O O4 0.579235 0.337241 0.405145
O O5 0.750000 0.750000 0.500000
O O6 0.708307 0.826410 0.323792
O O7 0.750782 0.663515 0.251430
O O8 0.202450 0.500000 0.230386
O O9 0.115908 0.385939 0.319574
O O10 0.214662 0.361311 0.052367
O O11 0.487110 0.500000 0.870030
O O12 0.431167 0.641630 0.849379
O O13 0.500000 0.648204 0.000000
O O14 0.929846 0.500000 0.455331
O O15 0.000000 0.391245 0.500000
O O16 0.745066 0.500000 0.134743
O O17 0.674238 0.632825 0.154798
O O18 0.901009 0.000000 0.735378
#
# Coordination Sequence:
#
# PCOD9182406 Si02
#       7
#     8   8   8   8   8   8   8
#     4  10  19  33  51  70  95 132 168 198 241 292
#     4  10  21  34  49  73 102 131 166 208 252 298
#     4   9  18  33  52  73  98 128 163 206 251 293
#     4  10  20  32  48  75 107 133 160 197 241 291
#     4   9  17  30  50  74  94 117 159 208 246 283
#     4   9  18  33  53  76 100 129 167 206 247 298
#     4   9  17  30  50  75 102 131 162 195 233 290
#
# _framework density 17.371131999999999
#
# number of rings (size 3 to 8) (size 9 to 14) (size 15 to 20)
#    0.000    2.571    0.000    2.143    0.000    3.429 
#    0.000    2.857    0.000    0.429    0.000    0.000 
#    0.000    0.000    0.000    0.000    0.000    0.000 
#
# Total GULP energy -156064.159772 kJ/mol
# GULP energy per Si atom -5573.719992 kJ/mol
# Density = 1.733159 g / cm^3
# Si number density = 17.371132 Si / 1000 Ang^3
#
#
#
# Elastic Constant Matrix: (Units=GPa)
#
#
# Indices 1 2 3 4 5 6 
#
# 1 92.3814 25.1831 65.4768 0.0000 20.0394 0.0000
# 2 25.1831 35.0871 23.3135 0.0000 6.4406 0.0000
# 3 65.4768 23.3135 96.1389 0.0000 12.8156 0.0000
# 4 0.0000 0.0000 0.0000 25.4708 0.0000 -3.4823
# 5 20.0394 6.4406 12.8156 0.0000 22.1649 0.0000
# 6 0.0000 0.0000 0.0000 -3.4823 0.0000 18.3672
#
#
#
# Elastic Compliance Matrix: (Units=1/GPa)
#
#
# Indices 1 2 3 4 5 6 
#
# 1 0.025249 -0.006522 -0.013895 0.000000 -0.012898 0.000000
# 2 -0.006522 0.036298 -0.004053 0.000000 -0.002308 0.000000
# 3 -0.013895 -0.004053 0.020604 0.000000 0.001827 0.000000
# 4 0.000000 0.000000 0.000000 0.040305 0.000000 0.007642
# 5 -0.012898 -0.002308 0.001827 0.000000 0.056392 0.000000
# 6 0.000000 0.000000 0.000000 0.007642 0.000000 0.055894
#
#
# Mechanical properties :
#
#
# Convention : Reuss Voigt Hill
#
# Bulk Modulus (GPa) = 30.10994 50.17269 40.14132
# Shear Modulus (GPa) = 16.96340 20.50952 18.73646
#
# Velocity S-wave (km/s) = 3.12834 3.43981 3.28776
# Velocity P-wave (km/s) = 5.51540 6.68744 6.12950
#
# Compressibility (1/GPa) = 0.03321163
#
# Stress axis : x y z
#
# Youngs Moduli (GPa) = 39.60572 27.54992 48.53321
#
# Poissons Ratio (x) = 0.17967 0.67438
# Poissons Ratio (y) = 0.25829 0.19670
# Poissons Ratio (z) = 0.55033 0.11166
#
# Static dielectric constant tensor:
#      x y z
#    x 1.589060 0.000000 -0.019320 
#    y 0.000000 1.625730 0.000000 
#    z -0.019320 0.000000 1.566010 
# 
# From -- ./inp_files/96742.got.cif
#   From: 2010.05.17/outbox.cif.g08.bks.cpg/sg12_49_cif.got.tgz:96742.got - 2010.06.03 13:09:07.
