data_PCOD9182565
_publ_section_title
;
Structure prediction by ZEFSAII (Michael W. Deem and Ramdas Pophale) SiO2 
 PCOD9182565
Probable space group: C 2/M
;
_chemical_formula_sum "Si O2"
_cell_formula_units_Z 56
_cell_length_a 20.807871
_cell_length_b 9.293310
_cell_length_c 20.119753
_cell_angle_alpha 90.000000
_cell_angle_beta 58.689593
_cell_angle_gamma 90.000000
_cell_volume 3324.021975
_symmetry_space_group_name_H-M "C 2/M"
_symmetry_group_IT_number 12
_symmetry_cell_setting 'monoclinic'
loop_
_space_group_symop_operation_xyz
x,y,z
-x,y,-z
-x,-y,-z
x,-y,z
1/2+x,1/2+y,z
1/2-x,1/2+y,-z
1/2-x,1/2-y,-z
1/2+x,1/2-y,z
loop_
_atom_site_type_symbol
_atom_site_label
_atom_site_fract_x
_atom_site_fract_y
_atom_site_fract_z
Si Si1 0.653784 0.328045 0.342250
Si Si2 0.000254 0.172373 0.655591
Si Si3 0.784811 0.328664 0.174316
Si Si4 0.200351 0.171409 0.081087
Si Si5 0.472320 0.674938 0.819713
Si Si6 0.078752 0.334611 0.498754
Si Si7 0.443956 0.673744 0.090573
O O1 0.654296 0.500000 0.353247
O O2 0.583219 0.300307 0.330215
O O3 0.731128 0.286339 0.264631
O O4 0.636998 0.245946 0.419451
O O5 0.059783 0.251999 0.576765
O O6 0.001982 0.219793 0.731358
O O7 0.011730 0.000000 0.645905
O O8 0.799245 0.500000 0.171509
O O9 0.736070 0.304902 0.134128
O O10 0.862507 0.244344 0.127697
O O11 0.114099 0.221500 0.125977
O O12 0.200810 0.000000 0.068209
O O13 0.250000 0.250000 0.000000
O O14 0.471450 0.500000 0.818883
O O15 0.520025 0.718153 0.858172
O O16 0.099680 0.500000 0.498946
O O17 0.000000 0.332713 0.500000
O O18 0.437044 0.500000 0.093322
O O19 0.500000 0.713418 0.000000
#
# Coordination Sequence:
#
# PCOD9182565 Si02
#       7
#     8   8   8   8   8   8   8
#     4   9  16  29  49  73  98 130 169 204 244 297
#     4   9  15  28  50  72  95 130 171 207 243 292
#     4  10  20  34  53  76 103 132 168 214 256 297
#     4  10  19  33  52  75 100 128 165 212 259 299
#     4   9  17  32  53  73  98 132 173 212 246 296
#     4   9  17  27  42  71 108 135 155 196 252 302
#     4  10  21  36  53  74 101 137 175 209 252 308
#
# _framework density 16.847059999999999
#
# number of rings (size 3 to 8) (size 9 to 14) (size 15 to 20)
#    0.000    2.571    1.429    1.286    0.000    4.286 
#    0.000    2.143    0.000    0.857    0.000    0.000 
#    0.000    0.000    0.000    0.000    0.000    0.000 
#
# Total GULP energy -156103.734798 kJ/mol
# GULP energy per Si atom -5575.133386 kJ/mol
# Density = 1.680871 g / cm^3
# Si number density = 16.847060 Si / 1000 Ang^3
#
#
#
# Elastic Constant Matrix: (Units=GPa)
#
#
# Indices 1 2 3 4 5 6 
#
# 1 29.8774 17.8978 5.5130 0.0000 -7.3537 0.0000
# 2 17.8978 27.5238 41.7236 0.0000 -4.3186 0.0002
# 3 5.5130 41.7236 125.2393 0.0000 -3.8086 0.0000
# 4 0.0000 0.0000 0.0000 21.6865 0.0000 -3.7707
# 5 -7.3537 -4.3186 -3.8086 0.0000 25.4953 0.0000
# 6 0.0000 0.0002 0.0000 -3.7707 0.0000 18.9004
#
#
#
# Elastic Compliance Matrix: (Units=1/GPa)
#
#
# Indices 1 2 3 4 5 6 
#
# 1 0.098252 -0.112634 0.033634 0.000000 0.014285 0.000001
# 2 -0.112634 0.204554 -0.063411 0.000000 -0.007311 -0.000002
# 3 0.033634 -0.063411 0.027724 0.000000 0.003101 0.000001
# 4 0.000000 0.000000 0.000000 0.047769 0.000000 0.009530
# 5 0.014285 -0.007311 0.003101 0.000000 0.042568 0.000000
# 6 0.000001 -0.000002 0.000001 0.009530 0.000000 0.054810
#
#
# Mechanical properties :
#
#
# Convention : Reuss Voigt Hill
#
# Bulk Modulus (GPa) = 21.87921 34.76770 28.32345
# Shear Modulus (GPa) = 6.44549 21.05017 13.74783
#
# Velocity S-wave (km/s) = 1.95811 3.53864 2.85974
# Velocity P-wave (km/s) = 4.25763 6.11376 5.26809
#
# Compressibility (1/GPa) = 0.04570550
#
# Stress axis : x y z
#
# Youngs Moduli (GPa) = 10.17789 4.88870 36.06972
#
# Poissons Ratio (x) = 0.55064 -1.21316
# Poissons Ratio (y) = 1.14638 2.28723
# Poissons Ratio (z) = -0.34232 0.31000
#
# Static dielectric constant tensor:
#      x y z
#    x 1.557470 0.000000 0.011160 
#    y 0.000000 1.558530 0.000000 
#    z 0.011160 0.000000 1.561600 
# 
# From -- ./inp_files/281015.got.cif
#   From: 2010.05.17/outbox.cif.g08.bks.cpg/sg12_141_cif.got.tgz:281015.got - 2010.06.03 13:09:07.
