data_PCOD9182120
_publ_section_title
;
Structure prediction by ZEFSAII (Michael W. Deem and Ramdas Pophale) SiO2 
 PCOD9182120
Probable space group: C 2/M
;
_chemical_formula_sum "Si O2"
_cell_formula_units_Z 64
_cell_length_a 17.692456
_cell_length_b 28.082470
_cell_length_c 19.372963
_cell_angle_alpha 90.000000
_cell_angle_beta 157.741223
_cell_angle_gamma 90.000000
_cell_volume 3646.014857
_symmetry_space_group_name_H-M "C 2/M"
_symmetry_group_IT_number 12
_symmetry_cell_setting 'monoclinic'
loop_
_space_group_symop_operation_xyz
x,y,z
-x,y,-z
-x,-y,-z
x,-y,z
1/2+x,1/2+y,z
1/2-x,1/2+y,-z
1/2-x,1/2-y,-z
1/2+x,1/2-y,z
loop_
_atom_site_type_symbol
_atom_site_label
_atom_site_fract_x
_atom_site_fract_y
_atom_site_fract_z
Si Si1 0.118533 0.347006 0.760877
Si Si2 0.690333 0.555282 0.110636
Si Si3 0.529675 0.624161 0.341183
Si Si4 0.177910 0.947214 0.937730
Si Si5 0.232855 0.208896 0.428006
Si Si6 0.381488 0.835044 0.969706
Si Si7 0.056447 0.390874 0.246800
Si Si8 0.876644 0.235760 0.037785
O O1 0.175238 0.396257 0.769140
O O2 0.942518 0.313977 0.581654
O O3 0.030224 0.362765 0.760347
O O4 0.298352 0.311821 0.933790
O O5 0.771647 0.500000 0.188916
O O6 0.500000 0.559132 0.000000
O O7 0.632736 0.558024 0.980896
O O8 0.448257 0.587713 0.215752
O O9 0.611583 0.667865 0.365176
O O10 0.337266 0.641778 0.220088
O O11 0.709934 0.604279 0.540112
O O12 0.128739 0.000000 0.874733
O O13 0.413574 0.936888 0.125820
O O14 0.250000 0.250000 0.500000
O O15 0.100441 0.227899 0.253511
O O16 0.500000 0.840030 0.000000
O O17 0.502382 0.861045 0.133433
O O18 0.358440 0.780312 0.972037
O O19 0.750000 0.250000 0.000000
#
# Coordination Sequence:
#
# PCOD9182120 Si02
#       8
#     8   8   8   8   8   8   8   8
#     4  10  19  32  56  81 101 144 196 231 270 335
#     4   9  18  34  56  81 115 156 193 240 300 342
#     4  10  19  34  55  78 104 144 183 224 275 326
#     4   9  18  33  56  85 108 134 185 237 275 329
#     4  11  18  30  54  79 102 139 188 225 268 323
#     4  11  22  34  51  80 111 143 180 223 276 337
#     4   9  18  34  54  76 104 141 180 227 273 323
#     4  12  18  33  54  78 109 147 181 223 278 329
#
# _framework density 17.553412000000002
#
# number of rings (size 3 to 8) (size 9 to 14) (size 15 to 20)
#    0.000    1.875    3.750    2.250    0.000    1.500 
#    0.000    1.875    0.000   26.250    0.000   43.750 
#    0.000    0.000    0.000    0.000    0.000    0.000 
#
# Total GULP energy -178254.545410 kJ/mol
# GULP energy per Si atom -5570.454544 kJ/mol
# Density = 1.751346 g / cm^3
# Si number density = 17.553412 Si / 1000 Ang^3
#
#
#
# Elastic Constant Matrix: (Units=GPa)
#
#
# Indices 1 2 3 4 5 6 
#
# 1 55.1250 30.4363 27.7252 0.0000 16.5554 0.0000
# 2 30.4363 123.4027 53.0431 0.0000 8.6730 0.0000
# 3 27.7252 53.0431 122.1983 0.0001 2.4613 -0.0004
# 4 0.0000 0.0000 0.0001 15.3928 -0.0001 0.7803
# 5 16.5554 8.6730 2.4613 -0.0001 10.1326 0.0000
# 6 0.0000 0.0000 -0.0004 0.7803 0.0000 17.5774
#
#
#
# Elastic Compliance Matrix: (Units=1/GPa)
#
#
# Indices 1 2 3 4 5 6 
#
# 1 0.043420 -0.002907 -0.007246 0.000000 -0.066695 0.000000
# 2 -0.002907 0.010761 -0.003941 0.000000 -0.003503 0.000000
# 3 -0.007246 -0.003941 0.011287 0.000000 0.012471 0.000000
# 4 0.000000 0.000000 0.000000 0.065112 0.000002 -0.002890
# 5 -0.066695 -0.003503 0.012471 0.000002 0.207632 0.000001
# 6 0.000000 0.000000 0.000000 -0.002890 0.000001 0.057019
#
#
# Mechanical properties :
#
#
# Convention : Reuss Voigt Hill
#
# Bulk Modulus (GPa) = 26.82425 58.12613 42.47519
# Shear Modulus (GPa) = 11.47194 21.25533 16.36364
#
# Velocity S-wave (km/s) = 2.55923 3.48357 3.05654
# Velocity P-wave (km/s) = 4.90383 7.02610 6.05861
#
# Compressibility (1/GPa) = 0.03727970
#
# Stress axis : x y z
#
# Youngs Moduli (GPa) = 23.03066 92.93077 88.59833
#
# Poissons Ratio (x) = 0.27016 0.64200
# Poissons Ratio (y) = 0.06695 0.34915
# Poissons Ratio (z) = 0.16689 0.36622
#
# Static dielectric constant tensor:
#      x y z
#    x 1.550380 0.000000 -0.003170 
#    y 0.000000 1.631950 0.000000 
#    z -0.003170 0.000000 1.619760 
# 
# From -- ./inp_files/286689.got.cif
#   From: 2010.05.17/outbox.cif.g08.bks.cpg/sg12_144_cif.got.tgz:286689.got - 2010.06.03 13:09:07.
