data_PCOD9182107
_publ_section_title
;
Structure prediction by ZEFSAII (Michael W. Deem and Ramdas Pophale) SiO2 
 PCOD9182107
Probable space group: C 2/M
;
_chemical_formula_sum "Si O2"
_cell_formula_units_Z 60
_cell_length_a 25.075381
_cell_length_b 8.993690
_cell_length_c 15.377601
_cell_angle_alpha 90.000000
_cell_angle_beta 117.089104
_cell_angle_gamma 90.000000
_cell_volume 3087.522513
_symmetry_space_group_name_H-M "C 2/M"
_symmetry_group_IT_number 12
_symmetry_cell_setting 'monoclinic'
loop_
_space_group_symop_operation_xyz
x,y,z
-x,y,-z
-x,-y,-z
x,-y,z
1/2+x,1/2+y,z
1/2-x,1/2+y,-z
1/2-x,1/2-y,-z
1/2+x,1/2-y,z
loop_
_atom_site_type_symbol
_atom_site_label
_atom_site_fract_x
_atom_site_fract_y
_atom_site_fract_z
Si Si1 0.500000 0.731766 0.000000
Si Si2 0.954337 0.178816 0.794201
Si Si3 0.157134 0.324645 0.717797
Si Si4 0.758812 0.324060 0.911770
Si Si5 0.623772 0.664167 0.002784
Si Si6 0.566663 0.327339 0.769653
Si Si7 0.819713 0.174760 0.636072
Si Si8 0.301705 0.325122 0.419104
O O1 0.522687 0.785499 0.111241
O O2 0.436579 0.663222 0.985109
O O3 0.885220 0.201058 0.723053
O O4 0.997900 0.201280 0.744574
O O5 0.963208 0.000000 0.824892
O O6 0.165612 0.500000 0.727912
O O7 0.210589 0.244408 0.810442
O O8 0.096328 0.276451 0.720661
O O9 0.160424 0.265945 0.622224
O O10 0.750699 0.500000 0.911600
O O11 0.750000 0.250000 0.000000
O O12 0.826421 0.282267 0.933952
O O13 0.651583 0.500000 0.029389
O O14 0.602778 0.689196 0.887770
O O15 0.572905 0.500000 0.747941
O O16 0.767264 0.272397 0.638088
O O17 0.820432 0.202474 0.532887
O O18 0.804819 0.000000 0.637618
O O19 0.306701 0.500000 0.405084
#
# Coordination Sequence:
#
# PCOD9182107 Si02
#       8
#     4   8   8   8   8   8   8   8
#     4  10  19  32  55  90 125 156 195 234 273 334
#     4   9  17  32  56  86 117 154 194 233 281 343
#     4  12  24  38  58  82 110 149 195 244 293 347
#     4  12  24  38  56  82 116 153 193 237 288 345
#     4  10  19  33  54  81 115 156 194 232 276 332
#     4   9  18  34  55  79 114 151 187 233 284 337
#     4   9  19  37  61  88 118 153 193 235 288 351
#     4  10  21  38  59  85 118 151 190 245 296 342
#
# _framework density 19.433056000000001
#
# number of rings (size 3 to 8) (size 9 to 14) (size 15 to 20)
#    0.000    1.867    1.333    4.800    1.867    0.533 
#    0.000    1.667    0.000    5.600    0.000    0.000 
#    0.000    0.000    0.000    0.000    0.000    0.000 
#
# Total GULP energy -167317.394453 kJ/mol
# GULP energy per Si atom -5577.246482 kJ/mol
# Density = 1.938883 g / cm^3
# Si number density = 19.433056 Si / 1000 Ang^3
#
#
#
# Elastic Constant Matrix: (Units=GPa)
#
#
# Indices 1 2 3 4 5 6 
#
# 1 94.8443 32.4504 23.9287 0.0000 -10.8745 0.0000
# 2 32.4504 84.0790 24.2241 0.0000 -17.4581 0.0000
# 3 23.9287 24.2241 33.9863 0.0000 -2.0492 0.0000
# 4 0.0000 0.0000 0.0000 17.1616 0.0000 0.8870
# 5 -10.8745 -17.4581 -2.0492 0.0000 32.0095 0.0000
# 6 0.0000 0.0000 0.0000 0.8870 0.0000 17.6756
#
#
#
# Elastic Compliance Matrix: (Units=1/GPa)
#
#
# Indices 1 2 3 4 5 6 
#
# 1 0.013648 -0.002475 -0.007676 0.000000 0.002795 0.000000
# 2 -0.002475 0.017460 -0.010218 0.000000 0.008027 0.000000
# 3 -0.007676 -0.010218 0.041779 0.000000 -0.005506 0.000000
# 4 0.000000 0.000000 0.000000 0.058421 0.000000 -0.002932
# 5 0.002795 0.008027 -0.005506 0.000000 0.036216 0.000000
# 6 0.000000 0.000000 0.000000 -0.002932 0.000000 0.056722
#
#
# Mechanical properties :
#
#
# Convention : Reuss Voigt Hill
#
# Bulk Modulus (GPa) = 31.10617 41.56844 36.33730
# Shear Modulus (GPa) = 18.13569 22.18977 20.16273
#
# Velocity S-wave (km/s) = 3.05821 3.38280 3.22459
# Velocity P-wave (km/s) = 5.33964 6.05763 5.70993
#
# Compressibility (1/GPa) = 0.03214796
#
# Stress axis : x y z
#
# Youngs Moduli (GPa) = 73.27281 57.27512 23.93558
#
# Poissons Ratio (x) = 0.14178 0.18373
# Poissons Ratio (y) = 0.18138 0.24456
# Poissons Ratio (z) = 0.56244 0.58522
#
# Static dielectric constant tensor:
#      x y z
#    x 1.691910 0.000000 -0.017290 
#    y 0.000000 1.679180 0.000000 
#    z -0.017290 0.000000 1.682700 
# 
# From -- ./inp_files/238822.got.cif
#   From: 2010.05.17/outbox.cif.g08.bks.cpg/sg12_120_cif.got.tgz:238822.got - 2010.06.03 13:09:07.
