data_PCOD9182702
_publ_section_title
;
Structure prediction by ZEFSAII (Michael W. Deem and Ramdas Pophale) SiO2 
 PCOD9182702
Probable space group: C 2/M
;
_chemical_formula_sum "Si O2"
_cell_formula_units_Z 48
_cell_length_a 21.598860
_cell_length_b 12.478983
_cell_length_c 12.750443
_cell_angle_alpha 90.000000
_cell_angle_beta 125.314782
_cell_angle_gamma 90.000000
_cell_volume 2804.266756
_symmetry_space_group_name_H-M "C 2/M"
_symmetry_group_IT_number 12
_symmetry_cell_setting 'monoclinic'
loop_
_space_group_symop_operation_xyz
x,y,z
-x,y,-z
-x,-y,-z
x,-y,z
1/2+x,1/2+y,z
1/2-x,1/2+y,-z
1/2-x,1/2-y,-z
1/2+x,1/2-y,z
loop_
_atom_site_type_symbol
_atom_site_label
_atom_site_fract_x
_atom_site_fract_y
_atom_site_fract_z
Si Si1 0.280292 0.371946 0.656310
Si Si2 0.976256 0.302427 0.361915
Si Si3 0.842013 0.618902 0.092596
Si Si4 0.864421 0.233029 0.547854
Si Si5 0.863034 0.875007 0.325770
Si Si6 0.776261 0.773353 0.877298
O O1 0.279019 0.500000 0.652214
O O2 0.198254 0.322523 0.544105
O O3 0.338519 0.323350 0.628866
O O4 0.297824 0.329079 0.790043
O O5 0.914241 0.370422 0.239255
O O6 0.933217 0.190317 0.345037
O O7 0.000000 0.346453 0.500000
O O8 0.052256 0.283729 0.370799
O O9 0.838313 0.500000 0.043833
O O10 0.767666 0.643470 0.090504
O O11 0.841368 0.712078 0.004834
O O12 0.864412 0.148819 0.451517
O O13 0.786993 0.817806 0.209400
O O14 0.865273 0.000000 0.305365
#
# Coordination Sequence:
#
# PCOD9182702 Si02
#       6
#     8   8   8   8   8   8
#     4  10  19  33  53  72  98 133 161 198 246 286
#     4   9  19  32  48  75 103 125 158 202 241 289
#     4  10  19  33  53  72  96 129 160 200 250 289
#     4   9  19  32  48  76 103 125 164 201 233 290
#     4   9  16  29  50  73 100 132 162 198 240 277
#     4   9  19  32  48  75 100 123 166 206 233 285
#
# _framework density 17.116773999999999
#
# number of rings (size 3 to 8) (size 9 to 14) (size 15 to 20)
#    0.000    2.667    0.000    2.500    0.000    4.667 
#    0.000    2.500    0.000    2.000    0.000    0.000 
#    0.000    0.000    0.000    0.000    0.000    0.000 
#
# Total GULP energy -133803.731006 kJ/mol
# GULP energy per Si atom -5575.155459 kJ/mol
# Density = 1.707782 g / cm^3
# Si number density = 17.116774 Si / 1000 Ang^3
#
#
#
# Elastic Constant Matrix: (Units=GPa)
#
#
# Indices 1 2 3 4 5 6 
#
# 1 93.4987 33.8146 25.3802 0.0000 -11.9828 0.0000
# 2 33.8146 91.7042 32.7457 0.0000 -9.7745 0.0000
# 3 25.3802 32.7457 75.8670 0.0000 -3.8449 0.0000
# 4 0.0000 0.0000 0.0000 9.9796 0.0000 -5.4660
# 5 -11.9828 -9.7745 -3.8449 0.0000 29.1666 0.0000
# 6 0.0000 0.0000 0.0000 -5.4660 0.0000 7.9550
#
#
#
# Elastic Compliance Matrix: (Units=1/GPa)
#
#
# Indices 1 2 3 4 5 6 
#
# 1 0.013189 -0.003479 -0.002713 0.000000 0.003895 0.000000
# 2 -0.003479 0.014199 -0.004828 0.000000 0.002692 0.000000
# 3 -0.002713 -0.004828 0.016142 0.000000 -0.000605 0.000000
# 4 0.000000 0.000000 0.000000 0.160672 0.000000 0.110399
# 5 0.003895 0.002692 -0.000605 0.000000 0.036709 0.000000
# 6 0.000000 0.000000 0.000000 0.110399 0.000000 0.201563
#
#
# Mechanical properties :
#
#
# Convention : Reuss Voigt Hill
#
# Bulk Modulus (GPa) = 46.53605 49.43899 47.98752
# Shear Modulus (GPa) = 10.60047 20.69553 15.64800
#
# Velocity S-wave (km/s) = 2.49128 3.48095 3.02684
# Velocity P-wave (km/s) = 5.96001 6.71581 6.34917
#
# Compressibility (1/GPa) = 0.02148872
#
# Stress axis : x y z
#
# Youngs Moduli (GPa) = 75.81868 70.42975 61.95098
#
# Poissons Ratio (x) = 0.24506 0.16808
# Poissons Ratio (y) = 0.26381 0.29910
# Poissons Ratio (z) = 0.20571 0.34003
#
# Static dielectric constant tensor:
#      x y z
#    x 1.559410 0.000000 0.004990 
#    y 0.000000 1.564510 0.000000 
#    z 0.004990 0.000000 1.608570 
# 
# From -- ./inp_files/164693.got.cif
#   From: 2010.05.17/outbox.cif.g08.bks.cpg/sg12_83_cif.got.tgz:164693.got - 2010.06.03 13:09:07.
