data_PCOD9182128
_publ_section_title
;
Structure prediction by ZEFSAII (Michael W. Deem and Ramdas Pophale) SiO2 
 PCOD9182128
Probable space group: C 2/M
;
_chemical_formula_sum "Si O2"
_cell_formula_units_Z 40
_cell_length_a 12.784494
_cell_length_b 16.562439
_cell_length_c 10.731976
_cell_angle_alpha 90.000000
_cell_angle_beta 74.673700
_cell_angle_gamma 90.000000
_cell_volume 2191.598671
_symmetry_space_group_name_H-M "C 2/M"
_symmetry_group_IT_number 12
_symmetry_cell_setting 'monoclinic'
loop_
_space_group_symop_operation_xyz
x,y,z
-x,y,-z
-x,-y,-z
x,-y,z
1/2+x,1/2+y,z
1/2-x,1/2+y,-z
1/2-x,1/2-y,-z
1/2+x,1/2-y,z
loop_
_atom_site_type_symbol
_atom_site_label
_atom_site_fract_x
_atom_site_fract_y
_atom_site_fract_z
Si Si1 0.060337 0.093201 0.361320
Si Si2 0.261626 0.828664 0.675534
Si Si3 0.049878 0.097863 0.853509
Si Si4 0.784554 0.356331 0.378608
Si Si5 0.021925 0.408268 0.344366
O O1 0.022105 0.126947 0.241489
O O2 0.188364 0.096223 0.341598
O O3 0.000000 0.132685 0.500000
O O4 0.024421 0.000000 0.370116
O O5 0.234589 0.735435 0.659001
O O6 0.263629 0.865057 0.534153
O O7 0.378096 0.846962 0.700467
O O8 0.169064 0.869654 0.786534
O O9 0.052313 0.000000 0.855682
O O10 0.000000 0.125278 0.000000
O O11 0.908157 0.383050 0.318324
O O12 0.051931 0.500000 0.298509
O O13 0.000000 0.409142 0.500000
#
# Coordination Sequence:
#
# PCOD9182128 Si02
#       5
#     8   8   8   8   8
#     4  10  19  32  56  82 109 141 181 233 276 319
#     4  10  20  32  53  80 111 143 179 228 277 331
#     4  10  21  37  57  81 111 148 187 226 273 331
#     4  10  20  31  53  82 114 138 176 231 285 326
#     4   9  18  31  49  76 110 146 180 219 275 338
#
# _framework density 18.251518000000001
#
# number of rings (size 3 to 8) (size 9 to 14) (size 15 to 20)
#    0.000    2.200    2.000    1.200    2.800    2.400 
#    0.000    1.000    0.000    0.000    0.000    5.600 
#    0.000    0.000    0.000    0.000    0.000    0.000 
#
# Total GULP energy -111461.767881 kJ/mol
# GULP energy per Si atom -5573.088394 kJ/mol
# Density = 1.820998 g / cm^3
# Si number density = 18.251518 Si / 1000 Ang^3
#
#
#
# Elastic Constant Matrix: (Units=GPa)
#
#
# Indices 1 2 3 4 5 6 
#
# 1 136.3915 18.9335 54.4343 0.0000 -13.4554 0.0000
# 2 18.9335 30.9074 24.4201 0.0000 -4.0243 0.0000
# 3 54.4343 24.4201 104.0185 0.0000 -1.3226 0.0000
# 4 0.0000 0.0000 0.0000 3.8358 0.0000 -4.9547
# 5 -13.4554 -4.0243 -1.3226 0.0000 20.1372 0.0000
# 6 0.0000 0.0000 0.0000 -4.9547 0.0000 18.7771
#
#
#
# Elastic Compliance Matrix: (Units=1/GPa)
#
#
# Indices 1 2 3 4 5 6 
#
# 1 0.010079 -0.001563 -0.004830 0.000000 0.006105 0.000000
# 2 -0.001563 0.041077 -0.008742 0.000000 0.006590 0.000000
# 3 -0.004830 -0.008742 0.014142 0.000000 -0.004045 0.000000
# 4 0.000000 0.000000 0.000000 0.395497 0.000000 0.104359
# 5 0.006105 0.006590 -0.004045 0.000000 0.054790 0.000000
# 6 0.000000 0.000000 0.000000 0.104359 0.000000 0.080793
#
#
# Mechanical properties :
#
#
# Convention : Reuss Voigt Hill
#
# Bulk Modulus (GPa) = 28.54806 51.87700 40.21253
# Shear Modulus (GPa) = 7.83302 20.11866 13.97584
#
# Velocity S-wave (km/s) = 2.07389 3.32369 2.77020
# Velocity P-wave (km/s) = 4.62711 6.57376 5.68439
#
# Compressibility (1/GPa) = 0.03502864
#
# Stress axis : x y z
#
# Youngs Moduli (GPa) = 99.21986 24.34434 70.71165
#
# Poissons Ratio (x) = 0.03806 0.34151
# Poissons Ratio (y) = 0.15510 0.61814
# Poissons Ratio (z) = 0.47920 0.21281
#
# Static dielectric constant tensor:
#      x y z
#    x 1.638660 0.000000 0.005000 
#    y 0.000000 1.932370 0.000000 
#    z 0.005000 0.000000 1.615100 
# 
# From -- ./inp_files/46969.got.cif
#   From: 2010.05.17/outbox.cif.g08.bks.cpg/sg12_24_cif.got.tgz:46969.got - 2010.06.03 13:09:07.
