data_PCOD9182858
_publ_section_title
;
Structure prediction by ZEFSAII (Michael W. Deem and Ramdas Pophale) SiO2 
 PCOD9182858
Probable space group: C 2/M
;
_chemical_formula_sum "Si O2"
_cell_formula_units_Z 48
_cell_length_a 19.843900
_cell_length_b 8.824043
_cell_length_c 30.398219
_cell_angle_alpha 90.000000
_cell_angle_beta 148.947255
_cell_angle_gamma 90.000000
_cell_volume 2745.660320
_symmetry_space_group_name_H-M "C 2/M"
_symmetry_group_IT_number 12
_symmetry_cell_setting 'monoclinic'
loop_
_space_group_symop_operation_xyz
x,y,z
-x,y,-z
-x,-y,-z
x,-y,z
1/2+x,1/2+y,z
1/2-x,1/2+y,-z
1/2-x,1/2-y,-z
1/2+x,1/2-y,z
loop_
_atom_site_type_symbol
_atom_site_label
_atom_site_fract_x
_atom_site_fract_y
_atom_site_fract_z
Si Si1 0.369307 0.819292 0.593474
Si Si2 0.349599 0.317844 0.266107
Si Si3 0.217704 0.819699 0.870253
Si Si4 0.563742 0.181416 0.271350
Si Si5 0.131461 0.317755 0.212650
Si Si6 0.140859 0.819609 0.971544
O O1 0.250000 0.750000 0.500000
O O2 0.508865 0.758436 0.654751
O O3 0.365156 0.779917 0.643246
O O4 0.366070 0.000000 0.587917
O O5 0.367562 0.500000 0.277452
O O6 0.280875 0.282519 0.180822
O O7 0.256132 0.271442 0.253697
O O8 0.074200 0.767825 0.806178
O O9 0.232304 0.000000 0.883752
O O10 0.321895 0.735307 0.958730
O O11 0.640807 0.215530 0.269811
O O12 0.536596 0.000000 0.256813
O O13 0.117216 0.500000 0.199893
O O14 0.000282 0.241161 0.121387
O O15 0.146304 0.000000 0.971572
O O16 0.250000 0.750000 0.000000
#
# Coordination Sequence:
#
# PCOD9182858 Si02
#       6
#     8   8   8   8   8   8
#     4  10  20  36  59  84 107 137 177 221 268 325
#     4   9  20  37  57  81 110 142 176 219 272 324
#     4  10  19  33  53  77 106 143 184 223 265 314
#     4   9  18  33  55  79 104 138 181 222 265 317
#     4  10  20  36  56  79 109 143 179 223 272 317
#     4  12  23  34  51  77 108 144 188 229 265 311
#
# _framework density 17.482133999999999
#
# number of rings (size 3 to 8) (size 9 to 14) (size 15 to 20)
#    0.000    2.000    1.667    2.500    0.000    2.667 
#    0.000    4.167    0.000    5.000    0.000    0.000 
#    0.000    0.000    0.000    0.000    0.000    0.000 
#
# Total GULP energy -133974.949760 kJ/mol
# GULP energy per Si atom -5582.289573 kJ/mol
# Density = 1.744234 g / cm^3
# Si number density = 17.482134 Si / 1000 Ang^3
#
#
#
# Elastic Constant Matrix: (Units=GPa)
#
#
# Indices 1 2 3 4 5 6 
#
# 1 162.5505 53.5604 81.4579 0.0000 0.6734 0.0000
# 2 53.5604 49.8919 53.4569 0.0000 -3.7015 0.0002
# 3 81.4579 53.4569 138.6995 0.0000 -12.6730 0.0000
# 4 0.0000 0.0000 0.0000 32.7166 0.0000 0.0805
# 5 0.6734 -3.7015 -12.6730 0.0000 16.7466 0.0000
# 6 0.0000 0.0002 0.0000 0.0805 0.0000 21.4886
#
#
#
# Elastic Compliance Matrix: (Units=1/GPa)
#
#
# Indices 1 2 3 4 5 6 
#
# 1 0.010573 -0.007803 -0.003651 0.000000 -0.004913 0.000000
# 2 -0.007803 0.040006 -0.010743 0.000000 0.001027 0.000000
# 3 -0.003651 -0.010743 0.014278 0.000000 0.008577 0.000000
# 4 0.000000 0.000000 0.000000 0.030566 0.000000 -0.000114
# 5 -0.004913 0.001027 0.008577 0.000000 0.066629 0.000000
# 6 0.000000 0.000000 0.000000 -0.000114 0.000000 0.046537
#
#
# Mechanical properties :
#
#
# Convention : Reuss Voigt Hill
#
# Bulk Modulus (GPa) = 48.86531 80.89915 64.88223
# Shear Modulus (GPa) = 19.24531 25.03482 22.14007
#
# Velocity S-wave (km/s) = 3.32151 3.78831 3.56257
# Velocity P-wave (km/s) = 6.53622 8.09388 7.35639
#
# Compressibility (1/GPa) = 0.02046441
#
# Stress axis : x y z
#
# Youngs Moduli (GPa) = 94.58090 24.99597 70.03746
#
# Poissons Ratio (x) = 0.19504 0.25570
# Poissons Ratio (y) = 0.73802 0.75238
# Poissons Ratio (z) = 0.34531 0.26852
#
# Static dielectric constant tensor:
#      x y z
#    x 1.612570 0.000000 -0.026530 
#    y 0.000000 1.587890 0.000000 
#    z -0.026530 0.000000 1.556710 
# 
# From -- ./inp_files/248777.got.cif
#   From: 2010.05.17/outbox.cif.g08.bks.cpg/sg12_125_cif.got.tgz:248777.got - 2010.06.03 13:09:07.
