data_PCOD9182700
_publ_section_title
;
Structure prediction by ZEFSAII (Michael W. Deem and Ramdas Pophale) SiO2 
 PCOD9182700
Probable space group: C 2/M
;
_chemical_formula_sum "Si O2"
_cell_formula_units_Z 56
_cell_length_a 14.773531
_cell_length_b 7.974682
_cell_length_c 33.389726
_cell_angle_alpha 90.000000
_cell_angle_beta 47.557059
_cell_angle_gamma 90.000000
_cell_volume 2902.935179
_symmetry_space_group_name_H-M "C 2/M"
_symmetry_group_IT_number 12
_symmetry_cell_setting 'monoclinic'
loop_
_space_group_symop_operation_xyz
x,y,z
-x,y,-z
-x,-y,-z
x,-y,z
1/2+x,1/2+y,z
1/2-x,1/2+y,-z
1/2-x,1/2-y,-z
1/2+x,1/2-y,z
loop_
_atom_site_type_symbol
_atom_site_label
_atom_site_fract_x
_atom_site_fract_y
_atom_site_fract_z
Si Si1 0.219184 0.801515 0.358352
Si Si2 0.170524 0.298336 0.148378
Si Si3 0.057260 0.203447 0.550352
Si Si4 0.878289 0.701637 0.149064
Si Si5 0.265686 0.301218 0.430804
Si Si6 0.891388 0.705391 0.236074
Si Si7 0.344346 0.798081 0.937497
O O1 0.282181 0.776633 0.382425
O O2 0.299699 0.733231 0.297778
O O3 0.081113 0.733292 0.404071
O O4 0.205997 0.000000 0.355037
O O5 0.167238 0.500000 0.148172
O O6 0.274256 0.249860 0.148811
O O7 0.193700 0.239356 0.095768
O O8 0.032599 0.242145 0.200908
O O9 0.132170 0.260685 0.489054
O O10 0.137038 0.258364 0.564995
O O11 0.056480 0.000000 0.549392
O O12 0.882437 0.500000 0.148829
O O13 0.854786 0.757253 0.201943
O O14 0.015747 0.760888 0.096687
O O15 0.278338 0.500000 0.423337
O O16 0.890565 0.500000 0.237064
O O17 0.348151 0.000000 0.935041
O O18 0.250000 0.750000 0.000000
#
# Coordination Sequence:
#
# PCOD9182700 Si02
#       7
#     8   8   8   8   8   8   8
#     4  10  19  33  53  72  93 127 165 197 237 293
#     4   9  18  34  53  73  99 131 164 200 245 290
#     4   9  19  34  50  69  95 128 162 193 236 297
#     4   9  18  34  54  74  98 132 169 202 239 286
#     4  10  20  33  49  72 100 125 155 201 248 287
#     4   8  17  34  52  70  96 129 163 199 241 290
#     4   9  19  34  51  74 105 135 165 202 242 287
#
# _framework density 19.290821000000001
#
# number of rings (size 3 to 8) (size 9 to 14) (size 15 to 20)
#    0.000    2.857    0.000    2.571    0.000    5.714 
#    0.000    7.857    0.000    0.000    0.000    0.000 
#    0.000    0.000    0.000    0.000    0.000    0.000 
#
# Total GULP energy -156147.481060 kJ/mol
# GULP energy per Si atom -5576.695752 kJ/mol
# Density = 1.924691 g / cm^3
# Si number density = 19.290821 Si / 1000 Ang^3
#
#
#
# Elastic Constant Matrix: (Units=GPa)
#
#
# Indices 1 2 3 4 5 6 
#
# 1 131.0697 2.7891 67.8430 -0.0002 11.2561 -0.0003
# 2 2.7891 8.7657 5.7883 0.0009 -2.8584 0.0000
# 3 67.8430 5.7883 154.0079 -0.0001 8.7179 -0.0002
# 4 -0.0002 0.0009 -0.0001 19.4369 0.0002 4.1914
# 5 11.2561 -2.8584 8.7179 0.0002 11.5595 0.0001
# 6 -0.0003 0.0000 -0.0002 4.1914 0.0001 27.4082
#
#
#
# Elastic Compliance Matrix: (Units=1/GPa)
#
#
# Indices 1 2 3 4 5 6 
#
# 1 0.010474 -0.003259 -0.004041 0.000000 -0.007957 0.000000
# 2 -0.003259 0.132061 -0.005804 -0.000007 0.040206 0.000001
# 3 -0.004041 -0.005804 0.008722 0.000000 -0.004078 0.000000
# 4 0.000000 -0.000007 0.000000 0.053203 -0.000003 -0.008136
# 5 -0.007957 0.040206 -0.004078 -0.000003 0.107275 0.000000
# 6 0.000000 0.000001 0.000000 -0.008136 0.000000 0.037730
#
#
# Mechanical properties :
#
#
# Convention : Reuss Voigt Hill
#
# Bulk Modulus (GPa) = 7.99679 49.63157 28.81418
# Shear Modulus (GPa) = 11.98018 26.17578 19.07798
#
# Velocity S-wave (km/s) = 2.49475 3.68761 3.14820
# Velocity P-wave (km/s) = 3.52885 6.62686 5.30886
#
# Compressibility (1/GPa) = 0.12505013
#
# Stress axis : x y z
#
# Youngs Moduli (GPa) = 95.47542 7.57223 114.64867
#
# Poissons Ratio (x) = 0.02468 0.46330
# Poissons Ratio (y) = 0.31115 0.66539
# Poissons Ratio (z) = 0.38582 0.04395
#
# Static dielectric constant tensor:
#      x y z
#    x 1.672560 0.000000 -0.006650 
#    y 0.000000 1.697950 0.000000 
#    z -0.006650 0.000000 1.662080 
# 
# From -- ./inp_files/337888.got.cif
#   From: 2010.05.17/outbox.cif.g08.bks.cpg/sg12_169_cif.got.tgz:337888.got - 2010.06.03 13:09:07.
