data_PCOD9182283
_publ_section_title
;
Structure prediction by ZEFSAII (Michael W. Deem and Ramdas Pophale) SiO2 
 PCOD9182283
Probable space group: C 2/M
;
_chemical_formula_sum "Si O2"
_cell_formula_units_Z 32
_cell_length_a 7.975572
_cell_length_b 22.801750
_cell_length_c 10.077190
_cell_angle_alpha 90.000000
_cell_angle_beta 127.220588
_cell_angle_gamma 90.000000
_cell_volume 1459.328498
_symmetry_space_group_name_H-M "C 2/M"
_symmetry_group_IT_number 12
_symmetry_cell_setting 'monoclinic'
loop_
_space_group_symop_operation_xyz
x,y,z
-x,y,-z
-x,-y,-z
x,-y,z
1/2+x,1/2+y,z
1/2-x,1/2+y,-z
1/2-x,1/2-y,-z
1/2+x,1/2-y,z
loop_
_atom_site_type_symbol
_atom_site_label
_atom_site_fract_x
_atom_site_fract_y
_atom_site_fract_z
Si Si1 0.804700 0.434056 0.250402
Si Si2 0.149605 0.065558 0.869286
Si Si3 0.000000 0.778034 0.500000
Si Si4 0.540186 0.181927 0.309109
Si Si5 0.000000 0.344593 0.000000
O O1 0.884644 0.500000 0.314575
O O2 0.599485 0.423022 0.243421
O O3 0.963005 0.380214 0.328406
O O4 0.722835 0.434993 0.058478
O O5 0.186566 0.000000 0.832577
O O6 0.298464 0.113588 0.875224
O O7 0.792076 0.813505 0.435318
O O8 0.050115 0.734596 0.646096
O O9 0.466392 0.188721 0.121241
#
# Coordination Sequence:
#
# PCOD9182283 Si02
#       5
#     8   8   4   8   4
#     4   8  15  31  56  85 117 149 182 227 286 345
#     4   8  14  26  50  88 125 146 169 226 297 340
#     4  10  24  44  58  74 116 164 190 230 292 342
#     4  10  22  40  61  83 111 152 195 234 285 339
#     4  10  19  32  60  92 112 140 197 246 266 326
#
# _framework density 21.927892
#
# number of rings (size 3 to 8) (size 9 to 14) (size 15 to 20)
#    0.000    3.000    0.000    1.875    0.000    6.000 
#    0.000    3.750    0.000    0.000    0.000    0.000 
#    0.000    0.000    0.000    2.625    0.000    0.000 
#
# Total GULP energy -89347.990167 kJ/mol
# GULP energy per Si atom -5584.249385 kJ/mol
# Density = 2.187798 g / cm^3
# Si number density = 21.927892 Si / 1000 Ang^3
#
#
#
# Elastic Constant Matrix: (Units=GPa)
#
#
# Indices 1 2 3 4 5 6 
#
# 1 78.9506 65.2251 27.6013 0.0000 7.9555 0.0000
# 2 65.2251 120.3726 52.1427 0.0000 25.9958 0.0000
# 3 27.6013 52.1427 59.0776 0.0000 -13.8075 0.0000
# 4 0.0000 0.0000 0.0000 16.2917 0.0000 10.7182
# 5 7.9555 25.9958 -13.8075 0.0000 40.5476 0.0000
# 6 0.0000 0.0000 0.0000 10.7182 0.0000 26.5913
#
#
#
# Elastic Compliance Matrix: (Units=1/GPa)
#
#
# Indices 1 2 3 4 5 6 
#
# 1 0.024300 -0.017991 0.006636 0.000000 0.009026 0.000000
# 2 -0.017991 0.041659 -0.036702 0.000000 -0.035677 0.000000
# 3 0.006636 -0.036702 0.055862 0.000000 0.041251 0.000000
# 4 0.000000 0.000000 0.000000 0.083531 0.000000 -0.033669
# 5 0.009026 -0.035677 0.041251 0.000000 0.059811 0.000000
# 6 0.000000 0.000000 0.000000 -0.033669 0.000000 0.051177
#
#
# Mechanical properties :
#
#
# Convention : Reuss Voigt Hill
#
# Bulk Modulus (GPa) = 38.90123 60.92656 49.91389
# Shear Modulus (GPa) = 11.87579 24.24825 18.06202
#
# Velocity S-wave (km/s) = 2.32972 3.32899 2.87313
# Velocity P-wave (km/s) = 5.00158 6.52852 5.81538
#
# Compressibility (1/GPa) = 0.02570613
#
# Stress axis : x y z
#
# Youngs Moduli (GPa) = 41.15222 24.00418 17.90140
#
# Poissons Ratio (x) = 0.43186 -0.11879
# Poissons Ratio (y) = 0.74037 0.65702
# Poissons Ratio (z) = -0.27307 0.88100
#
# Static dielectric constant tensor:
#      x y z
#    x 1.791770 0.000000 0.011870 
#    y 0.000000 1.787160 0.000000 
#    z 0.011870 0.000000 1.826820 
# 
# From -- ./inp_files/120532.got.cif
#   From: 2010.05.17/outbox.cif.g08.bks.cpg/sg12_61_cif.got.tgz:120532.got - 2010.06.03 13:09:07.
