data_PCOD9182447
_publ_section_title
;
Structure prediction by ZEFSAII (Michael W. Deem and Ramdas Pophale) SiO2 
 PCOD9182447
Probable space group: C 2/M
;
_chemical_formula_sum "Si O2"
_cell_formula_units_Z 48
_cell_length_a 24.618790
_cell_length_b 26.386869
_cell_length_c 7.836164
_cell_angle_alpha 90.000000
_cell_angle_beta 148.768635
_cell_angle_gamma 90.000000
_cell_volume 2639.385355
_symmetry_space_group_name_H-M "C 2/M"
_symmetry_group_IT_number 12
_symmetry_cell_setting 'monoclinic'
loop_
_space_group_symop_operation_xyz
x,y,z
-x,y,-z
-x,-y,-z
x,-y,z
1/2+x,1/2+y,z
1/2-x,1/2+y,-z
1/2-x,1/2-y,-z
1/2+x,1/2-y,z
loop_
_atom_site_type_symbol
_atom_site_label
_atom_site_fract_x
_atom_site_fract_y
_atom_site_fract_z
Si Si1 0.389461 0.356551 0.794501
Si Si2 0.786613 0.784320 0.754636
Si Si3 0.259819 0.059422 0.469121
Si Si4 0.794734 0.316565 0.935526
Si Si5 0.051373 0.393957 0.813280
Si Si6 0.838824 0.367074 0.411397
O O1 0.380858 0.319337 0.936858
O O2 0.337098 0.409310 0.712207
O O3 0.310680 0.331744 0.445537
O O4 0.500000 0.361434 0.000000
O O5 0.750000 0.750000 0.500000
O O6 0.809106 0.744106 0.965251
O O7 0.690894 0.822087 0.539128
O O8 0.285424 0.084003 0.353231
O O9 0.241865 0.000000 0.412301
O O10 0.361201 0.071937 0.860312
O O11 0.889806 0.342885 0.088336
O O12 0.794136 0.344627 0.114976
O O13 0.000000 0.415701 0.500000
O O14 0.958378 0.380236 0.692258
#
# Coordination Sequence:
#
# PCOD9182447 Si02
#       6
#     8   8   8   8   8   8
#     4   9  19  36  55  74 101 137 177 223 262 302
#     4   9  18  31  50  76 104 137 175 210 254 312
#     4  10  21  36  54  77 103 136 179 222 267 315
#     4   9  18  33  51  77 106 134 171 209 256 315
#     4   9  19  34  53  77 105 134 168 215 263 313
#     4  10  19  33  51  74 108 138 166 214 263 313
#
# _framework density 18.186052
#
# number of rings (size 3 to 8) (size 9 to 14) (size 15 to 20)
#    0.000    2.667    0.000    2.000    0.000    4.667 
#    0.000   11.667    0.000    1.000    0.000    0.000 
#    0.000    0.000    0.000    0.000    0.000    0.000 
#
# Total GULP energy -133667.898338 kJ/mol
# GULP energy per Si atom -5569.495764 kJ/mol
# Density = 1.814466 g / cm^3
# Si number density = 18.186052 Si / 1000 Ang^3
#
#
#
# Elastic Constant Matrix: (Units=GPa)
#
#
# Indices 1 2 3 4 5 6 
#
# 1 130.1981 66.1898 52.0187 0.0000 26.7925 0.0000
# 2 66.1898 157.9679 39.6961 0.0000 15.1985 0.0000
# 3 52.0187 39.6961 64.3899 0.0000 19.0887 0.0000
# 4 0.0000 0.0000 0.0000 9.4010 0.0000 -8.0394
# 5 26.7925 15.1985 19.0887 0.0000 43.0356 0.0000
# 6 0.0000 0.0000 0.0000 -8.0394 0.0000 15.4495
#
#
#
# Elastic Compliance Matrix: (Units=1/GPa)
#
#
# Indices 1 2 3 4 5 6 
#
# 1 0.013072 -0.003247 -0.007468 0.000000 -0.003679 0.000000
# 2 -0.003247 0.008315 -0.002570 0.000000 0.000225 0.000000
# 3 -0.007468 -0.002570 0.024756 0.000000 -0.005424 0.000000
# 4 0.000000 0.000000 0.000000 0.191659 0.000000 0.099733
# 5 -0.003679 0.000225 -0.005424 0.000000 0.027853 0.000000
# 6 0.000000 0.000000 0.000000 0.099733 0.000000 0.116625
#
#
# Mechanical properties :
#
#
# Convention : Reuss Voigt Hill
#
# Bulk Modulus (GPa) = 51.08986 74.26278 62.67632
# Shear Modulus (GPa) = 12.03733 26.55397 19.29565
#
# Velocity S-wave (km/s) = 2.57553 3.82531 3.26085
# Velocity P-wave (km/s) = 6.08263 7.77395 6.97971
#
# Compressibility (1/GPa) = 0.01957335
#
# Stress axis : x y z
#
# Youngs Moduli (GPa) = 76.49915 120.26565 40.39422
#
# Poissons Ratio (x) = 0.39045 0.30168
# Poissons Ratio (y) = 0.24836 0.10381
# Poissons Ratio (z) = 0.57132 0.30907
#
# Static dielectric constant tensor:
#      x y z
#    x 1.689070 0.000000 -0.030780 
#    y 0.000000 1.628650 0.000000 
#    z -0.030780 0.000000 1.631540 
# 
# From -- ./inp_files/51938.got.cif
#   From: 2010.05.17/outbox.cif.g08.bks.cpg/sg12_26_cif.got.tgz:51938.got - 2010.06.03 13:09:07.
