data_PCOD9182431
_publ_section_title
;
Structure prediction by ZEFSAII (Michael W. Deem and Ramdas Pophale) SiO2 
 PCOD9182431
Probable space group: C 2/M
;
_chemical_formula_sum "Si O2"
_cell_formula_units_Z 56
_cell_length_a 9.760823
_cell_length_b 20.621268
_cell_length_c 14.888822
_cell_angle_alpha 90.000000
_cell_angle_beta 94.954309
_cell_angle_gamma 90.000000
_cell_volume 2985.633732
_symmetry_space_group_name_H-M "C 2/M"
_symmetry_group_IT_number 12
_symmetry_cell_setting 'monoclinic'
loop_
_space_group_symop_operation_xyz
x,y,z
-x,y,-z
-x,-y,-z
x,-y,z
1/2+x,1/2+y,z
1/2-x,1/2+y,-z
1/2-x,1/2-y,-z
1/2+x,1/2-y,z
loop_
_atom_site_type_symbol
_atom_site_label
_atom_site_fract_x
_atom_site_fract_y
_atom_site_fract_z
Si Si1 0.951230 0.106546 0.789498
Si Si2 0.299185 0.927073 0.353598
Si Si3 0.027068 0.243076 0.295766
Si Si4 0.199999 0.718373 0.588920
Si Si5 0.746148 0.427355 0.860904
Si Si6 0.488911 0.878470 0.207917
Si Si7 0.245507 0.421375 0.933963
O O1 0.843876 0.077937 0.710612
O O2 0.997031 0.176683 0.757276
O O3 0.864717 0.106832 0.876894
O O4 0.093138 0.070414 0.814003
O O5 0.304982 0.860853 0.413181
O O6 0.421038 0.917440 0.287227
O O7 0.308733 0.000000 0.393820
O O8 0.187436 0.239637 0.330399
O O9 0.979684 0.303422 0.233472
O O10 0.943002 0.252793 0.383423
O O11 0.250000 0.750000 0.500000
O O12 0.802645 0.500000 0.872510
O O13 0.852755 0.391712 0.803086
O O14 0.741179 0.400739 0.962108
O O15 0.397826 0.898367 0.117196
O O16 0.255444 0.500000 0.929092
#
# Coordination Sequence:
#
# PCOD9182431 Si02
#       7
#     8   8   8   8   8   8   8
#     4  10  19  33  51  73 103 136 173 213 253 300
#     4   9  18  34  57  79 102 137 173 205 252 311
#     4  10  21  36  55  78 102 134 172 204 249 316
#     4  10  20  36  60  82 105 135 165 205 257 317
#     4  11  20  30  49  76 103 131 172 224 264 293
#     4  10  19  33  51  73 103 136 173 213 253 300
#     4  10  20  34  50  69  98 141 182 214 257 303
#
# _framework density 18.756487
#
# number of rings (size 3 to 8) (size 9 to 14) (size 15 to 20)
#    0.000    2.000    0.000    6.429    0.000    2.286 
#    0.000    4.286    0.000   18.857    0.000    0.000 
#    0.000    0.000    0.000    0.000    0.000    0.000 
#
# Total GULP energy -156116.774950 kJ/mol
# GULP energy per Si atom -5575.599105 kJ/mol
# Density = 1.871380 g / cm^3
# Si number density = 18.756487 Si / 1000 Ang^3
#
#
#
# Elastic Constant Matrix: (Units=GPa)
#
#
# Indices 1 2 3 4 5 6 
#
# 1 84.5729 15.1625 2.3905 0.0000 -11.0730 0.0000
# 2 15.1625 114.5818 36.2403 0.0000 -13.7685 0.0000
# 3 2.3905 36.2403 46.9136 0.0000 -9.9087 0.0000
# 4 0.0000 0.0000 0.0000 9.0550 0.0000 1.2118
# 5 -11.0730 -13.7685 -9.9087 0.0000 19.1455 0.0000
# 6 0.0000 0.0000 0.0000 1.2118 0.0000 24.9276
#
#
#
# Elastic Compliance Matrix: (Units=1/GPa)
#
#
# Indices 1 2 3 4 5 6 
#
# 1 0.013016 -0.001469 0.002064 0.000000 0.007540 0.000000
# 2 -0.001469 0.012015 -0.008489 0.000000 0.003397 0.000000
# 3 0.002064 -0.008489 0.030012 0.000000 0.010621 0.000000
# 4 0.000000 0.000000 0.000000 0.111159 0.000000 -0.005404
# 5 0.007540 0.003397 0.010621 0.000000 0.064532 0.000000
# 6 0.000000 0.000000 0.000000 -0.005404 0.000000 0.040379
#
#
# Mechanical properties :
#
#
# Convention : Reuss Voigt Hill
#
# Bulk Modulus (GPa) = 25.47459 39.29499 32.38479
# Shear Modulus (GPa) = 16.66741 23.44396 20.05568
#
# Velocity S-wave (km/s) = 2.98421 3.53924 3.27351
# Velocity P-wave (km/s) = 5.04829 6.13981 5.62061
#
# Compressibility (1/GPa) = 0.03925480
#
# Stress axis : x y z
#
# Youngs Moduli (GPa) = 76.82628 83.22938 33.32044
#
# Poissons Ratio (x) = 0.12229 -0.06878
# Poissons Ratio (y) = 0.11288 0.28286
# Poissons Ratio (z) = -0.15859 0.70654
#
# Static dielectric constant tensor:
#      x y z
#    x 1.645800 0.000000 0.009290 
#    y 0.000000 1.654980 0.000000 
#    z 0.009290 0.000000 1.656890 
# 
# From -- ./inp_files/197543.got.cif
#   From: 2010.05.17/outbox.cif.g08.bks.cpg/sg12_99_cif.got.tgz:197543.got - 2010.06.03 13:09:07.
