data_PCOD9182336
_publ_section_title
;
Structure prediction by ZEFSAII (Michael W. Deem and Ramdas Pophale) SiO2 
 PCOD9182336
Probable space group: C 2/M
;
_chemical_formula_sum "Si O2"
_cell_formula_units_Z 44
_cell_length_a 7.589742
_cell_length_b 26.789596
_cell_length_c 10.634909
_cell_angle_alpha 90.000000
_cell_angle_beta 91.018288
_cell_angle_gamma 90.000000
_cell_volume 2162.013311
_symmetry_space_group_name_H-M "C 2/M"
_symmetry_group_IT_number 12
_symmetry_cell_setting 'monoclinic'
loop_
_space_group_symop_operation_xyz
x,y,z
-x,y,-z
-x,-y,-z
x,-y,z
1/2+x,1/2+y,z
1/2-x,1/2+y,-z
1/2-x,1/2-y,-z
1/2+x,1/2-y,z
loop_
_atom_site_type_symbol
_atom_site_label
_atom_site_fract_x
_atom_site_fract_y
_atom_site_fract_z
Si Si1 0.000000 0.097643 0.500000
Si Si2 0.361700 0.057881 0.611401
Si Si3 0.386877 0.773438 0.600877
Si Si4 0.208442 0.192628 0.032989
Si Si5 0.794911 0.358063 0.795748
Si Si6 0.582164 0.668245 0.286280
O O1 0.158121 0.066330 0.564129
O O2 0.109925 0.134868 0.409271
O O3 0.500000 0.068736 0.500000
O O4 0.383597 0.094625 0.731177
O O5 0.386417 0.000000 0.645719
O O6 0.500000 0.803299 0.500000
O O7 0.250000 0.750000 0.500000
O O8 0.339105 0.810430 0.710069
O O9 0.466902 0.724046 0.667798
O O10 0.315793 0.157095 0.940452
O O11 0.250000 0.250000 0.000000
O O12 0.226625 0.177813 0.179901
O O13 0.000000 0.188439 0.000000
O O14 0.583122 0.360765 0.775640
#
# Coordination Sequence:
#
# PCOD9182336 Si02
#       6
#     4   8   8   8   8   8
#     4  10  19  38  60  84 112 148 177 234 294 332
#     4  10  21  39  61  86 110 141 189 241 287 334
#     4  12  19  28  46  71 104 139 168 214 266 320
#     4  10  20  34  50  73 111 153 183 220 268 333
#     4  10  20  34  52  76 109 146 181 225 282 326
#     4  10  19  33  49  76 113 142 178 224 264 341
#
# _framework density 20.351402
#
# number of rings (size 3 to 8) (size 9 to 14) (size 15 to 20)
#    0.000    1.636    4.545    1.909    0.000    0.000 
#    3.273    0.000    0.000   14.727    0.000    2.545 
#    0.000    0.000    0.000    0.000    0.000    0.000 
#
# Total GULP energy -122524.827441 kJ/mol
# GULP energy per Si atom -5569.310338 kJ/mol
# Density = 2.030508 g / cm^3
# Si number density = 20.351402 Si / 1000 Ang^3
#
#
#
# Elastic Constant Matrix: (Units=GPa)
#
#
# Indices 1 2 3 4 5 6 
#
# 1 48.9945 13.2452 17.1922 0.0000 -7.1748 0.0000
# 2 13.2452 125.6696 63.2215 0.0000 -16.5742 0.0000
# 3 17.1922 63.2215 160.8017 0.0000 -34.2295 0.0000
# 4 0.0000 0.0000 0.0000 25.2518 0.0000 -8.4697
# 5 -7.1748 -16.5742 -34.2295 0.0000 23.5845 0.0000
# 6 0.0000 0.0000 0.0000 -8.4697 0.0000 23.0486
#
#
#
# Elastic Compliance Matrix: (Units=1/GPa)
#
#
# Indices 1 2 3 4 5 6 
#
# 1 0.021710 -0.001259 -0.000881 0.000000 0.004442 0.000000
# 2 -0.001259 0.010051 -0.003466 0.000000 0.001650 0.000000
# 3 -0.000881 -0.003466 0.010274 0.000000 0.012208 0.000000
# 4 0.000000 0.000000 0.000000 0.045168 0.000000 0.016598
# 5 0.004442 0.001650 0.012208 0.000000 0.062630 0.000000
# 6 0.000000 0.000000 0.000000 0.016598 0.000000 0.049486
#
#
# Mechanical properties :
#
#
# Convention : Reuss Voigt Hill
#
# Bulk Modulus (GPa) = 32.44177 58.08707 45.26442
# Shear Modulus (GPa) = 22.64418 30.49744 26.57081
#
# Velocity S-wave (km/s) = 3.33927 3.87530 3.61723
# Velocity P-wave (km/s) = 5.55365 6.97337 6.30361
#
# Compressibility (1/GPa) = 0.03082446
#
# Stress axis : x y z
#
# Youngs Moduli (GPa) = 46.06094 99.48882 97.32932
#
# Poissons Ratio (x) = 0.12530 0.08570
# Poissons Ratio (y) = 0.05801 0.33733
# Poissons Ratio (z) = 0.04056 0.34482
#
# Static dielectric constant tensor:
#      x y z
#    x 1.848650 0.000000 0.007060 
#    y 0.000000 1.680440 0.000000 
#    z 0.007060 0.000000 1.805440 
# 
# From -- ./inp_files/122988.got.cif
#   From: 2010.05.17/outbox.cif.g08.bks.cpg/sg12_62_cif.got.tgz:122988.got - 2010.06.03 13:09:07.
