data_PCOD9182688
_publ_section_title
;
Structure prediction by ZEFSAII (Michael W. Deem and Ramdas Pophale) SiO2 
 PCOD9182688
Probable space group: C 2/M
;
_chemical_formula_sum "Si O2"
_cell_formula_units_Z 48
_cell_length_a 17.071840
_cell_length_b 20.514294
_cell_length_c 8.069881
_cell_angle_alpha 90.000000
_cell_angle_beta 66.084531
_cell_angle_gamma 90.000000
_cell_volume 2583.562114
_symmetry_space_group_name_H-M "C 2/M"
_symmetry_group_IT_number 12
_symmetry_cell_setting 'monoclinic'
loop_
_space_group_symop_operation_xyz
x,y,z
-x,y,-z
-x,-y,-z
x,-y,z
1/2+x,1/2+y,z
1/2-x,1/2+y,-z
1/2-x,1/2-y,-z
1/2+x,1/2-y,z
loop_
_atom_site_type_symbol
_atom_site_label
_atom_site_fract_x
_atom_site_fract_y
_atom_site_fract_z
Si Si1 0.071744 0.577101 0.228148
Si Si2 0.233665 0.822383 0.437902
Si Si3 0.285858 0.161211 0.016041
Si Si4 0.405915 0.140842 0.429760
Si Si5 0.563323 0.287769 0.701861
Si Si6 0.379688 0.708173 0.965745
O O1 0.069510 0.500000 0.248695
O O2 0.088721 0.612119 0.390644
O O3 0.977608 0.603396 0.260005
O O4 0.149936 0.600992 0.048197
O O5 0.250000 0.750000 0.500000
O O6 0.250786 0.825007 0.229003
O O7 0.308313 0.865576 0.454027
O O8 0.134336 0.834774 0.561681
O O9 0.343739 0.224170 0.922070
O O10 0.201424 0.159976 0.974196
O O11 0.430599 0.217313 0.392331
O O12 0.593140 0.278975 0.867900
O O13 0.465374 0.311044 0.794238
#
# Coordination Sequence:
#
# PCOD9182688 Si02
#       6
#     8   8   8   8   8   8
#     4  11  24  38  53  75 108 155 197 224 259 309
#     4  10  20  32  53  79 112 140 176 219 283 330
#     4  11  21  34  53  79 110 147 184 222 271 328
#     4  10  19  34  53  75 107 145 183 224 259 319
#     4  10  19  33  52  84 114 143 170 217 281 337
#     4  10  20  32  54  82 113 143 174 218 283 336
#
# _framework density 18.579000000000001
#
# number of rings (size 3 to 8) (size 9 to 14) (size 15 to 20)
#    0.000    1.667    5.000    2.000    7.000    1.333 
#    0.000    2.500    0.000    0.000    0.000   12.833 
#    0.000    0.000    0.000    0.000    0.000    0.000 
#
# Total GULP energy -133829.474662 kJ/mol
# GULP energy per Si atom -5576.228111 kJ/mol
# Density = 1.853671 g / cm^3
# Si number density = 18.579000 Si / 1000 Ang^3
#
#
#
# Elastic Constant Matrix: (Units=GPa)
#
#
# Indices 1 2 3 4 5 6 
#
# 1 123.6220 33.8367 47.6194 0.0000 -38.6948 0.0000
# 2 33.8367 54.2759 26.2902 0.0000 -8.6213 0.0000
# 3 47.6194 26.2902 88.2951 0.0000 -30.8479 0.0000
# 4 0.0000 0.0000 0.0000 11.1654 0.0000 -5.2436
# 5 -38.6948 -8.6213 -30.8479 0.0000 40.0563 0.0000
# 6 0.0000 0.0000 0.0000 -5.2436 0.0000 9.1710
#
#
#
# Elastic Compliance Matrix: (Units=1/GPa)
#
#
# Indices 1 2 3 4 5 6 
#
# 1 0.013767 -0.005954 -0.001988 0.000000 0.010486 0.000000
# 2 -0.005954 0.024109 -0.005697 0.000000 -0.004950 0.000000
# 3 -0.001988 -0.005697 0.017778 0.000000 0.010544 0.000000
# 4 0.000000 0.000000 0.000000 0.122438 0.000000 0.070005
# 5 0.010486 -0.004950 0.010544 0.000000 0.042150 0.000000
# 6 0.000000 0.000000 0.000000 0.070005 0.000000 0.149065
#
#
# Mechanical properties :
#
#
# Convention : Reuss Voigt Hill
#
# Bulk Modulus (GPa) = 35.24068 53.52060 44.38064
# Shear Modulus (GPa) = 12.31391 22.64166 17.47779
#
# Velocity S-wave (km/s) = 2.57726 3.49473 3.07046
# Velocity P-wave (km/s) = 5.27878 6.71966 6.04232
#
# Compressibility (1/GPa) = 0.02837629
#
# Stress axis : x y z
#
# Youngs Moduli (GPa) = 72.63709 41.47767 56.24857
#
# Poissons Ratio (x) = 0.24695 0.11185
# Poissons Ratio (y) = 0.43247 0.32044
# Poissons Ratio (z) = 0.14444 0.23629
#
# Static dielectric constant tensor:
#      x y z
#    x 1.739710 0.000000 -0.014430 
#    y 0.000000 1.597510 0.000000 
#    z -0.014430 0.000000 1.713810 
# 
# From -- ./inp_files/75067.got.cif
#   From: 2010.05.17/outbox.cif.g08.bks.cpg/sg12_38_cif.got.tgz:75067.got - 2010.06.03 13:09:07.
