data_PCOD9182656
_publ_section_title
;
Structure prediction by ZEFSAII (Michael W. Deem and Ramdas Pophale) SiO2 
 PCOD9182656
Probable space group: C 2/M
;
_chemical_formula_sum "Si O2"
_cell_formula_units_Z 56
_cell_length_a 15.545402
_cell_length_b 30.055636
_cell_length_c 5.084772
_cell_angle_alpha 90.000000
_cell_angle_beta 88.588167
_cell_angle_gamma 90.000000
_cell_volume 2375.021261
_symmetry_space_group_name_H-M "C 2/M"
_symmetry_group_IT_number 12
_symmetry_cell_setting 'monoclinic'
loop_
_space_group_symop_operation_xyz
x,y,z
-x,y,-z
-x,-y,-z
x,-y,z
1/2+x,1/2+y,z
1/2-x,1/2+y,-z
1/2-x,1/2-y,-z
1/2+x,1/2-y,z
loop_
_atom_site_type_symbol
_atom_site_label
_atom_site_fract_x
_atom_site_fract_y
_atom_site_fract_z
Si Si1 0.589956 0.553290 0.587046
Si Si2 0.268466 0.787975 0.214291
Si Si3 0.312734 0.552931 0.914206
Si Si4 0.928793 0.551646 0.296417
Si Si5 0.408091 0.172602 0.891076
Si Si6 0.652242 0.086081 0.230628
Si Si7 0.597539 0.736912 0.410625
O O1 0.500000 0.572588 0.500000
O O2 0.588839 0.500000 0.537744
O O3 0.661959 0.569255 0.375873
O O4 0.606896 0.557835 0.893217
O O5 0.338763 0.763862 0.396014
O O6 0.170664 0.798854 0.315343
O O7 0.250000 0.750000 0.000000
O O8 0.326166 0.826793 0.090606
O O9 0.287772 0.500000 0.914671
O O10 0.241350 0.580082 0.075528
O O11 0.947637 0.500000 0.256048
O O12 0.849210 0.556936 0.504809
O O13 0.000000 0.569821 0.500000
O O14 0.909880 0.571014 0.009810
O O15 0.376799 0.135797 0.687389
O O16 0.420445 0.222997 0.792557
O O17 0.500000 0.159580 0.000000
O O18 0.500000 0.722346 0.500000
#
# Coordination Sequence:
#
# PCOD9182656 Si02
#       7
#     8   8   8   8   8   8   8
#     4   9  17  31  54  81 103 130 180 246 312 369
#     4   9  20  36  58  93 122 157 196 249 301 371
#     4  10  19  33  52  79 111 148 195 252 307 360
#     4  11  23  40  57  78 112 160 215 263 304 359
#     4  11  22  36  57  87 127 160 204 258 313 364
#     4  12  25  37  58  86 119 165 206 257 317 376
#     4  10  19  36  64  92 123 159 200 251 304 366
#
# _framework density 23.578735000000002
#
# number of rings (size 3 to 8) (size 9 to 14) (size 15 to 20)
#    0.000    1.714    1.429    3.857    2.000    4.571 
#    0.000    0.000    0.000    0.857   11.143    0.000 
#    0.000    0.000    0.000    0.000    0.000    0.000 
#
# Total GULP energy -155877.303486 kJ/mol
# GULP energy per Si atom -5567.046553 kJ/mol
# Density = 2.352507 g / cm^3
# Si number density = 23.578735 Si / 1000 Ang^3
#
#
#
# Elastic Constant Matrix: (Units=GPa)
#
#
# Indices 1 2 3 4 5 6 
#
# 1 166.5990 15.2750 9.7289 0.0000 -13.4776 0.0000
# 2 15.2750 35.6275 2.7493 0.0000 -6.5915 0.0000
# 3 9.7289 2.7493 91.6356 0.0000 -3.6113 0.0000
# 4 0.0000 0.0000 0.0000 16.4736 0.0000 -1.7740
# 5 -13.4776 -6.5915 -3.6113 0.0000 38.1922 0.0000
# 6 0.0000 0.0000 0.0000 -1.7740 0.0000 -3.8934
#
#
#
# Elastic Compliance Matrix: (Units=1/GPa)
#
#
# Indices 1 2 3 4 5 6 
#
# 1 0.006396 -0.002368 -0.000537 0.000000 0.001798 0.000000
# 2 -0.002368 0.029913 -0.000477 0.000000 0.004282 0.000000
# 3 -0.000537 -0.000477 0.011014 0.000000 0.000770 0.000000
# 4 0.000000 0.000000 0.000000 0.057864 0.000000 -0.026365
# 5 0.001798 0.004282 0.000770 0.000000 0.027629 0.000000
# 6 0.000000 0.000000 0.000000 -0.026365 0.000000 -0.244830
#
#
# Mechanical properties :
#
#
# Convention : Reuss Voigt Hill
#
# Bulk Modulus (GPa) = 24.65618 38.81874 31.73746
# Shear Modulus (GPa) = -54.50917 27.89506 -13.30705
#
# Velocity S-wave (km/s) = -4.81333 3.44330 -2.37822
# Velocity P-wave (km/s) = 4.51787 5.68398 2.43889
#
# Compressibility (1/GPa) = 0.04055779
#
# Stress axis : x y z
#
# Youngs Moduli (GPa) = 156.33829 33.43071 90.78963
#
# Poissons Ratio (x) = 0.07918 0.04877
# Poissons Ratio (y) = 0.37027 0.04333
# Poissons Ratio (z) = 0.08398 0.01596
#
# Static dielectric constant tensor:
#      x y z
#    x 2.049830 0.000000 -0.126040 
#    y 0.000000 1.881400 0.000000 
#    z -0.126040 0.000000 1.946560 
# 
# From -- ./inp_files/13128.got.cif
#   From: 2010.05.17/outbox.cif.g08.bks.cpg/sg12_7_cif.got.tgz:13128.got - 2010.06.03 13:09:07.
