data_PCOD9182229
_publ_section_title
;
Structure prediction by ZEFSAII (Michael W. Deem and Ramdas Pophale) SiO2 
 PCOD9182229
Probable space group: C 2/M
;
_chemical_formula_sum "Si O2"
_cell_formula_units_Z 56
_cell_length_a 11.072777
_cell_length_b 18.240395
_cell_length_c 21.391225
_cell_angle_alpha 90.000000
_cell_angle_beta 34.462508
_cell_angle_gamma 90.000000
_cell_volume 2444.785123
_symmetry_space_group_name_H-M "C 2/M"
_symmetry_group_IT_number 12
_symmetry_cell_setting 'monoclinic'
loop_
_space_group_symop_operation_xyz
x,y,z
-x,y,-z
-x,-y,-z
x,-y,z
1/2+x,1/2+y,z
1/2-x,1/2+y,-z
1/2-x,1/2-y,-z
1/2+x,1/2-y,z
loop_
_atom_site_type_symbol
_atom_site_label
_atom_site_fract_x
_atom_site_fract_y
_atom_site_fract_z
Si Si1 0.831910 0.086585 0.764710
Si Si2 0.355650 0.089458 0.970632
Si Si3 0.393788 0.412357 0.187314
Si Si4 0.653164 0.708617 0.634677
Si Si5 0.309393 0.412108 0.624096
Si Si6 0.070897 0.299462 0.373630
Si Si7 0.162286 0.411410 0.164662
O O1 0.595122 0.109972 0.888263
O O2 0.838443 0.096529 0.686150
O O3 0.022335 0.136017 0.707592
O O4 0.858649 0.000000 0.766664
O O5 0.330694 0.115041 0.909352
O O6 0.357967 0.000000 0.970304
O O7 0.136953 0.111182 0.097759
O O8 0.380486 0.500000 0.200213
O O9 0.198158 0.373122 0.304392
O O10 0.347680 0.393490 0.133804
O O11 0.764852 0.741333 0.649024
O O12 0.491602 0.756443 0.662141
O O13 0.851326 0.689013 0.504707
O O14 0.500000 0.381100 0.500000
O O15 0.311063 0.500000 0.613474
O O16 0.069227 0.389814 0.709454
O O17 0.164329 0.500000 0.158934
#
# Coordination Sequence:
#
# PCOD9182229 Si02
#       7
#     8   8   8   8   8   8   8
#     4   9  18  33  58  87 118 156 195 242 301 356
#     4   8  15  30  50  83 127 164 195 239 300 360
#     4  10  19  32  57  90 121 154 202 254 301 355
#     4  10  23  45  64  85 120 160 201 245 303 368
#     4   8  14  23  38  72 117 150 184 231 283 341
#     4  10  24  44  64  86 118 162 202 244 302 365
#     4   8  14  24  42  74 118 160 193 232 288 346
#
# _framework density 22.905899999999999
#
# number of rings (size 3 to 8) (size 9 to 14) (size 15 to 20)
#    0.000    3.000    0.000    2.143    2.000    5.143 
#    2.571    2.857    0.000    2.571    0.000    0.000 
#    0.000    0.000    0.000    0.000    0.000    0.000 
#
# Total GULP energy -156295.635078 kJ/mol
# GULP energy per Si atom -5581.986967 kJ/mol
# Density = 2.285376 g / cm^3
# Si number density = 22.905900 Si / 1000 Ang^3
#
#
#
# Elastic Constant Matrix: (Units=GPa)
#
#
# Indices 1 2 3 4 5 6 
#
# 1 136.1250 40.4351 50.0501 -0.0157 -28.9609 0.0011
# 2 40.4351 52.9744 40.6197 -0.0148 -13.7248 0.0056
# 3 50.0501 40.6197 106.8720 -0.0238 -22.5949 -0.0054
# 4 -0.0157 -0.0148 -0.0238 19.5525 0.0072 -9.7606
# 5 -28.9609 -13.7248 -22.5949 0.0072 37.6926 -0.0017
# 6 0.0011 0.0056 -0.0054 -9.7606 -0.0017 22.4054
#
#
#
# Elastic Compliance Matrix: (Units=1/GPa)
#
#
# Indices 1 2 3 4 5 6 
#
# 1 0.010746 -0.005424 -0.001881 0.000001 0.005153 0.000001
# 2 -0.005424 0.029961 -0.008499 0.000004 0.001647 -0.000008
# 3 -0.001881 -0.008499 0.014324 0.000014 0.004046 0.000012
# 4 0.000001 0.000004 0.000014 0.065358 -0.000001 0.028472
# 5 0.005153 0.001647 0.004046 -0.000001 0.033515 0.000003
# 6 0.000001 -0.000008 0.000012 0.028472 0.000003 0.057036
#
#
# Mechanical properties :
#
#
# Convention : Reuss Voigt Hill
#
# Bulk Modulus (GPa) = 42.69622 62.02013 52.35818
# Shear Modulus (GPa) = 19.97163 26.92120 23.44641
#
# Velocity S-wave (km/s) = 2.95600 3.43198 3.20284
# Velocity P-wave (km/s) = 5.50735 6.54519 6.04857
#
# Compressibility (1/GPa) = 0.02342128
#
# Stress axis : x y z
#
# Youngs Moduli (GPa) = 93.06186 33.37666 69.81449
#
# Poissons Ratio (x) = 0.18105 0.13132
# Poissons Ratio (y) = 0.50481 0.59335
# Poissons Ratio (z) = 0.17505 0.28367
#
# Static dielectric constant tensor:
#      x y z
#    x 1.928740 0.000000 0.030110 
#    y 0.000000 1.853290 0.000000 
#    z 0.030110 0.000000 1.835720 
# 
# From -- ./inp_files/336728.got.cif
#   From: 2010.05.17/outbox.cif.g08.bks.cpg/sg12_169_cif.got.tgz:336728.got - 2010.06.03 13:09:07.
