data_PCOD9182856
_publ_section_title
;
Structure prediction by ZEFSAII (Michael W. Deem and Ramdas Pophale) SiO2 
 PCOD9182856
Probable space group: C 2/M
;
_chemical_formula_sum "Si O2"
_cell_formula_units_Z 56
_cell_length_a 16.293354
_cell_length_b 7.842320
_cell_length_c 17.388890
_cell_angle_alpha 90.000000
_cell_angle_beta 79.435914
_cell_angle_gamma 90.000000
_cell_volume 2184.251908
_symmetry_space_group_name_H-M "C 2/M"
_symmetry_group_IT_number 12
_symmetry_cell_setting 'monoclinic'
loop_
_space_group_symop_operation_xyz
x,y,z
-x,y,-z
-x,-y,-z
x,-y,z
1/2+x,1/2+y,z
1/2-x,1/2+y,-z
1/2-x,1/2-y,-z
1/2+x,1/2-y,z
loop_
_atom_site_type_symbol
_atom_site_label
_atom_site_fract_x
_atom_site_fract_y
_atom_site_fract_z
Si Si1 0.362005 0.295459 0.017439
Si Si2 0.175866 0.794840 0.456149
Si Si3 0.127019 0.302697 0.742373
Si Si4 0.379684 0.295413 0.692685
Si Si5 0.554408 0.298597 0.600840
Si Si6 0.736082 0.803436 0.157561
Si Si7 0.492209 0.703687 0.879055
O O1 0.352620 0.500000 0.009863
O O2 0.279143 0.222362 0.073692
O O3 0.436196 0.273861 0.067674
O O4 0.405551 0.230878 0.931583
O O5 0.250000 0.750000 0.500000
O O6 0.180203 0.737612 0.367209
O O7 0.093398 0.730880 0.515378
O O8 0.171575 0.000000 0.454148
O O9 0.151239 0.500000 0.732377
O O10 0.119570 0.225299 0.659258
O O11 0.191828 0.215933 0.789303
O O12 0.035778 0.285875 0.798068
O O13 0.384466 0.500000 0.691208
O O14 0.468636 0.226144 0.649131
O O15 0.345144 0.256229 0.782708
O O16 0.540902 0.500000 0.590887
O O17 0.725273 0.000000 0.141975
O O18 0.484357 0.500000 0.866299
#
# Coordination Sequence:
#
# PCOD9182856 Si02
#       7
#     8   8   8   8   8   8   8
#     4   7  12  24  45  71  98 131 171 212 253 305
#     4  10  21  37  58  82 106 134 169 211 256 304
#     4  11  21  32  49  77 109 137 173 221 263 302
#     4  10  21  37  56  79 106 135 172 217 259 302
#     4  10  21  38  57  75 102 142 178 208 255 314
#     4  10  19  33  53  77 106 140 176 212 258 314
#     4   8  13  26  47  70  98 133 172 212 259 310
#
# _framework density 25.638069000000002
#
# number of rings (size 3 to 8) (size 9 to 14) (size 15 to 20)
#    0.000    2.571    0.000    4.714    0.000    5.714 
#    0.000    6.429    0.000    3.429    0.000    0.000 
#    0.000    0.000    0.000    0.000    0.000    0.000 
#
# Total GULP energy -156475.339440 kJ/mol
# GULP energy per Si atom -5588.404980 kJ/mol
# Density = 2.557972 g / cm^3
# Si number density = 25.638069 Si / 1000 Ang^3
#
#
#
# Elastic Constant Matrix: (Units=GPa)
#
#
# Indices 1 2 3 4 5 6 
#
# 1 84.7504 0.8490 42.8236 0.0000 -12.1217 0.0000
# 2 0.8490 38.8153 10.8688 0.0000 -7.7054 0.0000
# 3 42.8236 10.8688 203.2456 0.0000 -11.5748 0.0000
# 4 0.0000 0.0000 0.0000 19.8689 0.0000 -3.6392
# 5 -12.1217 -7.7054 -11.5748 0.0000 50.5260 0.0000
# 6 0.0000 0.0000 0.0000 -3.6392 0.0000 16.4484
#
#
#
# Elastic Compliance Matrix: (Units=1/GPa)
#
#
# Indices 1 2 3 4 5 6 
#
# 1 0.013581 0.001028 -0.002758 0.000000 0.002783 0.000000
# 2 0.001028 0.026940 -0.001428 0.000000 0.004028 0.000000
# 3 -0.002758 -0.001428 0.005601 0.000000 0.000404 0.000000
# 4 0.000000 0.000000 0.000000 0.052456 0.000000 0.011606
# 5 0.002783 0.004028 0.000404 0.000000 0.021166 0.000000
# 6 0.000000 0.000000 0.000000 0.011606 0.000000 0.063364
#
#
# Mechanical properties :
#
#
# Convention : Reuss Voigt Hill
#
# Bulk Modulus (GPa) = 25.12233 48.43266 36.77750
# Shear Modulus (GPa) = 24.66808 35.51999 30.09403
#
# Velocity S-wave (km/s) = 3.10525 3.72619 3.42980
# Velocity P-wave (km/s) = 4.76202 6.11920 5.48276
#
# Compressibility (1/GPa) = 0.03980522
#
# Stress axis : x y z
#
# Youngs Moduli (GPa) = 73.63414 37.11958 178.55299
#
# Poissons Ratio (x) = -0.03815 0.49243
# Poissons Ratio (y) = -0.07567 0.25494
# Poissons Ratio (z) = 0.20307 0.05300
#
# Static dielectric constant tensor:
#      x y z
#    x 2.132960 0.000000 -0.051550 
#    y 0.000000 1.917540 0.000000 
#    z -0.051550 0.000000 2.082380 
# 
# From -- ./inp_files/313737.got.cif
#   From: 2010.05.17/outbox.cif.g08.bks.cpg/sg12_157_cif.got.tgz:313737.got - 2010.06.03 13:09:07.
