data_PCOD9182603
_publ_section_title
;
Structure prediction by ZEFSAII (Michael W. Deem and Ramdas Pophale) SiO2 
 PCOD9182603
Probable space group: C 2/M
;
_chemical_formula_sum "Si O2"
_cell_formula_units_Z 64
_cell_length_a 14.813431
_cell_length_b 8.140845
_cell_length_c 24.841555
_cell_angle_alpha 90.000000
_cell_angle_beta 99.071978
_cell_angle_gamma 90.000000
_cell_volume 2958.265075
_symmetry_space_group_name_H-M "C 2/M"
_symmetry_group_IT_number 12
_symmetry_cell_setting 'monoclinic'
loop_
_space_group_symop_operation_xyz
x,y,z
-x,y,-z
-x,-y,-z
x,-y,z
1/2+x,1/2+y,z
1/2-x,1/2+y,-z
1/2-x,1/2-y,-z
1/2+x,1/2-y,z
loop_
_atom_site_type_symbol
_atom_site_label
_atom_site_fract_x
_atom_site_fract_y
_atom_site_fract_z
Si Si1 0.604231 0.302192 0.505171
Si Si2 0.757497 0.198621 0.788623
Si Si3 0.584809 0.188781 0.041083
Si Si4 0.772364 0.305393 0.091899
Si Si5 0.226099 0.198579 0.415220
Si Si6 0.125988 0.801455 0.298445
Si Si7 0.553579 0.805126 0.760464
Si Si8 0.471217 0.687645 0.120843
O O1 0.500000 0.241412 0.500000
O O2 0.600443 0.500000 0.502296
O O3 0.672151 0.254858 0.560015
O O4 0.657118 0.244763 0.456184
O O5 0.755124 0.253477 0.850273
O O6 0.832602 0.260669 0.754280
O O7 0.657497 0.236584 0.755508
O O8 0.767559 0.000000 0.792163
O O9 0.683866 0.269864 0.047762
O O10 0.544737 0.200967 0.097637
O O11 0.595677 0.000000 0.025041
O O12 0.500000 0.264412 0.000000
O O13 0.789755 0.500000 0.095221
O O14 0.869226 0.221997 0.088663
O O15 0.186428 0.254507 0.354365
O O16 0.226063 0.000000 0.415364
O O17 0.021346 0.746744 0.289629
O O18 0.128367 0.000000 0.298120
O O19 0.533328 0.721493 0.816068
O O20 0.550214 0.000000 0.768879
O O21 0.498544 0.500000 0.114136
#
# Coordination Sequence:
#
# PCOD9182603 Si02
#       8
#     8   8   8   8   8   8   8   8
#     4   9  18  34  53  71  98 137 177 219 267 316
#     4   8  17  33  52  74 102 136 168 205 257 315
#     4  11  24  40  58  83 113 144 182 228 277 330
#     4  10  20  37  60  83 109 143 184 226 272 329
#     4   9  19  33  50  75 103 134 175 220 264 317
#     4  10  19  33  52  76 108 139 171 216 269 320
#     4  10  20  35  54  78 107 139 177 215 259 319
#     4  11  22  38  60  83 110 146 185 226 274 324
#
# _framework density 21.634302000000002
#
# number of rings (size 3 to 8) (size 9 to 14) (size 15 to 20)
#    0.000    2.250    0.000    3.750    0.000    4.250 
#    0.000    3.125    0.000    0.000    0.000    0.000 
#    0.000    0.000    0.000    0.000    0.000    0.000 
#
# Total GULP energy -178733.624249 kJ/mol
# GULP energy per Si atom -5585.425758 kJ/mol
# Density = 2.158506 g / cm^3
# Si number density = 21.634302 Si / 1000 Ang^3
#
#
#
# Elastic Constant Matrix: (Units=GPa)
#
#
# Indices 1 2 3 4 5 6 
#
# 1 120.5806 1.6390 34.1114 0.0000 32.8432 0.0000
# 2 1.6390 23.5224 5.5507 0.0000 1.2874 0.0000
# 3 34.1114 5.5507 58.5779 0.0000 26.7726 0.0000
# 4 0.0000 0.0000 0.0000 21.0996 0.0000 9.9498
# 5 32.8432 1.2874 26.7726 0.0000 32.0613 0.0000
# 6 0.0000 0.0000 0.0000 9.9498 0.0000 23.0983
#
#
#
# Elastic Compliance Matrix: (Units=1/GPa)
#
#
# Indices 1 2 3 4 5 6 
#
# 1 0.011670 0.000258 -0.002186 0.000000 -0.010139 0.000000
# 2 0.000258 0.043640 -0.005440 0.000000 0.002526 0.000000
# 3 -0.002186 -0.005440 0.028684 0.000000 -0.021494 0.000000
# 4 0.000000 0.000000 0.000000 0.059476 0.000000 -0.025620
# 5 -0.010139 0.002526 -0.021494 0.000000 0.059424 0.000000
# 6 0.000000 0.000000 0.000000 -0.025620 0.000000 0.054329
#
#
# Mechanical properties :
#
#
# Convention : Reuss Voigt Hill
#
# Bulk Modulus (GPa) = 14.43896 31.69813 23.06855
# Shear Modulus (GPa) = 16.94655 26.01047 21.47851
#
# Velocity S-wave (km/s) = 2.80182 3.47115 3.15429
# Velocity P-wave (km/s) = 4.14192 5.54516 4.89409
#
# Compressibility (1/GPa) = 0.06925708
#
# Stress axis : x y z
#
# Youngs Moduli (GPa) = 85.69120 22.91465 34.86319
#
# Poissons Ratio (x) = -0.00590 0.07621
# Poissons Ratio (y) = -0.02207 0.18965
# Poissons Ratio (z) = 0.18731 0.12465
#
# Static dielectric constant tensor:
#      x y z
#    x 1.774190 0.000000 0.005240 
#    y 0.000000 1.758940 0.000000 
#    z 0.005240 0.000000 1.815540 
# 
# From -- ./inp_files/359995.got.cif
#   From: 2010.05.17/outbox.cif.g08.bks.cpg/sg12_180_cif.got.tgz:359995.got - 2010.06.03 13:09:07.
