data_PCOD9182924
_publ_section_title
;
Structure prediction by ZEFSAII (Michael W. Deem and Ramdas Pophale) SiO2 
 PCOD9182924
Probable space group: C 2/M
;
_chemical_formula_sum "Si O2"
_cell_formula_units_Z 64
_cell_length_a 17.071829
_cell_length_b 13.586501
_cell_length_c 14.231985
_cell_angle_alpha 90.000000
_cell_angle_beta 111.805999
_cell_angle_gamma 90.000000
_cell_volume 3064.857191
_symmetry_space_group_name_H-M "C 2/M"
_symmetry_group_IT_number 12
_symmetry_cell_setting 'monoclinic'
loop_
_space_group_symop_operation_xyz
x,y,z
-x,y,-z
-x,-y,-z
x,-y,z
1/2+x,1/2+y,z
1/2-x,1/2+y,-z
1/2-x,1/2-y,-z
1/2+x,1/2-y,z
loop_
_atom_site_type_symbol
_atom_site_label
_atom_site_fract_x
_atom_site_fract_y
_atom_site_fract_z
Si Si1 0.016359 0.388278 0.896179
Si Si2 0.852231 0.381671 0.290223
Si Si3 0.561658 0.689582 0.163196
Si Si4 0.696769 0.118327 0.522236
Si Si5 0.525126 0.203773 0.403251
Si Si6 0.383970 0.384365 0.618188
Si Si7 0.794458 0.380948 0.065800
Si Si8 0.387405 0.618238 0.020126
O O1 0.007944 0.500000 0.854116
O O2 0.952575 0.306121 0.829022
O O3 0.113376 0.352496 0.929752
O O4 0.000000 0.392721 0.000000
O O5 0.859536 0.500000 0.297114
O O6 0.818589 0.347993 0.376466
O O7 0.794031 0.356170 0.176372
O O8 0.945361 0.338574 0.312755
O O9 0.613961 0.640571 0.269841
O O10 0.596581 0.665669 0.075275
O O11 0.466936 0.644725 0.119688
O O12 0.616031 0.153771 0.427763
O O13 0.792029 0.145127 0.536460
O O14 0.694810 0.000000 0.522456
O O15 0.500000 0.184300 0.500000
O O16 0.542843 0.317978 0.393160
O O17 0.396146 0.500000 0.610174
O O18 0.795678 0.500000 0.057961
O O19 0.704686 0.350086 0.983328
O O20 0.387255 0.500000 0.006842
#
# Coordination Sequence:
#
# PCOD9182924 Si02
#       8
#     8   8   8   8   8   8   8   8
#     4  10  20  36  53  73 104 139 179 216 258 314
#     4   9  16  30  53  83 108 129 166 221 272 309
#     4  11  20  35  53  81 104 140 177 218 267 304
#     4   9  18  33  55  82 107 132 167 218 272 315
#     4  10  20  34  53  76 105 140 174 212 259 321
#     4  11  22  35  54  78 106 140 176 216 258 309
#     4   9  18  31  51  77 106 140 175 216 261 305
#     4  10  19  33  53  79 108 138 176 220 261 304
#
# _framework density 20.881886999999999
#
# number of rings (size 3 to 8) (size 9 to 14) (size 15 to 20)
#    0.000    2.125    1.250    3.750    0.000    4.250 
#    0.000    0.625    0.000    0.750    0.000    0.000 
#    0.000    0.000    0.000    0.000    0.000    0.000 
#
# Total GULP energy -178579.587106 kJ/mol
# GULP energy per Si atom -5580.612097 kJ/mol
# Density = 2.083436 g / cm^3
# Si number density = 20.881887 Si / 1000 Ang^3
#
#
#
# Elastic Constant Matrix: (Units=GPa)
#
#
# Indices 1 2 3 4 5 6 
#
# 1 60.6249 12.6177 9.6925 0.0000 22.7646 0.0000
# 2 12.6177 63.6821 -5.7182 0.0000 17.2977 0.0000
# 3 9.6925 -5.7182 36.7511 0.0000 21.4103 0.0000
# 4 0.0000 0.0000 0.0000 19.5033 0.0000 2.8966
# 5 22.7646 17.2977 21.4103 0.0000 29.5859 0.0000
# 6 0.0000 0.0000 0.0000 2.8966 0.0000 35.1947
#
#
#
# Elastic Compliance Matrix: (Units=1/GPa)
#
#
# Indices 1 2 3 4 5 6 
#
# 1 0.025108 0.004310 0.011707 0.000000 -0.030311 0.000000
# 2 0.004310 0.027108 0.024630 0.000000 -0.036989 0.000000
# 3 0.011707 0.024630 0.071907 0.000000 -0.075445 0.000000
# 4 0.000000 0.000000 0.000000 0.051908 0.000000 -0.004272
# 5 -0.030311 -0.036989 -0.075445 0.000000 0.133345 0.000000
# 6 0.000000 0.000000 0.000000 -0.004272 0.000000 0.028765
#
#
# Mechanical properties :
#
#
# Convention : Reuss Voigt Hill
#
# Bulk Modulus (GPa) = 4.86818 21.58246 13.22532
# Shear Modulus (GPa) = 15.36953 26.48784 20.92868
#
# Velocity S-wave (km/s) = 2.71592 3.56541 3.16925
# Velocity P-wave (km/s) = 3.48874 5.22565 4.44290
#
# Compressibility (1/GPa) = 0.20541538
#
# Stress axis : x y z
#
# Youngs Moduli (GPa) = 39.82811 36.88985 13.90686
#
# Poissons Ratio (x) = -0.15898 -0.16281
# Poissons Ratio (y) = -0.17164 -0.34252
# Poissons Ratio (z) = -0.46627 -0.90859
#
# Static dielectric constant tensor:
#      x y z
#    x 1.775860 0.000000 -0.005010 
#    y 0.000000 1.785200 0.000000 
#    z -0.005010 0.000000 1.735920 
# 
# From -- ./inp_files/225309.got.cif
#   From: 2010.05.17/outbox.cif.g08.bks.cpg/sg12_113_cif.got.tgz:225309.got - 2010.06.03 13:09:07.
