data_PCOD9182791
_publ_section_title
;
Structure prediction by ZEFSAII (Michael W. Deem and Ramdas Pophale) SiO2 
 PCOD9182791
Probable space group: C 2/M
;
_chemical_formula_sum "Si O2"
_cell_formula_units_Z 56
_cell_length_a 15.001281
_cell_length_b 9.601316
_cell_length_c 23.816065
_cell_angle_alpha 90.000000
_cell_angle_beta 131.399968
_cell_angle_gamma 90.000000
_cell_volume 2573.089574
_symmetry_space_group_name_H-M "C 2/M"
_symmetry_group_IT_number 12
_symmetry_cell_setting 'monoclinic'
loop_
_space_group_symop_operation_xyz
x,y,z
-x,y,-z
-x,-y,-z
x,-y,z
1/2+x,1/2+y,z
1/2-x,1/2+y,-z
1/2-x,1/2-y,-z
1/2+x,1/2-y,z
loop_
_atom_site_type_symbol
_atom_site_label
_atom_site_fract_x
_atom_site_fract_y
_atom_site_fract_z
Si Si1 0.976473 0.335272 0.757285
Si Si2 0.747290 0.331039 0.317668
Si Si3 0.492772 0.830871 0.359833
Si Si4 0.373548 0.158983 0.480263
Si Si5 0.358620 0.346936 0.029068
Si Si6 0.438735 0.155609 0.911952
Si Si7 0.753639 0.347254 0.136006
O O1 0.948760 0.500000 0.749812
O O2 0.982404 0.293823 0.693708
O O3 0.114621 0.318430 0.831846
O O4 0.876279 0.244616 0.745408
O O5 0.736367 0.500000 0.312720
O O6 0.859472 0.293863 0.324751
O O7 0.785486 0.282299 0.396804
O O8 0.590659 0.775597 0.445155
O O9 0.497185 0.000000 0.365596
O O10 0.500000 0.151799 0.500000
O O11 0.333859 0.000000 0.474040
O O12 0.355406 0.500000 0.054256
O O13 0.335610 0.364466 0.953099
O O14 0.250000 0.250000 0.000000
O O15 0.479949 0.265330 0.086463
O O16 0.306534 0.218514 0.857924
O O17 0.443350 0.000000 0.890307
O O18 0.500000 0.145620 0.000000
O O19 0.759063 0.500000 0.167986
#
# Coordination Sequence:
#
# PCOD9182791 Si02
#       7
#     8   8   8   8   8   8   8
#     4  10  20  34  51  72 104 140 170 203 252 310
#     4   9  17  31  51  74 100 131 173 218 254 292
#     4   8  15  30  51  72  97 133 175 210 249 307
#     4   7  11  23  46  72  95 125 167 215 256 291
#     4  10  19  33  53  76 101 128 162 205 251 298
#     4   9  17  31  53  76  97 123 159 201 243 289
#     4   9  19  35  51  69 100 135 164 198 250 306
#
# _framework density 21.763719999999999
#
# number of rings (size 3 to 8) (size 9 to 14) (size 15 to 20)
#    0.000    3.143    0.000    2.571    0.000    3.429 
#    2.571    0.714    0.000    3.857    0.000    0.000 
#    0.000    0.000    0.000    0.000    0.000    0.000 
#
# Total GULP energy -156043.319908 kJ/mol
# GULP energy per Si atom -5572.975711 kJ/mol
# Density = 2.171418 g / cm^3
# Si number density = 21.763720 Si / 1000 Ang^3
#
#
#
# Elastic Constant Matrix: (Units=GPa)
#
#
# Indices 1 2 3 4 5 6 
#
# 1 65.0291 33.1659 20.5636 0.0000 14.7895 0.0000
# 2 33.1659 98.7093 14.7078 0.0000 25.2202 0.0000
# 3 20.5636 14.7078 93.8550 0.0000 7.0209 0.0000
# 4 0.0000 0.0000 0.0000 17.0838 0.0000 12.7701
# 5 14.7895 25.2202 7.0209 0.0000 41.6940 0.0000
# 6 0.0000 0.0000 0.0000 12.7701 0.0000 19.5114
#
#
#
# Elastic Compliance Matrix: (Units=1/GPa)
#
#
# Indices 1 2 3 4 5 6 
#
# 1 0.019889 -0.005362 -0.003274 0.000000 -0.003260 0.000000
# 2 -0.005362 0.013600 -0.000490 0.000000 -0.006242 0.000000
# 3 -0.003274 -0.000490 0.011484 0.000000 -0.000477 0.000000
# 4 0.000000 0.000000 0.000000 0.114603 0.000000 -0.075007
# 5 -0.003260 -0.006242 -0.000477 0.000000 0.028997 0.000000
# 6 0.000000 0.000000 0.000000 -0.075007 0.000000 0.100344
#
#
# Mechanical properties :
#
#
# Convention : Reuss Voigt Hill
#
# Bulk Modulus (GPa) = 37.41996 43.82979 40.62488
# Shear Modulus (GPa) = 15.81901 28.26823 22.04362
#
# Velocity S-wave (km/s) = 2.69894 3.60789 3.18600
# Velocity P-wave (km/s) = 5.19071 6.12687 5.67811
#
# Compressibility (1/GPa) = 0.02672370
#
# Stress axis : x y z
#
# Youngs Moduli (GPa) = 50.27901 73.52869 87.07518
#
# Poissons Ratio (x) = 0.39425 0.28504
# Poissons Ratio (y) = 0.26959 0.04262
# Poissons Ratio (z) = 0.16459 0.03599
#
# Static dielectric constant tensor:
#      x y z
#    x 1.852830 0.000000 -0.079220 
#    y 0.000000 1.801950 0.000000 
#    z -0.079220 0.000000 1.888540 
# 
# From -- ./inp_files/342589.got.cif
#   From: 2010.05.17/outbox.cif.g08.bks.cpg/sg12_172_cif.got.tgz:342589.got - 2010.06.03 13:09:07.
