data_PCOD9182322
_publ_section_title
;
Structure prediction by ZEFSAII (Michael W. Deem and Ramdas Pophale) SiO2 
 PCOD9182322
Probable space group: C 2/M
;
_chemical_formula_sum "Si O2"
_cell_formula_units_Z 40
_cell_length_a 25.921277
_cell_length_b 13.416706
_cell_length_c 5.166082
_cell_angle_alpha 90.000000
_cell_angle_beta 90.589208
_cell_angle_gamma 90.000000
_cell_volume 1796.555455
_symmetry_space_group_name_H-M "C 2/M"
_symmetry_group_IT_number 12
_symmetry_cell_setting 'monoclinic'
loop_
_space_group_symop_operation_xyz
x,y,z
-x,y,-z
-x,-y,-z
x,-y,z
1/2+x,1/2+y,z
1/2-x,1/2+y,-z
1/2-x,1/2-y,-z
1/2+x,1/2-y,z
loop_
_atom_site_type_symbol
_atom_site_label
_atom_site_fract_x
_atom_site_fract_y
_atom_site_fract_z
Si Si1 0.944197 0.821824 0.488479
Si Si2 0.766674 0.638311 0.548915
Si Si3 0.167661 0.337961 0.937442
Si Si4 0.341969 0.393283 0.245929
Si Si5 0.555349 0.180048 0.009401
O O1 0.891972 0.881677 0.432735
O O2 0.948653 0.752965 0.235938
O O3 0.000000 0.875708 0.500000
O O4 0.938711 0.749144 0.735062
O O5 0.750000 0.750000 0.500000
O O6 0.803320 0.616126 0.308359
O O7 0.710307 0.595348 0.594259
O O8 0.799483 0.633913 0.811311
O O9 0.164134 0.214812 0.902511
O O10 0.109285 0.374867 0.971687
O O11 0.348145 0.500000 0.098303
O O12 0.500000 0.125419 0.000000
#
# Coordination Sequence:
#
# PCOD9182322 Si02
#       5
#     8   8   8   8   8
#     4   9  18  31  45  65  95 128 159 194 233 268
#     4  10  19  33  49  67  93 127 160 194 241 284
#     4  10  19  34  50  68  96 128 156 192 243 284
#     4  10  20  33  50  72  96 127 168 202 231 277
#     4   9  16  29  49  70  92 121 159 197 230 276
#
# _framework density 22.26483
#
# number of rings (size 3 to 8) (size 9 to 14) (size 15 to 20)
#    0.000    2.400    0.000    6.000    0.000    2.000 
#    0.000   25.000    0.000   16.200    0.000    0.000 
#    0.000    4.800    0.000    2.400    0.000   13.800 
#
# Total GULP energy -111345.546761 kJ/mol
# GULP energy per Si atom -5567.277338 kJ/mol
# Density = 2.221415 g / cm^3
# Si number density = 22.264830 Si / 1000 Ang^3
#
#
#
# Elastic Constant Matrix: (Units=GPa)
#
#
# Indices 1 2 3 4 5 6 
#
# 1 276.3836 14.5393 62.7524 0.0000 -2.4543 0.0000
# 2 14.5393 83.1497 9.5488 0.0000 0.3196 0.0000
# 3 62.7524 9.5488 162.0983 0.0000 -2.4416 0.0000
# 4 0.0000 0.0000 0.0000 -3.5752 0.0000 -34.5441
# 5 -2.4543 0.3196 -2.4416 0.0000 35.3612 0.0000
# 6 0.0000 0.0000 0.0000 -34.5441 0.0000 -40.6539
#
#
#
# Elastic Compliance Matrix: (Units=1/GPa)
#
#
# Indices 1 2 3 4 5 6 
#
# 1 0.003990 -0.000525 -0.001511 0.000000 0.000177 0.000000
# 2 -0.000525 0.012178 -0.000517 0.000000 -0.000182 0.000000
# 3 -0.001511 -0.000517 0.006790 0.000000 0.000369 0.000000
# 4 0.000000 0.000000 0.000000 0.038794 0.000000 -0.032964
# 5 0.000177 -0.000182 0.000369 0.000000 0.028319 0.000000
# 6 0.000000 0.000000 0.000000 -0.032964 0.000000 0.003412
#
#
# Mechanical properties :
#
#
# Convention : Reuss Voigt Hill
#
# Bulk Modulus (GPa) = 56.01350 77.25696 66.63523
# Shear Modulus (GPa) = 47.82838 27.21250 37.52044
#
# Velocity S-wave (km/s) = 4.63985 3.49982 4.10956
# Velocity P-wave (km/s) = 7.34280 7.14885 7.24648
#
# Compressibility (1/GPa) = 0.01785284
#
# Stress axis : x y z
#
# Youngs Moduli (GPa) = 250.59729 82.11290 147.27258
#
# Poissons Ratio (x) = 0.04310 0.22256
# Poissons Ratio (y) = 0.13154 0.07613
# Poissons Ratio (z) = 0.37871 0.04245
#
# Static dielectric constant tensor:
#      x y z
#    x 1.892080 0.000000 -0.023450 
#    y 0.000000 1.853660 0.000000 
#    z -0.023450 0.000000 1.751360 
# 
# From -- ./inp_files/27749.got.cif
#   From: 2010.05.17/outbox.cif.g08.bks.cpg/sg12_14_cif.got.tgz:27749.got - 2010.06.03 13:09:07.
