data_PCOD9182077
_publ_section_title
;
Structure prediction by ZEFSAII (Michael W. Deem and Ramdas Pophale) SiO2 
 PCOD9182077
Probable space group: C 2/M
;
_chemical_formula_sum "Si O2"
_cell_formula_units_Z 40
_cell_length_a 17.976084
_cell_length_b 19.907989
_cell_length_c 8.183039
_cell_angle_alpha 90.000000
_cell_angle_beta 45.217579
_cell_angle_gamma 90.000000
_cell_volume 2078.572022
_symmetry_space_group_name_H-M "C 2/M"
_symmetry_group_IT_number 12
_symmetry_cell_setting 'monoclinic'
loop_
_space_group_symop_operation_xyz
x,y,z
-x,y,-z
-x,-y,-z
x,-y,z
1/2+x,1/2+y,z
1/2-x,1/2+y,-z
1/2-x,1/2-y,-z
1/2+x,1/2-y,z
loop_
_atom_site_type_symbol
_atom_site_label
_atom_site_fract_x
_atom_site_fract_y
_atom_site_fract_z
Si Si1 0.892602 0.579424 0.246135
Si Si2 0.796737 0.175153 0.945210
Si Si3 0.621294 0.080236 0.362298
Si Si4 0.718407 0.339557 0.385835
Si Si5 0.116832 0.215461 0.857511
O O1 0.904849 0.500000 0.246488
O O2 0.871957 0.605660 0.460730
O O3 0.793881 0.596813 0.288484
O O4 0.000000 0.604719 0.000000
O O5 0.839526 0.159542 0.698123
O O6 0.750000 0.250000 0.000000
O O7 0.702047 0.123838 0.132339
O O8 0.872237 0.177822 0.985495
O O9 0.500000 0.088982 0.500000
O O10 0.644396 0.000000 0.315941
O O11 0.800933 0.277032 0.262204
O O12 0.648905 0.330483 0.653910
O O13 0.000000 0.239209 0.000000
#
# Coordination Sequence:
#
# PCOD9182077 Si02
#       5
#     8   8   8   8   8
#     4  10  19  32  55  86 116 150 187 229 293 357
#     4  10  21  38  54  85 118 152 196 234 289 350
#     4  10  20  35  58  88 122 154 190 245 302 353
#     4  10  20  36  56  80 113 148 189 236 288 339
#     4  10  21  37  56  80 114 151 191 237 288 338
#
# _framework density 19.243980000000001
#
# number of rings (size 3 to 8) (size 9 to 14) (size 15 to 20)
#    0.000    2.000    2.000    1.800    0.000    4.800 
#    0.000    0.000    0.000    2.400    0.000    2.800 
#    0.000    0.000    0.000    0.000    0.000    0.000 
#
# Total GULP energy -111508.773177 kJ/mol
# GULP energy per Si atom -5575.438659 kJ/mol
# Density = 1.920018 g / cm^3
# Si number density = 19.243980 Si / 1000 Ang^3
#
#
#
# Elastic Constant Matrix: (Units=GPa)
#
#
# Indices 1 2 3 4 5 6 
#
# 1 118.0874 9.8823 42.2371 0.0000 33.6814 0.0000
# 2 9.8823 42.3222 20.5173 0.0000 0.8300 0.0000
# 3 42.2371 20.5173 57.6484 0.0000 26.7635 0.0000
# 4 0.0000 0.0000 0.0000 14.8248 0.0000 2.0187
# 5 33.6814 0.8300 26.7635 0.0000 36.7500 0.0000
# 6 0.0000 0.0000 0.0000 2.0187 0.0000 23.6025
#
#
#
# Elastic Compliance Matrix: (Units=1/GPa)
#
#
# Indices 1 2 3 4 5 6 
#
# 1 0.012658 0.000047 -0.005899 0.000000 -0.007306 0.000000
# 2 0.000047 0.031337 -0.016375 0.000000 0.011174 0.000000
# 3 -0.005899 -0.016375 0.037490 0.000000 -0.021526 0.000000
# 4 0.000000 0.000000 0.000000 0.068249 0.000000 -0.005837
# 5 -0.007306 0.011174 -0.021526 0.000000 0.049331 0.000000
# 6 0.000000 0.000000 0.000000 -0.005837 0.000000 0.042868
#
#
# Mechanical properties :
#
#
# Convention : Reuss Voigt Hill
#
# Bulk Modulus (GPa) = 27.00436 40.37016 33.68726
# Shear Modulus (GPa) = 16.73746 24.73022 20.73384
#
# Velocity S-wave (km/s) = 2.95235 3.58870 3.28597
# Velocity P-wave (km/s) = 5.06803 6.18024 5.65156
#
# Compressibility (1/GPa) = 0.03703105
#
# Stress axis : x y z
#
# Youngs Moduli (GPa) = 78.99988 31.91156 26.67358
#
# Poissons Ratio (x) = -0.00151 0.15735
# Poissons Ratio (y) = -0.00375 0.43679
# Poissons Ratio (z) = 0.46604 0.52256
#
# Static dielectric constant tensor:
#      x y z
#    x 1.746220 0.000000 0.026160 
#    y 0.000000 1.686210 0.000000 
#    z 0.026160 0.000000 1.696160 
# 
# From -- ./inp_files/48895.got.cif
#   From: 2010.05.17/outbox.cif.g08.bks.cpg/sg12_25_cif.got.tgz:48895.got - 2010.06.03 13:09:07.
