data_PCOD9182314
_publ_section_title
;
Structure prediction by ZEFSAII (Michael W. Deem and Ramdas Pophale) SiO2 
 PCOD9182314
Probable space group: C 2/M
;
_chemical_formula_sum "Si O2"
_cell_formula_units_Z 48
_cell_length_a 5.219935
_cell_length_b 14.485711
_cell_length_c 30.379060
_cell_angle_alpha 90.000000
_cell_angle_beta 95.039561
_cell_angle_gamma 90.000000
_cell_volume 2288.216590
_symmetry_space_group_name_H-M "C 2/M"
_symmetry_group_IT_number 12
_symmetry_cell_setting 'monoclinic'
loop_
_space_group_symop_operation_xyz
x,y,z
-x,y,-z
-x,-y,-z
x,-y,z
1/2+x,1/2+y,z
1/2-x,1/2+y,-z
1/2-x,1/2-y,-z
1/2+x,1/2-y,z
loop_
_atom_site_type_symbol
_atom_site_label
_atom_site_fract_x
_atom_site_fract_y
_atom_site_fract_z
Si Si1 0.768076 0.389477 0.172066
Si Si2 0.760097 0.853229 0.019887
Si Si3 0.440585 0.809569 0.266868
Si Si4 0.627101 0.187307 0.639938
Si Si5 0.256915 0.887687 0.878946
Si Si6 0.469697 0.812894 0.546699
O O1 0.765364 0.500000 0.170199
O O2 0.859626 0.361328 0.221683
O O3 0.481907 0.358337 0.155191
O O4 0.976012 0.358207 0.139056
O O5 0.778332 0.851487 0.072413
O O6 0.500000 0.898868 0.000000
O O7 0.750000 0.750000 0.000000
O O8 0.000000 0.898474 0.000000
O O9 0.732954 0.774159 0.267302
O O10 0.403142 0.860902 0.313182
O O11 0.413423 0.270352 0.639795
O O12 0.048057 0.362341 0.593357
O O13 0.256190 0.000000 0.881616
O O14 0.500000 0.862174 0.500000
O O15 0.683610 0.729904 0.546709
#
# Coordination Sequence:
#
# PCOD9182314 Si02
#       6
#     8   8   8   8   8   8
#     4  10  21  38  55  76 103 131 163 200 237 281
#     4  10  21  38  53  77 104 126 153 190 232 272
#     4  10  19  33  48  75  99 127 165 199 246 289
#     4   8  14  23  37  54  86 117 147 194 235 278
#     4  10  21  38  58  76  99 131 161 190 232 280
#     4   8  12  18  29  48  73 110 150 183 227 278
#
# _framework density 20.977035000000001
#
# number of rings (size 3 to 8) (size 9 to 14) (size 15 to 20)
#    0.000    2.667    0.000    2.000    0.000    0.667 
#   18.000    0.000    0.000    0.000    0.000    0.000 
#    0.000    0.667    0.000    0.000    0.000  169.333 
#
# Total GULP energy -133786.461399 kJ/mol
# GULP energy per Si atom -5574.435892 kJ/mol
# Density = 2.092929 g / cm^3
# Si number density = 20.977035 Si / 1000 Ang^3
#
#
#
# Elastic Constant Matrix: (Units=GPa)
#
#
# Indices 1 2 3 4 5 6 
#
# 1 121.4135 -4.0545 -7.2348 0.0000 -1.6535 0.0000
# 2 -4.0545 44.2820 -2.6263 0.0000 -1.7389 0.0000
# 3 -7.2348 -2.6263 138.1999 0.0000 3.4471 0.0000
# 4 0.0000 0.0000 0.0000 18.7847 0.0000 14.3426
# 5 -1.6535 -1.7389 3.4471 0.0000 37.9311 0.0000
# 6 0.0000 0.0000 0.0000 14.3426 0.0000 -3.6461
#
#
#
# Elastic Compliance Matrix: (Units=1/GPa)
#
#
# Indices 1 2 3 4 5 6 
#
# 1 0.008294 0.000800 0.000440 0.000000 0.000358 0.000000
# 2 0.000800 0.022723 0.000448 0.000000 0.001036 0.000000
# 3 0.000440 0.000448 0.007283 0.000000 -0.000622 0.000000
# 4 0.000000 0.000000 0.000000 0.013297 0.000000 0.052307
# 5 0.000358 0.001036 -0.000622 0.000000 0.026483 0.000000
# 6 0.000000 0.000000 0.000000 0.052307 0.000000 -0.068508
#
#
# Mechanical properties :
#
#
# Convention : Reuss Voigt Hill
#
# Bulk Modulus (GPa) = 23.99466 30.67380 27.33423
# Shear Modulus (GPa) = 248.89123 31.80136 140.34629
#
# Velocity S-wave (km/s) = 10.90445 3.89782 8.18841
# Velocity P-wave (km/s) = 13.03863 5.90861 10.12219
#
# Compressibility (1/GPa) = 0.04167594
#
# Stress axis : x y z
#
# Youngs Moduli (GPa) = 120.56698 44.00831 137.30643
#
# Poissons Ratio (x) = -0.03519 -0.06048
# Poissons Ratio (y) = -0.09641 -0.06149
# Poissons Ratio (z) = -0.05311 -0.01971
#
# Static dielectric constant tensor:
#      x y z
#    x 1.758180 0.000000 0.006940 
#    y 0.000000 1.727620 0.000000 
#    z 0.006940 0.000000 1.810300 
# 
# From -- ./inp_files/354818.got.cif
#   From: 2010.05.17/outbox.cif.g08.bks.cpg/sg12_178_cif.got.tgz:354818.got - 2010.06.03 13:09:07.
