data_PCOD9182201
_publ_section_title
;
Structure prediction by ZEFSAII (Michael W. Deem and Ramdas Pophale) SiO2 
 PCOD9182201
Probable space group: C 2/M
;
_chemical_formula_sum "Si O2"
_cell_formula_units_Z 48
_cell_length_a 22.542247
_cell_length_b 25.109855
_cell_length_c 9.947112
_cell_angle_alpha 90.000000
_cell_angle_beta 152.108485
_cell_angle_gamma 90.000000
_cell_volume 2633.890053
_symmetry_space_group_name_H-M "C 2/M"
_symmetry_group_IT_number 12
_symmetry_cell_setting 'monoclinic'
loop_
_space_group_symop_operation_xyz
x,y,z
-x,y,-z
-x,-y,-z
x,-y,z
1/2+x,1/2+y,z
1/2-x,1/2+y,-z
1/2-x,1/2-y,-z
1/2+x,1/2-y,z
loop_
_atom_site_type_symbol
_atom_site_label
_atom_site_fract_x
_atom_site_fract_y
_atom_site_fract_z
Si Si1 0.376201 0.742693 0.843792
Si Si2 0.727718 0.639220 0.246776
Si Si3 0.150183 0.060081 0.318586
Si Si4 0.143226 0.937667 0.839778
Si Si5 0.015672 0.646264 0.871563
Si Si6 0.800584 0.438660 0.886860
O O1 0.250000 0.750000 0.500000
O O2 0.350064 0.693395 0.888870
O O3 0.500000 0.731485 0.000000
O O4 0.407237 0.798463 0.977527
O O5 0.713612 0.604680 0.354689
O O6 0.875784 0.652793 0.530861
O O7 0.676197 0.602100 0.025443
O O8 0.190718 0.066361 0.554033
O O9 0.188939 0.000000 0.354635
O O10 0.000000 0.064282 0.000000
O O11 0.239530 0.928371 0.909216
O O12 0.000000 0.930185 0.500000
O O13 0.154116 0.000000 0.903523
O O14 0.000000 0.633572 0.000000
O O15 0.090087 0.600761 0.941643
O O16 0.845119 0.500000 0.973275
#
# Coordination Sequence:
#
# PCOD9182201 Si02
#       6
#     8   8   8   8   8   8
#     4  11  21  39  63  93 129 166 210 271 329 374
#     4  12  22  38  65  91 120 172 209 260 324 379
#     4  10  19  32  56  92 121 152 206 261 309 373
#     4  10  23  43  64  93 131 169 212 260 316 387
#     4  11  22  40  60  93 129 156 212 271 313 383
#     4  10  21  38  61  87 126 167 198 255 325 378
#
# _framework density 18.223994999999999
#
# number of rings (size 3 to 8) (size 9 to 14) (size 15 to 20)
#    0.000    1.333    5.000    2.000    0.000    6.333 
#    0.000    2.500    0.000    0.000    0.000    0.000 
#    0.000    0.000    0.000    0.000    0.000    0.000 
#
# Total GULP energy -134054.148000 kJ/mol
# GULP energy per Si atom -5585.589500 kJ/mol
# Density = 1.818252 g / cm^3
# Si number density = 18.223995 Si / 1000 Ang^3
#
#
#
# Elastic Constant Matrix: (Units=GPa)
#
#
# Indices 1 2 3 4 5 6 
#
# 1 82.6054 77.0584 33.6454 0.0000 0.4512 0.0000
# 2 77.0584 129.7698 50.0532 0.0000 2.1446 0.0000
# 3 33.6454 50.0532 86.7941 0.0000 9.8952 0.0000
# 4 0.0000 0.0000 0.0000 11.5005 0.0000 -1.1036
# 5 0.4512 2.1446 9.8952 0.0000 30.8960 0.0000
# 6 0.0000 0.0000 0.0000 -1.1036 0.0000 33.2954
#
#
#
# Elastic Compliance Matrix: (Units=1/GPa)
#
#
# Indices 1 2 3 4 5 6 
#
# 1 0.027354 -0.015586 -0.001758 0.000000 0.001245 0.000000
# 2 -0.015586 0.018833 -0.004874 0.000000 0.000481 0.000000
# 3 -0.001758 -0.004874 0.015539 0.000000 -0.004613 0.000000
# 4 0.000000 0.000000 0.000000 0.087230 0.000000 0.002891
# 5 0.001245 0.000481 -0.004613 0.000000 0.033792 0.000000
# 6 0.000000 0.000000 0.000000 0.002891 0.000000 0.030130
#
#
# Mechanical properties :
#
#
# Convention : Reuss Voigt Hill
#
# Bulk Modulus (GPa) = 57.82999 68.96480 63.39740
# Shear Modulus (GPa) = 19.00588 24.36587 21.68588
#
# Velocity S-wave (km/s) = 3.23291 3.66050 3.45333
# Velocity P-wave (km/s) = 6.76294 7.46931 7.12489
#
# Compressibility (1/GPa) = 0.01729206
#
# Stress axis : x y z
#
# Youngs Moduli (GPa) = 36.55803 53.09908 64.35265
#
# Poissons Ratio (x) = 0.82758 0.11310
# Poissons Ratio (y) = 0.56978 0.31364
# Poissons Ratio (z) = 0.06425 0.25879
#
# Static dielectric constant tensor:
#      x y z
#    x 1.606950 0.000000 0.008430 
#    y 0.000000 1.626860 0.000000 
#    z 0.008430 0.000000 1.622850 
# 
# From -- ./inp_files/91279.got.cif
#   From: 2010.05.17/outbox.cif.g08.bks.cpg/sg12_46_cif.got.tgz:91279.got - 2010.06.03 13:09:07.
