data_PCOD9182876
_publ_section_title
;
Structure prediction by ZEFSAII (Michael W. Deem and Ramdas Pophale) SiO2 
 PCOD9182876
Probable space group: C 2/M
;
_chemical_formula_sum "Si O2"
_cell_formula_units_Z 64
_cell_length_a 29.523543
_cell_length_b 7.608343
_cell_length_c 19.666865
_cell_angle_alpha 90.000000
_cell_angle_beta 40.492907
_cell_angle_gamma 90.000000
_cell_volume 2868.634074
_symmetry_space_group_name_H-M "C 2/M"
_symmetry_group_IT_number 12
_symmetry_cell_setting 'monoclinic'
loop_
_space_group_symop_operation_xyz
x,y,z
-x,y,-z
-x,-y,-z
x,-y,z
1/2+x,1/2+y,z
1/2-x,1/2+y,-z
1/2-x,1/2-y,-z
1/2+x,1/2-y,z
loop_
_atom_site_type_symbol
_atom_site_label
_atom_site_fract_x
_atom_site_fract_y
_atom_site_fract_z
Si Si1 0.628977 0.707847 0.446426
Si Si2 0.045006 0.287673 0.670945
Si Si3 0.823373 0.715781 0.839987
Si Si4 0.892732 0.287925 0.893390
Si Si5 0.436134 0.199123 0.611422
Si Si6 0.218879 0.708130 0.705065
Si Si7 0.700614 0.705363 0.882040
Si Si8 0.672929 0.788903 0.617222
O O1 0.634530 0.500000 0.426422
O O2 0.565886 0.738578 0.570277
O O3 0.619546 0.804029 0.385952
O O4 0.701669 0.773215 0.394732
O O5 0.043517 0.500000 0.674772
O O6 0.109006 0.220941 0.644640
O O7 0.969439 0.226994 0.783023
O O8 0.821315 0.500000 0.841621
O O9 0.833795 0.772798 0.905960
O O10 0.895750 0.772148 0.721328
O O11 0.761341 0.781681 0.862285
O O12 0.893223 0.500000 0.890488
O O13 0.869546 0.233856 0.994845
O O14 0.500000 0.290516 0.500000
O O15 0.458169 0.000000 0.604504
O O16 0.221712 0.500000 0.690696
O O17 0.198413 0.731454 0.807022
O O18 0.172408 0.777120 0.696031
O O19 0.714788 0.500000 0.860790
O O20 0.750000 0.750000 0.500000
O O21 0.664955 0.000000 0.625500
#
# Coordination Sequence:
#
# PCOD9182876 Si02
#       8
#     8   8   8   8   8   8   8   8
#     4  11  21  33  53  82 117 150 181 227 284 334
#     4  10  21  37  60  85 112 149 190 229 280 344
#     4   9  18  33  54  80 109 142 186 231 272 326
#     4  10  21  39  59  81 110 146 187 233 282 331
#     4  10  19  33  53  77 111 153 191 229 276 335
#     4  10  21  37  56  82 114 147 182 227 282 333
#     4  11  22  37  58  83 110 147 192 235 277 326
#     4  10  20  36  59  87 115 145 185 230 279 338
#
# _framework density 22.310269999999999
#
# number of rings (size 3 to 8) (size 9 to 14) (size 15 to 20)
#    0.000    1.875    2.500    1.875    0.000    3.750 
#    0.000    1.875    0.000    3.750    0.000    0.000 
#    0.000    0.000    0.000    0.000    0.000    0.000 
#
# Total GULP energy -178663.584526 kJ/mol
# GULP energy per Si atom -5583.237016 kJ/mol
# Density = 2.225949 g / cm^3
# Si number density = 22.310270 Si / 1000 Ang^3
#
#
#
# Elastic Constant Matrix: (Units=GPa)
#
#
# Indices 1 2 3 4 5 6 
#
# 1 99.8046 -0.3655 29.7718 0.0018 15.8137 0.0021
# 2 -0.3655 50.9566 -16.9465 0.0357 -3.0849 -0.0215
# 3 29.7718 -16.9465 122.5356 0.0228 17.6710 -0.0092
# 4 0.0018 0.0357 0.0228 18.2335 -0.0081 1.1702
# 5 15.8137 -3.0849 17.6710 -0.0081 31.8274 -0.0029
# 6 0.0021 -0.0215 -0.0092 1.1702 -0.0029 13.1283
#
#
#
# Elastic Compliance Matrix: (Units=1/GPa)
#
#
# Indices 1 2 3 4 5 6 
#
# 1 0.011401 -0.000939 -0.002250 0.000002 -0.004507 -0.000006
# 2 -0.000939 0.020654 0.002966 -0.000046 0.000822 0.000040
# 3 -0.002250 0.002966 0.009691 -0.000020 -0.003975 0.000013
# 4 0.000002 -0.000046 -0.000020 0.055160 0.000020 -0.004917
# 5 -0.004507 0.000822 -0.003975 0.000020 0.035945 0.000005
# 6 -0.000006 0.000040 0.000013 -0.004917 0.000005 0.076610
#
#
# Mechanical properties :
#
#
# Convention : Reuss Voigt Hill
#
# Bulk Modulus (GPa) = 24.21320 33.13517 28.67418
# Shear Modulus (GPa) = 22.35385 30.02695 26.19040
#
# Velocity S-wave (km/s) = 3.16880 3.67260 3.42996
# Velocity P-wave (km/s) = 4.92594 5.73308 5.34477
#
# Compressibility (1/GPa) = 0.04129979
#
# Stress axis : x y z
#
# Youngs Moduli (GPa) = 87.70841 48.41662 103.18774
#
# Poissons Ratio (x) = 0.04548 0.23219
# Poissons Ratio (y) = 0.08239 -0.30607
# Poissons Ratio (z) = 0.19736 -0.14361
#
# Static dielectric constant tensor:
#      x y z
#    x 1.884800 -0.000020 -0.025830 
#    y -0.000020 1.840960 0.000010 
#    z -0.025830 0.000010 1.814910 
# 
# From -- ./inp_files/295633.got.cif
#   From: 2010.05.17/outbox.cif.g08.bks.cpg/sg12_148_cif.got.tgz:295633.got - 2010.06.03 13:09:07.
