data_PCOD9182632
_publ_section_title
;
Structure prediction by ZEFSAII (Michael W. Deem and Ramdas Pophale) SiO2 
 PCOD9182632
Probable space group: C 2/M
;
_chemical_formula_sum "Si O2"
_cell_formula_units_Z 48
_cell_length_a 24.175249
_cell_length_b 9.005441
_cell_length_c 14.049129
_cell_angle_alpha 90.000000
_cell_angle_beta 71.815395
_cell_angle_gamma 90.000000
_cell_volume 2905.858876
_symmetry_space_group_name_H-M "C 2/M"
_symmetry_group_IT_number 12
_symmetry_cell_setting 'monoclinic'
loop_
_space_group_symop_operation_xyz
x,y,z
-x,y,-z
-x,-y,-z
x,-y,z
1/2+x,1/2+y,z
1/2-x,1/2+y,-z
1/2-x,1/2-y,-z
1/2+x,1/2-y,z
loop_
_atom_site_type_symbol
_atom_site_label
_atom_site_fract_x
_atom_site_fract_y
_atom_site_fract_z
Si Si1 0.520673 0.821167 0.382999
Si Si2 0.555039 0.671751 0.079241
Si Si3 0.747613 0.178678 0.106754
Si Si4 0.869469 0.827515 0.771623
Si Si5 0.132203 0.822231 0.856871
Si Si6 0.550680 0.823956 0.762547
O O1 0.500000 0.783921 0.500000
O O2 0.580983 0.743080 0.321797
O O3 0.472020 0.778868 0.330195
O O4 0.528394 0.000000 0.372494
O O5 0.534760 0.500000 0.083298
O O6 0.602864 0.676986 0.137165
O O7 0.502200 0.773226 0.140625
O O8 0.586291 0.715246 0.965301
O O9 0.689986 0.236354 0.190539
O O10 0.804662 0.221553 0.137134
O O11 0.747039 0.000000 0.097198
O O12 0.750000 0.250000 0.000000
O O13 0.859138 0.000000 0.753298
O O14 0.108623 0.750109 0.773088
O O15 0.131933 0.000000 0.846920
O O16 0.557123 0.000000 0.760833
#
# Coordination Sequence:
#
# PCOD9182632 Si02
#       6
#     8   8   8   8   8   8
#     4   9  19  37  58  78 102 132 166 212 269 316
#     4   9  17  31  47  66  99 139 169 198 245 303
#     4  11  21  34  51  73 104 143 181 210 246 297
#     4  10  19  33  52  78 106 134 173 215 254 300
#     4  10  20  33  47  67 101 143 172 198 247 303
#     4  10  20  31  47  75 100 126 168 213 254 299
#
# _framework density 16.518353000000001
#
# number of rings (size 3 to 8) (size 9 to 14) (size 15 to 20)
#    0.000    2.167    1.667    2.000    0.000    5.667 
#    0.000    0.000    0.000    1.000    0.000    0.000 
#    0.000    0.000    0.000    0.000    0.000    0.000 
#
# Total GULP energy -133885.025086 kJ/mol
# GULP energy per Si atom -5578.542712 kJ/mol
# Density = 1.648076 g / cm^3
# Si number density = 16.518353 Si / 1000 Ang^3
#
#
#
# Elastic Constant Matrix: (Units=GPa)
#
#
# Indices 1 2 3 4 5 6 
#
# 1 138.0186 49.5367 62.1354 0.0000 14.7845 0.0000
# 2 49.5367 44.7773 38.7823 0.0000 5.1011 0.0000
# 3 62.1354 38.7823 102.9669 0.0000 6.2625 0.0000
# 4 0.0000 0.0000 0.0000 19.8415 0.0000 0.2279
# 5 14.7845 5.1011 6.2625 0.0000 9.0242 0.0000
# 6 0.0000 0.0000 0.0000 0.2279 0.0000 29.3236
#
#
#
# Elastic Compliance Matrix: (Units=1/GPa)
#
#
# Indices 1 2 3 4 5 6 
#
# 1 0.014490 -0.011197 -0.003620 0.000000 -0.014897 0.000000
# 2 -0.011197 0.042783 -0.009399 0.000000 0.000684 0.000000
# 3 -0.003620 -0.009399 0.015403 0.000000 0.000555 0.000000
# 4 0.000000 0.000000 0.000000 0.050404 0.000000 -0.000392
# 5 -0.014897 0.000684 0.000555 0.000000 0.134449 0.000000
# 6 0.000000 0.000000 0.000000 -0.000392 0.000000 0.034105
#
#
# Mechanical properties :
#
#
# Convention : Reuss Voigt Hill
#
# Bulk Modulus (GPa) = 41.24945 65.18574 53.21760
# Shear Modulus (GPa) = 14.36176 20.65842 17.51009
#
# Velocity S-wave (km/s) = 2.95183 3.54027 3.25936
# Velocity P-wave (km/s) = 6.05342 7.50064 6.81555
#
# Compressibility (1/GPa) = 0.02424275
#
# Stress axis : x y z
#
# Youngs Moduli (GPa) = 69.01331 23.37401 64.92305
#
# Poissons Ratio (x) = 0.26172 0.23505
# Poissons Ratio (y) = 0.77276 0.61019
# Poissons Ratio (z) = 0.24986 0.21968
#
# Static dielectric constant tensor:
#      x y z
#    x 1.575910 0.000000 0.017550 
#    y 0.000000 1.556800 0.000000 
#    z 0.017550 0.000000 1.529460 
# 
# From -- ./inp_files/172075.got.cif
#   From: 2010.05.17/outbox.cif.g08.bks.cpg/sg12_87_cif.got.tgz:172075.got - 2010.06.03 13:09:07.
