data_PCOD9182693
_publ_section_title
;
Structure prediction by ZEFSAII (Michael W. Deem and Ramdas Pophale) SiO2 
 PCOD9182693
Probable space group: C 2/M
;
_chemical_formula_sum "Si O2"
_cell_formula_units_Z 48
_cell_length_a 10.991981
_cell_length_b 23.263828
_cell_length_c 9.881848
_cell_angle_alpha 90.000000
_cell_angle_beta 79.668736
_cell_angle_gamma 90.000000
_cell_volume 2485.973759
_symmetry_space_group_name_H-M "C 2/M"
_symmetry_group_IT_number 12
_symmetry_cell_setting 'monoclinic'
loop_
_space_group_symop_operation_xyz
x,y,z
-x,y,-z
-x,-y,-z
x,-y,z
1/2+x,1/2+y,z
1/2-x,1/2+y,-z
1/2-x,1/2-y,-z
1/2+x,1/2-y,z
loop_
_atom_site_type_symbol
_atom_site_label
_atom_site_fract_x
_atom_site_fract_y
_atom_site_fract_z
Si Si1 0.304594 0.850294 0.746721
Si Si2 0.623520 0.659615 0.030149
Si Si3 0.830643 0.807748 0.473103
Si Si4 0.289661 0.850304 0.245446
Si Si5 0.991350 0.568055 0.340680
Si Si6 0.503942 0.755273 0.761878
O O1 0.233432 0.850726 0.620141
O O2 0.381849 0.908340 0.750874
O O3 0.407715 0.800707 0.721493
O O4 0.209456 0.833065 0.882424
O O5 0.715768 0.634260 0.124691
O O6 0.566266 0.716794 0.112906
O O7 0.500000 0.627739 0.000000
O O8 0.750000 0.750000 0.500000
O O9 0.813747 0.835964 0.621814
O O10 0.949570 0.785249 0.368872
O O11 0.379855 0.898460 0.289528
O O12 0.379513 0.793889 0.208464
O O13 0.978011 0.500000 0.331220
O O14 0.000000 0.582805 0.500000
#
# Coordination Sequence:
#
# PCOD9182693 Si02
#       6
#     8   8   8   8   8   8
#     4  11  22  37  57  89 126 154 208 251 294 360
#     4  12  25  37  53  86 130 175 198 235 292 367
#     4  10  19  33  52  86 122 163 194 239 288 356
#     4  10  23  37  59  90 124 155 205 248 294 363
#     4  10  21  42  72  94 112 144 196 272 328 349
#     4  10  21  33  58  83 127 167 202 233 297 350
#
# _framework density 19.308330000000002
#
# number of rings (size 3 to 8) (size 9 to 14) (size 15 to 20)
#    0.000    1.500    3.333    2.500    2.333    5.333 
#    0.000    1.667    0.000    2.000    0.000    3.500 
#    0.000    0.000    0.000    0.000    0.000    0.000 
#
# Total GULP energy -133879.468540 kJ/mol
# GULP energy per Si atom -5578.311189 kJ/mol
# Density = 1.926438 g / cm^3
# Si number density = 19.308330 Si / 1000 Ang^3
#
#
#
# Elastic Constant Matrix: (Units=GPa)
#
#
# Indices 1 2 3 4 5 6 
#
# 1 134.3630 39.8780 46.5363 0.0000 1.6092 0.0000
# 2 39.8780 69.5029 22.3863 0.0000 -3.1580 0.0000
# 3 46.5363 22.3863 81.9861 0.0000 1.8002 0.0000
# 4 0.0000 0.0000 0.0000 15.9011 0.0000 1.2007
# 5 1.6092 -3.1580 1.8002 0.0000 42.7095 0.0000
# 6 0.0000 0.0000 0.0000 1.2007 0.0000 14.1157
#
#
#
# Elastic Compliance Matrix: (Units=1/GPa)
#
#
# Indices 1 2 3 4 5 6 
#
# 1 0.010396 -0.004486 -0.004664 0.000000 -0.000527 0.000000
# 2 -0.004486 0.017789 -0.002346 0.000000 0.001583 0.000000
# 3 -0.004664 -0.002346 0.015499 0.000000 -0.000651 0.000000
# 4 0.000000 0.000000 0.000000 0.063295 0.000000 -0.005384
# 5 -0.000527 0.001583 -0.000651 0.000000 0.023578 0.000000
# 6 0.000000 0.000000 0.000000 -0.005384 0.000000 0.071301
#
#
# Mechanical properties :
#
#
# Convention : Reuss Voigt Hill
#
# Bulk Modulus (GPa) = 48.32736 55.93926 52.13331
# Shear Modulus (GPa) = 21.57502 26.34867 23.96185
#
# Velocity S-wave (km/s) = 3.34637 3.69809 3.52662
# Velocity P-wave (km/s) = 6.32571 6.87524 6.60619
#
# Compressibility (1/GPa) = 0.02069221
#
# Stress axis : x y z
#
# Youngs Moduli (GPa) = 96.19287 56.21314 64.51853
#
# Poissons Ratio (x) = 0.25219 0.30093
# Poissons Ratio (y) = 0.43155 0.15134
# Poissons Ratio (z) = 0.44866 0.13186
#
# Static dielectric constant tensor:
#      x y z
#    x 1.773640 0.000000 0.028500 
#    y 0.000000 1.645870 0.000000 
#    z 0.028500 0.000000 1.703910 
# 
# From -- ./inp_files/50621.got.cif
#   From: 2010.05.17/outbox.cif.g08.bks.cpg/sg12_26_cif.got.tgz:50621.got - 2010.06.03 13:09:07.
