data_PCOD9182093
_publ_section_title
;
Structure prediction by ZEFSAII (Michael W. Deem and Ramdas Pophale) SiO2 
 PCOD9182093
Probable space group: C 2/M
;
_chemical_formula_sum "Si O2"
_cell_formula_units_Z 56
_cell_length_a 24.110386
_cell_length_b 14.747622
_cell_length_c 6.969440
_cell_angle_alpha 90.000000
_cell_angle_beta 117.392823
_cell_angle_gamma 90.000000
_cell_volume 2200.264570
_symmetry_space_group_name_H-M "C 2/M"
_symmetry_group_IT_number 12
_symmetry_cell_setting 'monoclinic'
loop_
_space_group_symop_operation_xyz
x,y,z
-x,y,-z
-x,-y,-z
x,-y,z
1/2+x,1/2+y,z
1/2-x,1/2+y,-z
1/2-x,1/2-y,-z
1/2+x,1/2-y,z
loop_
_atom_site_type_symbol
_atom_site_label
_atom_site_fract_x
_atom_site_fract_y
_atom_site_fract_z
Si Si1 0.186358 0.718672 0.000872
Si Si2 0.499352 0.295716 0.731373
Si Si3 0.119657 0.099218 0.462866
Si Si4 0.643446 0.099302 0.599105
Si Si5 0.380581 0.398467 0.074499
Si Si6 0.257307 0.144145 0.554394
Si Si7 0.493586 0.901244 0.720778
O O1 0.145178 0.675704 0.765108
O O2 0.158125 0.809941 0.046859
O O3 0.250000 0.750000 0.000000
O O4 0.202571 0.643696 0.185370
O O5 0.500000 0.293510 0.500000
O O6 0.429447 0.324230 0.676520
O O7 0.548398 0.373292 0.863059
O O8 0.520122 0.195203 0.829971
O O9 0.125619 0.103304 0.703382
O O10 0.188635 0.107015 0.487217
O O11 0.093058 0.000000 0.375425
O O12 0.703676 0.104869 0.559344
O O13 0.581187 0.105982 0.372578
O O14 0.642030 0.000000 0.690490
O O15 0.362817 0.500000 0.983773
O O16 0.250000 0.250000 0.500000
O O17 0.500000 0.903149 0.500000
O O18 0.516705 0.000000 0.826003
#
# Coordination Sequence:
#
# PCOD9182093 Si02
#       7
#     8   8   8   8   8   8   8
#     4  12  23  41  65  92 131 175 217 268 328 393
#     4   9  16  30  55  85 124 163 210 265 324 381
#     4  10  19  32  55  87 122 165 214 264 320 388
#     4  11  24  41  64  96 128 169 220 272 334 399
#     4  10  20  36  59  92 128 168 216 269 324 390
#     4  12  23  40  61  90 130 172 218 271 331 392
#     4   9  17  32  59  90 122 161 213 270 328 393
#
# _framework density 25.451484000000001
#
# number of rings (size 3 to 8) (size 9 to 14) (size 15 to 20)
#    0.000    1.571    2.857    4.286    0.000    3.429 
#    0.000    0.000    0.000    8.571    0.000   15.000 
#    0.000    0.000    0.000    0.000    0.000    0.000 
#
# Total GULP energy -156713.458830 kJ/mol
# GULP energy per Si atom -5596.909244 kJ/mol
# Density = 2.539356 g / cm^3
# Si number density = 25.451484 Si / 1000 Ang^3
#
#
#
# Elastic Constant Matrix: (Units=GPa)
#
#
# Indices 1 2 3 4 5 6 
#
# 1 131.0725 27.2363 25.2531 0.0000 14.9234 0.0000
# 2 27.2363 179.0905 14.5081 0.0000 15.8949 0.0000
# 3 25.2531 14.5081 59.7429 0.0000 -26.7773 0.0000
# 4 0.0000 0.0000 0.0000 8.1240 0.0000 14.6744
# 5 14.9234 15.8949 -26.7773 0.0000 39.2981 0.0000
# 6 0.0000 0.0000 0.0000 14.6744 0.0000 28.8412
#
#
#
# Elastic Compliance Matrix: (Units=1/GPa)
#
#
# Indices 1 2 3 4 5 6 
#
# 1 0.010508 0.000029 -0.008987 0.000000 -0.010125 0.000000
# 2 0.000029 0.006362 -0.003909 0.000000 -0.005248 0.000000
# 3 -0.008987 -0.003909 0.034156 0.000000 0.028267 0.000000
# 4 0.000000 0.000000 0.000000 1.520561 0.000000 -0.773659
# 5 -0.010125 -0.005248 0.028267 0.000000 0.050675 0.000000
# 6 0.000000 0.000000 0.000000 -0.773659 0.000000 0.428309
#
#
# Mechanical properties :
#
#
# Convention : Reuss Voigt Hill
#
# Bulk Modulus (GPa) = 39.53961 55.98899 47.76430
# Shear Modulus (GPa) = 2.39839 35.44656 18.92247
#
# Velocity S-wave (km/s) = 0.97179 3.73595 2.72963
# Velocity P-wave (km/s) = 4.10222 6.37620 5.36116
#
# Compressibility (1/GPa) = 0.02529109
#
# Stress axis : x y z
#
# Youngs Moduli (GPa) = 95.16841 157.18760 29.27749
#
# Poissons Ratio (x) = -0.00450 0.26311
# Poissons Ratio (y) = -0.00273 0.11445
# Poissons Ratio (z) = 0.85526 0.61445
#
# Static dielectric constant tensor:
#      x y z
#    x 1.983240 0.000000 -0.007360 
#    y 0.000000 1.969540 0.000000 
#    z -0.007360 0.000000 2.058670 
# 
# From -- ./inp_files/96995.got.cif
#   From: 2010.05.17/outbox.cif.g08.bks.cpg/sg12_49_cif.got.tgz:96995.got - 2010.06.03 13:09:07.
