data_PCOD9182730
_publ_section_title
;
Structure prediction by ZEFSAII (Michael W. Deem and Ramdas Pophale) SiO2 
 PCOD9182730
Probable space group: C 2/M
;
_chemical_formula_sum "Si O2"
_cell_formula_units_Z 48
_cell_length_a 31.747415
_cell_length_b 7.854261
_cell_length_c 20.482348
_cell_angle_alpha 90.000000
_cell_angle_beta 151.329390
_cell_angle_gamma 90.000000
_cell_volume 2450.358876
_symmetry_space_group_name_H-M "C 2/M"
_symmetry_group_IT_number 12
_symmetry_cell_setting 'monoclinic'
loop_
_space_group_symop_operation_xyz
x,y,z
-x,y,-z
-x,-y,-z
x,-y,z
1/2+x,1/2+y,z
1/2-x,1/2+y,-z
1/2-x,1/2-y,-z
1/2+x,1/2-y,z
loop_
_atom_site_type_symbol
_atom_site_label
_atom_site_fract_x
_atom_site_fract_y
_atom_site_fract_z
Si Si1 0.421469 0.206416 0.590739
Si Si2 0.424745 0.795289 0.445886
Si Si3 0.945235 0.698251 0.121250
Si Si4 0.775191 0.702555 0.675826
Si Si5 0.042800 0.801173 0.125883
Si Si6 0.271391 0.205458 0.821160
O O1 0.433470 0.266937 0.532470
O O2 0.496905 0.272199 0.741470
O O3 0.323844 0.257792 0.480273
O O4 0.423493 0.000000 0.593476
O O5 0.500000 0.730000 0.500000
O O6 0.326200 0.752557 0.289649
O O7 0.432082 0.000000 0.458126
O O8 0.930749 0.500000 0.117955
O O9 0.002702 0.708961 0.133596
O O10 0.850216 0.771944 0.973309
O O11 0.787736 0.500000 0.692653
O O12 0.852897 0.781445 0.739311
O O13 0.783119 0.765475 0.761980
O O14 0.019870 0.000000 0.100874
O O15 0.000000 0.736164 0.000000
O O16 0.277190 0.000000 0.826863
#
# Coordination Sequence:
#
# PCOD9182730 Si02
#       6
#     8   8   8   8   8   8
#     4   9  19  35  54  75 103 136 171 210 255 304
#     4   9  18  34  56  79 102 131 167 206 251 307
#     4  10  20  35  53  74 103 138 172 212 257 299
#     4  10  19  33  53  74 101 137 176 215 252 297
#     4  11  22  33  50  76 104 135 175 216 252 298
#     4   9  18  32  52  76 100 131 170 209 253 301
#
# _framework density 19.588967
#
# number of rings (size 3 to 8) (size 9 to 14) (size 15 to 20)
#    0.000    2.333    1.667    1.000    0.000    3.667 
#    0.000    0.833    0.000    0.000    0.000    0.000 
#    0.000    0.000    0.000    0.000    0.000    0.000 
#
# Total GULP energy -133940.771140 kJ/mol
# GULP energy per Si atom -5580.865464 kJ/mol
# Density = 1.954438 g / cm^3
# Si number density = 19.588967 Si / 1000 Ang^3
#
#
#
# Elastic Constant Matrix: (Units=GPa)
#
#
# Indices 1 2 3 4 5 6 
#
# 1 84.9418 -8.7939 62.7158 0.0000 24.2032 0.0000
# 2 -8.7939 24.2225 -1.5162 0.0000 -4.3290 0.0000
# 3 62.7158 -1.5162 180.1701 0.0000 9.3427 0.0000
# 4 0.0000 0.0000 0.0000 15.6267 0.0000 3.4409
# 5 24.2032 -4.3290 9.3427 0.0000 25.3885 0.0000
# 6 0.0000 0.0000 0.0000 3.4409 0.0000 5.5828
#
#
#
# Elastic Compliance Matrix: (Units=1/GPa)
#
#
# Indices 1 2 3 4 5 6 
#
# 1 0.022447 0.004483 -0.006836 0.000000 -0.018119 0.000000
# 2 0.004483 0.043477 -0.001384 0.000000 0.003649 0.000000
# 3 -0.006836 -0.001384 0.007740 0.000000 0.003433 0.000000
# 4 0.000000 0.000000 0.000000 0.074041 0.000000 -0.045635
# 5 -0.018119 0.003649 0.003433 0.000000 0.056020 0.000000
# 6 0.000000 0.000000 0.000000 -0.045635 0.000000 0.207250
#
#
# Mechanical properties :
#
#
# Convention : Reuss Voigt Hill
#
# Bulk Modulus (GPa) = 15.10790 43.79397 29.45093
# Shear Modulus (GPa) = 11.35039 25.11484 18.23261
#
# Velocity S-wave (km/s) = 2.40974 3.58451 3.05414
# Velocity P-wave (km/s) = 3.93340 6.28782 5.24444
#
# Compressibility (1/GPa) = 0.06619055
#
# Stress axis : x y z
#
# Youngs Moduli (GPa) = 44.54862 23.00068 129.19281
#
# Poissons Ratio (x) = -0.10312 0.88322
# Poissons Ratio (y) = -0.19972 0.17879
# Poissons Ratio (z) = 0.30455 0.03183
#
# Static dielectric constant tensor:
#      x y z
#    x 1.657150 0.000000 -0.010930 
#    y 0.000000 1.705500 0.000000 
#    z -0.010930 0.000000 1.711820 
# 
# From -- ./inp_files/221547.got.cif
#   From: 2010.05.17/outbox.cif.g08.bks.cpg/sg12_111_cif.got.tgz:221547.got - 2010.06.03 13:09:07.
