data_PCOD9182469
_publ_section_title
;
Structure prediction by ZEFSAII (Michael W. Deem and Ramdas Pophale) SiO2 
 PCOD9182469
Probable space group: C 2/M
;
_chemical_formula_sum "Si O2"
_cell_formula_units_Z 64
_cell_length_a 25.869055
_cell_length_b 14.315488
_cell_length_c 9.770300
_cell_angle_alpha 90.000000
_cell_angle_beta 80.789670
_cell_angle_gamma 90.000000
_cell_volume 3571.568949
_symmetry_space_group_name_H-M "C 2/M"
_symmetry_group_IT_number 12
_symmetry_cell_setting 'monoclinic'
loop_
_space_group_symop_operation_xyz
x,y,z
-x,y,-z
-x,-y,-z
x,-y,z
1/2+x,1/2+y,z
1/2-x,1/2+y,-z
1/2-x,1/2-y,-z
1/2+x,1/2-y,z
loop_
_atom_site_type_symbol
_atom_site_label
_atom_site_fract_x
_atom_site_fract_y
_atom_site_fract_z
Si Si1 0.053380 0.111985 0.063518
Si Si2 0.368317 0.289374 0.463304
Si Si3 0.859288 0.212587 0.152950
Si Si4 0.732078 0.605777 0.410010
Si Si5 0.169682 0.605727 0.430796
Si Si6 0.451305 0.387768 0.614364
Si Si7 0.248226 0.388780 0.160121
Si Si8 0.203585 0.389797 0.878415
O O1 0.046704 0.139231 0.226280
O O2 0.064689 0.000000 0.053607
O O3 0.100342 0.168350 0.971634
O O4 0.000000 0.127079 0.000000
O O5 0.380736 0.301057 0.298081
O O6 0.308384 0.322544 0.508965
O O7 0.372031 0.181848 0.506583
O O8 0.401268 0.350150 0.554947
O O9 0.802865 0.161645 0.165202
O O10 0.844374 0.320759 0.132611
O O11 0.710017 0.500000 0.425074
O O12 0.785883 0.604363 0.471228
O O13 0.749875 0.628683 0.249476
O O14 0.150195 0.500000 0.419974
O O15 0.201792 0.637045 0.283478
O O16 0.500000 0.356057 0.500000
O O17 0.450885 0.500000 0.613266
O O18 0.256887 0.500000 0.175202
O O19 0.227106 0.371680 0.017481
O O20 0.190036 0.500000 0.872169
#
# Coordination Sequence:
#
# PCOD9182469 Si02
#       8
#     8   8   8   8   8   8   8   8
#     4  10  23  42  62  84 111 140 174 223 280 333
#     4  12  22  33  56  84 110 147 191 228 270 324
#     4  12  22  34  56  82 111 149 188 228 273 325
#     4  10  19  33  51  76 113 151 189 224 263 321
#     4  10  20  35  52  77 115 155 189 224 265 316
#     4  10  23  42  62  85 111 138 174 225 279 331
#     4  10  21  34  50  77 114 151 189 230 272 321
#     4  10  22  36  51  77 115 155 190 227 269 317
#
# _framework density 17.919295000000002
#
# number of rings (size 3 to 8) (size 9 to 14) (size 15 to 20)
#    0.000    1.500    2.500    3.000    3.500    2.500 
#    0.000    0.000    0.000    0.750    0.000    0.000 
#    0.000    0.000    0.000    0.000    0.000    0.000 
#
# Total GULP energy -178653.304304 kJ/mol
# GULP energy per Si atom -5582.915759 kJ/mol
# Density = 1.787851 g / cm^3
# Si number density = 17.919295 Si / 1000 Ang^3
#
#
#
# Elastic Constant Matrix: (Units=GPa)
#
#
# Indices 1 2 3 4 5 6 
#
# 1 28.6043 11.1112 26.1093 0.0000 -1.0210 0.0000
# 2 11.1112 53.7001 29.4794 0.0000 -9.9741 0.0000
# 3 26.1093 29.4794 159.3395 0.0000 -3.3216 0.0000
# 4 0.0000 0.0000 0.0000 23.1678 0.0000 -0.7661
# 5 -1.0210 -9.9741 -3.3216 0.0000 25.3573 0.0000
# 6 0.0000 0.0000 0.0000 -0.7661 0.0000 12.4775
#
#
#
# Elastic Compliance Matrix: (Units=1/GPa)
#
#
# Indices 1 2 3 4 5 6 
#
# 1 0.042580 -0.005804 -0.005931 0.000000 -0.001345 0.000000
# 2 -0.005804 0.023122 -0.003151 0.000000 0.008448 0.000000
# 3 -0.005931 -0.003151 0.007821 0.000000 -0.000454 0.000000
# 4 0.000000 0.000000 0.000000 0.043251 0.000000 0.002656
# 5 -0.001345 0.008448 -0.000454 0.000000 0.042646 0.000000
# 6 0.000000 0.000000 0.000000 0.002656 0.000000 0.080307
#
#
# Mechanical properties :
#
#
# Convention : Reuss Voigt Hill
#
# Bulk Modulus (GPa) = 22.85660 41.67152 32.26406
# Shear Modulus (GPa) = 17.60046 23.86346 20.73196
#
# Velocity S-wave (km/s) = 3.13742 3.65323 3.40511
# Velocity P-wave (km/s) = 5.08994 6.41096 5.78826
#
# Compressibility (1/GPa) = 0.04375104
#
# Stress axis : x y z
#
# Youngs Moduli (GPa) = 23.48496 43.24968 127.85672
#
# Poissons Ratio (x) = 0.25103 0.75837
# Poissons Ratio (y) = 0.13631 0.40282
# Poissons Ratio (z) = 0.13930 0.13626
#
# Static dielectric constant tensor:
#      x y z
#    x 1.591370 0.000000 -0.007570 
#    y 0.000000 1.655160 0.000000 
#    z -0.007570 0.000000 1.668890 
# 
# From -- ./inp_files/96906.got.cif
#   From: 2010.05.17/outbox.cif.g08.bks.cpg/sg12_49_cif.got.tgz:96906.got - 2010.06.03 13:09:07.
