data_PCOD9182780
_publ_section_title
;
Structure prediction by ZEFSAII (Michael W. Deem and Ramdas Pophale) SiO2 
 PCOD9182780
Probable space group: C 2/M
;
_chemical_formula_sum "Si O2"
_cell_formula_units_Z 48
_cell_length_a 18.818208
_cell_length_b 31.231285
_cell_length_c 9.502405
_cell_angle_alpha 90.000000
_cell_angle_beta 32.010483
_cell_angle_gamma 90.000000
_cell_volume 2960.318905
_symmetry_space_group_name_H-M "C 2/M"
_symmetry_group_IT_number 12
_symmetry_cell_setting 'monoclinic'
loop_
_space_group_symop_operation_xyz
x,y,z
-x,y,-z
-x,-y,-z
x,-y,z
1/2+x,1/2+y,z
1/2-x,1/2+y,-z
1/2-x,1/2-y,-z
1/2+x,1/2-y,z
loop_
_atom_site_type_symbol
_atom_site_label
_atom_site_fract_x
_atom_site_fract_y
_atom_site_fract_z
Si Si1 0.649674 0.451093 0.811295
Si Si2 0.692873 0.284661 0.294831
Si Si3 0.197605 0.882687 0.282028
Si Si4 0.388261 0.617684 0.892330
Si Si5 0.899613 0.215512 0.878948
Si Si6 0.654188 0.049653 0.782160
O O1 0.664937 0.500000 0.837862
O O2 0.754165 0.444393 0.509943
O O3 0.500000 0.447081 0.000000
O O4 0.663664 0.416544 0.909900
O O5 0.735838 0.333509 0.251754
O O6 0.645934 0.283916 0.209299
O O7 0.558469 0.275182 0.609341
O O8 0.810018 0.250010 0.110166
O O9 0.185104 0.886406 0.134607
O O10 0.294503 0.917237 0.187874
O O11 0.046673 0.889199 0.595373
O O12 0.375715 0.666637 0.966048
O O13 0.670928 0.000000 0.799818
O O14 0.500000 0.056223 0.000000
#
# Coordination Sequence:
#
# PCOD9182780 Si02
#       6
#     8   8   8   8   8   8
#     4  10  19  33  53  75  97 128 169 202 239 299
#     4   8  14  26  45  68  96 127 160 195 237 288
#     4   9  17  31  52  77 102 129 163 206 248 286
#     4   9  17  30  52  80 102 123 163 214 249 274
#     4   8  14  26  44  68  98 128 156 194 241 288
#     4  10  21  37  53  70  99 137 166 194 247 308
#
# _framework density 16.214469999999999
#
# number of rings (size 3 to 8) (size 9 to 14) (size 15 to 20)
#    0.000    3.000    1.667    2.000    0.000    0.667 
#    3.000    2.500    0.000    5.000    0.000    0.000 
#    0.000    0.000    0.000    0.000    0.000    0.000 
#
# Total GULP energy -133679.393155 kJ/mol
# GULP energy per Si atom -5569.974715 kJ/mol
# Density = 1.617757 g / cm^3
# Si number density = 16.214470 Si / 1000 Ang^3
#
#
#
# Elastic Constant Matrix: (Units=GPa)
#
#
# Indices 1 2 3 4 5 6 
#
# 1 44.8142 67.3727 37.0415 0.0000 -9.3800 0.0000
# 2 67.3727 145.2485 78.4868 0.0000 -8.5115 0.0000
# 3 37.0415 78.4868 92.7802 0.0000 -11.3674 0.0000
# 4 0.0000 0.0000 0.0000 14.1097 0.0000 -22.1871
# 5 -9.3800 -8.5115 -11.3674 0.0000 12.7596 0.0000
# 6 0.0000 0.0000 0.0000 -22.1871 0.0000 -36.1184
#
#
#
# Elastic Compliance Matrix: (Units=1/GPa)
#
#
# Indices 1 2 3 4 5 6 
#
# 1 0.090600 -0.042004 0.004590 0.000000 0.042674 0.000000
# 2 -0.042004 0.032173 -0.013022 0.000000 -0.021019 0.000000
# 3 0.004590 -0.013022 0.021677 0.000000 0.014000 0.000000
# 4 0.000000 0.000000 0.000000 0.036050 0.000000 -0.022145
# 5 0.042674 -0.021019 0.014000 0.000000 0.108195 0.000000
# 6 0.000000 0.000000 0.000000 -0.022145 0.000000 -0.014083
#
#
# Mechanical properties :
#
#
# Convention : Reuss Voigt Hill
#
# Bulk Modulus (GPa) = 22.94720 72.07165 47.50943
# Shear Modulus (GPa) = 12.82015 4.81297 8.81656
#
# Velocity S-wave (km/s) = 2.81492 1.72475 2.33437
# Velocity P-wave (km/s) = 4.97474 6.96504 6.05227
#
# Compressibility (1/GPa) = 0.04357830
#
# Stress axis : x y z
#
# Youngs Moduli (GPa) = 11.03747 31.08172 46.13238
#
# Poissons Ratio (x) = 1.30557 -0.21177
# Poissons Ratio (y) = 0.46362 0.60074
# Poissons Ratio (z) = -0.05067 0.40475
#
# Static dielectric constant tensor:
#      x y z
#    x 1.525120 0.000000 -0.002420 
#    y 0.000000 1.546370 0.000000 
#    z -0.002420 0.000000 1.534810 
# 
# From -- ./inp_files/80590.got.cif
#   From: 2010.05.17/outbox.cif.g08.bks.cpg/sg12_41_cif.got.tgz:80590.got - 2010.06.03 13:09:07.
