data_PCOD9182984
_publ_section_title
;
Structure prediction by ZEFSAII (Michael W. Deem and Ramdas Pophale) SiO2 
 PCOD9182984
Probable space group: C 2/M
;
_chemical_formula_sum "Si O2"
_cell_formula_units_Z 64
_cell_length_a 25.591770
_cell_length_b 8.878489
_cell_length_c 14.802118
_cell_angle_alpha 90.000000
_cell_angle_beta 102.777185
_cell_angle_gamma 90.000000
_cell_volume 3279.998447
_symmetry_space_group_name_H-M "C 2/M"
_symmetry_group_IT_number 12
_symmetry_cell_setting 'monoclinic'
loop_
_space_group_symop_operation_xyz
x,y,z
-x,y,-z
-x,-y,-z
x,-y,z
1/2+x,1/2+y,z
1/2-x,1/2+y,-z
1/2-x,1/2-y,-z
1/2+x,1/2-y,z
loop_
_atom_site_type_symbol
_atom_site_label
_atom_site_fract_x
_atom_site_fract_y
_atom_site_fract_z
Si Si1 0.531408 0.822195 0.661190
Si Si2 0.127107 0.179100 0.584197
Si Si3 0.139633 0.679094 0.924403
Si Si4 0.809714 0.180650 0.890096
Si Si5 0.696305 0.181072 0.760518
Si Si6 0.969920 0.820496 0.140731
Si Si7 0.407304 0.176629 0.605901
Si Si8 0.410821 0.318592 0.805302
O O1 0.575079 0.753697 0.611490
O O2 0.533127 0.734113 0.756508
O O3 0.470355 0.808948 0.604066
O O4 0.542611 0.000000 0.680572
O O5 0.176552 0.237071 0.663229
O O6 0.127160 0.236478 0.481513
O O7 0.123217 0.000000 0.586067
O O8 0.137695 0.500000 0.928429
O O9 0.157007 0.720459 0.829086
O O10 0.081494 0.746591 0.924912
O O11 0.183030 0.741114 0.010990
O O12 0.755787 0.221132 0.816376
O O13 0.861956 0.220943 0.851449
O O14 0.809012 0.000000 0.902904
O O15 0.693734 0.000000 0.746476
O O16 0.030162 0.777083 0.134197
O O17 0.964845 0.000000 0.131900
O O18 0.402911 0.243045 0.704718
O O19 0.394239 0.000000 0.600754
O O20 0.411188 0.500000 0.793670
#
# Coordination Sequence:
#
# PCOD9182984 Si02
#       8
#     8   8   8   8   8   8   8   8
#     4  10  19  33  53  81 117 152 186 227 282 340
#     4  12  23  34  55  85 116 151 190 233 281 338
#     4  11  22  36  58  87 118 149 187 238 288 343
#     4  10  22  41  63  83 109 151 195 240 289 337
#     4  10  22  40  60  83 115 151 190 238 289 337
#     4  10  19  33  56  85 117 152 186 230 285 339
#     4  10  21  36  57  83 115 153 189 231 282 338
#     4   9  20  39  60  84 115 149 193 240 282 334
#
# _framework density 19.512205999999999
#
# number of rings (size 3 to 8) (size 9 to 14) (size 15 to 20)
#    0.000    1.750    1.250    3.375    0.000    5.500 
#    0.000    3.125    0.000    0.000    0.000    0.000 
#    0.000    0.000    0.000    0.000    0.000    0.000 
#
# Total GULP energy -178810.850259 kJ/mol
# GULP energy per Si atom -5587.839071 kJ/mol
# Density = 1.946779 g / cm^3
# Si number density = 19.512206 Si / 1000 Ang^3
#
#
#
# Elastic Constant Matrix: (Units=GPa)
#
#
# Indices 1 2 3 4 5 6 
#
# 1 81.4123 25.2582 22.5097 0.0000 17.5530 0.0000
# 2 25.2582 32.6580 17.2794 0.0000 11.5658 0.0000
# 3 22.5097 17.2794 69.5308 0.0000 27.3927 0.0000
# 4 0.0000 0.0000 0.0000 25.1983 0.0000 5.8110
# 5 17.5530 11.5658 27.3927 0.0000 24.5318 0.0000
# 6 0.0000 0.0000 0.0000 5.8110 0.0000 18.8187
#
#
#
# Elastic Compliance Matrix: (Units=1/GPa)
#
#
# Indices 1 2 3 4 5 6 
#
# 1 0.017167 -0.010703 -0.000083 0.000000 -0.007145 0.000000
# 2 -0.010703 0.044104 -0.004144 0.000000 -0.008508 0.000000
# 3 -0.000083 -0.004144 0.026149 0.000000 -0.027185 0.000000
# 4 0.000000 0.000000 0.000000 0.042728 0.000000 -0.013194
# 5 -0.007145 -0.008508 -0.027185 0.000000 0.080243 0.000000
# 6 0.000000 0.000000 0.000000 -0.013194 0.000000 0.057213
#
#
# Mechanical properties :
#
#
# Convention : Reuss Voigt Hill
#
# Bulk Modulus (GPa) = 17.37303 34.85507 26.11405
# Shear Modulus (GPa) = 15.79034 21.61334 18.70184
#
# Velocity S-wave (km/s) = 2.84783 3.33180 3.09927
# Velocity P-wave (km/s) = 4.44258 5.71867 5.12053
#
# Compressibility (1/GPa) = 0.05756047
#
# Stress axis : x y z
#
# Youngs Moduli (GPa) = 58.25059 22.67375 38.24263
#
# Poissons Ratio (x) = 0.24268 0.00317
# Poissons Ratio (y) = 0.62347 0.15846
# Poissons Ratio (z) = 0.00484 0.09395
#
# Static dielectric constant tensor:
#      x y z
#    x 1.693970 0.000000 0.018280 
#    y 0.000000 1.644150 0.000000 
#    z 0.018280 0.000000 1.675380 
# 
# From -- ./inp_files/244271.got.cif
#   From: 2010.05.17/outbox.cif.g08.bks.cpg/sg12_123_cif.got.tgz:244271.got - 2010.06.03 13:09:07.
