data_PCOD9182341
_publ_section_title
;
Structure prediction by ZEFSAII (Michael W. Deem and Ramdas Pophale) SiO2 
 PCOD9182341
Probable space group: C 2/M
;
_chemical_formula_sum "Si O2"
_cell_formula_units_Z 64
_cell_length_a 24.012839
_cell_length_b 7.620355
_cell_length_c 18.926229
_cell_angle_alpha 90.000000
_cell_angle_beta 92.861245
_cell_angle_gamma 90.000000
_cell_volume 3458.924260
_symmetry_space_group_name_H-M "C 2/M"
_symmetry_group_IT_number 12
_symmetry_cell_setting 'monoclinic'
loop_
_space_group_symop_operation_xyz
x,y,z
-x,y,-z
-x,-y,-z
x,-y,z
1/2+x,1/2+y,z
1/2-x,1/2+y,-z
1/2-x,1/2-y,-z
1/2+x,1/2-y,z
loop_
_atom_site_type_symbol
_atom_site_label
_atom_site_fract_x
_atom_site_fract_y
_atom_site_fract_z
Si Si1 0.306596 0.214647 0.081888
Si Si2 0.610708 0.201901 0.351353
Si Si3 0.324250 0.203563 0.933152
Si Si4 0.814195 0.797240 0.516511
Si Si5 0.876493 0.712480 0.375014
Si Si6 0.000510 0.714909 0.581984
Si Si7 0.675808 0.212586 0.220894
Si Si8 0.806938 0.289849 0.237114
O O1 0.243223 0.284054 0.074108
O O2 0.327303 0.269359 0.160659
O O3 0.303959 0.000000 0.079774
O O4 0.337642 0.274769 0.012340
O O5 0.656301 0.200912 0.416735
O O6 0.554000 0.279158 0.380017
O O7 0.638136 0.279899 0.282723
O O8 0.597373 0.000000 0.332774
O O9 0.341416 0.279872 0.858283
O O10 0.341372 0.000000 0.934397
O O11 0.750000 0.750000 0.500000
O O12 0.847565 0.764799 0.446444
O O13 0.817258 0.000000 0.535671
O O14 0.875925 0.500000 0.373513
O O15 0.940872 0.768133 0.380275
O O16 0.841481 0.779017 0.305813
O O17 0.998557 0.500000 0.580913
O O18 0.000000 0.770203 0.500000
O O19 0.740953 0.252966 0.238589
O O20 0.672510 0.000000 0.218765
O O21 0.812875 0.500000 0.238148
#
# Coordination Sequence:
#
# PCOD9182341 Si02
#       8
#     8   8   8   8   8   8   8   8
#     4   8  13  22  36  56  83 113 141 169 205 251
#     4  10  19  33  50  67  87 114 150 187 223 261
#     4   8  13  22  36  56  83 113 141 169 205 251
#     4  12  24  35  48  67  91 118 146 176 219 270
#     4  10  19  33  50  67  87 114 150 187 223 261
#     4   9  16  30  52  68  81 109 149 190 227 261
#     4   9  17  27  42  64  89 115 143 176 215 260
#     4   9  17  27  42  64  89 115 143 176 215 260
#
# _framework density 18.502862
#
# number of rings (size 3 to 8) (size 9 to 14) (size 15 to 20)
#    0.000    2.625    1.250    1.875    0.000    3.000 
#    0.000    1.250    0.000    0.000    0.000    0.875 
#    0.000    7.000    0.000    0.000    0.000  120.250 
#
# Total GULP energy -178298.339518 kJ/mol
# GULP energy per Si atom -5571.823110 kJ/mol
# Density = 1.846075 g / cm^3
# Si number density = 18.502862 Si / 1000 Ang^3
#
#
#
# Elastic Constant Matrix: (Units=GPa)
#
#
# Indices 1 2 3 4 5 6 
#
# 1 89.0679 -1.7454 53.1742 0.0000 -25.1361 0.0000
# 2 -1.7454 42.9237 -1.2202 0.0000 1.1832 0.0000
# 3 53.1742 -1.2202 167.8978 0.0000 -36.4406 0.0000
# 4 0.0000 0.0000 0.0000 -95.0882 0.0000 24.3385
# 5 -25.1361 1.1832 -36.4406 0.0000 12.5239 0.0000
# 6 0.0000 0.0000 0.0000 24.3385 0.0000 2.8810
#
#
#
# Elastic Compliance Matrix: (Units=1/GPa)
#
#
# Indices 1 2 3 4 5 6 
#
# 1 0.031119 -0.000981 0.010077 0.000000 0.091871 0.000000
# 2 -0.000981 0.023433 -0.001158 0.000000 -0.007552 0.000000
# 3 0.010077 -0.001158 0.019457 0.000000 0.076947 0.000000
# 4 0.000000 0.000000 0.000000 -0.003326 0.000000 0.028094
# 5 0.091871 -0.007552 0.076947 0.000000 0.488840 0.000000
# 6 0.000000 0.000000 0.000000 0.028094 0.000000 0.109762
#
#
# Mechanical properties :
#
#
# Convention : Reuss Voigt Hill
#
# Bulk Modulus (GPa) = 11.12539 44.47852 27.80196
# Shear Modulus (GPa) = 7.31668 0.70873 4.01271
#
# Velocity S-wave (km/s) = 1.99071 0.61957 1.47425
# Velocity P-wave (km/s) = 3.36300 4.96011 4.23748
#
# Compressibility (1/GPa) = 0.08988449
#
# Stress axis : x y z
#
# Youngs Moduli (GPa) = 32.13443 42.67576 51.39597
#
# Poissons Ratio (x) = 0.04185 -0.51791
# Poissons Ratio (y) = 0.03151 0.05953
# Poissons Ratio (z) = -0.32381 0.04943
#
# Static dielectric constant tensor:
#      x y z
#    x 1.589120 0.000000 -0.016090 
#    y 0.000000 1.692220 0.000000 
#    z -0.016090 0.000000 1.695440 
# 
# From -- ./inp_files/287621.got.cif
#   From: 2010.05.17/outbox.cif.g08.bks.cpg/sg12_144_cif.got.tgz:287621.got - 2010.06.03 13:09:07.
