data_PCOD9182401
_publ_section_title
;
Structure prediction by ZEFSAII (Michael W. Deem and Ramdas Pophale) SiO2 
 PCOD9182401
Probable space group: C 2/M
;
_chemical_formula_sum "Si O2"
_cell_formula_units_Z 56
_cell_length_a 17.835827
_cell_length_b 20.872730
_cell_length_c 23.521988
_cell_angle_alpha 90.000000
_cell_angle_beta 156.861601
_cell_angle_gamma 90.000000
_cell_volume 3441.023771
_symmetry_space_group_name_H-M "C 2/M"
_symmetry_group_IT_number 12
_symmetry_cell_setting 'monoclinic'
loop_
_space_group_symop_operation_xyz
x,y,z
-x,y,-z
-x,-y,-z
x,-y,z
1/2+x,1/2+y,z
1/2-x,1/2+y,-z
1/2-x,1/2-y,-z
1/2+x,1/2-y,z
loop_
_atom_site_type_symbol
_atom_site_label
_atom_site_fract_x
_atom_site_fract_y
_atom_site_fract_z
Si Si1 0.439185 0.074132 0.141072
Si Si2 0.205702 0.711275 0.663452
Si Si3 0.370844 0.687698 0.295550
Si Si4 0.102318 0.427423 0.132394
Si Si5 0.401898 0.660969 0.077122
Si Si6 0.650529 0.735265 0.841773
Si Si7 0.800769 0.313392 0.630398
O O1 0.462737 0.080648 0.089091
O O2 0.596356 0.121759 0.277507
O O3 0.469661 0.000000 0.176840
O O4 0.233030 0.099216 0.018035
O O5 0.181533 0.748275 0.705940
O O6 0.374154 0.659512 0.779672
O O7 0.264147 0.767426 0.659406
O O8 0.000000 0.686368 0.500000
O O9 0.260622 0.627452 0.244932
O O10 0.311182 0.697868 0.188982
O O11 0.597316 0.676868 0.459486
O O12 0.181433 0.500000 0.191930
O O13 0.000000 0.422578 0.000000
O O14 0.374199 0.689404 0.121240
O O15 0.312838 0.714184 0.972649
O O16 0.453980 0.775343 0.699073
#
# Coordination Sequence:
#
# PCOD9182401 Si02
#       7
#     8   8   8   8   8   8   8
#     4  10  19  33  51  67  92 134 171 198 233 287
#     4   9  18  30  47  71 100 124 152 198 252 290
#     4  11  19  28  49  70  96 129 159 195 247 292
#     4  10  21  31  42  67 100 129 165 201 233 283
#     4   9  18  33  47  69  97 126 161 203 240 283
#     4   9  18  29  49  69  97 127 159 198 244 288
#     4   9  18  33  44  70  99 125 160 203 238 289
#
# _framework density 16.274227
#
# number of rings (size 3 to 8) (size 9 to 14) (size 15 to 20)
#    0.000    2.429    1.429    2.143    2.000    0.571 
#    0.000    1.429    0.000    0.429    0.000    8.000 
#    0.000    0.000    0.000    0.000    0.000    1.714 
#
# Total GULP energy -156048.163388 kJ/mol
# GULP energy per Si atom -5573.148692 kJ/mol
# Density = 1.623719 g / cm^3
# Si number density = 16.274227 Si / 1000 Ang^3
#
#
#
# Elastic Constant Matrix: (Units=GPa)
#
#
# Indices 1 2 3 4 5 6 
#
# 1 42.9314 19.5643 28.7057 0.0013 2.5734 0.0022
# 2 19.5643 50.6503 18.1986 0.0174 7.0939 0.0084
# 3 28.7057 18.1986 62.9432 0.0391 15.5787 0.0148
# 4 0.0013 0.0174 0.0391 17.0521 0.0069 2.3653
# 5 2.5734 7.0939 15.5787 0.0069 25.2008 0.0017
# 6 0.0022 0.0084 0.0148 2.3653 0.0017 20.4101
#
#
#
# Elastic Compliance Matrix: (Units=1/GPa)
#
#
# Indices 1 2 3 4 5 6 
#
# 1 0.038788 -0.010167 -0.017093 0.000042 0.009468 0.000007
# 2 -0.010167 0.024850 -0.001268 -0.000019 -0.005173 -0.000006
# 3 -0.017093 -0.001268 0.027779 -0.000054 -0.015070 -0.000010
# 4 0.000042 -0.000019 -0.000054 0.059602 0.000018 -0.006907
# 5 0.009468 -0.005173 -0.015070 0.000018 0.049487 0.000006
# 6 0.000007 -0.000006 -0.000010 -0.006907 0.000006 0.049796
#
#
# Mechanical properties :
#
#
# Convention : Reuss Voigt Hill
#
# Bulk Modulus (GPa) = 29.10211 32.16246 30.63228
# Shear Modulus (GPa) = 15.68323 18.53636 17.10980
#
# Velocity S-wave (km/s) = 3.10770 3.37857 3.24596
# Velocity P-wave (km/s) = 5.54961 5.91822 5.73688
#
# Compressibility (1/GPa) = 0.03436177
#
# Stress axis : x y z
#
# Youngs Moduli (GPa) = 25.78138 40.24090 35.99788
#
# Poissons Ratio (x) = 0.40911 0.61532
# Poissons Ratio (y) = 0.26211 0.04564
# Poissons Ratio (z) = 0.44069 0.05102
#
# Static dielectric constant tensor:
#      x y z
#    x 1.543900 0.000000 0.009850 
#    y 0.000000 1.522740 -0.000010 
#    z 0.009850 -0.000010 1.565050 
# 
# From -- ./inp_files/76917.got.cif
#   From: 2010.05.17/outbox.cif.g08.bks.cpg/sg12_39_cif.got.tgz:76917.got - 2010.06.03 13:09:07.
