data_PCOD9182618
_publ_section_title
;
Structure prediction by ZEFSAII (Michael W. Deem and Ramdas Pophale) SiO2 
 PCOD9182618
Probable space group: C 2/M
;
_chemical_formula_sum "Si O2"
_cell_formula_units_Z 64
_cell_length_a 31.899667
_cell_length_b 7.417292
_cell_length_c 12.910312
_cell_angle_alpha 90.000000
_cell_angle_beta 54.929212
_cell_angle_gamma 90.000000
_cell_volume 2500.095411
_symmetry_space_group_name_H-M "C 2/M"
_symmetry_group_IT_number 12
_symmetry_cell_setting 'monoclinic'
loop_
_space_group_symop_operation_xyz
x,y,z
-x,y,-z
-x,-y,-z
x,-y,z
1/2+x,1/2+y,z
1/2-x,1/2+y,-z
1/2-x,1/2-y,-z
1/2+x,1/2-y,z
loop_
_atom_site_type_symbol
_atom_site_label
_atom_site_fract_x
_atom_site_fract_y
_atom_site_fract_z
Si Si1 0.336957 0.784994 0.748753
Si Si2 0.895792 0.703936 0.397540
Si Si3 0.600412 0.215857 0.992671
Si Si4 0.695862 0.781839 0.991299
Si Si5 0.988403 0.207050 0.129129
Si Si6 0.741183 0.714295 0.295185
Si Si7 0.831461 0.279526 0.303890
Si Si8 0.555264 0.779494 0.460406
O O1 0.302998 0.712427 0.892687
O O2 0.316798 0.742147 0.661256
O O3 0.395840 0.730158 0.678695
O O4 0.335745 0.000000 0.758795
O O5 0.879949 0.500000 0.447777
O O6 0.943336 0.693973 0.250125
O O7 0.850504 0.784679 0.389572
O O8 0.924957 0.784947 0.455293
O O9 0.639445 0.257740 0.028538
O O10 0.544647 0.288878 0.097888
O O11 0.596244 0.000000 0.991640
O O12 0.628110 0.272934 0.844938
O O13 0.701578 0.000000 0.983874
O O14 0.730699 0.711761 0.848224
O O15 0.971548 0.000000 0.141646
O O16 0.000000 0.285083 0.000000
O O17 0.747750 0.500000 0.289603
O O18 0.774953 0.780661 0.344232
O O19 0.832164 0.500000 0.307506
O O20 0.500000 0.716999 0.500000
O O21 0.552288 0.000000 0.469161
#
# Coordination Sequence:
#
# PCOD9182618 Si02
#       8
#     8   8   8   8   8   8   8   8
#     4  10  19  33  52  77 107 137 173 217 267 312
#     4  10  19  34  57  76  96 136 186 223 256 308
#     4   9  16  29  49  74  99 132 177 214 252 309
#     4   8  16  29  51  78 105 135 170 216 258 307
#     4  11  22  32  45  74 113 140 163 210 274 325
#     4   9  17  32  52  77 107 135 169 212 263 316
#     4   8  15  29  50  76 101 127 168 218 253 298
#     4   9  20  36  55  80 105 133 177 232 272 297
#
# _framework density 25.599021
#
# number of rings (size 3 to 8) (size 9 to 14) (size 15 to 20)
#    0.000    2.750    1.250    2.250    1.750    0.500 
#    0.000    5.000    0.000    0.750    0.000    0.000 
#    0.000    0.000    0.000    0.000    0.000    0.000 
#
# Total GULP energy -178589.275979 kJ/mol
# GULP energy per Si atom -5580.914874 kJ/mol
# Density = 2.554076 g / cm^3
# Si number density = 25.599021 Si / 1000 Ang^3
#
#
#
# Elastic Constant Matrix: (Units=GPa)
#
#
# Indices 1 2 3 4 5 6 
#
# 1 215.1964 6.8136 34.2412 0.0000 2.6238 0.0000
# 2 6.8136 87.3710 2.7142 0.0000 3.2109 0.0000
# 3 34.2412 2.7142 59.8398 0.0000 18.5235 0.0000
# 4 0.0000 0.0000 0.0000 82.3143 0.0000 -67.8896
# 5 2.6238 3.2109 18.5235 0.0000 45.1514 0.0000
# 6 0.0000 0.0000 0.0000 -67.8896 0.0000 69.2894
#
#
#
# Elastic Compliance Matrix: (Units=1/GPa)
#
#
# Indices 1 2 3 4 5 6 
#
# 1 0.005165 -0.000340 -0.003270 0.000000 0.001066 0.000000
# 2 -0.000340 0.011503 -0.000092 0.000000 -0.000761 0.000000
# 3 -0.003270 -0.000092 0.021221 0.000000 -0.008509 0.000000
# 4 0.000000 0.000000 0.000000 0.063306 0.000000 0.062028
# 5 0.001066 -0.000761 -0.008509 0.000000 0.025631 0.000000
# 6 0.000000 0.000000 0.000000 0.062028 0.000000 0.075207
#
#
# Mechanical properties :
#
#
# Convention : Reuss Voigt Hill
#
# Bulk Modulus (GPa) = 32.80318 49.99391 41.39854
# Shear Modulus (GPa) = 22.76893 60.59355 41.68124
#
# Velocity S-wave (km/s) = 2.98559 4.87049 4.03952
# Velocity P-wave (km/s) = 4.97263 7.15548 6.16149
#
# Compressibility (1/GPa) = 0.03048485
#
# Stress axis : x y z
#
# Youngs Moduli (GPa) = 193.61114 86.93547 47.12406
#
# Poissons Ratio (x) = 0.02959 0.15409
# Poissons Ratio (y) = 0.06590 0.00431
# Poissons Ratio (z) = 0.63309 0.00795
#
# Static dielectric constant tensor:
#      x y z
#    x 2.136600 0.000000 -0.028090 
#    y 0.000000 1.961970 0.000000 
#    z -0.028090 0.000000 2.049400 
# 
# From -- ./inp_files/249017.got.cif
#   From: 2010.05.17/outbox.cif.g08.bks.cpg/sg12_125_cif.got.tgz:249017.got - 2010.06.03 13:09:07.
