data_PCOD9182828
_publ_section_title
;
Structure prediction by ZEFSAII (Michael W. Deem and Ramdas Pophale) SiO2 
 PCOD9182828
Probable space group: C 2/M
;
_chemical_formula_sum "Si O2"
_cell_formula_units_Z 56
_cell_length_a 21.210610
_cell_length_b 9.149168
_cell_length_c 20.411791
_cell_angle_alpha 90.000000
_cell_angle_beta 49.455118
_cell_angle_gamma 90.000000
_cell_volume 3010.028452
_symmetry_space_group_name_H-M "C 2/M"
_symmetry_group_IT_number 12
_symmetry_cell_setting 'monoclinic'
loop_
_space_group_symop_operation_xyz
x,y,z
-x,y,-z
-x,-y,-z
x,-y,z
1/2+x,1/2+y,z
1/2-x,1/2+y,-z
1/2-x,1/2-y,-z
1/2+x,1/2-y,z
loop_
_atom_site_type_symbol
_atom_site_label
_atom_site_fract_x
_atom_site_fract_y
_atom_site_fract_z
Si Si1 0.135061 0.326513 0.775576
Si Si2 0.214077 0.824913 0.959207
Si Si3 0.226621 0.677755 0.224790
Si Si4 0.911506 0.323574 0.585862
Si Si5 0.345624 0.837745 0.493667
Si Si6 0.479578 0.330884 0.936569
Si Si7 0.850303 0.162268 0.370253
O O1 0.146633 0.500000 0.770358
O O2 0.201277 0.247387 0.778813
O O3 0.043673 0.277934 0.859824
O O4 0.142905 0.266133 0.696619
O O5 0.259958 0.782309 0.860208
O O6 0.222647 0.000000 0.960271
O O7 0.250000 0.750000 0.000000
O O8 0.116140 0.794750 0.013776
O O9 0.234062 0.500000 0.224817
O O10 0.137926 0.723483 0.315989
O O11 0.918799 0.500000 0.587052
O O12 0.853991 0.288733 0.562580
O O13 0.000000 0.267823 0.500000
O O14 0.247745 0.852053 0.549246
O O15 0.385327 0.734037 0.412674
O O16 0.383572 0.000000 0.462720
O O17 0.494443 0.500000 0.905600
O O18 0.500000 0.325718 0.000000
O O19 0.883287 0.000000 0.334409
#
# Coordination Sequence:
#
# PCOD9182828 Si02
#       7
#     8   8   8   8   8   8   8
#     4  12  23  34  56  89 118 145 191 253 302 346
#     4  10  22  40  64  88 120 162 200 245 297 364
#     4  10  19  38  62  84 112 157 203 237 295 364
#     4   9  17  32  57  84 111 146 193 243 286 341
#     4   9  17  31  52  79 108 140 184 236 283 333
#     4  10  20  39  64  87 116 155 198 240 296 367
#     4  10  19  33  53  76 109 151 185 225 285 352
#
# _framework density 18.604474
#
# number of rings (size 3 to 8) (size 9 to 14) (size 15 to 20)
#    0.000    2.000    2.857    1.714    0.000    2.000 
#    2.571    0.000    0.000    1.714    0.000    0.000 
#    0.000    0.000    0.000    0.000    0.000    0.000 
#
# Total GULP energy -155986.553968 kJ/mol
# GULP energy per Si atom -5570.948356 kJ/mol
# Density = 1.856213 g / cm^3
# Si number density = 18.604474 Si / 1000 Ang^3
#
#
#
# Elastic Constant Matrix: (Units=GPa)
#
#
# Indices 1 2 3 4 5 6 
#
# 1 67.2766 22.3106 52.1038 0.0000 -0.3515 0.0000
# 2 22.3106 63.1658 50.7485 0.0000 6.3955 0.0001
# 3 52.1038 50.7485 139.3115 0.0000 5.3749 0.0000
# 4 0.0000 0.0000 0.0000 26.6678 0.0000 8.7066
# 5 -0.3515 6.3955 5.3749 0.0000 24.5186 0.0000
# 6 0.0000 0.0001 0.0000 8.7066 0.0000 19.2612
#
#
#
# Elastic Compliance Matrix: (Units=1/GPa)
#
#
# Indices 1 2 3 4 5 6 
#
# 1 0.021170 -0.001815 -0.007349 0.000000 0.002388 0.000000
# 2 -0.001815 0.022951 -0.007513 0.000000 -0.004366 0.000000
# 3 -0.007349 -0.007513 0.012699 0.000000 -0.000930 0.000000
# 4 0.000000 0.000000 0.000000 0.043990 0.000000 -0.019885
# 5 0.002388 -0.004366 -0.000930 0.000000 0.042162 0.000000
# 6 0.000000 0.000000 0.000000 -0.019885 0.000000 0.060907
#
#
# Mechanical properties :
#
#
# Convention : Reuss Voigt Hill
#
# Bulk Modulus (GPa) = 42.61487 57.78665 50.20076
# Shear Modulus (GPa) = 20.40361 23.72892 22.06627
#
# Velocity S-wave (km/s) = 3.31525 3.57521 3.44768
# Velocity P-wave (km/s) = 6.13269 6.94052 6.54908
#
# Compressibility (1/GPa) = 0.02346599
#
# Stress axis : x y z
#
# Youngs Moduli (GPa) = 47.23736 43.57168 78.74398
#
# Poissons Ratio (x) = 0.07909 0.57866
# Poissons Ratio (y) = 0.08574 0.59162
# Poissons Ratio (z) = 0.34713 0.32736
#
# Static dielectric constant tensor:
#      x y z
#    x 1.671380 0.000000 -0.016950 
#    y 0.000000 1.660230 0.000000 
#    z -0.016950 0.000000 1.675880 
# 
# From -- ./inp_files/280861.got.cif
#   From: 2010.05.17/outbox.cif.g08.bks.cpg/sg12_141_cif.got.tgz:280861.got - 2010.06.03 13:09:07.
