data_PCOD9182021
_publ_section_title
;
Structure prediction by ZEFSAII (Michael W. Deem and Ramdas Pophale) SiO2 
 PCOD9182021
Probable space group: C 2/M
;
_chemical_formula_sum "Si O2"
_cell_formula_units_Z 64
_cell_length_a 27.767502
_cell_length_b 15.504782
_cell_length_c 11.805031
_cell_angle_alpha 90.000000
_cell_angle_beta 34.716306
_cell_angle_gamma 90.000000
_cell_volume 2894.500400
_symmetry_space_group_name_H-M "C 2/M"
_symmetry_group_IT_number 12
_symmetry_cell_setting 'monoclinic'
loop_
_space_group_symop_operation_xyz
x,y,z
-x,y,-z
-x,-y,-z
x,-y,z
1/2+x,1/2+y,z
1/2-x,1/2+y,-z
1/2-x,1/2-y,-z
1/2+x,1/2-y,z
loop_
_atom_site_type_symbol
_atom_site_label
_atom_site_fract_x
_atom_site_fract_y
_atom_site_fract_z
Si Si1 0.580370 0.374707 0.418169
Si Si2 0.695214 0.605025 0.570659
Si Si3 0.875400 0.394723 0.178545
Si Si4 0.756540 0.900249 0.045917
Si Si5 0.033446 0.902219 0.761365
Si Si6 0.344611 0.395009 0.102555
Si Si7 0.543653 0.104103 0.737512
Si Si8 0.920301 0.330307 0.581483
O O1 0.500000 0.405691 0.500000
O O2 0.571327 0.406725 0.562818
O O3 0.573836 0.272072 0.434825
O O4 0.669262 0.397445 0.189547
O O5 0.691712 0.500000 0.564902
O O6 0.779697 0.635636 0.344765
O O7 0.605717 0.639361 0.698718
O O8 0.702683 0.622834 0.689330
O O9 0.874748 0.500000 0.177993
O O10 0.904809 0.370572 0.248954
O O11 0.947020 0.367940 0.951145
O O12 0.668998 0.853900 0.189212
O O13 0.734120 0.000000 0.109928
O O14 0.797751 0.863016 0.081588
O O15 0.940699 0.862143 0.929695
O O16 0.019515 0.000000 0.831506
O O17 0.349908 0.500000 0.079436
O O18 0.576438 0.136719 0.554088
O O19 0.546076 0.000000 0.729114
O O20 0.000000 0.364101 0.500000
#
# Coordination Sequence:
#
# PCOD9182021 Si02
#       8
#     8   8   8   8   8   8   8   8
#     4  11  23  41  59  78 116 157 196 235 287 346
#     4   9  16  27  48  84 119 139 170 229 297 342
#     4   8  15  29  54  84 112 145 184 233 287 333
#     4  11  22  38  64  89 109 146 198 246 284 335
#     4  10  19  32  55  83 110 145 189 240 284 331
#     4   9  17  30  54  85 113 141 181 234 289 336
#     4   9  17  33  57  81 109 149 196 238 275 330
#     4  11  25  40  57  82 120 159 191 235 293 345
#
# _framework density 22.110897000000001
#
# number of rings (size 3 to 8) (size 9 to 14) (size 15 to 20)
#    0.000    2.250    1.250    3.000    0.000    6.000 
#    0.000    1.250    5.500    1.500    0.000    0.000 
#    0.000    0.000    0.000    0.000    0.000    0.000 
#
# Total GULP energy -178740.425567 kJ/mol
# GULP energy per Si atom -5585.638299 kJ/mol
# Density = 2.206057 g / cm^3
# Si number density = 22.110897 Si / 1000 Ang^3
#
#
#
# Elastic Constant Matrix: (Units=GPa)
#
#
# Indices 1 2 3 4 5 6 
#
# 1 43.8705 3.0950 24.8275 0.0000 -7.8718 0.0000
# 2 3.0950 41.4862 3.9274 0.0000 -3.4050 0.0000
# 3 24.8275 3.9274 114.0479 0.0000 -20.3123 0.0000
# 4 0.0000 0.0000 0.0000 7.5774 0.0000 -11.2920
# 5 -7.8718 -3.4050 -20.3123 0.0000 41.7926 0.0000
# 6 0.0000 0.0000 0.0000 -11.2920 0.0000 -11.4025
#
#
#
# Elastic Compliance Matrix: (Units=1/GPa)
#
#
# Indices 1 2 3 4 5 6 
#
# 1 0.026276 -0.001274 -0.005269 0.000000 0.002284 0.000000
# 2 -0.001274 0.024358 -0.000275 0.000000 0.001611 0.000000
# 3 -0.005269 -0.000275 0.010667 0.000000 0.004170 0.000000
# 4 0.000000 0.000000 0.000000 0.053305 0.000000 -0.052789
# 5 0.002284 0.001611 0.004170 0.000000 0.026516 0.000000
# 6 0.000000 0.000000 0.000000 -0.052789 0.000000 -0.035423
#
#
# Mechanical properties :
#
#
# Convention : Reuss Voigt Hill
#
# Bulk Modulus (GPa) = 20.97952 29.23384 25.10668
# Shear Modulus (GPa) = 36.97584 18.76382 27.86983
#
# Velocity S-wave (km/s) = 4.09380 2.91627 3.55414
# Velocity P-wave (km/s) = 5.64398 4.95880 5.31245
#
# Compressibility (1/GPa) = 0.04766552
#
# Stress axis : x y z
#
# Youngs Moduli (GPa) = 38.05715 41.05483 93.74286
#
# Poissons Ratio (x) = 0.05230 0.49398
# Poissons Ratio (y) = 0.04848 0.02573
# Poissons Ratio (z) = 0.20054 0.01127
#
# Static dielectric constant tensor:
#      x y z
#    x 1.810860 0.000000 -0.036520 
#    y 0.000000 1.820350 0.000000 
#    z -0.036520 0.000000 1.809050 
# 
# From -- ./inp_files/190016.got.cif
#   From: 2010.05.17/outbox.cif.g08.bks.cpg/sg12_96_cif.got.tgz:190016.got - 2010.06.03 13:09:07.
