data_PCOD9182971
_publ_section_title
;
Structure prediction by ZEFSAII (Michael W. Deem and Ramdas Pophale) SiO2 
 PCOD9182971
Probable space group: C 2/M
;
_chemical_formula_sum "Si O2"
_cell_formula_units_Z 36
_cell_length_a 12.542122
_cell_length_b 25.333183
_cell_length_c 8.489012
_cell_angle_alpha 90.000000
_cell_angle_beta 142.380144
_cell_angle_gamma 90.000000
_cell_volume 1646.442120
_symmetry_space_group_name_H-M "C 2/M"
_symmetry_group_IT_number 12
_symmetry_cell_setting 'monoclinic'
loop_
_space_group_symop_operation_xyz
x,y,z
-x,y,-z
-x,-y,-z
x,-y,z
1/2+x,1/2+y,z
1/2-x,1/2+y,-z
1/2-x,1/2-y,-z
1/2+x,1/2-y,z
loop_
_atom_site_type_symbol
_atom_site_label
_atom_site_fract_x
_atom_site_fract_y
_atom_site_fract_z
Si Si1 0.829073 0.137978 0.992939
Si Si2 0.500000 0.821662 0.500000
Si Si3 0.576532 0.271037 0.379716
Si Si4 0.092189 0.060302 0.433722
Si Si5 0.191666 0.647882 0.177583
O O1 0.721215 0.133742 0.030785
O O2 0.947367 0.190908 0.132749
O O3 0.962659 0.089311 0.159515
O O4 0.676089 0.144704 0.687064
O O5 0.520415 0.780179 0.666927
O O6 0.750000 0.250000 0.500000
O O7 0.663145 0.308392 0.613994
O O8 0.259093 0.097500 0.656726
O O9 0.000000 0.060971 0.500000
O O10 0.129030 0.000000 0.435598
O O11 0.000000 0.666393 0.000000
#
# Coordination Sequence:
#
# PCOD9182971 Si02
#       5
#     8   4   8   8   8
#     4  10  21  37  50  80 109 141 187 223 268 330
#     4  12  22  34  53  74 115 152 178 222 268 320
#     4  11  22  34  54  76 109 150 180 220 271 323
#     4   8  16  34  57  76 103 139 177 231 281 317
#     4  10  19  33  53  81 111 136 180 228 269 325
#
# _framework density 21.865328999999999
#
# number of rings (size 3 to 8) (size 9 to 14) (size 15 to 20)
#    0.000    2.000    2.222    3.333    3.111    0.444 
#    0.000    0.556    0.000    0.000    0.000   20.222 
#    0.000    0.000    0.000    0.000    0.000    0.000 
#
# Total GULP energy -100504.515818 kJ/mol
# GULP energy per Si atom -5583.584212 kJ/mol
# Density = 2.181556 g / cm^3
# Si number density = 21.865329 Si / 1000 Ang^3
#
#
#
# Elastic Constant Matrix: (Units=GPa)
#
#
# Indices 1 2 3 4 5 6 
#
# 1 56.3322 0.8880 -0.6057 0.0000 20.3136 0.0000
# 2 0.8880 119.1906 50.9574 0.0000 5.4440 0.0000
# 3 -0.6057 50.9574 98.9154 0.0000 29.4319 0.0000
# 4 0.0000 0.0000 0.0000 9.5391 0.0000 6.5652
# 5 20.3136 5.4440 29.4319 0.0000 30.7627 0.0000
# 6 0.0000 0.0000 0.0000 6.5652 0.0000 15.1289
#
#
#
# Elastic Compliance Matrix: (Units=1/GPa)
#
#
# Indices 1 2 3 4 5 6 
#
# 1 0.027734 -0.003207 0.009929 0.000000 -0.027245 0.000000
# 2 -0.003207 0.011651 -0.008442 0.000000 0.008132 0.000000
# 3 0.009929 -0.008442 0.022403 0.000000 -0.026496 0.000000
# 4 0.000000 0.000000 0.000000 0.149475 0.000000 -0.064865
# 5 -0.027245 0.008132 -0.026496 0.000000 0.074408 0.000000
# 6 0.000000 0.000000 0.000000 -0.064865 0.000000 0.094247
#
#
# Mechanical properties :
#
#
# Convention : Reuss Voigt Hill
#
# Bulk Modulus (GPa) = 17.13857 41.87973 29.50915
# Shear Modulus (GPa) = 12.41288 25.96603 19.18945
#
# Velocity S-wave (km/s) = 2.38522 3.44981 2.96568
# Velocity P-wave (km/s) = 3.92950 5.92143 5.02515
#
# Compressibility (1/GPa) = 0.05834794
#
# Stress axis : x y z
#
# Youngs Moduli (GPa) = 36.05717 85.82612 44.63668
#
# Poissons Ratio (x) = 0.27524 -0.44318
# Poissons Ratio (y) = 0.11563 0.37681
# Poissons Ratio (z) = -0.35799 0.72452
#
# Static dielectric constant tensor:
#      x y z
#    x 1.833730 0.000000 -0.079940 
#    y 0.000000 1.770310 0.000000 
#    z -0.079940 0.000000 1.853450 
# 
# From -- ./inp_files/40180.got.cif
#   From: 2010.05.17/outbox.cif.g08.bks.cpg/sg12_21_cif.got.tgz:40180.got - 2010.06.03 13:09:07.
