data_PCOD9182790
_publ_section_title
;
Structure prediction by ZEFSAII (Michael W. Deem and Ramdas Pophale) SiO2 
 PCOD9182790
Probable space group: C 2/M
;
_chemical_formula_sum "Si O2"
_cell_formula_units_Z 40
_cell_length_a 5.353041
_cell_length_b 18.260293
_cell_length_c 21.329519
_cell_angle_alpha 90.000000
_cell_angle_beta 86.169793
_cell_angle_gamma 90.000000
_cell_volume 2080.262995
_symmetry_space_group_name_H-M "C 2/M"
_symmetry_group_IT_number 12
_symmetry_cell_setting 'monoclinic'
loop_
_space_group_symop_operation_xyz
x,y,z
-x,y,-z
-x,-y,-z
x,-y,z
1/2+x,1/2+y,z
1/2-x,1/2+y,-z
1/2-x,1/2-y,-z
1/2+x,1/2-y,z
loop_
_atom_site_type_symbol
_atom_site_label
_atom_site_fract_x
_atom_site_fract_y
_atom_site_fract_z
Si Si1 0.539567 0.589331 0.927633
Si Si2 0.795455 0.220412 0.429119
Si Si3 0.949226 0.913151 0.362656
Si Si4 0.967669 0.411432 0.287763
Si Si5 0.940771 0.410398 0.144969
O O1 0.539530 0.500000 0.927789
O O2 0.308193 0.612475 0.887836
O O3 0.806489 0.612142 0.895045
O O4 0.500000 0.612864 0.000000
O O5 0.750000 0.250000 0.500000
O O6 0.535354 0.236513 0.399225
O O7 0.871062 0.135923 0.423130
O O8 0.734992 0.895311 0.314825
O O9 0.222915 0.891893 0.332538
O O10 0.944287 0.000000 0.375022
O O11 0.958197 0.500000 0.284752
O O12 0.945499 0.384698 0.216836
O O13 0.939481 0.500000 0.145856
#
# Coordination Sequence:
#
# PCOD9182790 Si02
#       5
#     8   8   8   8   8
#     4   9  15  21  30  46  73 115 164 203 235 283
#     4  10  21  38  56  77 105 136 166 200 247 307
#     4  10  19  33  53  76 100 129 170 212 249 298
#     4   9  17  28  45  69  94 122 162 213 259 295
#     4   9  15  23  34  51  79 113 154 205 249 283
#
# _framework density 19.228337
#
# number of rings (size 3 to 8) (size 9 to 14) (size 15 to 20)
#    0.000    2.600    0.000    3.000    0.000    7.200 
#    0.000    4.000    0.000    0.000    0.000    0.000 
#    0.000    0.000    0.000    0.000    0.000  252.000 
#
# Total GULP energy -111413.975059 kJ/mol
# GULP energy per Si atom -5570.698753 kJ/mol
# Density = 1.918457 g / cm^3
# Si number density = 19.228337 Si / 1000 Ang^3
#
#
#
# Elastic Constant Matrix: (Units=GPa)
#
#
# Indices 1 2 3 4 5 6 
#
# 1 138.2694 13.5915 7.9896 0.0000 0.7791 0.0000
# 2 13.5915 27.2901 21.5195 0.0000 -6.6560 0.0000
# 3 7.9896 21.5195 60.9364 0.0000 1.5189 0.0000
# 4 0.0000 0.0000 0.0000 1.7712 0.0000 -2.1272
# 5 0.7791 -6.6560 1.5189 0.0000 26.2749 0.0000
# 6 0.0000 0.0000 0.0000 -2.1272 0.0000 15.1510
#
#
#
# Elastic Compliance Matrix: (Units=1/GPa)
#
#
# Indices 1 2 3 4 5 6 
#
# 1 0.007665 -0.004728 0.000701 0.000000 -0.001465 0.000000
# 2 -0.004728 0.059353 -0.020749 0.000000 0.016375 0.000000
# 3 0.000701 -0.020749 0.023812 0.000000 -0.006653 0.000000
# 4 0.000000 0.000000 0.000000 0.679078 0.000000 0.095343
# 5 -0.001465 0.016375 -0.006653 0.000000 0.042635 0.000000
# 6 0.000000 0.000000 0.000000 0.095343 0.000000 0.079389
#
#
# Mechanical properties :
#
#
# Convention : Reuss Voigt Hill
#
# Bulk Modulus (GPa) = 24.22524 34.74413 29.48468
# Shear Modulus (GPa) = 5.23428 20.86578 13.05003
#
# Velocity S-wave (km/s) = 1.65169 3.29775 2.60799
# Velocity P-wave (km/s) = 4.03280 5.71040 4.94329
#
# Compressibility (1/GPa) = 0.04127926
#
# Stress axis : x y z
#
# Youngs Moduli (GPa) = 130.46804 16.84837 41.99603
#
# Poissons Ratio (x) = 0.07965 -0.02944
# Poissons Ratio (y) = 0.61680 0.87136
# Poissons Ratio (z) = -0.09147 0.34958
#
# Static dielectric constant tensor:
#      x y z
#    x 1.691570 0.000000 0.006390 
#    y 0.000000 1.677050 0.000000 
#    z 0.006390 0.000000 1.657520 
# 
# From -- ./inp_files/252579.got.cif
#   From: 2010.05.17/outbox.cif.g08.bks.cpg/sg12_127_cif.got.tgz:252579.got - 2010.06.03 13:09:07.
