data_PCOD9182090
_publ_section_title
;
Structure prediction by ZEFSAII (Michael W. Deem and Ramdas Pophale) SiO2 
 PCOD9182090
Probable space group: C 2/M
;
_chemical_formula_sum "Si O2"
_cell_formula_units_Z 48
_cell_length_a 22.005210
_cell_length_b 8.990931
_cell_length_c 12.120518
_cell_angle_alpha 90.000000
_cell_angle_beta 107.759157
_cell_angle_gamma 90.000000
_cell_volume 2283.739746
_symmetry_space_group_name_H-M "C 2/M"
_symmetry_group_IT_number 12
_symmetry_cell_setting 'monoclinic'
loop_
_space_group_symop_operation_xyz
x,y,z
-x,y,-z
-x,-y,-z
x,-y,z
1/2+x,1/2+y,z
1/2-x,1/2+y,-z
1/2-x,1/2-y,-z
1/2+x,1/2-y,z
loop_
_atom_site_type_symbol
_atom_site_label
_atom_site_fract_x
_atom_site_fract_y
_atom_site_fract_z
Si Si1 0.574631 0.668157 0.077173
Si Si2 0.963832 0.322842 0.728294
Si Si3 0.099641 0.821384 0.844793
Si Si4 0.771910 0.324195 0.125471
Si Si5 0.347903 0.827127 0.521429
Si Si6 0.746648 0.829480 0.322363
O O1 0.594538 0.500000 0.118596
O O2 0.574226 0.774882 0.181786
O O3 0.500000 0.660041 0.000000
O O4 0.606860 0.713817 0.980127
O O5 0.974286 0.500000 0.736722
O O6 0.919033 0.287160 0.599131
O O7 0.030819 0.237232 0.768029
O O8 0.156681 0.737915 0.816067
O O9 0.103377 0.000000 0.836090
O O10 0.770615 0.500000 0.114404
O O11 0.731818 0.271619 0.209041
O O12 0.750000 0.250000 0.000000
O O13 0.305084 0.818562 0.608936
O O14 0.312694 0.724618 0.414218
O O15 0.346450 0.000000 0.483851
O O16 0.750803 0.000000 0.288370
#
# Coordination Sequence:
#
# PCOD9182090 Si02
#       6
#     8   8   8   8   8   8
#     4   8  16  30  48  74 111 150 189 236 285 337
#     4  10  19  32  55  87 119 154 195 243 297 352
#     4  10  21  38  56  82 118 156 198 245 294 352
#     4  12  26  43  63  87 119 159 199 243 296 357
#     4   9  20  38  61  90 122 156 197 246 298 350
#     4  10  21  40  63  89 120 157 201 247 294 350
#
# _framework density 21.018158
#
# number of rings (size 3 to 8) (size 9 to 14) (size 15 to 20)
#    0.000    2.167    0.000    4.000    2.333    5.667 
#    0.000    0.833    0.000    5.000    0.000    0.000 
#    0.000    0.000    0.000    0.000    0.000    0.000 
#
# Total GULP energy -134100.633029 kJ/mol
# GULP energy per Si atom -5587.526376 kJ/mol
# Density = 2.097032 g / cm^3
# Si number density = 21.018158 Si / 1000 Ang^3
#
#
#
# Elastic Constant Matrix: (Units=GPa)
#
#
# Indices 1 2 3 4 5 6 
#
# 1 54.1668 26.4489 9.1072 0.0000 9.0624 0.0000
# 2 26.4489 106.7621 42.6984 0.0000 9.3233 0.0000
# 3 9.1072 42.6984 65.4068 0.0000 16.6770 0.0000
# 4 0.0000 0.0000 0.0000 33.8890 0.0000 -0.0143
# 5 9.0624 9.3233 16.6770 0.0000 32.7315 0.0000
# 6 0.0000 0.0000 0.0000 -0.0143 0.0000 25.7211
#
#
#
# Elastic Compliance Matrix: (Units=1/GPa)
#
#
# Indices 1 2 3 4 5 6 
#
# 1 0.021846 -0.005787 0.002135 0.000000 -0.005488 0.000000
# 2 -0.005787 0.014223 -0.009027 0.000000 0.002150 0.000000
# 3 0.002135 -0.009027 0.023423 0.000000 -0.009954 0.000000
# 4 0.000000 0.000000 0.000000 0.029508 0.000000 0.000016
# 5 -0.005488 0.002150 -0.009954 0.000000 0.036530 0.000000
# 6 0.000000 0.000000 0.000000 0.000016 0.000000 0.038879
#
#
# Mechanical properties :
#
#
# Convention : Reuss Voigt Hill
#
# Bulk Modulus (GPa) = 29.29643 42.53831 35.91737
# Shear Modulus (GPa) = 24.85768 28.34038 26.59903
#
# Velocity S-wave (km/s) = 3.44274 3.67601 3.56128
# Velocity P-wave (km/s) = 5.45639 6.18871 5.83405
#
# Compressibility (1/GPa) = 0.03413385
#
# Stress axis : x y z
#
# Youngs Moduli (GPa) = 45.77433 70.30933 42.69336
#
# Poissons Ratio (x) = 0.40687 -0.09116
# Poissons Ratio (y) = 0.26489 0.38541
# Poissons Ratio (z) = -0.09774 0.63471
#
# Static dielectric constant tensor:
#      x y z
#    x 1.830140 0.000000 -0.001390 
#    y 0.000000 1.701550 0.000000 
#    z -0.001390 0.000000 1.753300 
# 
# From -- ./inp_files/173069.got.cif
#   From: 2010.05.17/outbox.cif.g08.bks.cpg/sg12_87_cif.got.tgz:173069.got - 2010.06.03 13:09:07.
