data_PCOD9182955
_publ_section_title
;
Structure prediction by ZEFSAII (Michael W. Deem and Ramdas Pophale) SiO2 
 PCOD9182955
Probable space group: C 2/M
;
_chemical_formula_sum "Si O2"
_cell_formula_units_Z 48
_cell_length_a 21.201225
_cell_length_b 8.453972
_cell_length_c 25.729649
_cell_angle_alpha 90.000000
_cell_angle_beta 145.574504
_cell_angle_gamma 90.000000
_cell_volume 2607.118760
_symmetry_space_group_name_H-M "C 2/M"
_symmetry_group_IT_number 12
_symmetry_cell_setting 'monoclinic'
loop_
_space_group_symop_operation_xyz
x,y,z
-x,y,-z
-x,-y,-z
x,-y,z
1/2+x,1/2+y,z
1/2-x,1/2+y,-z
1/2-x,1/2-y,-z
1/2+x,1/2-y,z
loop_
_atom_site_type_symbol
_atom_site_label
_atom_site_fract_x
_atom_site_fract_y
_atom_site_fract_z
Si Si1 0.226789 0.691080 0.903220
Si Si2 0.572438 0.811453 0.895966
Si Si3 0.160112 0.811214 0.291414
Si Si4 0.357298 0.189144 0.603362
Si Si5 0.389452 0.806598 0.393480
Si Si6 0.590654 0.806871 0.712089
O O1 0.233729 0.500000 0.909012
O O2 0.135072 0.737368 0.884732
O O3 0.183438 0.741640 0.817282
O O4 0.344082 0.760062 0.001670
O O5 0.450452 0.736872 0.815069
O O6 0.561675 0.000000 0.887536
O O7 0.147190 0.743225 0.340319
O O8 0.275380 0.755322 0.343743
O O9 0.165409 0.000000 0.298572
O O10 0.250000 0.250000 0.500000
O O11 0.470733 0.244718 0.652625
O O12 0.358369 0.000000 0.602784
O O13 0.500000 0.756485 0.500000
O O14 0.392494 0.754712 0.335553
O O15 0.390060 0.000000 0.393900
O O16 0.590804 0.000000 0.711887
#
# Coordination Sequence:
#
# PCOD9182955 Si02
#       6
#     8   8   8   8   8   8
#     4   9  17  32  54  80 105 138 181 227 273 319
#     4  10  19  33  53  80 111 143 175 222 277 326
#     4  11  21  34  55  83 110 142 181 222 271 327
#     4  11  21  35  55  81 109 140 179 229 278 320
#     4   9  18  33  54  79 107 142 184 226 267 315
#     4   9  17  33  55  78 106 139 182 229 269 313
#
# _framework density 18.411128999999999
#
# number of rings (size 3 to 8) (size 9 to 14) (size 15 to 20)
#    0.000    2.167    1.667    2.500    0.000    3.333 
#    0.000    0.833    0.000   18.000    0.000    0.000 
#    0.000    0.000    0.000    0.000    0.000    0.000 
#
# Total GULP energy -133967.388008 kJ/mol
# GULP energy per Si atom -5581.974500 kJ/mol
# Density = 1.836922 g / cm^3
# Si number density = 18.411129 Si / 1000 Ang^3
#
#
#
# Elastic Constant Matrix: (Units=GPa)
#
#
# Indices 1 2 3 4 5 6 
#
# 1 108.8148 10.8364 56.1566 0.0000 4.7260 0.0000
# 2 10.8364 18.2269 12.7639 0.0000 4.0387 0.0000
# 3 56.1566 12.7639 136.4592 0.0000 3.9525 0.0000
# 4 0.0000 0.0000 0.0000 28.9267 0.0000 -1.1471
# 5 4.7260 4.0387 3.9525 0.0000 34.6777 0.0000
# 6 0.0000 0.0000 0.0000 -1.1471 0.0000 18.5875
#
#
#
# Elastic Compliance Matrix: (Units=1/GPa)
#
#
# Indices 1 2 3 4 5 6 
#
# 1 0.011938 -0.003769 -0.004541 0.000000 -0.000670 0.000000
# 2 -0.003769 0.061273 -0.004002 0.000000 -0.006166 0.000000
# 3 -0.004541 -0.004002 0.009571 0.000000 -0.000006 0.000000
# 4 0.000000 0.000000 0.000000 0.034655 0.000000 0.002139
# 5 -0.000670 -0.006166 -0.000006 0.000000 0.029647 0.000000
# 6 0.000000 0.000000 0.000000 0.002139 0.000000 0.053932
#
#
# Mechanical properties :
#
#
# Convention : Reuss Voigt Hill
#
# Bulk Modulus (GPa) = 17.19406 47.00164 32.09785
# Shear Modulus (GPa) = 20.40604 28.68797 24.54701
#
# Velocity S-wave (km/s) = 3.33281 3.95167 3.65536
# Velocity P-wave (km/s) = 4.91623 6.81214 5.94031
#
# Compressibility (1/GPa) = 0.05815962
#
# Stress axis : x y z
#
# Youngs Moduli (GPa) = 83.76786 16.32032 104.47896
#
# Poissons Ratio (x) = 0.06151 0.47441
# Poissons Ratio (y) = 0.31572 0.41808
# Poissons Ratio (z) = 0.38037 0.06531
#
# Static dielectric constant tensor:
#      x y z
#    x 1.618390 0.000000 -0.000380 
#    y 0.000000 1.637190 0.000000 
#    z -0.000380 0.000000 1.624530 
# 
# From -- ./inp_files/345696.got.cif
#   From: 2010.05.17/outbox.cif.g08.bks.cpg/sg12_173_cif.got.tgz:345696.got - 2010.06.03 13:09:07.
