data_PCOD9182290
_publ_section_title
;
Structure prediction by ZEFSAII (Michael W. Deem and Ramdas Pophale) SiO2 
 PCOD9182290
Probable space group: C 2/M
;
_chemical_formula_sum "Si O2"
_cell_formula_units_Z 48
_cell_length_a 12.907924
_cell_length_b 31.464072
_cell_length_c 7.107239
_cell_angle_alpha 90.000000
_cell_angle_beta 135.858578
_cell_angle_gamma 90.000000
_cell_volume 2010.253516
_symmetry_space_group_name_H-M "C 2/M"
_symmetry_group_IT_number 12
_symmetry_cell_setting 'monoclinic'
loop_
_space_group_symop_operation_xyz
x,y,z
-x,y,-z
-x,-y,-z
x,-y,z
1/2+x,1/2+y,z
1/2-x,1/2+y,-z
1/2-x,1/2-y,-z
1/2+x,1/2-y,z
loop_
_atom_site_type_symbol
_atom_site_label
_atom_site_fract_x
_atom_site_fract_y
_atom_site_fract_z
Si Si1 0.757205 0.218260 0.685385
Si Si2 0.777718 0.862175 0.080557
Si Si3 0.108356 0.137745 0.345470
Si Si4 0.059543 0.288655 0.869031
Si Si5 0.728276 0.454365 0.938432
Si Si6 0.613803 0.454559 0.365744
O O1 0.750000 0.250000 0.500000
O O2 0.834384 0.175548 0.709267
O O3 0.144873 0.244330 0.033115
O O4 0.580272 0.212723 0.451257
O O5 0.812548 0.861689 0.348829
O O6 0.706593 0.907856 0.934593
O O7 0.935378 0.858599 0.179768
O O8 0.675119 0.821475 0.927399
O O9 0.141365 0.090680 0.305676
O O10 0.000000 0.303703 0.000000
O O11 0.799149 0.500000 0.081313
O O12 0.701415 0.454659 0.677700
O O13 0.560498 0.454282 0.804058
O O14 0.646189 0.500000 0.312451
#
# Coordination Sequence:
#
# PCOD9182290 Si02
#       6
#     8   8   8   8   8   8
#     4  10  19  33  47  63  87 120 154 185 228 272
#     4   9  15  25  42  63  86 117 152 183 217 263
#     4   9  15  25  42  64  87 114 152 186 217 261
#     4  10  19  33  47  62  87 120 154 185 227 273
#     4   7  10  17  32  55  83 113 142 172 210 259
#     4   7  10  17  32  56  84 111 139 175 215 257
#
# _framework density 23.877586999999998
#
# number of rings (size 3 to 8) (size 9 to 14) (size 15 to 20)
#    0.000    3.333    3.333    3.000    0.000    0.000 
#    0.000    5.000    0.000    1.500    0.000    0.000 
#    0.000    7.333    0.000    0.167    0.000  260.000 
#
# Total GULP energy -133794.872267 kJ/mol
# GULP energy per Si atom -5574.786344 kJ/mol
# Density = 2.382324 g / cm^3
# Si number density = 23.877587 Si / 1000 Ang^3
#
#
#
# Elastic Constant Matrix: (Units=GPa)
#
#
# Indices 1 2 3 4 5 6 
#
# 1 71.0786 57.0788 38.4116 0.0000 2.4454 0.0000
# 2 57.0788 287.0997 72.8893 0.0000 22.0733 0.0000
# 3 38.4116 72.8893 96.0430 0.0000 1.2915 0.0000
# 4 0.0000 0.0000 0.0000 -24.1843 0.0000 59.7993
# 5 2.4454 22.0733 1.2915 0.0000 35.5322 0.0000
# 6 0.0000 0.0000 0.0000 59.7993 0.0000 -46.2064
#
#
#
# Elastic Compliance Matrix: (Units=1/GPa)
#
#
# Indices 1 2 3 4 5 6 
#
# 1 0.019106 -0.002334 -0.005875 0.000000 0.000348 0.000000
# 2 -0.002334 0.004846 -0.002707 0.000000 -0.002751 0.000000
# 3 -0.005875 -0.002707 0.014795 0.000000 0.001548 0.000000
# 4 0.000000 0.000000 0.000000 0.018795 0.000000 0.024324
# 5 0.000348 -0.002751 0.001548 0.000000 0.029772 0.000000
# 6 0.000000 0.000000 0.000000 0.024324 0.000000 0.009837
#
#
# Mechanical properties :
#
#
# Convention : Reuss Voigt Hill
#
# Bulk Modulus (GPa) = 59.11750 87.88676 73.50213
# Shear Modulus (GPa) = 40.12144 12.08440 26.10292
#
# Velocity S-wave (km/s) = 4.10359 2.25210 3.30994
# Velocity P-wave (km/s) = 6.87495 6.60680 6.74221
#
# Compressibility (1/GPa) = 0.01691547
#
# Stress axis : x y z
#
# Youngs Moduli (GPa) = 52.34007 206.35679 67.58844
#
# Poissons Ratio (x) = 0.48159 0.39707
# Poissons Ratio (y) = 0.12215 0.18299
# Poissons Ratio (z) = 0.30749 0.55868
#
# Static dielectric constant tensor:
#      x y z
#    x 1.951990 0.000000 0.032270 
#    y 0.000000 2.012550 0.000000 
#    z 0.032270 0.000000 1.897370 
# 
# From -- ./inp_files/160982.got.cif
#   From: 2010.05.17/outbox.cif.g08.bks.cpg/sg12_81_cif.got.tgz:160982.got - 2010.06.03 13:09:07.
