data_PCOD9182101
_publ_section_title
;
Structure prediction by ZEFSAII (Michael W. Deem and Ramdas Pophale) SiO2 
 PCOD9182101
Probable space group: C 2/M
;
_chemical_formula_sum "Si O2"
_cell_formula_units_Z 64
_cell_length_a 26.298335
_cell_length_b 20.127569
_cell_length_c 11.375721
_cell_angle_alpha 90.000000
_cell_angle_beta 147.323217
_cell_angle_gamma 90.000000
_cell_volume 3250.957274
_symmetry_space_group_name_H-M "C 2/M"
_symmetry_group_IT_number 12
_symmetry_cell_setting 'monoclinic'
loop_
_space_group_symop_operation_xyz
x,y,z
-x,y,-z
-x,-y,-z
x,-y,z
1/2+x,1/2+y,z
1/2-x,1/2+y,-z
1/2-x,1/2-y,-z
1/2+x,1/2-y,z
loop_
_atom_site_type_symbol
_atom_site_label
_atom_site_fract_x
_atom_site_fract_y
_atom_site_fract_z
Si Si1 0.552134 0.424655 0.935437
Si Si2 0.219435 0.153237 0.355570
Si Si3 0.281867 0.842383 0.031050
Si Si4 0.875133 0.830601 0.592213
Si Si5 0.598902 0.423006 0.751358
Si Si6 0.296659 0.226961 0.283444
Si Si7 0.214199 0.424478 0.170431
Si Si8 0.606888 0.077484 0.201061
O O1 0.519496 0.500000 0.896303
O O2 0.471721 0.369766 0.799638
O O3 0.582422 0.420996 0.858360
O O4 0.644820 0.405891 0.188421
O O5 0.174030 0.189861 0.380322
O O6 0.233772 0.194423 0.263980
O O7 0.319475 0.122032 0.584793
O O8 0.181088 0.874209 0.870911
O O9 0.264826 0.778448 0.914384
O O10 0.325743 0.895806 0.028447
O O11 0.330280 0.823935 0.248337
O O12 0.877042 0.768075 0.508185
O O13 0.803484 0.881768 0.388660
O O14 0.500000 0.404815 0.500000
O O15 0.620563 0.500000 0.761215
O O16 0.244767 0.500000 0.215573
O O17 0.139824 0.420502 0.130318
O O18 0.611814 0.000000 0.249580
O O19 0.500000 0.100662 0.000000
#
# Coordination Sequence:
#
# PCOD9182101 Si02
#       8
#     8   8   8   8   8   8   8   8
#     4  11  22  36  59  96 129 154 193 249 313 368
#     4  11  21  38  60  86 121 155 198 248 303 359
#     4  10  19  35  57  77 114 158 201 245 289 345
#     4  10  21  36  57  83 122 162 197 239 296 367
#     4  10  19  32  55  88 125 159 195 241 302 372
#     4  10  21  37  54  76 110 162 209 237 280 341
#     4   9  17  32  58  87 112 148 193 241 303 364
#     4   9  19  37  62  86 111 144 188 245 306 365
#
# _framework density 19.686509000000001
#
# number of rings (size 3 to 8) (size 9 to 14) (size 15 to 20)
#    0.000    2.000    1.250    3.375    0.000    3.000 
#    0.000    5.000    5.500    0.000    0.000    2.625 
#    0.000    0.000    0.000    0.000    0.000    0.000 
#
# Total GULP energy -178539.063060 kJ/mol
# GULP energy per Si atom -5579.345721 kJ/mol
# Density = 1.964170 g / cm^3
# Si number density = 19.686509 Si / 1000 Ang^3
#
#
#
# Elastic Constant Matrix: (Units=GPa)
#
#
# Indices 1 2 3 4 5 6 
#
# 1 99.2568 41.3495 38.7887 0.0000 -20.0945 0.0000
# 2 41.3495 64.7236 29.2519 0.0000 -3.6991 0.0000
# 3 38.7887 29.2519 87.4679 0.0000 1.8047 0.0000
# 4 0.0000 0.0000 0.0000 23.0209 0.0000 -1.6032
# 5 -20.0945 -3.6991 1.8047 0.0000 34.7165 0.0000
# 6 0.0000 0.0000 0.0000 -1.6032 0.0000 31.5177
#
#
#
# Elastic Compliance Matrix: (Units=1/GPa)
#
#
# Indices 1 2 3 4 5 6 
#
# 1 0.017469 -0.008279 -0.005174 0.000000 0.009498 0.000000
# 2 -0.008279 0.022304 -0.003742 0.000000 -0.002221 0.000000
# 3 -0.005174 -0.003742 0.015065 0.000000 -0.004177 0.000000
# 4 0.000000 0.000000 0.000000 0.043593 0.000000 0.002217
# 5 0.009498 -0.002221 -0.004177 0.000000 0.034283 0.000000
# 6 0.000000 0.000000 0.000000 0.002217 0.000000 0.031841
#
#
# Mechanical properties :
#
#
# Convention : Reuss Voigt Hill
#
# Bulk Modulus (GPa) = 48.90518 52.24762 50.57640
# Shear Modulus (GPa) = 24.30030 27.32155 25.81093
#
# Velocity S-wave (km/s) = 3.51716 3.72940 3.62484
# Velocity P-wave (km/s) = 6.43349 6.71878 6.57768
#
# Compressibility (1/GPa) = 0.02044773
#
# Stress axis : x y z
#
# Youngs Moduli (GPa) = 57.24583 44.83600 66.38014
#
# Poissons Ratio (x) = 0.37119 0.34345
# Poissons Ratio (y) = 0.47393 0.24838
# Poissons Ratio (z) = 0.29619 0.16777
#
# Static dielectric constant tensor:
#      x y z
#    x 1.724670 0.000000 -0.032240 
#    y 0.000000 1.739760 0.000000 
#    z -0.032240 0.000000 1.659910 
# 
# From -- ./inp_files/184737.got.cif
#   From: 2010.05.17/outbox.cif.g08.bks.cpg/sg12_93_cif.got.tgz:184737.got - 2010.06.03 13:09:07.
