data_PCOD9182305
_publ_section_title
;
Structure prediction by ZEFSAII (Michael W. Deem and Ramdas Pophale) SiO2 
 PCOD9182305
Probable space group: C 2/M
;
_chemical_formula_sum "Si O2"
_cell_formula_units_Z 56
_cell_length_a 19.210958
_cell_length_b 13.174577
_cell_length_c 15.331582
_cell_angle_alpha 90.000000
_cell_angle_beta 66.565853
_cell_angle_gamma 90.000000
_cell_volume 3560.304618
_symmetry_space_group_name_H-M "C 2/M"
_symmetry_group_IT_number 12
_symmetry_cell_setting 'monoclinic'
loop_
_space_group_symop_operation_xyz
x,y,z
-x,y,-z
-x,-y,-z
x,-y,z
1/2+x,1/2+y,z
1/2-x,1/2+y,-z
1/2-x,1/2-y,-z
1/2+x,1/2-y,z
loop_
_atom_site_type_symbol
_atom_site_label
_atom_site_fract_x
_atom_site_fract_y
_atom_site_fract_z
Si Si1 0.051827 0.876669 0.107056
Si Si2 0.908881 0.243982 0.740525
Si Si3 0.317245 0.211435 0.527553
Si Si4 0.110450 0.122071 0.886854
Si Si5 0.774846 0.622315 0.736301
Si Si6 0.411634 0.385074 0.569782
Si Si7 0.028467 0.382210 0.586206
O O1 0.081922 0.809831 0.171515
O O2 0.963527 0.849855 0.132514
O O3 0.057048 0.000000 0.118986
O O4 0.095409 0.851431 0.995255
O O5 0.837600 0.319044 0.762410
O O6 0.902155 0.155087 0.672276
O O7 0.981521 0.309831 0.673510
O O8 0.250000 0.250000 0.500000
O O9 0.287961 0.155886 0.629664
O O10 0.364085 0.310229 0.533659
O O11 0.382071 0.140269 0.453479
O O12 0.190981 0.154820 0.808940
O O13 0.111198 0.000000 0.884793
O O14 0.782874 0.500000 0.739421
O O15 0.500000 0.380028 0.500000
O O16 0.385791 0.500000 0.573341
O O17 0.012195 0.500000 0.612077
O O18 0.000000 0.362672 0.500000
#
# Coordination Sequence:
#
# PCOD9182305 Si02
#       7
#     8   8   8   8   8   8   8
#     4   9  18  33  54  78 104 131 162 209 260 306
#     4  11  19  31  51  79  98 134 174 203 249 301
#     4  11  22  34  50  75 103 134 172 206 252 300
#     4   8  17  34  53  76 103 130 163 208 261 302
#     4  10  20  34  53  75 102 133 171 215 248 290
#     4  10  19  33  48  68 100 133 166 207 248 294
#     4  11  20  36  54  71 103 138 173 210 243 290
#
# _framework density 15.728992
#
# number of rings (size 3 to 8) (size 9 to 14) (size 15 to 20)
#    0.000    2.000    4.286    2.143    2.000    1.714 
#    0.000    0.000    0.000    0.000    0.000    9.000 
#    0.000    0.000    0.000    0.000    0.000    0.000 
#
# Total GULP energy -156072.082890 kJ/mol
# GULP energy per Si atom -5574.002960 kJ/mol
# Density = 1.569319 g / cm^3
# Si number density = 15.728992 Si / 1000 Ang^3
#
#
#
# Elastic Constant Matrix: (Units=GPa)
#
#
# Indices 1 2 3 4 5 6 
#
# 1 93.3912 19.5009 50.1265 0.0000 -3.4543 0.0000
# 2 19.5009 76.5472 28.7470 0.0000 3.8921 0.0000
# 3 50.1265 28.7470 56.6285 0.0000 -6.7629 0.0000
# 4 0.0000 0.0000 0.0000 22.4862 0.0000 1.4408
# 5 -3.4543 3.8921 -6.7629 0.0000 33.4363 0.0000
# 6 0.0000 0.0000 0.0000 1.4408 0.0000 13.3097
#
#
#
# Elastic Compliance Matrix: (Units=1/GPa)
#
#
# Indices 1 2 3 4 5 6 
#
# 1 0.020781 0.002245 -0.019787 0.000000 -0.002117 0.000000
# 2 0.002245 0.016824 -0.010999 0.000000 -0.003951 0.000000
# 3 -0.019787 -0.010999 0.041673 0.000000 0.007665 0.000000
# 4 0.000000 0.000000 0.000000 0.044782 0.000000 -0.004848
# 5 -0.002117 -0.003951 0.007665 0.000000 0.031699 0.000000
# 6 0.000000 0.000000 0.000000 -0.004848 0.000000 0.075658
#
#
# Mechanical properties :
#
#
# Convention : Reuss Voigt Hill
#
# Bulk Modulus (GPa) = 45.05638 47.03508 46.04573
# Shear Modulus (GPa) = 16.89763 22.39262 19.64512
#
# Velocity S-wave (km/s) = 3.28120 3.77723 3.53792
# Velocity P-wave (km/s) = 6.56222 6.99940 6.78433
#
# Compressibility (1/GPa) = 0.02219441
#
# Stress axis : x y z
#
# Youngs Moduli (GPa) = 48.12010 59.44051 23.99615
#
# Poissons Ratio (x) = -0.13342 0.47482
# Poissons Ratio (y) = -0.10801 0.26393
# Poissons Ratio (z) = 0.95217 0.65379
#
# Static dielectric constant tensor:
#      x y z
#    x 1.531940 0.000000 -0.015580 
#    y 0.000000 1.517270 0.000000 
#    z -0.015580 0.000000 1.522810 
# 
# From -- ./inp_files/223166.got.cif
#   From: 2010.05.17/outbox.cif.g08.bks.cpg/sg12_112_cif.got.tgz:223166.got - 2010.06.03 13:09:07.
