data_PCOD9182138
_publ_section_title
;
Structure prediction by ZEFSAII (Michael W. Deem and Ramdas Pophale) SiO2 
 PCOD9182138
Probable space group: C 2/M
;
_chemical_formula_sum "Si O2"
_cell_formula_units_Z 52
_cell_length_a 13.806752
_cell_length_b 12.972778
_cell_length_c 21.830605
_cell_angle_alpha 90.000000
_cell_angle_beta 45.141402
_cell_angle_gamma 90.000000
_cell_volume 2771.688704
_symmetry_space_group_name_H-M "C 2/M"
_symmetry_group_IT_number 12
_symmetry_cell_setting 'monoclinic'
loop_
_space_group_symop_operation_xyz
x,y,z
-x,y,-z
-x,-y,-z
x,-y,z
1/2+x,1/2+y,z
1/2-x,1/2+y,-z
1/2-x,1/2-y,-z
1/2+x,1/2-y,z
loop_
_atom_site_type_symbol
_atom_site_label
_atom_site_fract_x
_atom_site_fract_y
_atom_site_fract_z
Si Si1 0.565142 0.116598 0.773954
Si Si2 0.000000 0.762736 0.000000
Si Si3 0.898866 0.206445 0.917462
Si Si4 0.320586 0.881676 0.404365
Si Si5 0.125644 0.881843 0.314742
Si Si6 0.425773 0.774103 0.472990
Si Si7 0.234937 0.117052 0.134310
O O1 0.483313 0.201484 0.847906
O O2 0.569010 0.132972 0.699067
O O3 0.723623 0.121530 0.723063
O O4 0.515481 0.000000 0.809291
O O5 0.133715 0.691027 0.930149
O O6 0.970845 0.822829 0.949475
O O7 0.863583 0.124915 0.880558
O O8 0.750000 0.250000 0.000000
O O9 0.379993 0.859829 0.445024
O O10 0.202275 0.796818 0.449840
O O11 0.271124 0.000000 0.420623
O O12 0.148811 0.856348 0.233193
O O13 0.026294 0.803515 0.392363
O O14 0.075248 0.000000 0.342547
O O15 0.500000 0.815277 0.500000
O O16 0.284780 0.000000 0.119868
#
# Coordination Sequence:
#
# PCOD9182138 Si02
#       7
#     8   4   8   8   8   8   8
#     4  10  19  35  58  82 107 142 187 230 271 322
#     4  10  19  34  53  78 104 136 177 224 273 320
#     4  10  21  34  53  81 109 137 175 227 277 323
#     4  10  22  37  56  83 113 147 187 226 269 325
#     4  10  19  32  56  84 108 140 183 230 274 319
#     4  11  21  35  57  84 114 149 181 228 275 321
#     4  10  20  34  54  78 104 139 178 222 270 323
#
# _framework density 18.761126000000001
#
# number of rings (size 3 to 8) (size 9 to 14) (size 15 to 20)
#    0.000    1.846    3.077    1.615    0.000    3.385 
#    0.000    0.385    0.000    1.846    0.000    0.000 
#    0.000    0.000    0.000    0.000    0.000    0.000 
#
# Total GULP energy -145009.859951 kJ/mol
# GULP energy per Si atom -5577.302306 kJ/mol
# Density = 1.871842 g / cm^3
# Si number density = 18.761126 Si / 1000 Ang^3
#
#
#
# Elastic Constant Matrix: (Units=GPa)
#
#
# Indices 1 2 3 4 5 6 
#
# 1 104.2854 -6.0120 8.1796 0.0000 30.7705 0.0000
# 2 -6.0120 20.0549 6.4306 0.0000 0.7035 0.0000
# 3 8.1796 6.4306 58.3562 0.0000 13.7507 0.0000
# 4 0.0000 0.0000 0.0000 9.6009 0.0000 1.1697
# 5 30.7705 0.7035 13.7507 0.0000 35.1231 0.0000
# 6 0.0000 0.0000 0.0000 1.1697 0.0000 18.7604
#
#
#
# Elastic Compliance Matrix: (Units=1/GPa)
#
#
# Indices 1 2 3 4 5 6 
#
# 1 0.013321 0.004259 0.000478 0.000000 -0.011942 0.000000
# 2 0.004259 0.053107 -0.005860 0.000000 -0.002501 0.000000
# 3 0.000478 -0.005860 0.019593 0.000000 -0.007972 0.000000
# 4 0.000000 0.000000 0.000000 0.104954 0.000000 -0.006544
# 5 -0.011942 -0.002501 -0.007972 0.000000 0.042105 0.000000
# 6 0.000000 0.000000 0.000000 -0.006544 0.000000 0.053712
#
#
# Mechanical properties :
#
#
# Convention : Reuss Voigt Hill
#
# Bulk Modulus (GPa) = 11.93680 22.21032 17.07356
# Shear Modulus (GPa) = 15.77471 24.30341 20.03906
#
# Velocity S-wave (km/s) = 2.90283 3.60309 3.27175
# Velocity P-wave (km/s) = 4.19662 5.40128 4.83660
#
# Compressibility (1/GPa) = 0.08377452
#
# Stress axis : x y z
#
# Youngs Moduli (GPa) = 75.07018 18.83005 51.03776
#
# Poissons Ratio (x) = -0.08020 -0.02437
# Poissons Ratio (y) = -0.31973 0.29907
# Poissons Ratio (z) = -0.03585 0.11034
#
# Static dielectric constant tensor:
#      x y z
#    x 1.694060 0.000000 0.038830 
#    y 0.000000 1.611440 0.000000 
#    z 0.038830 0.000000 1.644400 
# 
# From -- ./inp_files/305364.got.cif
#   From: 2010.05.17/outbox.cif.g08.bks.cpg/sg12_153_cif.got.tgz:305364.got - 2010.06.03 13:09:07.
