data_PCOD9182130
_publ_section_title
;
Structure prediction by ZEFSAII (Michael W. Deem and Ramdas Pophale) SiO2 
 PCOD9182130
Probable space group: C 2/M
;
_chemical_formula_sum "Si O2"
_cell_formula_units_Z 56
_cell_length_a 14.867124
_cell_length_b 9.192508
_cell_length_c 23.703122
_cell_angle_alpha 90.000000
_cell_angle_beta 114.853354
_cell_angle_gamma 90.000000
_cell_volume 2939.401022
_symmetry_space_group_name_H-M "C 2/M"
_symmetry_group_IT_number 12
_symmetry_cell_setting 'monoclinic'
loop_
_space_group_symop_operation_xyz
x,y,z
-x,y,-z
-x,-y,-z
x,-y,z
1/2+x,1/2+y,z
1/2-x,1/2+y,-z
1/2-x,1/2-y,-z
1/2+x,1/2-y,z
loop_
_atom_site_type_symbol
_atom_site_label
_atom_site_fract_x
_atom_site_fract_y
_atom_site_fract_z
Si Si1 0.887390 0.172493 0.081208
Si Si2 0.034328 0.673435 0.206389
Si Si3 0.435695 0.325505 0.401827
Si Si4 0.411629 0.170769 0.278308
Si Si5 0.309929 0.331340 0.815311
Si Si6 0.344507 0.675481 0.495796
Si Si7 0.318322 0.673165 0.944266
O O1 0.778397 0.230487 0.068984
O O2 0.964089 0.256484 0.140389
O O3 0.895908 0.000000 0.093048
O O4 0.894141 0.198530 0.015512
O O5 0.026492 0.500000 0.202017
O O6 0.142317 0.729021 0.218629
O O7 0.997054 0.721360 0.258092
O O8 0.430605 0.500000 0.397123
O O9 0.407107 0.255464 0.335298
O O10 0.550576 0.288658 0.446290
O O11 0.365571 0.281906 0.436007
O O12 0.308352 0.183690 0.217249
O O13 0.426483 0.000000 0.294448
O O14 0.334087 0.500000 0.809424
O O15 0.349650 0.297556 0.888465
O O16 0.332559 0.500000 0.494616
O O17 0.250000 0.750000 0.500000
O O18 0.292006 0.500000 0.939530
#
# Coordination Sequence:
#
# PCOD9182130 Si02
#       7
#     8   8   8   8   8   8   8
#     4  10  19  32  56  83 105 140 186 230 286 348
#     4  11  23  39  56  79 112 147 186 236 287 336
#     4   9  20  38  59  84 117 152 187 225 271 323
#     4  10  22  40  59  79 113 153 188 230 279 328
#     4  10  21  39  58  78 108 147 188 231 283 341
#     4   9  19  37  60  88 120 152 183 225 272 319
#     4   9  18  35  56  78 109 143 179 232 291 341
#
# _framework density 19.051500999999998
#
# number of rings (size 3 to 8) (size 9 to 14) (size 15 to 20)
#    0.000    2.286    1.429    1.714    0.000    5.714 
#    0.000   10.000    0.000    0.000    0.000    0.000 
#    0.000    0.000    0.000    0.000    0.000    0.000 
#
# Total GULP energy -156223.782058 kJ/mol
# GULP energy per Si atom -5579.420788 kJ/mol
# Density = 1.900814 g / cm^3
# Si number density = 19.051501 Si / 1000 Ang^3
#
#
#
# Elastic Constant Matrix: (Units=GPa)
#
#
# Indices 1 2 3 4 5 6 
#
# 1 103.0526 35.3345 28.6879 0.0000 -27.2345 0.0000
# 2 35.3345 33.2643 28.0064 0.0000 -15.1395 0.0000
# 3 28.6879 28.0064 84.1833 0.0000 -31.7704 0.0000
# 4 0.0000 0.0000 0.0000 32.2340 0.0000 0.4843
# 5 -27.2345 -15.1395 -31.7704 0.0000 23.1339 0.0000
# 6 0.0000 0.0000 0.0000 0.4843 0.0000 33.2683
#
#
#
# Elastic Compliance Matrix: (Units=1/GPa)
#
#
# Indices 1 2 3 4 5 6 
#
# 1 0.018991 -0.016400 0.006999 0.000000 0.021236 0.000000
# 2 -0.016400 0.059468 -0.014105 0.000000 0.000240 0.000000
# 3 0.006999 -0.014105 0.028673 0.000000 0.038387 0.000000
# 4 0.000000 0.000000 0.000000 0.031030 0.000000 -0.000452
# 5 0.021236 0.000240 0.038387 0.000000 0.121101 0.000000
# 6 0.000000 0.000000 0.000000 -0.000452 0.000000 0.030065
#
#
# Mechanical properties :
#
#
# Convention : Reuss Voigt Hill
#
# Bulk Modulus (GPa) = 16.63353 44.95087 30.79220
# Shear Modulus (GPa) = 14.02996 26.29198 20.16097
#
# Velocity S-wave (km/s) = 2.71665 3.71893 3.25658
# Velocity P-wave (km/s) = 4.31162 6.48739 5.50801
#
# Compressibility (1/GPa) = 0.06011954
#
# Stress axis : x y z
#
# Youngs Moduli (GPa) = 52.65642 16.81589 34.87593
#
# Poissons Ratio (x) = 0.27579 -0.24409
# Poissons Ratio (y) = 0.86358 0.49191
# Poissons Ratio (z) = -0.36853 0.23718
#
# Static dielectric constant tensor:
#      x y z
#    x 1.684580 0.000000 0.003500 
#    y 0.000000 1.633850 0.000000 
#    z 0.003500 0.000000 1.667350 
# 
# From -- ./inp_files/337915.got.cif
#   From: 2010.05.17/outbox.cif.g08.bks.cpg/sg12_169_cif.got.tgz:337915.got - 2010.06.03 13:09:07.
