data_PCOD9182691
_publ_section_title
;
Structure prediction by ZEFSAII (Michael W. Deem and Ramdas Pophale) SiO2 
 PCOD9182691
Probable space group: C 2/M
;
_chemical_formula_sum "Si O2"
_cell_formula_units_Z 52
_cell_length_a 15.892007
_cell_length_b 29.152752
_cell_length_c 11.726927
_cell_angle_alpha 90.000000
_cell_angle_beta 155.672456
_cell_angle_gamma 90.000000
_cell_volume 2238.152223
_symmetry_space_group_name_H-M "C 2/M"
_symmetry_group_IT_number 12
_symmetry_cell_setting 'monoclinic'
loop_
_space_group_symop_operation_xyz
x,y,z
-x,y,-z
-x,-y,-z
x,-y,z
1/2+x,1/2+y,z
1/2-x,1/2+y,-z
1/2-x,1/2-y,-z
1/2+x,1/2-y,z
loop_
_atom_site_type_symbol
_atom_site_label
_atom_site_fract_x
_atom_site_fract_y
_atom_site_fract_z
Si Si1 0.631097 0.000000 0.001862
Si Si2 0.729638 0.000000 0.595669
Si Si3 0.261630 0.779211 0.705063
Si Si4 0.650196 0.421604 0.869989
Si Si5 0.572109 0.812447 0.464214
Si Si6 0.227731 0.908181 0.231788
Si Si7 0.149680 0.181076 0.811835
Si Si8 0.832786 0.000000 0.505021
O O1 0.705782 0.955875 0.024147
O O2 0.293485 0.000000 0.777157
O O3 0.381384 0.000000 0.673236
O O4 0.679983 0.045181 0.602151
O O5 0.940410 0.000000 0.790601
O O6 0.238806 0.726100 0.640519
O O7 0.196294 0.793417 0.751643
O O8 0.065873 0.802566 0.398663
O O9 0.500000 0.793152 0.000000
O O10 0.630630 0.373763 0.780466
O O11 0.442141 0.450538 0.620668
O O12 0.724792 0.409899 0.090772
O O13 0.500000 0.799488 0.500000
O O14 0.659121 0.863587 0.579364
O O15 0.361133 0.809898 0.137026
O O16 0.000000 0.905633 0.000000
#
# Coordination Sequence:
#
# PCOD9182691 Si02
#       8
#     4   4   8   8   8   8   8   4
#     4   9  20  34  53  87 131 179 220 263 331 393
#     4  10  19  33  52  84 144 184 217 252 309 412
#     4  11  27  50  72  95 129 179 229 290 345 396
#     4  11  21  36  61  93 134 182 219 275 326 393
#     4  12  24  42  68 102 141 175 219 279 339 404
#     4  12  22  34  56  96 141 188 225 259 326 412
#     4  11  25  45  72 101 134 173 232 280 336 408
#     4   9  20  36  56  90 142 181 224 267 319 407
#
# _framework density 23.233450999999999
#
# number of rings (size 3 to 8) (size 9 to 14) (size 15 to 20)
#    0.462    0.615    4.615    3.000    0.000    3.692 
#    0.000    0.000    0.000    7.385    0.000    8.615 
#    0.000    0.000    0.000    0.000    0.000    0.000 
#
# Total GULP energy -144964.838771 kJ/mol
# GULP energy per Si atom -5575.570722 kJ/mol
# Density = 2.318057 g / cm^3
# Si number density = 23.233451 Si / 1000 Ang^3
#
#
#
# Elastic Constant Matrix: (Units=GPa)
#
#
# Indices 1 2 3 4 5 6 
#
# 1 93.6770 43.3788 56.9691 0.0000 4.3338 -0.0001
# 2 43.3788 184.4762 64.5261 0.0000 3.6320 0.0000
# 3 56.9691 64.5261 163.7768 -0.0001 4.4613 -0.0003
# 4 0.0000 0.0000 -0.0001 16.0975 -0.0001 0.3290
# 5 4.3338 3.6320 4.4613 -0.0001 50.4086 -0.0002
# 6 -0.0001 0.0000 -0.0003 0.3290 -0.0002 19.8213
#
#
#
# Elastic Compliance Matrix: (Units=1/GPa)
#
#
# Indices 1 2 3 4 5 6 
#
# 1 0.014089 -0.001846 -0.004154 0.000000 -0.000711 0.000000
# 2 -0.001846 0.006532 -0.001928 0.000000 -0.000141 0.000000
# 3 -0.004154 -0.001928 0.008317 0.000000 -0.000240 0.000000
# 4 0.000000 0.000000 0.000000 0.062143 0.000000 -0.001032
# 5 -0.000711 -0.000141 -0.000240 0.000000 0.019930 0.000000
# 6 0.000000 0.000000 0.000000 -0.001032 0.000000 0.050468
#
#
# Mechanical properties :
#
#
# Convention : Reuss Voigt Hill
#
# Bulk Modulus (GPa) = 76.43846 85.74201 81.09023
# Shear Modulus (GPa) = 27.51871 35.73587 31.62729
#
# Velocity S-wave (km/s) = 3.44531 3.92614 3.69356
# Velocity P-wave (km/s) = 6.98559 7.58535 7.29164
#
# Compressibility (1/GPa) = 0.01308242
#
# Stress axis : x y z
#
# Youngs Moduli (GPa) = 70.97751 153.09714 120.23814
#
# Poissons Ratio (x) = 0.28261 0.49949
# Poissons Ratio (y) = 0.13102 0.23176
# Poissons Ratio (z) = 0.29485 0.29510
#
# Static dielectric constant tensor:
#      x y z
#    x 1.979600 0.000000 -0.146430 
#    y 0.000000 1.912520 0.000000 
#    z -0.146430 0.000000 2.721260 
# 
# From -- ./inp_files/235908.got.cif
#   From: 2010.05.17/outbox.cif.g08.bks.cpg/sg12_118_cif.got.tgz:235908.got - 2010.06.03 13:09:07.
