data_PCOD9182220
_publ_section_title
;
Structure prediction by ZEFSAII (Michael W. Deem and Ramdas Pophale) SiO2 
 PCOD9182220
Probable space group: C 2/M
;
_chemical_formula_sum "Si O2"
_cell_formula_units_Z 64
_cell_length_a 15.405026
_cell_length_b 9.073566
_cell_length_c 29.702288
_cell_angle_alpha 90.000000
_cell_angle_beta 54.211607
_cell_angle_gamma 90.000000
_cell_volume 3367.819526
_symmetry_space_group_name_H-M "C 2/M"
_symmetry_group_IT_number 12
_symmetry_cell_setting 'monoclinic'
loop_
_space_group_symop_operation_xyz
x,y,z
-x,y,-z
-x,-y,-z
x,-y,z
1/2+x,1/2+y,z
1/2-x,1/2+y,-z
1/2-x,1/2-y,-z
1/2+x,1/2-y,z
loop_
_atom_site_type_symbol
_atom_site_label
_atom_site_fract_x
_atom_site_fract_y
_atom_site_fract_z
Si Si1 0.306380 0.175091 0.812552
Si Si2 0.246480 0.325670 0.067060
Si Si3 0.035059 0.676865 0.437903
Si Si4 0.104593 0.675409 0.839854
Si Si5 0.045341 0.677482 0.757025
Si Si6 0.154516 0.823417 0.557310
Si Si7 0.784158 0.176530 0.358903
Si Si8 0.576237 0.325782 0.053486
O O1 0.269584 0.197991 0.875430
O O2 0.223943 0.262143 0.806832
O O3 0.429872 0.222445 0.772519
O O4 0.299765 0.000000 0.805338
O O5 0.223723 0.500000 0.064966
O O6 0.163465 0.228760 0.063753
O O7 0.365103 0.295946 0.011830
O O8 0.023975 0.500000 0.435092
O O9 0.159075 0.717358 0.393889
O O10 0.000000 0.708869 0.500000
O O11 0.956057 0.760220 0.428302
O O12 0.104404 0.500000 0.843371
O O13 0.053700 0.717646 0.807149
O O14 0.032135 0.743117 0.901328
O O15 0.050224 0.500000 0.753321
O O16 0.142008 0.746067 0.700058
O O17 0.250000 0.750000 0.500000
O O18 0.173455 0.787797 0.603935
O O19 0.159099 0.000000 0.550868
O O20 0.790619 0.000000 0.351400
O O21 0.558017 0.500000 0.062517
#
# Coordination Sequence:
#
# PCOD9182220 Si02
#       8
#     8   8   8   8   8   8   8   8
#     4  10  21  40  62  84 114 156 200 242 295 355
#     4   9  18  35  57  83 119 153 190 243 298 353
#     4  10  20  39  62  88 125 161 194 236 288 345
#     4  11  23  40  60  85 118 155 196 248 299 348
#     4  10  23  43  63  82 116 158 199 246 296 347
#     4  11  22  38  61  92 125 159 196 238 288 346
#     4  10  23  41  62  88 122 158 194 244 296 342
#     4  10  19  32  57  88 115 152 195 239 297 359
#
# _framework density 19.003394
#
# number of rings (size 3 to 8) (size 9 to 14) (size 15 to 20)
#    0.000    1.875    2.500    1.125    0.000    5.750 
#    0.000    7.500    0.000    0.000    0.000    0.000 
#    0.000    0.000    0.000    0.000    0.000    0.000 
#
# Total GULP energy -178752.527515 kJ/mol
# GULP energy per Si atom -5586.016485 kJ/mol
# Density = 1.896014 g / cm^3
# Si number density = 19.003394 Si / 1000 Ang^3
#
#
#
# Elastic Constant Matrix: (Units=GPa)
#
#
# Indices 1 2 3 4 5 6 
#
# 1 103.2838 34.3959 32.4303 0.0000 -30.8965 0.0000
# 2 34.3959 30.6882 32.7386 0.0000 -8.8300 0.0000
# 3 32.4303 32.7386 100.8081 0.0000 -28.6658 0.0000
# 4 0.0000 0.0000 0.0000 32.1881 0.0000 -5.6022
# 5 -30.8965 -8.8300 -28.6658 0.0000 27.1711 0.0000
# 6 0.0000 0.0000 0.0000 -5.6022 0.0000 33.7734
#
#
#
# Elastic Compliance Matrix: (Units=1/GPa)
#
#
# Indices 1 2 3 4 5 6 
#
# 1 0.026026 -0.031695 0.010582 0.000000 0.030458 0.000000
# 2 -0.031695 0.088490 -0.029447 0.000000 -0.038351 0.000000
# 3 0.010582 -0.029447 0.023970 0.000000 0.027752 0.000000
# 4 0.000000 0.000000 0.000000 0.031991 0.000000 0.005307
# 5 0.030458 -0.038351 0.027752 0.000000 0.088253 0.000000
# 6 0.000000 0.000000 0.000000 0.005307 0.000000 0.030489
#
#
# Mechanical properties :
#
#
# Convention : Reuss Voigt Hill
#
# Bulk Modulus (GPa) = 26.76273 48.21221 37.48747
# Shear Modulus (GPa) = 12.41319 27.64088 20.02704
#
# Velocity S-wave (km/s) = 2.55857 3.81796 3.24985
# Velocity P-wave (km/s) = 4.77934 6.69785 5.81821
#
# Compressibility (1/GPa) = 0.03736540
#
# Stress axis : x y z
#
# Youngs Moduli (GPa) = 38.42306 11.30066 41.71802
#
# Poissons Ratio (x) = 0.35818 -0.44145
# Poissons Ratio (y) = 1.21784 1.22847
# Poissons Ratio (z) = -0.40659 0.33277
#
# Static dielectric constant tensor:
#      x y z
#    x 1.662570 0.000000 -0.007810 
#    y 0.000000 1.632170 0.000000 
#    z -0.007810 0.000000 1.654720 
# 
# From -- ./inp_files/375447.got.cif
#   From: 2010.05.17/outbox.cif.g08.bks.cpg/sg12_188_cif.got.tgz:375447.got - 2010.06.03 13:09:07.
