data_PCOD9182634
_publ_section_title
;
Structure prediction by ZEFSAII (Michael W. Deem and Ramdas Pophale) SiO2 
 PCOD9182634
Probable space group: C 2/M
;
_chemical_formula_sum "Si O2"
_cell_formula_units_Z 56
_cell_length_a 9.216180
_cell_length_b 16.879385
_cell_length_c 20.938827
_cell_angle_alpha 90.000000
_cell_angle_beta 133.418803
_cell_angle_gamma 90.000000
_cell_volume 2365.948828
_symmetry_space_group_name_H-M "C 2/M"
_symmetry_group_IT_number 12
_symmetry_cell_setting 'monoclinic'
loop_
_space_group_symop_operation_xyz
x,y,z
-x,y,-z
-x,-y,-z
x,-y,z
1/2+x,1/2+y,z
1/2-x,1/2+y,-z
1/2-x,1/2-y,-z
1/2+x,1/2-y,z
loop_
_atom_site_type_symbol
_atom_site_label
_atom_site_fract_x
_atom_site_fract_y
_atom_site_fract_z
Si Si1 0.749522 0.908848 0.993431
Si Si2 0.489279 0.414097 0.332577
Si Si3 0.076582 0.235836 0.595123
Si Si4 0.017534 0.278987 0.767565
Si Si5 0.654024 0.844427 0.155933
Si Si6 0.814800 0.908848 0.858763
Si Si7 0.585356 0.912809 0.597986
O O1 0.537607 0.869429 0.941989
O O2 0.778112 0.908470 0.924644
O O3 0.737620 0.000000 0.010102
O O4 0.960041 0.877651 0.083782
O O5 0.505224 0.500000 0.370842
O O6 0.488190 0.338209 0.379584
O O7 0.283316 0.411888 0.230225
O O8 0.675213 0.410000 0.340113
O O9 0.317547 0.235433 0.667939
O O10 0.018382 0.325189 0.600836
O O11 0.000000 0.225659 0.500000
O O12 0.177474 0.209822 0.823008
O O13 0.143444 0.353689 0.779562
O O14 0.937192 0.296184 0.813159
O O15 0.802940 0.000000 0.834192
O O16 0.500000 0.915696 0.500000
O O17 0.534531 0.000000 0.612053
#
# Coordination Sequence:
#
# PCOD9182634 Si02
#       7
#     8   8   8   8   8   8   8
#     4   8  14  27  50  79 101 132 177 221 262 319
#     4  10  20  35  55  78 106 143 185 230 278 329
#     4  10  21  35  53  79 107 142 181 234 277 324
#     4  10  20  34  51  78 106 141 176 222 279 322
#     4  10  19  33  52  78 108 138 177 225 269 329
#     4   8  15  29  51  75 105 137 174 218 272 328
#     4   9  18  34  54  75 100 137 180 223 275 333
#
# _framework density 23.669149999999998
#
# number of rings (size 3 to 8) (size 9 to 14) (size 15 to 20)
#    0.000    2.714    1.429    1.286    0.000    6.571 
#    0.000    0.000    0.000    6.000    0.000    2.000 
#    0.000    0.000    0.000    0.000    0.000    0.000 
#
# Total GULP energy -156233.048974 kJ/mol
# GULP energy per Si atom -5579.751749 kJ/mol
# Density = 2.361528 g / cm^3
# Si number density = 23.669150 Si / 1000 Ang^3
#
#
#
# Elastic Constant Matrix: (Units=GPa)
#
#
# Indices 1 2 3 4 5 6 
#
# 1 50.2984 15.1748 27.6986 0.0000 4.2766 0.0000
# 2 15.1748 150.4476 8.9307 0.0000 -3.6280 0.0000
# 3 27.6986 8.9307 82.2540 0.0000 18.9531 -0.0001
# 4 0.0000 0.0000 0.0000 40.9510 0.0000 26.6672
# 5 4.2766 -3.6280 18.9531 0.0000 26.4258 0.0000
# 6 0.0000 0.0000 -0.0001 26.6672 0.0000 60.1492
#
#
#
# Elastic Compliance Matrix: (Units=1/GPa)
#
#
# Indices 1 2 3 4 5 6 
#
# 1 0.025090 -0.001971 -0.008670 0.000000 0.001887 0.000000
# 2 -0.001971 0.006911 -0.000454 0.000000 0.001593 0.000000
# 3 -0.008670 -0.000454 0.017751 0.000000 -0.011390 0.000000
# 4 0.000000 0.000000 0.000000 0.034331 0.000000 -0.015221
# 5 0.001887 0.001593 -0.011390 0.000000 0.045925 0.000000
# 6 0.000000 0.000000 0.000000 -0.015221 0.000000 0.023373
#
#
# Mechanical properties :
#
#
# Convention : Reuss Voigt Hill
#
# Bulk Modulus (GPa) = 36.28027 42.95647 39.61837
# Shear Modulus (GPa) = 27.06261 40.91825 33.99043
#
# Velocity S-wave (km/s) = 3.38504 4.16235 3.79366
# Velocity P-wave (km/s) = 5.53529 6.42559 5.99699
#
# Compressibility (1/GPa) = 0.02756319
#
# Stress axis : x y z
#
# Youngs Moduli (GPa) = 39.85701 144.69786 56.33533
#
# Poissons Ratio (x) = 0.28513 0.48841
# Poissons Ratio (y) = 0.07854 0.02557
# Poissons Ratio (z) = 0.34555 0.06568
#
# Static dielectric constant tensor:
#      x y z
#    x 1.899110 0.000000 0.003600 
#    y 0.000000 1.968030 0.000000 
#    z 0.003600 0.000000 1.953240 
# 
# From -- ./inp_files/373981.got.cif
#   From: 2010.05.17/outbox.cif.g08.bks.cpg/sg12_187_cif.got.tgz:373981.got - 2010.06.03 13:09:07.
