data_PCOD9182517
_publ_section_title
;
Structure prediction by ZEFSAII (Michael W. Deem and Ramdas Pophale) SiO2 
 PCOD9182517
Probable space group: C 2/M
;
_chemical_formula_sum "Si O2"
_cell_formula_units_Z 40
_cell_length_a 15.752868
_cell_length_b 31.330319
_cell_length_c 9.239549
_cell_angle_alpha 90.000000
_cell_angle_beta 152.327454
_cell_angle_gamma 90.000000
_cell_volume 2117.795538
_symmetry_space_group_name_H-M "C 2/M"
_symmetry_group_IT_number 12
_symmetry_cell_setting 'monoclinic'
loop_
_space_group_symop_operation_xyz
x,y,z
-x,y,-z
-x,-y,-z
x,-y,z
1/2+x,1/2+y,z
1/2-x,1/2+y,-z
1/2-x,1/2-y,-z
1/2+x,1/2-y,z
loop_
_atom_site_type_symbol
_atom_site_label
_atom_site_fract_x
_atom_site_fract_y
_atom_site_fract_z
Si Si1 0.685896 0.266724 0.057173
Si Si2 0.494508 0.430579 0.665340
Si Si3 0.924376 0.156992 0.722379
Si Si4 0.873733 0.288454 0.627406
Si Si5 0.301070 0.000000 0.128353
Si Si6 0.308249 0.000000 0.791786
O O1 0.832628 0.285635 0.391895
O O2 0.750000 0.250000 0.000000
O O3 0.534468 0.304078 0.813600
O O4 0.580165 0.225740 0.964797
O O5 0.500000 0.424582 0.500000
O O6 0.470486 0.386010 0.709083
O O7 0.318277 0.459428 0.435499
O O8 0.674840 0.458705 0.975200
O O9 0.712638 0.169784 0.430077
O O10 0.000000 0.154938 0.000000
O O11 0.750000 0.250000 0.500000
O O12 0.500000 0.000000 0.500000
O O13 0.328662 0.000000 0.996563
O O14 0.500000 0.000000 0.000000
#
# Coordination Sequence:
#
# PCOD9182517 Si02
#       6
#     8   8   8   8   4   4
#     4  10  19  33  52  73 100 137 177 216 259 305
#     4   9  19  37  57  78 108 142 175 218 267 319
#     4   9  19  34  51  75 107 138 173 217 263 310
#     4   9  18  33  50  70  99 134 172 214 257 305
#     4   9  19  37  60  82 108 139 175 217 268 326
#     4   9  19  37  58  82 108 137 175 217 264 322
#
# _framework density 18.887564000000001
#
# number of rings (size 3 to 8) (size 9 to 14) (size 15 to 20)
#    0.000    2.800    0.000    3.600    0.000    4.800 
#    0.000   14.000    0.000    2.400    0.000    0.000 
#    0.000    0.000    0.000    0.000    0.000    0.000 
#
# Total GULP energy -111412.086003 kJ/mol
# GULP energy per Si atom -5570.604300 kJ/mol
# Density = 1.884457 g / cm^3
# Si number density = 18.887564 Si / 1000 Ang^3
#
#
#
# Elastic Constant Matrix: (Units=GPa)
#
#
# Indices 1 2 3 4 5 6 
#
# 1 120.2831 70.0829 36.4736 0.0000 17.3916 0.0000
# 2 70.0829 136.6908 43.4824 0.0000 11.4311 0.0000
# 3 36.4736 43.4824 101.5808 0.0000 13.4190 0.0000
# 4 0.0000 0.0000 0.0000 10.8805 0.0000 -5.6375
# 5 17.3916 11.4311 13.4190 0.0000 23.7944 0.0000
# 6 0.0000 0.0000 0.0000 -5.6375 0.0000 43.5988
#
#
#
# Elastic Compliance Matrix: (Units=1/GPa)
#
#
# Indices 1 2 3 4 5 6 
#
# 1 0.012902 -0.005667 -0.001427 0.000000 -0.005903 0.000000
# 2 -0.005667 0.011065 -0.002752 0.000000 0.000378 0.000000
# 3 -0.001427 -0.002752 0.012125 0.000000 -0.004473 0.000000
# 4 0.000000 0.000000 0.000000 0.098507 0.000000 0.012737
# 5 -0.005903 0.000378 -0.004473 0.000000 0.048682 0.000000
# 6 0.000000 0.000000 0.000000 0.012737 0.000000 0.024583
#
#
# Mechanical properties :
#
#
# Convention : Reuss Voigt Hill
#
# Bulk Modulus (GPa) = 60.97193 73.18139 67.07666
# Shear Modulus (GPa) = 21.45704 29.55580 25.50642
#
# Velocity S-wave (km/s) = 3.37418 3.96008 3.67881
# Velocity P-wave (km/s) = 6.89432 7.72914 7.32364
#
# Compressibility (1/GPa) = 0.01640099
#
# Stress axis : x y z
#
# Youngs Moduli (GPa) = 77.50725 90.37329 82.47099
#
# Poissons Ratio (x) = 0.51219 0.11767
# Poissons Ratio (y) = 0.43927 0.22692
# Poissons Ratio (z) = 0.11059 0.24867
#
# Static dielectric constant tensor:
#      x y z
#    x 1.680250 0.000000 -0.011660 
#    y 0.000000 1.656130 0.000000 
#    z -0.011660 0.000000 1.733370 
# 
# From -- ./inp_files/68479.got.cif
#   From: 2010.05.17/outbox.cif.g08.bks.cpg/sg12_35_cif.got.tgz:68479.got - 2010.06.03 13:09:07.
