data_PCOD9182068
_publ_section_title
;
Structure prediction by ZEFSAII (Michael W. Deem and Ramdas Pophale) SiO2 
 PCOD9182068
Probable space group: C 2/M
;
_chemical_formula_sum "Si O2"
_cell_formula_units_Z 64
_cell_length_a 15.637277
_cell_length_b 7.832640
_cell_length_c 32.301660
_cell_angle_alpha 90.000000
_cell_angle_beta 132.448490
_cell_angle_gamma 90.000000
_cell_volume 2919.325159
_symmetry_space_group_name_H-M "C 2/M"
_symmetry_group_IT_number 12
_symmetry_cell_setting 'monoclinic'
loop_
_space_group_symop_operation_xyz
x,y,z
-x,y,-z
-x,-y,-z
x,-y,z
1/2+x,1/2+y,z
1/2-x,1/2+y,-z
1/2-x,1/2-y,-z
1/2+x,1/2-y,z
loop_
_atom_site_type_symbol
_atom_site_label
_atom_site_fract_x
_atom_site_fract_y
_atom_site_fract_z
Si Si1 0.821825 0.799026 0.643192
Si Si2 0.634795 0.204217 0.436572
Si Si3 0.339329 0.805465 0.804658
Si Si4 0.462318 0.801162 0.766523
Si Si5 0.557788 0.208723 0.562305
Si Si6 0.222169 0.798779 0.843680
Si Si7 0.066583 0.200321 0.923508
Si Si8 0.307285 0.793451 0.956696
O O1 0.855696 0.774471 0.606528
O O2 0.909070 0.714699 0.703802
O O3 0.690613 0.734014 0.607078
O O4 0.822992 0.000000 0.652717
O O5 0.750000 0.250000 0.500000
O O6 0.523407 0.264593 0.426375
O O7 0.628601 0.000000 0.431761
O O8 0.373227 0.727646 0.771577
O O9 0.249574 0.723045 0.807501
O O10 0.458650 0.801005 0.869908
O O11 0.300436 0.000000 0.783459
O O12 0.587498 0.716737 0.810130
O O13 0.479929 0.000000 0.782567
O O14 0.500000 0.261770 0.500000
O O15 0.558587 0.000000 0.562424
O O16 0.297674 0.729455 0.906546
O O17 0.250049 0.000000 0.850141
O O18 0.184562 0.252856 0.938310
O O19 0.047189 0.000000 0.909253
O O20 0.092636 0.228604 0.980426
O O21 0.314237 0.000000 0.958647
#
# Coordination Sequence:
#
# PCOD9182068 Si02
#       8
#     8   8   8   8   8   8   8   8
#     4  11  23  41  64  88 118 161 201 242 291 346
#     4  11  21  37  62  93 127 159 197 240 288 344
#     4  10  22  39  61  85 115 153 195 246 300 351
#     4  11  24  42  61  86 119 152 193 249 300 346
#     4   9  18  36  61  89 123 160 196 231 283 348
#     4  10  21  40  63  86 113 155 201 241 293 359
#     4  10  19  32  55  85 116 151 194 241 294 355
#     4   9  18  33  55  82 114 152 194 238 293 358
#
# _framework density 21.922875999999999
#
# number of rings (size 3 to 8) (size 9 to 14) (size 15 to 20)
#    0.000    1.875    2.500    1.500    0.000    3.500 
#    0.000    8.125    0.000    0.000    0.000    0.000 
#    0.000    0.000    0.000    0.000    0.000    0.000 
#
# Total GULP energy -178780.153929 kJ/mol
# GULP energy per Si atom -5586.879810 kJ/mol
# Density = 2.187298 g / cm^3
# Si number density = 21.922876 Si / 1000 Ang^3
#
#
#
# Elastic Constant Matrix: (Units=GPa)
#
#
# Indices 1 2 3 4 5 6 
#
# 1 117.3657 -0.8499 24.3870 0.0000 -30.2837 0.0000
# 2 -0.8499 30.7676 -11.1765 0.0000 1.4594 0.0000
# 3 24.3870 -11.1765 87.8158 0.0000 -23.1833 0.0000
# 4 0.0000 0.0000 0.0000 20.6762 0.0000 -1.1562
# 5 -30.2837 1.4594 -23.1833 0.0000 33.0379 0.0000
# 6 0.0000 0.0000 0.0000 -1.1562 0.0000 14.8369
#
#
#
# Elastic Compliance Matrix: (Units=1/GPa)
#
#
# Indices 1 2 3 4 5 6 
#
# 1 0.011181 -0.000356 -0.000541 0.000000 0.009885 0.000000
# 2 -0.000356 0.034185 0.004866 0.000000 0.001578 0.000000
# 3 -0.000541 0.004866 0.014691 0.000000 0.009598 0.000000
# 4 0.000000 0.000000 0.000000 0.048576 0.000000 0.003785
# 5 0.009885 0.001578 0.009598 0.000000 0.045995 0.000000
# 6 0.000000 0.000000 0.000000 0.003785 0.000000 0.067695
#
#
# Mechanical properties :
#
#
# Convention : Reuss Voigt Hill
#
# Bulk Modulus (GPa) = 14.70700 28.96335 21.83518
# Shear Modulus (GPa) = 21.09271 28.61610 24.85441
#
# Velocity S-wave (km/s) = 3.10519 3.61682 3.37073
# Velocity P-wave (km/s) = 4.42486 5.53914 5.01305
#
# Compressibility (1/GPa) = 0.06799483
#
# Stress axis : x y z
#
# Youngs Moduli (GPa) = 89.43943 29.25283 68.06927
#
# Poissons Ratio (x) = 0.01043 0.03681
# Poissons Ratio (y) = 0.03188 -0.33125
# Poissons Ratio (z) = 0.04836 -0.14235
#
# Static dielectric constant tensor:
#      x y z
#    x 1.852470 0.000000 -0.030140 
#    y 0.000000 1.833950 0.000000 
#    z -0.030140 0.000000 1.752070 
# 
# From -- ./inp_files/375664.got.cif
#   From: 2010.05.17/outbox.cif.g08.bks.cpg/sg12_188_cif.got.tgz:375664.got - 2010.06.03 13:09:07.
