data_PCOD9182710
_publ_section_title
;
Structure prediction by ZEFSAII (Michael W. Deem and Ramdas Pophale) SiO2 
 PCOD9182710
Probable space group: C 2/M
;
_chemical_formula_sum "Si O2"
_cell_formula_units_Z 48
_cell_length_a 23.598163
_cell_length_b 15.630171
_cell_length_c 5.813973
_cell_angle_alpha 90.000000
_cell_angle_beta 101.494890
_cell_angle_gamma 90.000000
_cell_volume 2101.432874
_symmetry_space_group_name_H-M "C 2/M"
_symmetry_group_IT_number 12
_symmetry_cell_setting 'monoclinic'
loop_
_space_group_symop_operation_xyz
x,y,z
-x,y,-z
-x,-y,-z
x,-y,z
1/2+x,1/2+y,z
1/2-x,1/2+y,-z
1/2-x,1/2-y,-z
1/2+x,1/2-y,z
loop_
_atom_site_type_symbol
_atom_site_label
_atom_site_fract_x
_atom_site_fract_y
_atom_site_fract_z
Si Si1 0.161752 0.276983 0.789671
Si Si2 0.327625 0.406627 0.274677
Si Si3 0.947797 0.724689 0.636790
Si Si4 0.614316 0.903763 0.134813
Si Si5 0.051551 0.908989 0.354837
Si Si6 0.725019 0.094165 0.559468
O O1 0.173564 0.179670 0.875134
O O2 0.111127 0.270390 0.558800
O O3 0.215918 0.325827 0.719541
O O4 0.137477 0.339975 0.961003
O O5 0.319763 0.500000 0.154777
O O6 0.388838 0.409877 0.454853
O O7 0.278299 0.396453 0.428749
O O8 0.939846 0.643442 0.792430
O O9 0.951929 0.816650 0.768573
O O10 0.000000 0.715910 0.500000
O O11 0.666646 0.909067 0.360176
O O12 0.602188 0.000000 0.042935
O O13 0.000000 0.908715 0.500000
O O14 0.049234 0.000000 0.222072
O O15 0.729412 0.000000 0.677849
#
# Coordination Sequence:
#
# PCOD9182710 Si02
#       6
#     8   8   8   8   8   8
#     4  10  19  33  53  73 100 136 167 203 252 299
#     4   9  17  30  50  76 104 133 167 207 247 292
#     4   9  19  35  53  75 102 130 164 207 251 296
#     4  10  21  35  51  73 100 132 170 209 251 298
#     4   8  14  28  52  77 100 129 162 197 243 297
#     4   9  18  33  51  73 103 134 166 207 250 293
#
# _framework density 22.841557999999999
#
# number of rings (size 3 to 8) (size 9 to 14) (size 15 to 20)
#    0.000    2.833    0.000    1.000    0.000    2.333 
#    0.000    1.667    0.000    7.000    0.000   11.667 
#    0.000    0.000    0.000    0.000    0.000    0.000 
#
# Total GULP energy -133916.394326 kJ/mol
# GULP energy per Si atom -5579.849764 kJ/mol
# Density = 2.278957 g / cm^3
# Si number density = 22.841558 Si / 1000 Ang^3
#
#
#
# Elastic Constant Matrix: (Units=GPa)
#
#
# Indices 1 2 3 4 5 6 
#
# 1 103.4612 47.9421 4.0219 0.0000 -1.9440 0.0000
# 2 47.9421 273.6267 48.9563 0.0000 -29.3139 0.0000
# 3 4.0219 48.9563 28.9273 0.0000 9.4248 0.0000
# 4 0.0000 0.0000 0.0000 -1.1356 0.0000 -16.6783
# 5 -1.9440 -29.3139 9.4248 0.0000 29.9018 0.0000
# 6 0.0000 0.0000 0.0000 -16.6783 0.0000 22.3595
#
#
#
# Elastic Compliance Matrix: (Units=1/GPa)
#
#
# Indices 1 2 3 4 5 6 
#
# 1 0.010941 -0.003409 0.005689 0.000000 -0.004423 0.000000
# 2 -0.003409 0.009802 -0.021368 0.000000 0.016123 0.000000
# 3 0.005689 -0.021368 0.085418 0.000000 -0.047501 0.000000
# 4 0.000000 0.000000 0.000000 -0.073658 0.000000 -0.054943
# 5 -0.004423 0.016123 -0.047501 0.000000 0.063933 0.000000
# 6 0.000000 0.000000 0.000000 -0.054943 0.000000 0.003741
#
#
# Mechanical properties :
#
#
# Convention : Reuss Voigt Hill
#
# Bulk Modulus (GPa) = 14.70921 67.53954 41.12437
# Shear Modulus (GPa) = 31.05292 30.56479 30.80886
#
# Velocity S-wave (km/s) = 3.69113 3.66200 3.67660
# Velocity P-wave (km/s) = 4.96181 6.89299 6.00553
#
# Compressibility (1/GPa) = 0.06798464
#
# Stress axis : x y z
#
# Youngs Moduli (GPa) = 91.40204 102.01747 11.70710
#
# Poissons Ratio (x) = 0.34773 -0.06660
# Poissons Ratio (y) = 0.31155 0.25016
# Poissons Ratio (z) = -0.51995 2.17994
#
# Static dielectric constant tensor:
#      x y z
#    x 1.810880 0.000000 0.004640 
#    y 0.000000 1.946190 0.000000 
#    z 0.004640 0.000000 1.843440 
# 
# From -- ./inp_files/28152.got.cif
#   From: 2010.05.17/outbox.cif.g08.bks.cpg/sg12_15_cif.got.tgz:28152.got - 2010.06.03 13:09:07.
