data_PCOD9182707
_publ_section_title
;
Structure prediction by ZEFSAII (Michael W. Deem and Ramdas Pophale) SiO2 
 PCOD9182707
Probable space group: C 2/M
;
_chemical_formula_sum "Si O2"
_cell_formula_units_Z 56
_cell_length_a 14.868757
_cell_length_b 7.537173
_cell_length_c 29.522497
_cell_angle_alpha 90.000000
_cell_angle_beta 51.896033
_cell_angle_gamma 90.000000
_cell_volume 2603.463716
_symmetry_space_group_name_H-M "C 2/M"
_symmetry_group_IT_number 12
_symmetry_cell_setting 'monoclinic'
loop_
_space_group_symop_operation_xyz
x,y,z
-x,y,-z
-x,-y,-z
x,-y,z
1/2+x,1/2+y,z
1/2-x,1/2+y,-z
1/2-x,1/2-y,-z
1/2+x,1/2-y,z
loop_
_atom_site_type_symbol
_atom_site_label
_atom_site_fract_x
_atom_site_fract_y
_atom_site_fract_z
Si Si1 0.189811 0.804613 0.564927
Si Si2 0.292558 0.708947 0.778328
Si Si3 0.408832 0.797976 0.562365
Si Si4 0.113741 0.717408 0.907749
Si Si5 0.744027 0.214764 0.313781
Si Si6 0.357476 0.788033 0.998487
Si Si7 0.546869 0.281180 0.687879
O O1 0.250000 0.750000 0.500000
O O2 0.292839 0.810335 0.569232
O O3 0.089441 0.714519 0.625166
O O4 0.145808 0.000000 0.568214
O O5 0.302113 0.500000 0.785455
O O6 0.200452 0.781413 0.842329
O O7 0.254590 0.729291 0.738287
O O8 0.421358 0.781152 0.740020
O O9 0.500000 0.712232 0.500000
O O10 0.365997 0.719461 0.623081
O O11 0.452044 0.000000 0.558039
O O12 0.113475 0.500000 0.906758
O O13 0.981803 0.774894 0.942315
O O14 0.152888 0.772857 0.946059
O O15 0.858429 0.270127 0.304640
O O16 0.738910 0.000000 0.317349
O O17 0.365690 0.000000 0.998376
O O18 0.250000 0.750000 0.000000
O O19 0.547168 0.500000 0.686039
#
# Coordination Sequence:
#
# PCOD9182707 Si02
#       7
#     8   8   8   8   8   8   8
#     4   9  17  29  45  65  87 114 150 195 242 291
#     4  10  19  33  53  72  97 136 169 198 245 298
#     4   8  15  28  45  63  86 119 155 190 240 302
#     4   8  17  33  51  73 103 138 170 194 234 304
#     4   9  18  33  50  70  96 126 165 209 247 292
#     4   9  17  33  55  78 104 134 168 203 239 283
#     4   8  17  33  48  65  95 129 159 195 246 302
#
# _framework density 21.509805
#
# number of rings (size 3 to 8) (size 9 to 14) (size 15 to 20)
#    0.000    3.286    0.000    2.571    2.000    1.143 
#    0.000    7.857    0.000    0.857    0.000    0.000 
#    0.000    0.000    0.000    0.000    0.000    0.000 
#
# Total GULP energy -156022.265867 kJ/mol
# GULP energy per Si atom -5572.223781 kJ/mol
# Density = 2.146085 g / cm^3
# Si number density = 21.509805 Si / 1000 Ang^3
#
#
#
# Elastic Constant Matrix: (Units=GPa)
#
#
# Indices 1 2 3 4 5 6 
#
# 1 122.7236 -4.8157 94.4129 -0.0001 -13.1394 -0.0003
# 2 -4.8157 47.7984 9.8968 -0.0003 -4.9441 -0.0006
# 3 94.4129 9.8968 258.4910 0.0000 -17.8098 0.0000
# 4 -0.0001 -0.0003 0.0000 10.8283 0.0000 6.6558
# 5 -13.1394 -4.9441 -17.8098 0.0000 22.0692 0.0000
# 6 -0.0003 -0.0006 0.0000 6.6558 0.0000 15.6167
#
#
#
# Elastic Compliance Matrix: (Units=1/GPa)
#
#
# Indices 1 2 3 4 5 6 
#
# 1 0.011895 0.002501 -0.004144 0.000000 0.004298 0.000000
# 2 0.002501 0.022009 -0.001391 0.000000 0.005297 0.000001
# 3 -0.004144 -0.001391 0.005553 0.000000 0.001702 0.000000
# 4 0.000000 0.000000 0.000000 0.125132 0.000000 -0.053331
# 5 0.004298 0.005297 0.001702 0.000000 0.050431 0.000000
# 6 0.000000 0.000001 0.000000 -0.053331 0.000000 0.086764
#
#
# Mechanical properties :
#
#
# Convention : Reuss Voigt Hill
#
# Bulk Modulus (GPa) = 29.95082 69.77788 49.86435
# Shear Modulus (GPa) = 15.67486 31.67076 23.67281
#
# Velocity S-wave (km/s) = 2.70243 3.84133 3.32107
# Velocity P-wave (km/s) = 4.86744 7.22391 6.15942
#
# Compressibility (1/GPa) = 0.03338807
#
# Stress axis : x y z
#
# Youngs Moduli (GPa) = 84.06990 45.43568 180.08954
#
# Poissons Ratio (x) = -0.11364 0.74633
# Poissons Ratio (y) = -0.21026 0.25054
# Poissons Ratio (z) = 0.34840 0.06321
#
# Static dielectric constant tensor:
#      x y z
#    x 1.760060 0.000000 -0.011600 
#    y 0.000000 1.865420 0.000000 
#    z -0.011600 0.000000 1.810580 
# 
# From -- ./inp_files/374935.got.cif
#   From: 2010.05.17/outbox.cif.g08.bks.cpg/sg12_188_cif.got.tgz:374935.got - 2010.06.03 13:09:07.
