data_PCOD9182717
_publ_section_title
;
Structure prediction by ZEFSAII (Michael W. Deem and Ramdas Pophale) SiO2 
 PCOD9182717
Probable space group: C 2/M
;
_chemical_formula_sum "Si O2"
_cell_formula_units_Z 40
_cell_length_a 28.150963
_cell_length_b 7.966916
_cell_length_c 26.269253
_cell_angle_alpha 90.000000
_cell_angle_beta 158.933834
_cell_angle_gamma 90.000000
_cell_volume 2117.701080
_symmetry_space_group_name_H-M "C 2/M"
_symmetry_group_IT_number 12
_symmetry_cell_setting 'monoclinic'
loop_
_space_group_symop_operation_xyz
x,y,z
-x,y,-z
-x,-y,-z
x,-y,z
1/2+x,1/2+y,z
1/2-x,1/2+y,-z
1/2-x,1/2-y,-z
1/2+x,1/2-y,z
loop_
_atom_site_type_symbol
_atom_site_label
_atom_site_fract_x
_atom_site_fract_y
_atom_site_fract_z
Si Si1 0.249992 0.803843 0.162002
Si Si2 0.961469 0.296102 0.571550
Si Si3 0.538558 0.296101 0.148629
Si Si4 0.249993 0.701609 0.558555
Si Si5 0.250019 0.303115 0.276639
O O1 0.388816 0.731966 0.281161
O O2 0.250017 0.790633 0.223124
O O3 0.249984 0.000000 0.147597
O O4 0.111156 0.731963 0.003514
O O5 0.963621 0.500000 0.573183
O O6 0.877979 0.240220 0.537341
O O7 0.877103 0.242035 0.437990
O O8 0.536409 0.500000 0.145959
O O9 0.622042 0.240223 0.281398
O O10 0.622928 0.242028 0.183808
O O11 0.249992 0.500000 0.561118
O O12 0.250000 0.750000 0.500000
O O13 0.250025 0.500000 0.265873
#
# Coordination Sequence:
#
# PCOD9182717 Si02
#       5
#     8   8   8   8   8
#     4  10  19  33  53  73  98 133 169 204 240 283
#     4   9  19  35  53  73  97 130 171 205 237 288
#     4   9  19  35  53  73  97 130 171 205 237 288
#     4   9  18  34  54  73  94 123 162 205 247 293
#     4  11  21  31  47  74 107 138 165 197 241 290
#
# _framework density 18.888407000000001
#
# number of rings (size 3 to 8) (size 9 to 14) (size 15 to 20)
#    0.000    2.400    0.000    4.200    0.000    9.600 
#    0.000    1.000    0.000    0.000    0.000    0.000 
#    0.000    0.000    0.000    0.000    0.000    0.000 
#
# Total GULP energy -111600.390634 kJ/mol
# GULP energy per Si atom -5580.019532 kJ/mol
# Density = 1.884542 g / cm^3
# Si number density = 18.888407 Si / 1000 Ang^3
#
#
#
# Elastic Constant Matrix: (Units=GPa)
#
#
# Indices 1 2 3 4 5 6 
#
# 1 100.2579 -12.6793 80.5957 0.0000 -4.5381 0.0000
# 2 -12.6793 20.4694 3.7440 0.0000 4.8424 0.0000
# 3 80.5957 3.7440 190.5678 0.0000 31.2282 0.0000
# 4 0.0000 0.0000 0.0000 5.0265 0.0000 -5.1568
# 5 -4.5381 4.8424 31.2282 0.0000 12.6250 0.0000
# 6 0.0000 0.0000 0.0000 -5.1568 0.0000 22.5303
#
#
#
# Elastic Compliance Matrix: (Units=1/GPa)
#
#
# Indices 1 2 3 4 5 6 
#
# 1 0.043069 0.010203 -0.034156 0.000000 0.096053 0.000000
# 2 0.010203 0.057930 -0.004058 0.000000 -0.008515 0.000000
# 3 -0.034156 -0.004058 0.036204 0.000000 -0.100272 0.000000
# 4 0.000000 0.000000 0.000000 0.259999 0.000000 0.059509
# 5 0.096053 -0.008515 -0.100272 0.000000 0.365025 0.000000
# 6 0.000000 0.000000 0.000000 0.059509 0.000000 0.058005
#
#
# Mechanical properties :
#
#
# Convention : Reuss Voigt Hill
#
# Bulk Modulus (GPa) = 12.31800 50.51286 31.41543
# Shear Modulus (GPa) = 5.53517 24.01202 14.77360
#
# Velocity S-wave (km/s) = 1.71372 3.56934 2.79973
# Velocity P-wave (km/s) = 3.23286 6.61723 5.20764
#
# Compressibility (1/GPa) = 0.08118202
#
# Stress axis : x y z
#
# Youngs Moduli (GPa) = 23.21831 17.26225 27.62130
#
# Poissons Ratio (x) = -0.17612 0.94342
# Poissons Ratio (y) = -0.23689 0.11208
# Poissons Ratio (z) = 0.79304 0.07004
#
# Static dielectric constant tensor:
#      x y z
#    x 1.615870 0.000000 0.020690 
#    y 0.000000 1.666560 0.000000 
#    z 0.020690 0.000000 1.686030 
# 
# From -- ./inp_files/93037.got.cif
#   From: 2010.05.17/outbox.cif.g08.bks.cpg/sg12_47_cif.got.tgz:93037.got - 2010.06.03 13:09:07.
