data_PCOD9182287
_publ_section_title
;
Structure prediction by ZEFSAII (Michael W. Deem and Ramdas Pophale) SiO2 
 PCOD9182287
Probable space group: C 2/M
;
_chemical_formula_sum "Si O2"
_cell_formula_units_Z 52
_cell_length_a 11.098436
_cell_length_b 14.459659
_cell_length_c 19.961863
_cell_angle_alpha 90.000000
_cell_angle_beta 42.780388
_cell_angle_gamma 90.000000
_cell_volume 2175.766367
_symmetry_space_group_name_H-M "C 2/M"
_symmetry_group_IT_number 12
_symmetry_cell_setting 'monoclinic'
loop_
_space_group_symop_operation_xyz
x,y,z
-x,y,-z
-x,-y,-z
x,-y,z
1/2+x,1/2+y,z
1/2-x,1/2+y,-z
1/2-x,1/2-y,-z
1/2+x,1/2-y,z
loop_
_atom_site_type_symbol
_atom_site_label
_atom_site_fract_x
_atom_site_fract_y
_atom_site_fract_z
Si Si1 0.003676 0.000000 0.268441
Si Si2 0.402638 0.843462 0.978391
Si Si3 0.803913 0.863056 0.059003
Si Si4 0.717967 0.341550 0.227350
Si Si5 0.174299 0.368731 0.386516
Si Si6 0.815662 0.854637 0.608952
Si Si7 0.567235 0.138883 0.281552
O O1 0.848111 0.079814 0.340130
O O2 0.153521 0.082221 0.201833
O O3 0.267186 0.893112 0.984362
O O4 0.573947 0.815434 0.862814
O O5 0.500000 0.892141 0.000000
O O6 0.315903 0.749468 0.044188
O O7 0.672971 0.890450 0.172029
O O8 0.000000 0.892230 0.000000
O O9 0.688743 0.386241 0.312419
O O10 0.602208 0.249234 0.269432
O O11 0.192146 0.257582 0.384779
O O12 0.144929 0.393858 0.320432
O O13 0.000000 0.393066 0.500000
O O14 0.639098 0.884228 0.642226
O O15 0.000000 0.882012 0.500000
#
# Coordination Sequence:
#
# PCOD9182287 Si02
#       7
#     4   8   8   8   8   8   8
#     4  12  25  42  60  92 139 176 213 260 333 395
#     4  10  19  33  58  95 131 159 206 269 329 384
#     4  10  19  32  62  99 128 157 209 278 329 374
#     4  11  22  38  63  94 131 170 213 271 323 390
#     4  10  24  39  63  93 132 177 217 268 323 392
#     4  10  22  39  66  95 126 168 222 277 324 373
#     4  11  20  39  68  96 127 166 224 273 318 384
#
# _framework density 23.899626000000001
#
# number of rings (size 3 to 8) (size 9 to 14) (size 15 to 20)
#    0.000    1.538    6.154    0.231    2.154    3.077 
#    0.000    1.538    0.000    0.000    0.000    2.154 
#    0.000    0.000    0.000    0.000    0.000    0.000 
#
# Total GULP energy -144842.182175 kJ/mol
# GULP energy per Si atom -5570.853161 kJ/mol
# Density = 2.384523 g / cm^3
# Si number density = 23.899626 Si / 1000 Ang^3
#
#
#
# Elastic Constant Matrix: (Units=GPa)
#
#
# Indices 1 2 3 4 5 6 
#
# 1 99.5096 4.0224 22.0886 -0.0001 -13.8593 0.0001
# 2 4.0224 113.8087 0.2333 -0.0001 -7.4624 0.0001
# 3 22.0886 0.2333 120.3783 -0.0001 -16.4474 0.0001
# 4 -0.0001 -0.0001 -0.0001 -34.5884 0.0001 -2.8916
# 5 -13.8593 -7.4624 -16.4474 0.0001 53.1748 -0.0001
# 6 0.0001 0.0001 0.0001 -2.8916 -0.0001 -23.5651
#
#
#
# Elastic Compliance Matrix: (Units=1/GPa)
#
#
# Indices 1 2 3 4 5 6 
#
# 1 0.010741 -0.000228 -0.001663 0.000000 0.002253 0.000000
# 2 -0.000228 0.008876 0.000195 0.000000 0.001246 0.000000
# 3 -0.001663 0.000195 0.008934 0.000000 0.002357 0.000000
# 4 0.000000 0.000000 0.000000 -0.029211 0.000000 0.003584
# 5 0.002253 0.001246 0.002357 0.000000 0.020297 0.000000
# 6 0.000000 0.000000 0.000000 0.003584 0.000000 -0.042876
#
#
# Mechanical properties :
#
#
# Convention : Reuss Voigt Hill
#
# Bulk Modulus (GPa) = 39.74694 42.93169 41.33931
# Shear Modulus (GPa) = -436.32716 19.49443 -208.41636
#
# Velocity S-wave (km/s) = -13.52638 2.85911 -9.34849
# Velocity P-wave (km/s) = 15.07593 5.37603 9.95947
#
# Compressibility (1/GPa) = 0.02515917
#
# Stress axis : x y z
#
# Youngs Moduli (GPa) = 93.09757 112.66241 111.93270
#
# Poissons Ratio (x) = 0.02574 0.18611
# Poissons Ratio (y) = 0.02127 -0.02183
# Poissons Ratio (z) = 0.15479 -0.02197
#
# Static dielectric constant tensor:
#      x y z
#    x 1.939350 0.000000 0.045360 
#    y 0.000000 2.362390 0.000000 
#    z 0.045360 0.000000 1.905360 
# 
# From -- ./inp_files/306124.got.cif
#   From: 2010.05.17/outbox.cif.g08.bks.cpg/sg12_154_cif.got.tgz:306124.got - 2010.06.03 13:09:07.
