data_PCOD9182797
_publ_section_title
;
Structure prediction by ZEFSAII (Michael W. Deem and Ramdas Pophale) SiO2 
 PCOD9182797
Probable space group: C 2/M
;
_chemical_formula_sum "Si O2"
_cell_formula_units_Z 48
_cell_length_a 30.870585
_cell_length_b 8.547984
_cell_length_c 23.998998
_cell_angle_alpha 90.000000
_cell_angle_beta 26.458968
_cell_angle_gamma 90.000000
_cell_volume 2821.660400
_symmetry_space_group_name_H-M "C 2/M"
_symmetry_group_IT_number 12
_symmetry_cell_setting 'monoclinic'
loop_
_space_group_symop_operation_xyz
x,y,z
-x,y,-z
-x,-y,-z
x,-y,z
1/2+x,1/2+y,z
1/2-x,1/2+y,-z
1/2-x,1/2-y,-z
1/2+x,1/2-y,z
loop_
_atom_site_type_symbol
_atom_site_label
_atom_site_fract_x
_atom_site_fract_y
_atom_site_fract_z
Si Si1 0.356502 0.313260 0.394651
Si Si2 0.196775 0.810226 0.855007
Si Si3 0.006996 0.191389 0.127344
Si Si4 0.368546 0.685189 0.190568
Si Si5 0.851481 0.683851 0.520652
Si Si6 0.099621 0.812649 0.414552
O O1 0.351227 0.500000 0.396470
O O2 0.250000 0.250000 0.500000
O O3 0.441390 0.257518 0.254868
O O4 0.381253 0.265192 0.429187
O O5 0.148733 0.755041 0.851715
O O6 0.305640 0.745767 0.728295
O O7 0.203344 0.000000 0.845692
O O8 0.120223 0.764994 0.991132
O O9 0.951255 0.247574 0.135752
O O10 0.004660 0.000000 0.129751
O O11 0.388624 0.500000 0.160957
O O12 0.265397 0.701678 0.340044
O O13 0.872798 0.500000 0.493212
O O14 0.892823 0.750435 0.530845
O O15 0.000000 0.760845 0.500000
O O16 0.101588 0.000000 0.413950
#
# Coordination Sequence:
#
# PCOD9182797 Si02
#       6
#     8   8   8   8   8   8
#     4  11  20  31  48  72 108 147 181 210 242 293
#     4   9  17  29  50  75  99 130 170 211 247 296
#     4   9  16  27  45  71 103 140 173 201 243 295
#     4   8  13  24  44  69  97 129 165 201 240 290
#     4  10  19  33  53  76 101 133 176 217 251 294
#     4  10  21  37  56  77 102 129 158 206 271 321
#
# _framework density 17.011258999999999
#
# number of rings (size 3 to 8) (size 9 to 14) (size 15 to 20)
#    0.000    2.500    1.667    3.000    0.000    3.333 
#    0.000    1.667    0.000    3.000    0.000    0.000 
#    0.000    0.000    0.000    0.000    0.000    0.000 
#
# Total GULP energy -133710.819060 kJ/mol
# GULP energy per Si atom -5571.284127 kJ/mol
# Density = 1.697254 g / cm^3
# Si number density = 17.011259 Si / 1000 Ang^3
#
#
#
# Elastic Constant Matrix: (Units=GPa)
#
#
# Indices 1 2 3 4 5 6 
#
# 1 80.5162 21.1660 64.7762 0.0005 -19.0672 -0.0006
# 2 21.1660 26.4248 34.4677 -0.0010 -4.2532 0.0007
# 3 64.7762 34.4677 155.0186 -0.0024 -3.1069 0.0005
# 4 0.0005 -0.0010 -0.0024 17.4647 -0.0001 0.1634
# 5 -19.0672 -4.2532 -3.1069 -0.0001 14.9493 0.0007
# 6 -0.0006 0.0007 0.0005 0.1634 0.0007 21.1146
#
#
#
# Elastic Compliance Matrix: (Units=1/GPa)
#
#
# Indices 1 2 3 4 5 6 
#
# 1 0.031360 -0.004398 -0.011397 -0.000002 0.036378 0.000000
# 2 -0.004398 0.056456 -0.010550 0.000002 0.008260 -0.000002
# 3 -0.011397 -0.010550 0.013263 0.000001 -0.014782 0.000000
# 4 -0.000002 0.000002 0.000001 0.057263 -0.000002 -0.000443
# 5 0.036378 0.008260 -0.014782 -0.000002 0.112569 -0.000003
# 6 0.000000 -0.000002 0.000000 -0.000443 -0.000003 0.047364
#
#
# Mechanical properties :
#
#
# Convention : Reuss Voigt Hill
#
# Bulk Modulus (GPa) = 20.66560 55.86439 38.26500
# Shear Modulus (GPa) = 12.91681 20.14237 16.52959
#
# Velocity S-wave (km/s) = 2.75855 3.44475 3.12057
# Velocity P-wave (km/s) = 4.72448 6.98088 5.96043
#
# Compressibility (1/GPa) = 0.04838958
#
# Stress axis : x y z
#
# Youngs Moduli (GPa) = 31.88796 17.71299 75.39966
#
# Poissons Ratio (x) = 0.07789 0.85934
# Poissons Ratio (y) = 0.14023 0.79543
# Poissons Ratio (z) = 0.36343 0.18686
#
# Static dielectric constant tensor:
#      x y z
#    x 1.564860 0.000000 0.008140 
#    y 0.000000 1.585830 0.000000 
#    z 0.008140 0.000000 1.607090 
# 
# From -- ./inp_files/329009.got.cif
#   From: 2010.05.17/outbox.cif.g08.bks.cpg/sg12_165_cif.got.tgz:329009.got - 2010.06.03 13:09:07.
