data_PCOD9182974
_publ_section_title
;
Structure prediction by ZEFSAII (Michael W. Deem and Ramdas Pophale) SiO2 
 PCOD9182974
Probable space group: C 2/M
;
_chemical_formula_sum "Si O2"
_cell_formula_units_Z 56
_cell_length_a 25.672711
_cell_length_b 8.665491
_cell_length_c 26.200810
_cell_angle_alpha 90.000000
_cell_angle_beta 34.524149
_cell_angle_gamma 90.000000
_cell_volume 3303.496613
_symmetry_space_group_name_H-M "C 2/M"
_symmetry_group_IT_number 12
_symmetry_cell_setting 'monoclinic'
loop_
_space_group_symop_operation_xyz
x,y,z
-x,y,-z
-x,-y,-z
x,-y,z
1/2+x,1/2+y,z
1/2-x,1/2+y,-z
1/2-x,1/2-y,-z
1/2+x,1/2-y,z
loop_
_atom_site_type_symbol
_atom_site_label
_atom_site_fract_x
_atom_site_fract_y
_atom_site_fract_z
Si Si1 0.833139 0.183005 0.718624
Si Si2 0.135344 0.313860 0.718366
Si Si3 0.484964 0.815381 0.089956
Si Si4 0.026590 0.686207 0.594228
Si Si5 0.851593 0.314015 0.408015
Si Si6 0.676315 0.815460 0.387486
Si Si7 0.640378 0.316688 0.899125
O O1 0.833709 0.235954 0.659076
O O2 0.744904 0.261827 0.815792
O O3 0.928213 0.237055 0.666672
O O4 0.823036 0.000000 0.729375
O O5 0.147137 0.500000 0.711250
O O6 0.053810 0.273720 0.823206
O O7 0.118667 0.269959 0.673177
O O8 0.229031 0.237254 0.662662
O O9 0.408857 0.761425 0.110128
O O10 0.494623 0.000000 0.078639
O O11 0.579398 0.736759 0.996350
O O12 0.015822 0.500000 0.603839
O O13 0.079367 0.735555 0.603037
O O14 0.092590 0.723395 0.493002
O O15 0.846831 0.500000 0.414154
O O16 0.750000 0.250000 0.500000
O O17 0.677535 0.000000 0.379243
O O18 0.634962 0.500000 0.897687
#
# Coordination Sequence:
#
# PCOD9182974 Si02
#       7
#     8   8   8   8   8   8   8
#     4  12  24  37  54  78 109 146 183 226 274 327
#     4  10  20  33  55  82 113 145 178 220 269 318
#     4  10  19  33  53  81 112 142 176 220 270 322
#     4  10  22  38  54  77 110 148 186 225 267 317
#     4  10  20  36  56  80 109 145 185 225 267 312
#     4  11  21  34  54  80 111 146 181 220 268 324
#     4  11  21  34  54  79 108 142 178 221 272 328
#
# _framework density 16.951734999999999
#
# number of rings (size 3 to 8) (size 9 to 14) (size 15 to 20)
#    0.000    1.429    2.857    4.714    0.000    4.000 
#    0.000    0.000    0.000    0.857    0.000    0.000 
#    0.000    0.000    0.000    0.000    0.000    0.000 
#
# Total GULP energy -156428.291371 kJ/mol
# GULP energy per Si atom -5586.724692 kJ/mol
# Density = 1.691315 g / cm^3
# Si number density = 16.951735 Si / 1000 Ang^3
#
#
#
# Elastic Constant Matrix: (Units=GPa)
#
#
# Indices 1 2 3 4 5 6 
#
# 1 87.4907 23.2999 57.5914 -0.0005 -11.2429 -0.0003
# 2 23.2999 35.5164 31.1009 -0.0005 -0.3181 -0.0008
# 3 57.5914 31.1009 138.2990 -0.0006 -0.1425 0.0000
# 4 -0.0005 -0.0005 -0.0006 26.6671 0.0007 -5.5508
# 5 -11.2429 -0.3181 -0.1425 0.0007 22.7081 0.0001
# 6 -0.0003 -0.0008 0.0000 -5.5508 0.0001 22.3920
#
#
#
# Elastic Compliance Matrix: (Units=1/GPa)
#
#
# Indices 1 2 3 4 5 6 
#
# 1 0.018400 -0.006586 -0.006172 0.000000 0.008979 0.000000
# 2 -0.006586 0.037422 -0.005676 0.000001 -0.002772 0.000001
# 3 -0.006172 -0.005676 0.011074 0.000000 -0.003066 0.000000
# 4 0.000000 0.000001 0.000000 0.039540 -0.000001 0.009801
# 5 0.008979 -0.002772 -0.003066 -0.000001 0.048425 0.000000
# 6 0.000000 0.000001 0.000000 0.009801 0.000000 0.047089
#
#
# Mechanical properties :
#
#
# Convention : Reuss Voigt Hill
#
# Bulk Modulus (GPa) = 33.30151 53.92119 43.61135
# Shear Modulus (GPa) = 20.09432 24.30771 22.20101
#
# Velocity S-wave (km/s) = 3.44668 3.79084 3.62285
# Velocity P-wave (km/s) = 5.96045 7.14411 6.57896
#
# Compressibility (1/GPa) = 0.03002867
#
# Stress axis : x y z
#
# Youngs Moduli (GPa) = 54.34664 26.72229 90.30052
#
# Poissons Ratio (x) = 0.17600 0.55734
# Poissons Ratio (y) = 0.35793 0.51252
# Poissons Ratio (z) = 0.33543 0.15167
#
# Static dielectric constant tensor:
#      x y z
#    x 1.547380 0.000000 0.014750 
#    y 0.000000 1.571510 0.000000 
#    z 0.014750 0.000000 1.574180 
# 
# From -- ./inp_files/348459.got.cif
#   From: 2010.05.17/outbox.cif.g08.bks.cpg/sg12_175_cif.got.tgz:348459.got - 2010.06.03 13:09:07.
