data_PCOD9182315
_publ_section_title
;
Structure prediction by ZEFSAII (Michael W. Deem and Ramdas Pophale) SiO2 
 PCOD9182315
Probable space group: C 2/M
;
_chemical_formula_sum "Si O2"
_cell_formula_units_Z 56
_cell_length_a 30.587172
_cell_length_b 24.049546
_cell_length_c 12.597461
_cell_angle_alpha 90.000000
_cell_angle_beta 159.581681
_cell_angle_gamma 90.000000
_cell_volume 3232.920136
_symmetry_space_group_name_H-M "C 2/M"
_symmetry_group_IT_number 12
_symmetry_cell_setting 'monoclinic'
loop_
_space_group_symop_operation_xyz
x,y,z
-x,y,-z
-x,-y,-z
x,-y,z
1/2+x,1/2+y,z
1/2-x,1/2+y,-z
1/2-x,1/2-y,-z
1/2+x,1/2-y,z
loop_
_atom_site_type_symbol
_atom_site_label
_atom_site_fract_x
_atom_site_fract_y
_atom_site_fract_z
Si Si1 0.010366 0.435260 0.651226
Si Si2 0.042633 0.257653 0.771133
Si Si3 0.249827 0.193889 0.377572
Si Si4 0.229324 0.352493 0.146327
Si Si5 0.340606 0.846653 0.375149
Si Si6 0.614649 0.662750 0.703036
Si Si7 0.859692 0.187475 0.652921
O O1 0.010331 0.500000 0.678595
O O2 0.899543 0.401563 0.457087
O O3 0.000000 0.429791 0.500000
O O4 0.139146 0.403455 0.968944
O O5 0.947574 0.299798 0.611193
O O6 0.956408 0.216700 0.506220
O O7 0.124525 0.222295 0.041336
O O8 0.138585 0.298063 0.925237
O O9 0.298257 0.150841 0.400517
O O10 0.223523 0.171310 0.434479
O O11 0.343241 0.246016 0.602958
O O12 0.312350 0.362658 0.231191
O O13 0.314174 0.338518 0.440041
O O14 0.221531 0.827320 0.034103
O O15 0.500000 0.630594 0.500000
O O16 0.000000 0.172733 0.000000
#
# Coordination Sequence:
#
# PCOD9182315 Si02
#       7
#     8   8   8   8   8   8   8
#     4  10  21  41  64  80 102 137 183 240 289 338
#     4  10  20  30  48  77 113 152 180 212 258 320
#     4  10  19  33  48  76 113 152 187 217 252 311
#     4  10  22  36  52  81 107 145 190 219 269 326
#     4  11  21  32  52  82 109 144 184 227 273 322
#     4  12  22  28  47  79 119 145 172 218 269 334
#     4  10  20  33  51  74 114 158 186 210 249 323
#
# _framework density 17.3218
#
# number of rings (size 3 to 8) (size 9 to 14) (size 15 to 20)
#    0.000    1.571    2.857    3.857    2.000    1.143 
#    0.000    0.000    0.000    3.857    0.000    0.000 
#    0.000    0.000    0.000    0.000    0.000    0.000 
#
# Total GULP energy -156237.583715 kJ/mol
# GULP energy per Si atom -5579.913704 kJ/mol
# Density = 1.728238 g / cm^3
# Si number density = 17.321800 Si / 1000 Ang^3
#
#
#
# Elastic Constant Matrix: (Units=GPa)
#
#
# Indices 1 2 3 4 5 6 
#
# 1 120.1777 19.6840 25.9162 0.0000 2.9808 0.0000
# 2 19.6840 55.4510 21.4728 0.0000 5.9381 0.0000
# 3 25.9162 21.4728 81.1451 0.0000 12.0867 0.0000
# 4 0.0000 0.0000 0.0000 6.2052 0.0000 1.6556
# 5 2.9808 5.9381 12.0867 0.0000 23.2859 0.0000
# 6 0.0000 0.0000 0.0000 1.6556 0.0000 12.6557
#
#
#
# Elastic Compliance Matrix: (Units=1/GPa)
#
#
# Indices 1 2 3 4 5 6 
#
# 1 0.009219 -0.002413 -0.002408 0.000000 0.000685 0.000000
# 2 -0.002413 0.020867 -0.004340 0.000000 -0.002760 0.000000
# 3 -0.002408 -0.004340 0.015206 0.000000 -0.006478 0.000000
# 4 0.000000 0.000000 0.000000 0.166984 0.000000 -0.021845
# 5 0.000685 -0.002760 -0.006478 0.000000 0.046923 0.000000
# 6 0.000000 0.000000 0.000000 -0.021845 0.000000 0.081873
#
#
# Mechanical properties :
#
#
# Convention : Reuss Voigt Hill
#
# Bulk Modulus (GPa) = 37.07940 43.43553 40.25746
# Shear Modulus (GPa) = 13.57282 21.07607 17.32444
#
# Velocity S-wave (km/s) = 2.80227 3.49196 3.16595
# Velocity P-wave (km/s) = 5.65004 6.43339 6.05439
#
# Compressibility (1/GPa) = 0.02696915
#
# Stress axis : x y z
#
# Youngs Moduli (GPa) = 108.47727 47.92313 65.76397
#
# Poissons Ratio (x) = 0.11566 0.15833
# Poissons Ratio (y) = 0.26180 0.28541
# Poissons Ratio (z) = 0.26117 0.20798
#
# Static dielectric constant tensor:
#      x y z
#    x 1.645160 0.000000 0.020180 
#    y 0.000000 1.554210 0.000000 
#    z 0.020180 0.000000 1.607180 
# 
# From -- ./inp_files/190402.got.cif
#   From: 2010.05.17/outbox.cif.g08.bks.cpg/sg12_96_cif.got.tgz:190402.got - 2010.06.03 13:09:07.
