data_PCOD9182527
_publ_section_title
;
Structure prediction by ZEFSAII (Michael W. Deem and Ramdas Pophale) SiO2 
 PCOD9182527
Probable space group: C 2/M
;
_chemical_formula_sum "Si O2"
_cell_formula_units_Z 56
_cell_length_a 25.015759
_cell_length_b 19.601441
_cell_length_c 22.429304
_cell_angle_alpha 90.000000
_cell_angle_beta 16.515198
_cell_angle_gamma 90.000000
_cell_volume 3126.424903
_symmetry_space_group_name_H-M "C 2/M"
_symmetry_group_IT_number 12
_symmetry_cell_setting 'monoclinic'
loop_
_space_group_symop_operation_xyz
x,y,z
-x,y,-z
-x,-y,-z
x,-y,z
1/2+x,1/2+y,z
1/2-x,1/2+y,-z
1/2-x,1/2-y,-z
1/2+x,1/2-y,z
loop_
_atom_site_type_symbol
_atom_site_label
_atom_site_fract_x
_atom_site_fract_y
_atom_site_fract_z
Si Si1 0.130795 0.758395 0.306351
Si Si2 0.047070 0.849585 0.015011
Si Si3 0.949026 0.076176 0.867632
Si Si4 0.315538 0.823080 0.005497
Si Si5 0.960837 0.421352 0.757621
Si Si6 0.471014 0.298293 0.286419
Si Si7 0.335544 0.799409 0.525294
O O1 0.255127 0.814875 0.138479
O O2 0.000000 0.783575 0.500000
O O3 0.992322 0.725750 0.404699
O O4 0.272175 0.699750 0.178244
O O5 0.071290 0.904557 0.041437
O O6 0.863723 0.806675 0.230493
O O7 0.000000 0.877826 0.000000
O O8 0.074817 0.133811 0.700883
O O9 0.021477 0.000000 0.782301
O O10 0.742526 0.080005 0.058291
O O11 0.124500 0.821595 0.171243
O O12 0.430709 0.886155 0.854747
O O13 0.421423 0.753715 0.872574
O O14 0.020357 0.500000 0.697111
O O15 0.090759 0.371147 0.579908
O O16 0.327128 0.254411 0.479532
#
# Coordination Sequence:
#
# PCOD9182527 Si02
#       7
#     8   8   8   8   8   8   8
#     4  11  19  35  54  74 103 137 173 215 256 293
#     4  12  23  34  51  76 102 138 182 213 243 299
#     4  10  19  33  52  73 106 141 169 205 255 305
#     4   8  14  28  53  77  98 129 167 212 257 303
#     4   9  17  33  56  79 105 135 165 208 266 314
#     4   8  14  30  51  76  99 126 166 214 263 303
#     4  10  20  33  56  78 101 131 172 216 259 303
#
# _framework density 17.911833000000001
#
# number of rings (size 3 to 8) (size 9 to 14) (size 15 to 20)
#    0.000    2.286    4.286    1.714    0.000    1.429 
#    0.000    0.000    0.000    3.000    0.000    0.000 
#    0.000    1.143    0.000    0.000    0.000    0.000 
#
# Total GULP energy -156163.202739 kJ/mol
# GULP energy per Si atom -5577.257241 kJ/mol
# Density = 1.787106 g / cm^3
# Si number density = 17.911833 Si / 1000 Ang^3
#
#
#
# Elastic Constant Matrix: (Units=GPa)
#
#
# Indices 1 2 3 4 5 6 
#
# 1 84.6951 47.0426 16.3808 -0.0141 14.4542 0.0016
# 2 47.0426 82.5605 8.8832 -0.0028 18.0775 0.0036
# 3 16.3808 8.8832 51.5726 -0.0253 10.7792 0.0096
# 4 -0.0141 -0.0028 -0.0253 9.4863 0.0067 5.9641
# 5 14.4542 18.0775 10.7792 0.0067 38.8804 -0.0012
# 6 0.0016 0.0036 0.0096 5.9641 -0.0012 13.7280
#
#
#
# Elastic Compliance Matrix: (Units=1/GPa)
#
#
# Indices 1 2 3 4 5 6 
#
# 1 0.018110 -0.009647 -0.003844 0.000018 -0.001182 -0.000005
# 2 -0.009647 0.018680 0.000968 0.000001 -0.005368 -0.000005
# 3 -0.003844 0.000968 0.021485 0.000089 -0.004978 -0.000054
# 4 0.000018 0.000001 0.000089 0.145029 -0.000059 -0.063007
# 5 -0.001182 -0.005368 -0.004978 -0.000059 0.030035 0.000033
# 6 -0.000005 -0.000005 -0.000054 -0.063007 0.000033 0.100217
#
#
# Mechanical properties :
#
#
# Convention : Reuss Voigt Hill
#
# Bulk Modulus (GPa) = 30.09253 40.38237 35.23745
# Shear Modulus (GPa) = 13.52531 22.18704 17.85617
#
# Velocity S-wave (km/s) = 2.75090 3.52331 3.16079
# Velocity P-wave (km/s) = 5.18910 6.25665 5.74771
#
# Compressibility (1/GPa) = 0.03323084
#
# Stress axis : x y z
#
# Youngs Moduli (GPa) = 55.21710 53.53277 46.54485
#
# Poissons Ratio (x) = 0.51642 0.17890
# Poissons Ratio (y) = 0.53267 -0.04507
# Poissons Ratio (z) = 0.21224 -0.05184
#
# Static dielectric constant tensor:
#      x y z
#    x 1.654810 -0.000010 -0.020540 
#    y -0.000010 1.607420 0.000010 
#    z -0.020540 0.000010 1.640960 
# 
# From -- ./inp_files/325988.got.cif
#   From: 2010.05.17/outbox.cif.g08.bks.cpg/sg12_163_cif.got.tgz:325988.got - 2010.06.03 13:09:07.
