data_PCOD9182094
_publ_section_title
;
Structure prediction by ZEFSAII (Michael W. Deem and Ramdas Pophale) SiO2 
 PCOD9182094
Probable space group: C 2/M
;
_chemical_formula_sum "Si O2"
_cell_formula_units_Z 48
_cell_length_a 28.803145
_cell_length_b 7.400958
_cell_length_c 15.227780
_cell_angle_alpha 90.000000
_cell_angle_beta 133.104535
_cell_angle_gamma 90.000000
_cell_volume 2370.018118
_symmetry_space_group_name_H-M "C 2/M"
_symmetry_group_IT_number 12
_symmetry_cell_setting 'monoclinic'
loop_
_space_group_symop_operation_xyz
x,y,z
-x,y,-z
-x,-y,-z
x,-y,z
1/2+x,1/2+y,z
1/2-x,1/2+y,-z
1/2-x,1/2-y,-z
1/2+x,1/2-y,z
loop_
_atom_site_type_symbol
_atom_site_label
_atom_site_fract_x
_atom_site_fract_y
_atom_site_fract_z
Si Si1 0.064614 0.213453 0.620966
Si Si2 0.281030 0.715009 0.946222
Si Si3 0.980463 0.500000 0.112750
Si Si4 0.722893 0.284310 0.367403
Si Si5 0.810284 0.283007 0.322394
Si Si6 0.577523 0.281034 0.839015
Si Si7 0.387675 0.000000 0.822527
O O1 0.120132 0.235286 0.621789
O O2 0.077645 0.277202 0.736812
O O3 0.000000 0.292788 0.500000
O O4 0.056007 0.000000 0.621472
O O5 0.283089 0.500000 0.937896
O O6 0.237191 0.789714 0.813430
O O7 0.250000 0.750000 0.000000
O O8 0.353141 0.775310 0.036793
O O9 0.971549 0.674165 0.164016
O O10 0.050752 0.500000 0.161825
O O11 0.924536 0.500000 0.965012
O O12 0.710653 0.500000 0.341268
O O13 0.750000 0.250000 0.500000
O O14 0.780340 0.228604 0.375989
O O15 0.659947 0.169728 0.259022
O O16 0.808935 0.500000 0.320050
O O17 0.570582 0.500000 0.835635
#
# Coordination Sequence:
#
# PCOD9182094 Si02
#       7
#     8   8   4   8   8   8   4
#     4  10  22  38  56  87 133 177 220 259 320 407
#     4  10  19  32  55  87 123 162 207 258 315 381
#     4  11  26  44  71  98 140 176 231 280 346 423
#     4  11  24  46  72 100 134 171 230 292 342 401
#     4  10  22  37  59  92 122 162 212 268 329 386
#     4  10  22  41  62  94 136 179 220 269 334 404
#     4  11  26  48  70 106 129 177 230 290 352 402
#
# _framework density 20.25301
#
# number of rings (size 3 to 8) (size 9 to 14) (size 15 to 20)
#    0.000    1.667    2.500    1.000    3.500    4.333 
#    0.000    3.333    0.000    0.000    0.000    0.000 
#    0.000    0.000    0.000    0.000    0.000    0.000 
#
# Total GULP energy -133908.359747 kJ/mol
# GULP energy per Si atom -5579.514989 kJ/mol
# Density = 2.020691 g / cm^3
# Si number density = 20.253010 Si / 1000 Ang^3
#
#
#
# Elastic Constant Matrix: (Units=GPa)
#
#
# Indices 1 2 3 4 5 6 
#
# 1 171.8250 26.1351 76.9993 0.0000 -2.1597 0.0000
# 2 26.1351 102.0216 21.2893 0.0000 7.2907 0.0000
# 3 76.9993 21.2893 117.6140 0.0000 6.5979 0.0000
# 4 0.0000 0.0000 0.0000 3.8918 0.0000 1.3612
# 5 -2.1597 7.2907 6.5979 0.0000 36.3817 0.0000
# 6 0.0000 0.0000 0.0000 1.3612 0.0000 28.8293
#
#
#
# Elastic Compliance Matrix: (Units=1/GPa)
#
#
# Indices 1 2 3 4 5 6 
#
# 1 0.008444 -0.001156 -0.005415 0.000000 0.001715 0.000000
# 2 -0.001156 0.010453 -0.001025 0.000000 -0.001978 0.000000
# 3 -0.005415 -0.001025 0.012365 0.000000 -0.002359 0.000000
# 4 0.000000 0.000000 0.000000 0.261268 0.000000 -0.012336
# 5 0.001715 -0.001978 -0.002359 0.000000 0.028412 0.000000
# 6 0.000000 0.000000 0.000000 -0.012336 0.000000 0.035269
#
#
# Mechanical properties :
#
#
# Convention : Reuss Voigt Hill
#
# Bulk Modulus (GPa) = 62.22156 71.14536 66.68346
# Shear Modulus (GPa) = 13.27109 31.62301 22.44705
#
# Velocity S-wave (km/s) = 2.56259 3.95574 3.33277
# Velocity P-wave (km/s) = 6.28845 7.48788 6.91423
#
# Compressibility (1/GPa) = 0.01607160
#
# Stress axis : x y z
#
# Youngs Moduli (GPa) = 118.42997 95.66623 80.87191
#
# Poissons Ratio (x) = 0.11056 0.43792
# Poissons Ratio (y) = 0.13686 0.08286
# Poissons Ratio (z) = 0.64130 0.09802
#
# Static dielectric constant tensor:
#      x y z
#    x 1.699140 0.000000 -0.012010 
#    y 0.000000 1.752790 0.000000 
#    z -0.012010 0.000000 1.734150 
# 
# From -- ./inp_files/249392.got.cif
#   From: 2010.05.17/outbox.cif.g08.bks.cpg/sg12_125_cif.got.tgz:249392.got - 2010.06.03 13:09:07.
