data_PCOD9182173
_publ_section_title
;
Structure prediction by ZEFSAII (Michael W. Deem and Ramdas Pophale) SiO2 
 PCOD9182173
Probable space group: C 2/M
;
_chemical_formula_sum "Si O2"
_cell_formula_units_Z 40
_cell_length_a 10.840638
_cell_length_b 18.168829
_cell_length_c 16.281005
_cell_angle_alpha 90.000000
_cell_angle_beta 40.614238
_cell_angle_gamma 90.000000
_cell_volume 2087.465042
_symmetry_space_group_name_H-M "C 2/M"
_symmetry_group_IT_number 12
_symmetry_cell_setting 'monoclinic'
loop_
_space_group_symop_operation_xyz
x,y,z
-x,y,-z
-x,-y,-z
x,-y,z
1/2+x,1/2+y,z
1/2-x,1/2+y,-z
1/2-x,1/2-y,-z
1/2+x,1/2-y,z
loop_
_atom_site_type_symbol
_atom_site_label
_atom_site_fract_x
_atom_site_fract_y
_atom_site_fract_z
Si Si1 0.710871 0.411815 0.362301
Si Si2 0.381003 0.284225 0.140386
Si Si3 0.627748 0.587381 0.047741
Si Si4 0.045766 0.685807 0.205243
Si Si5 0.794845 0.587293 0.134930
O O1 0.500000 0.397163 0.500000
O O2 0.744402 0.500000 0.352626
O O3 0.732830 0.387832 0.255761
O O4 0.873641 0.364601 0.323560
O O5 0.435715 0.370594 0.121890
O O6 0.165146 0.277367 0.218787
O O7 0.462646 0.242566 0.179098
O O8 0.500000 0.260748 0.000000
O O9 0.633766 0.500000 0.027055
O O10 0.653240 0.599107 0.132162
O O11 0.802852 0.631438 0.917213
O O12 0.813608 0.500000 0.135335
O O13 0.000000 0.612192 0.000000
#
# Coordination Sequence:
#
# PCOD9182173 Si02
#       5
#     8   8   8   8   8
#     4  10  21  36  58  87 116 148 191 238 284 336
#     4  10  23  35  53  85 119 154 185 236 288 335
#     4  10  19  32  56  87 114 145 189 238 288 335
#     4  11  22  36  56  81 116 156 189 233 284 341
#     4   9  16  28  53  85 111 144 181 230 284 329
#
# _framework density 19.161997
#
# number of rings (size 3 to 8) (size 9 to 14) (size 15 to 20)
#    0.000    2.000    2.000    3.000    5.600    4.400 
#    0.000    1.000    0.000    0.000    0.000    5.600 
#    0.000    0.000    0.000    0.000    0.000    0.000 
#
# Total GULP energy -111478.812486 kJ/mol
# GULP energy per Si atom -5573.940624 kJ/mol
# Density = 1.911838 g / cm^3
# Si number density = 19.161997 Si / 1000 Ang^3
#
#
#
# Elastic Constant Matrix: (Units=GPa)
#
#
# Indices 1 2 3 4 5 6 
#
# 1 140.2949 58.7440 43.0768 0.0013 -18.4899 -0.0008
# 2 58.7440 115.4493 13.8591 0.0053 -10.4141 -0.0027
# 3 43.0768 13.8591 74.2467 0.0107 -13.1220 -0.0046
# 4 0.0013 0.0053 0.0107 -6.2766 -0.0047 4.9794
# 5 -18.4899 -10.4141 -13.1220 -0.0047 22.4149 0.0021
# 6 -0.0008 -0.0027 -0.0046 4.9794 0.0021 31.4588
#
#
#
# Elastic Compliance Matrix: (Units=1/GPa)
#
#
# Indices 1 2 3 4 5 6 
#
# 1 0.011136 -0.004709 -0.004847 -0.000012 0.004161 0.000001
# 2 -0.004709 0.011107 0.000987 0.000008 0.001853 0.000000
# 3 -0.004847 0.000987 0.017256 0.000023 0.006562 -0.000002
# 4 -0.000012 0.000008 0.000023 -0.141547 -0.000024 0.022405
# 5 0.004161 0.001853 0.006562 -0.000024 0.052748 0.000002
# 6 0.000001 0.000000 -0.000002 0.022405 0.000002 0.028241
#
#
# Mechanical properties :
#
#
# Convention : Reuss Voigt Hill
#
# Bulk Modulus (GPa) = 44.72174 62.37229 53.54701
# Shear Modulus (GPa) = 1414.89289 23.80683 719.34986
#
# Velocity S-wave (km/s) = 27.20272 3.52859 19.39638
# Velocity P-wave (km/s) = 31.78113 7.01583 23.01371
#
# Compressibility (1/GPa) = 0.02236049
#
# Stress axis : x y z
#
# Youngs Moduli (GPa) = 89.79701 90.03522 57.95010
#
# Poissons Ratio (x) = 0.42400 0.28086
# Poissons Ratio (y) = 0.42288 -0.05717
# Poissons Ratio (z) = 0.43521 -0.08883
#
# Static dielectric constant tensor:
#      x y z
#    x 1.734440 0.000000 -0.004550 
#    y 0.000000 1.739730 0.000000 
#    z -0.004550 0.000000 1.615760 
# 
# From -- ./inp_files/263765.got.cif
#   From: 2010.05.17/outbox.cif.g08.bks.cpg/sg12_132_cif.got.tgz:263765.got - 2010.06.03 13:09:07.
