data_PCOD9182834
_publ_section_title
;
Structure prediction by ZEFSAII (Michael W. Deem and Ramdas Pophale) SiO2 
 PCOD9182834
Probable space group: C 2/M
;
_chemical_formula_sum "Si O2"
_cell_formula_units_Z 48
_cell_length_a 14.648255
_cell_length_b 8.128853
_cell_length_c 21.946838
_cell_angle_alpha 90.000000
_cell_angle_beta 88.555968
_cell_angle_gamma 90.000000
_cell_volume 2612.457137
_symmetry_space_group_name_H-M "C 2/M"
_symmetry_group_IT_number 12
_symmetry_cell_setting 'monoclinic'
loop_
_space_group_symop_operation_xyz
x,y,z
-x,y,-z
-x,-y,-z
x,-y,z
1/2+x,1/2+y,z
1/2-x,1/2+y,-z
1/2-x,1/2-y,-z
1/2+x,1/2-y,z
loop_
_atom_site_type_symbol
_atom_site_label
_atom_site_fract_x
_atom_site_fract_y
_atom_site_fract_z
Si Si1 0.599230 0.701229 0.667198
Si Si2 0.891330 0.803801 0.667156
Si Si3 0.758990 0.197377 0.235108
Si Si4 0.247161 0.301131 0.097318
Si Si5 0.751250 0.696646 0.569661
Si Si6 0.603777 0.301402 0.003206
O O1 0.597976 0.500000 0.667314
O O2 0.495193 0.758526 0.666228
O O3 0.654323 0.755577 0.726554
O O4 0.661368 0.752598 0.608691
O O5 0.830289 0.736875 0.723607
O O6 0.838201 0.760064 0.606048
O O7 0.893690 0.000000 0.672732
O O8 0.753721 0.260684 0.166329
O O9 0.766550 0.000000 0.231578
O O10 0.249549 0.500000 0.098356
O O11 0.155317 0.249338 0.064001
O O12 0.331675 0.244233 0.053616
O O13 0.753034 0.500000 0.572457
O O14 0.750000 0.750000 0.500000
O O15 0.601894 0.500000 0.001165
O O16 0.500000 0.241422 0.000000
#
# Coordination Sequence:
#
# PCOD9182834 Si02
#       6
#     8   8   8   8   8   8
#     4   8  17  33  52  71  97 131 162 194 239 293
#     4  10  19  33  53  76  98 127 167 205 239 282
#     4   9  18  34  51  70  99 133 163 196 245 297
#     4   9  18  32  50  71  98 130 162 200 247 293
#     4  10  20  36  54  74 101 132 163 199 243 290
#     4   9  18  32  50  72  97 127 165 205 242 288
#
# _framework density 18.373508999999999
#
# number of rings (size 3 to 8) (size 9 to 14) (size 15 to 20)
#    0.000    2.833    0.000    2.000    0.000    3.000 
#    0.000   15.000    0.000    0.000    0.000    0.000 
#    0.000    0.000    0.000    0.000    0.000    0.000 
#
# Total GULP energy -133823.136633 kJ/mol
# GULP energy per Si atom -5575.964026 kJ/mol
# Density = 1.833169 g / cm^3
# Si number density = 18.373509 Si / 1000 Ang^3
#
#
#
# Elastic Constant Matrix: (Units=GPa)
#
#
# Indices 1 2 3 4 5 6 
#
# 1 185.6693 0.6216 89.6257 0.0000 15.7515 0.0000
# 2 0.6216 4.3973 -1.0935 0.0000 1.2533 0.0000
# 3 89.6257 -1.0935 178.3317 0.0000 15.6050 0.0000
# 4 0.0000 0.0000 0.0000 26.1634 0.0000 1.4906
# 5 15.7515 1.2533 15.6050 0.0000 7.9276 0.0000
# 6 0.0000 0.0000 0.0000 1.4906 0.0000 21.2909
#
#
#
# Elastic Compliance Matrix: (Units=1/GPa)
#
#
# Indices 1 2 3 4 5 6 
#
# 1 0.007631 0.000844 -0.003010 0.000000 -0.009370 0.000000
# 2 0.000844 0.243210 0.005531 0.000000 -0.051013 0.000000
# 3 -0.003010 0.005531 0.008103 0.000000 -0.010844 0.000000
# 4 0.000000 0.000000 0.000000 0.038374 0.000000 -0.002687
# 5 -0.009370 -0.051013 -0.010844 0.000000 0.174171 0.000000
# 6 0.000000 0.000000 0.000000 -0.002687 0.000000 0.047157
#
#
# Mechanical properties :
#
#
# Convention : Reuss Voigt Hill
#
# Bulk Modulus (GPa) = 3.76402 60.74511 32.25456
# Shear Modulus (GPa) = 8.32674 29.69267 19.00971
#
# Velocity S-wave (km/s) = 2.13114 4.02438 3.22005
# Velocity P-wave (km/s) = 2.84759 7.39779 5.60518
#
# Compressibility (1/GPa) = 0.26567359
#
# Stress axis : x y z
#
# Youngs Moduli (GPa) = 131.04336 4.11167 123.40833
#
# Poissons Ratio (x) = -0.00347 0.37147
# Poissons Ratio (y) = -0.11054 -0.68260
# Poissons Ratio (z) = 0.39445 -0.02274
#
# Static dielectric constant tensor:
#      x y z
#    x 1.622890 0.000000 -0.001660 
#    y 0.000000 1.654070 0.000000 
#    z -0.001660 0.000000 1.602600 
# 
# From -- ./inp_files/307995.got.cif
#   From: 2010.05.17/outbox.cif.g08.bks.cpg/sg12_154_cif.got.tgz:307995.got - 2010.06.03 13:09:07.
