data_PCOD9182571
_publ_section_title
;
Structure prediction by ZEFSAII (Michael W. Deem and Ramdas Pophale) SiO2 
 PCOD9182571
Probable space group: C 2/M
;
_chemical_formula_sum "Si O2"
_cell_formula_units_Z 56
_cell_length_a 27.158796
_cell_length_b 13.016680
_cell_length_c 8.604136
_cell_angle_alpha 90.000000
_cell_angle_beta 117.216846
_cell_angle_gamma 90.000000
_cell_volume 2704.939028
_symmetry_space_group_name_H-M "C 2/M"
_symmetry_group_IT_number 12
_symmetry_cell_setting 'monoclinic'
loop_
_space_group_symop_operation_xyz
x,y,z
-x,y,-z
-x,-y,-z
x,-y,z
1/2+x,1/2+y,z
1/2-x,1/2+y,-z
1/2-x,1/2-y,-z
1/2+x,1/2-y,z
loop_
_atom_site_type_symbol
_atom_site_label
_atom_site_fract_x
_atom_site_fract_y
_atom_site_fract_z
Si Si1 0.134480 0.260385 0.977883
Si Si2 0.230349 0.376352 0.301778
Si Si3 0.954466 0.824493 0.553545
Si Si4 0.941836 0.754715 0.858960
Si Si5 0.087062 0.618832 0.635221
Si Si6 0.346986 0.119818 0.555132
Si Si7 0.335276 0.618512 0.259304
O O1 0.098106 0.339844 0.822924
O O2 0.161404 0.183004 0.893627
O O3 0.182805 0.322391 0.132512
O O4 0.093000 0.207600 0.041677
O O5 0.227528 0.500000 0.280671
O O6 0.211898 0.353510 0.452806
O O7 0.289518 0.345711 0.318148
O O8 0.960404 0.831969 0.747586
O O9 0.950762 0.702238 0.506524
O O10 0.895294 0.870012 0.423272
O O11 0.000000 0.867035 0.500000
O O12 0.896150 0.681330 0.711750
O O13 0.000000 0.706659 0.000000
O O14 0.069717 0.500000 0.605215
O O15 0.143978 0.629138 0.616171
O O16 0.356846 0.000000 0.603531
O O17 0.324224 0.500000 0.206532
#
# Coordination Sequence:
#
# PCOD9182571 Si02
#       7
#     8   8   8   8   8   8   8
#     4  10  19  33  53  80 112 138 166 206 257 306
#     4   9  17  32  54  80 109 138 169 207 251 301
#     4  10  21  38  56  74  99 134 176 219 260 304
#     4  10  19  33  52  75 103 134 169 212 259 306
#     4   9  17  31  52  79 110 142 172 201 245 307
#     4   8  16  30  48  74 108 142 173 204 242 296
#     4  10  21  37  56  76 100 135 177 216 257 306
#
# _framework density 20.702870999999998
#
# number of rings (size 3 to 8) (size 9 to 14) (size 15 to 20)
#    0.000    2.571    0.000    2.571    0.000    1.429 
#    0.000   16.429    0.000    5.143    0.000    0.000 
#    0.000    0.000    0.000    0.000    0.000    0.000 
#
# Total GULP energy -155932.101010 kJ/mol
# GULP energy per Si atom -5569.003607 kJ/mol
# Density = 2.065575 g / cm^3
# Si number density = 20.702871 Si / 1000 Ang^3
#
#
#
# Elastic Constant Matrix: (Units=GPa)
#
#
# Indices 1 2 3 4 5 6 
#
# 1 192.2534 7.9301 43.6685 0.0000 -29.9542 0.0000
# 2 7.9301 42.7086 -8.6903 0.0000 -11.8645 0.0000
# 3 43.6685 -8.6903 53.9605 0.0000 -27.3350 0.0000
# 4 0.0000 0.0000 0.0000 4.0480 0.0000 -8.9245
# 5 -29.9542 -11.8645 -27.3350 0.0000 32.5648 0.0000
# 6 0.0000 0.0000 0.0000 -8.9245 0.0000 3.1621
#
#
#
# Elastic Compliance Matrix: (Units=1/GPa)
#
#
# Indices 1 2 3 4 5 6 
#
# 1 0.006614 -0.001985 -0.005144 0.000000 0.001043 0.000000
# 2 -0.001985 0.037398 0.023673 0.000000 0.031670 0.000000
# 3 -0.005144 0.023673 0.049549 0.000000 0.045484 0.000000
# 4 0.000000 0.000000 0.000000 -0.047304 0.000000 -0.133507
# 5 0.001043 0.031670 0.045484 0.000000 0.081385 0.000000
# 6 0.000000 0.000000 0.000000 -0.133507 0.000000 -0.060556
#
#
# Mechanical properties :
#
#
# Convention : Reuss Voigt Hill
#
# Bulk Modulus (GPa) = 7.89592 41.63768 24.76680
# Shear Modulus (GPa) = 65.60372 24.35594 44.97983
#
# Velocity S-wave (km/s) = 5.63534 3.43367 4.66621
# Velocity P-wave (km/s) = 6.79448 5.98964 6.40471
#
# Compressibility (1/GPa) = 0.12664773
#
# Stress axis : x y z
#
# Youngs Moduli (GPa) = 151.18814 26.73933 20.18214
#
# Poissons Ratio (x) = 0.05308 0.10382
# Poissons Ratio (y) = 0.30015 -0.47777
# Poissons Ratio (z) = 0.77776 -0.63300
#
# Static dielectric constant tensor:
#      x y z
#    x 1.811030 0.000000 -0.052100 
#    y 0.000000 1.752990 0.000000 
#    z -0.052100 0.000000 1.758970 
# 
# From -- ./inp_files/96492.got.cif
#   From: 2010.05.17/outbox.cif.g08.bks.cpg/sg12_49_cif.got.tgz:96492.got - 2010.06.03 13:09:07.
