data_PCOD9182552
_publ_section_title
;
Structure prediction by ZEFSAII (Michael W. Deem and Ramdas Pophale) SiO2 
 PCOD9182552
Probable space group: C 2/M
;
_chemical_formula_sum "Si O2"
_cell_formula_units_Z 56
_cell_length_a 29.375763
_cell_length_b 8.826603
_cell_length_c 19.594358
_cell_angle_alpha 90.000000
_cell_angle_beta 137.862186
_cell_angle_gamma 90.000000
_cell_volume 3408.647104
_symmetry_space_group_name_H-M "C 2/M"
_symmetry_group_IT_number 12
_symmetry_cell_setting 'monoclinic'
loop_
_space_group_symop_operation_xyz
x,y,z
-x,y,-z
-x,-y,-z
x,-y,z
1/2+x,1/2+y,z
1/2-x,1/2+y,-z
1/2-x,1/2-y,-z
1/2+x,1/2-y,z
loop_
_atom_site_type_symbol
_atom_site_label
_atom_site_fract_x
_atom_site_fract_y
_atom_site_fract_z
Si Si1 0.443914 0.182773 0.494733
Si Si2 0.143994 0.318236 0.378881
Si Si3 0.144254 0.682536 0.894154
Si Si4 0.258351 0.680082 0.619625
Si Si5 0.704141 0.319745 0.695780
Si Si6 0.753257 0.680807 0.113891
Si Si7 0.009048 0.315609 0.301652
O O1 0.500000 0.218097 0.500000
O O2 0.372160 0.257070 0.398230
O O3 0.470475 0.230054 0.598879
O O4 0.434555 0.000000 0.485133
O O5 0.144764 0.500000 0.369366
O O6 0.193745 0.286870 0.498501
O O7 0.176720 0.238112 0.350114
O O8 0.068687 0.268995 0.316453
O O9 0.145937 0.500000 0.904679
O O10 0.184641 0.716709 0.868944
O O11 0.066471 0.733399 0.801848
O O12 0.186217 0.758788 0.001545
O O13 0.261127 0.500000 0.632425
O O14 0.246619 0.760707 0.678232
O O15 0.703413 0.500000 0.695914
O O16 0.733942 0.256503 0.799370
O O17 0.750380 0.500000 0.118269
O O18 0.008520 0.500000 0.301387
#
# Coordination Sequence:
#
# PCOD9182552 Si02
#       7
#     8   8   8   8   8   8   8
#     4  10  19  33  52  75 106 143 176 206 253 314
#     4   9  17  31  51  75 104 135 172 212 256 311
#     4   9  18  34  56  79 102 135 178 217 255 303
#     4  10  19  33  52  74 103 136 175 214 258 314
#     4  12  23  34  51  76 107 139 176 219 263 307
#     4  10  20  35  54  76 104 139 179 219 260 306
#     4   9  16  30  52  77 104 136 171 209 253 311
#
# _framework density 16.428805000000001
#
# number of rings (size 3 to 8) (size 9 to 14) (size 15 to 20)
#    0.000    2.143    1.429    3.000    0.000    3.714 
#    0.000    1.429    0.000    0.857    0.000    6.000 
#    0.000    0.000    0.000    0.000    0.000    0.000 
#
# Total GULP energy -156278.824604 kJ/mol
# GULP energy per Si atom -5581.386593 kJ/mol
# Density = 1.639141 g / cm^3
# Si number density = 16.428805 Si / 1000 Ang^3
#
#
#
# Elastic Constant Matrix: (Units=GPa)
#
#
# Indices 1 2 3 4 5 6 
#
# 1 151.2582 58.1026 100.9234 0.0000 -0.9811 0.0000
# 2 58.1026 45.1799 50.8684 0.0000 -6.3015 0.0000
# 3 100.9234 50.8684 127.3026 0.0000 -2.8420 0.0000
# 4 0.0000 0.0000 0.0000 23.1913 0.0000 4.4512
# 5 -0.9811 -6.3015 -2.8420 0.0000 20.9251 0.0000
# 6 0.0000 0.0000 0.0000 4.4512 0.0000 17.5880
#
#
#
# Elastic Compliance Matrix: (Units=1/GPa)
#
#
# Indices 1 2 3 4 5 6 
#
# 1 0.017455 -0.013395 -0.008584 0.000000 -0.004381 0.000000
# 2 -0.013395 0.052697 -0.010129 0.000000 0.013866 0.000000
# 3 -0.008584 -0.010129 0.018687 0.000000 -0.000915 0.000000
# 4 0.000000 0.000000 0.000000 0.045321 0.000000 -0.011470
# 5 -0.004381 0.013866 -0.000915 0.000000 0.051636 0.000000
# 6 0.000000 0.000000 0.000000 -0.011470 0.000000 0.059760
#
#
# Mechanical properties :
#
#
# Convention : Reuss Voigt Hill
#
# Bulk Modulus (GPa) = 40.60757 82.61437 61.61097
# Shear Modulus (GPa) = 15.72429 19.93062 17.82745
#
# Velocity S-wave (km/s) = 3.09709 3.48681 3.29771
# Velocity P-wave (km/s) = 6.12864 8.16124 7.21686
#
# Compressibility (1/GPa) = 0.02462595
#
# Stress axis : x y z
#
# Youngs Moduli (GPa) = 57.28878 18.97630 53.51222
#
# Poissons Ratio (x) = 0.25418 0.45934
# Poissons Ratio (y) = 0.76736 0.54200
# Poissons Ratio (z) = 0.49176 0.19220
#
# Static dielectric constant tensor:
#      x y z
#    x 1.546060 0.000000 0.006980 
#    y 0.000000 1.549970 0.000000 
#    z 0.006980 0.000000 1.524640 
# 
# From -- ./inp_files/295184.got.cif
#   From: 2010.05.17/outbox.cif.g08.bks.cpg/sg12_148_cif.got.tgz:295184.got - 2010.06.03 13:09:07.
