data_PCOD9182921
_publ_section_title
;
Structure prediction by ZEFSAII (Michael W. Deem and Ramdas Pophale) SiO2 
 PCOD9182921
Probable space group: C 2/M
;
_chemical_formula_sum "Si O2"
_cell_formula_units_Z 56
_cell_length_a 30.844339
_cell_length_b 7.670595
_cell_length_c 15.095012
_cell_angle_alpha 90.000000
_cell_angle_beta 135.126721
_cell_angle_gamma 90.000000
_cell_volume 2519.766684
_symmetry_space_group_name_H-M "C 2/M"
_symmetry_group_IT_number 12
_symmetry_cell_setting 'monoclinic'
loop_
_space_group_symop_operation_xyz
x,y,z
-x,y,-z
-x,-y,-z
x,-y,z
1/2+x,1/2+y,z
1/2-x,1/2+y,-z
1/2-x,1/2-y,-z
1/2+x,1/2-y,z
loop_
_atom_site_type_symbol
_atom_site_label
_atom_site_fract_x
_atom_site_fract_y
_atom_site_fract_z
Si Si1 0.663330 0.210457 0.935080
Si Si2 0.795628 0.209635 0.189892
Si Si3 0.952558 0.286632 0.852344
Si Si4 0.044983 0.303571 0.841067
Si Si5 0.849967 0.204399 0.448493
Si Si6 0.489214 0.704289 0.583522
Si Si7 0.678125 0.804250 0.395510
O O1 0.657232 0.251580 0.821812
O O2 0.611590 0.280809 0.926747
O O3 0.662640 0.000000 0.940991
O O4 0.729824 0.275632 0.061681
O O5 0.810320 0.275137 0.309078
O O6 0.793999 0.000000 0.194360
O O7 0.948348 0.500000 0.846296
O O8 0.881361 0.222583 0.742911
O O9 0.990122 0.226494 0.819404
O O10 0.000000 0.239123 0.000000
O O11 0.053494 0.500000 0.888703
O O12 0.024386 0.307201 0.709714
O O13 0.918467 0.212652 0.509333
O O14 0.842285 0.296246 0.531129
O O15 0.834947 0.000000 0.442741
O O16 0.500000 0.766980 0.500000
O O17 0.508435 0.500000 0.615023
O O18 0.750000 0.750000 0.500000
O O19 0.680704 0.000000 0.364953
#
# Coordination Sequence:
#
# PCOD9182921 Si02
#       7
#     8   8   8   8   8   8   8
#     4   9  18  31  50  77 109 145 186 235 280 330
#     4   9  18  33  52  76 109 149 188 226 275 338
#     4   9  19  37  61  86 111 145 192 245 296 350
#     4  10  19  33  53  79 107 137 181 231 281 331
#     4  10  20  35  56  81 111 147 188 232 281 341
#     4  10  20  33  52  80 113 148 183 220 271 334
#     4  11  23  40  63  88 116 150 192 244 301 358
#
# _framework density 22.224278999999999
#
# number of rings (size 3 to 8) (size 9 to 14) (size 15 to 20)
#    0.000    2.286    1.429    1.286    0.000    3.714 
#    0.000    4.286    0.000    5.571    0.000    0.000 
#    0.000    0.000    0.000    0.000    0.000    0.000 
#
# Total GULP energy -156025.886372 kJ/mol
# GULP energy per Si atom -5572.353085 kJ/mol
# Density = 2.217370 g / cm^3
# Si number density = 22.224279 Si / 1000 Ang^3
#
#
#
# Elastic Constant Matrix: (Units=GPa)
#
#
# Indices 1 2 3 4 5 6 
#
# 1 111.4619 7.1741 43.5403 0.0000 20.4818 0.0000
# 2 7.1741 37.9800 1.3887 0.0000 8.5654 0.0000
# 3 43.5403 1.3887 114.7698 0.0000 14.2767 0.0000
# 4 0.0000 0.0000 0.0000 -11.9207 0.0000 -5.6866
# 5 20.4818 8.5654 14.2767 0.0000 31.9400 0.0000
# 6 0.0000 0.0000 0.0000 -5.6866 0.0000 19.2328
#
#
#
# Elastic Compliance Matrix: (Units=1/GPa)
#
#
# Indices 1 2 3 4 5 6 
#
# 1 0.011461 -0.000790 -0.003654 0.000000 -0.005505 0.000000
# 2 -0.000790 0.028122 0.000884 0.000000 -0.007430 0.000000
# 3 -0.003654 0.000884 0.010405 0.000000 -0.002545 0.000000
# 4 0.000000 0.000000 0.000000 -0.073518 0.000000 -0.021737
# 5 -0.005505 -0.007430 -0.002545 0.000000 0.037969 0.000000
# 6 0.000000 0.000000 0.000000 -0.021737 0.000000 0.045567
#
#
# Mechanical properties :
#
#
# Convention : Reuss Voigt Hill
#
# Bulk Modulus (GPa) = 23.32717 40.93533 32.13125
# Shear Modulus (GPa) = 61.41315 21.99100 41.70208
#
# Velocity S-wave (km/s) = 5.26245 3.14905 4.33647
# Velocity P-wave (km/s) = 6.88793 5.62861 6.28986
#
# Compressibility (1/GPa) = 0.04286846
#
# Stress axis : x y z
#
# Youngs Moduli (GPa) = 87.25009 35.55913 96.10659
#
# Poissons Ratio (x) = 0.02809 0.35115
# Poissons Ratio (y) = 0.06892 -0.08492
# Poissons Ratio (z) = 0.31879 -0.03142
#
# Static dielectric constant tensor:
#      x y z
#    x 1.843810 0.000000 0.056260 
#    y 0.000000 1.906450 0.000000 
#    z 0.056260 0.000000 1.869960 
# 
# From -- ./inp_files/249277.got.cif
#   From: 2010.05.17/outbox.cif.g08.bks.cpg/sg12_125_cif.got.tgz:249277.got - 2010.06.03 13:09:07.
