data_PCOD9182487
_publ_section_title
;
Structure prediction by ZEFSAII (Michael W. Deem and Ramdas Pophale) SiO2 
 PCOD9182487
Probable space group: C 2/M
;
_chemical_formula_sum "Si O2"
_cell_formula_units_Z 64
_cell_length_a 13.693368
_cell_length_b 17.882958
_cell_length_c 15.403264
_cell_angle_alpha 90.000000
_cell_angle_beta 70.029701
_cell_angle_gamma 90.000000
_cell_volume 3545.113027
_symmetry_space_group_name_H-M "C 2/M"
_symmetry_group_IT_number 12
_symmetry_cell_setting 'monoclinic'
loop_
_space_group_symop_operation_xyz
x,y,z
-x,y,-z
-x,-y,-z
x,-y,z
1/2+x,1/2+y,z
1/2-x,1/2+y,-z
1/2-x,1/2-y,-z
1/2+x,1/2-y,z
loop_
_atom_site_type_symbol
_atom_site_label
_atom_site_fract_x
_atom_site_fract_y
_atom_site_fract_z
Si Si1 0.818662 0.708497 0.906179
Si Si2 0.076814 0.283206 0.556751
Si Si3 0.859896 0.081719 0.662852
Si Si4 0.876555 0.587658 0.018203
Si Si5 0.785450 0.866713 0.503614
Si Si6 0.971155 0.760195 0.238698
Si Si7 0.577697 0.582064 0.681795
Si Si8 0.717972 0.805411 0.805474
O O1 0.844273 0.626990 0.937025
O O2 0.755675 0.727980 0.837882
O O3 0.929702 0.746058 0.851654
O O4 0.750000 0.750000 0.000000
O O5 0.146182 0.209535 0.515832
O O6 0.164073 0.346787 0.543549
O O7 0.016713 0.266938 0.665106
O O8 0.000000 0.296879 0.500000
O O9 0.823729 0.087962 0.575131
O O10 0.808846 0.150810 0.728575
O O11 0.983166 0.085161 0.640439
O O12 0.825987 0.000000 0.707857
O O13 0.849387 0.500000 0.028687
O O14 0.821041 0.636998 0.109042
O O15 0.000000 0.594156 0.000000
O O16 0.817798 0.905822 0.404333
O O17 0.942547 0.847701 0.250633
O O18 0.874848 0.713781 0.230627
O O19 0.574584 0.500000 0.723729
#
# Coordination Sequence:
#
# PCOD9182487 Si02
#       8
#     8   8   8   8   8   8   8   8
#     4  10  22  37  59  88 118 152 192 239 295 360
#     4  10  21  33  56  82 116 156 205 245 292 349
#     4  11  20  33  55  85 113 145 194 249 300 342
#     4  10  20  37  60  88 120 147 183 239 300 349
#     4  10  19  33  51  82 112 151 196 246 294 346
#     4  11  20  37  58  84 118 153 203 247 292 357
#     4  10  21  35  54  82 117 154 192 245 302 348
#     4  11  21  36  59  87 114 154 195 239 293 350
#
# _framework density 18.053021000000001
#
# number of rings (size 3 to 8) (size 9 to 14) (size 15 to 20)
#    0.000    1.625    3.750    2.625    0.000    1.000 
#    0.000    0.625    0.000    1.500    0.000    3.500 
#    0.000    0.000    0.000    0.000    0.000    0.000 
#
# Total GULP energy -178382.289974 kJ/mol
# GULP energy per Si atom -5574.446562 kJ/mol
# Density = 1.801193 g / cm^3
# Si number density = 18.053021 Si / 1000 Ang^3
#
#
#
# Elastic Constant Matrix: (Units=GPa)
#
#
# Indices 1 2 3 4 5 6 
#
# 1 59.5639 27.1243 24.5142 0.0000 -3.3682 0.0000
# 2 27.1243 102.6311 35.8930 0.0000 2.6992 0.0000
# 3 24.5142 35.8930 68.6224 0.0000 -5.7012 0.0000
# 4 0.0000 0.0000 0.0000 18.6026 0.0000 4.1250
# 5 -3.3682 2.6992 -5.7012 0.0000 29.1191 0.0000
# 6 0.0000 0.0000 0.0000 4.1250 0.0000 25.9713
#
#
#
# Elastic Compliance Matrix: (Units=1/GPa)
#
#
# Indices 1 2 3 4 5 6 
#
# 1 0.020755 -0.003654 -0.005363 0.000000 0.001690 0.000000
# 2 -0.003654 0.012731 -0.005577 0.000000 -0.002695 0.000000
# 3 -0.005363 -0.005577 0.019718 0.000000 0.003757 0.000000
# 4 0.000000 0.000000 0.000000 0.055718 0.000000 -0.008850
# 5 0.001690 -0.002695 0.003757 0.000000 0.035523 0.000000
# 6 0.000000 0.000000 0.000000 -0.008850 0.000000 0.039910
#
#
# Mechanical properties :
#
#
# Convention : Reuss Voigt Hill
#
# Bulk Modulus (GPa) = 41.64049 45.09782 43.36915
# Shear Modulus (GPa) = 22.56844 24.29099 23.42972
#
# Velocity S-wave (km/s) = 3.53954 3.67213 3.60645
# Velocity P-wave (km/s) = 6.31032 6.55854 6.43563
#
# Compressibility (1/GPa) = 0.02401509
#
# Stress axis : x y z
#
# Youngs Moduli (GPa) = 48.18005 78.54924 50.71609
#
# Poissons Ratio (x) = 0.28705 0.27198
# Poissons Ratio (y) = 0.17607 0.28286
# Poissons Ratio (z) = 0.25838 0.43809
#
# Static dielectric constant tensor:
#      x y z
#    x 1.615210 0.000000 -0.006330 
#    y 0.000000 1.636890 0.000000 
#    z -0.006330 0.000000 1.630360 
# 
# From -- ./inp_files/216360.got.cif
#   From: 2010.05.17/outbox.cif.g08.bks.cpg/sg12_109_cif.got.tgz:216360.got - 2010.06.03 13:09:07.
