data_PCOD9182221
_publ_section_title
;
Structure prediction by ZEFSAII (Michael W. Deem and Ramdas Pophale) SiO2 
 PCOD9182221
Probable space group: C 2/M
;
_chemical_formula_sum "Si O2"
_cell_formula_units_Z 64
_cell_length_a 15.431669
_cell_length_b 9.170871
_cell_length_c 31.937498
_cell_angle_alpha 90.000000
_cell_angle_beta 48.579980
_cell_angle_gamma 90.000000
_cell_volume 3389.347647
_symmetry_space_group_name_H-M "C 2/M"
_symmetry_group_IT_number 12
_symmetry_cell_setting 'monoclinic'
loop_
_space_group_symop_operation_xyz
x,y,z
-x,y,-z
-x,-y,-z
x,-y,z
1/2+x,1/2+y,z
1/2-x,1/2+y,-z
1/2-x,1/2-y,-z
1/2+x,1/2-y,z
loop_
_atom_site_type_symbol
_atom_site_label
_atom_site_fract_x
_atom_site_fract_y
_atom_site_fract_z
Si Si1 0.295476 0.173009 0.839309
Si Si2 0.286048 0.172377 0.054923
Si Si3 0.065529 0.172728 0.434875
Si Si4 0.163755 0.672780 0.812335
Si Si5 0.064594 0.674845 0.755154
Si Si6 0.143555 0.824830 0.557772
Si Si7 0.811344 0.174369 0.360947
Si Si8 0.585493 0.172015 0.067148
O O1 0.217101 0.244905 0.900301
O O2 0.260301 0.238157 0.805861
O O3 0.429539 0.206761 0.806135
O O4 0.281129 0.000000 0.844341
O O5 0.174723 0.229771 0.064594
O O6 0.278538 0.000000 0.064935
O O7 0.392250 0.199130 0.989148
O O8 0.182271 0.263785 0.396867
O O9 0.000000 0.193519 0.500000
O O10 0.975733 0.213893 0.427133
O O11 0.092712 0.000000 0.422379
O O12 0.189803 0.500000 0.805237
O O13 0.138743 0.715205 0.772457
O O14 0.043417 0.695498 0.875689
O O15 0.074484 0.500000 0.746674
O O16 0.109696 0.755381 0.699895
O O17 0.250000 0.750000 0.500000
O O18 0.146730 0.786278 0.605641
O O19 0.156726 0.000000 0.549831
O O20 0.811832 0.000000 0.357265
O O21 0.613639 0.000000 0.065832
#
# Coordination Sequence:
#
# PCOD9182221 Si02
#       8
#     8   8   8   8   8   8   8   8
#     4  11  23  40  61  87 119 155 199 249 300 358
#     4  10  19  32  57  88 117 154 196 243 301 363
#     4  10  20  37  62  89 120 159 197 230 281 351
#     4  10  21  40  63  85 113 155 201 246 299 356
#     4  10  23  44  64  80 114 161 200 241 296 356
#     4  10  21  37  59  89 122 156 192 234 283 340
#     4  11  24  39  60  91 123 152 193 249 295 338
#     4   9  18  35  57  84 119 154 195 246 303 361
#
# _framework density 18.88269
#
# number of rings (size 3 to 8) (size 9 to 14) (size 15 to 20)
#    0.000    1.875    2.500    1.125    0.000    5.250 
#    0.000    6.250    0.000    0.000    0.000    0.000 
#    0.000    0.000    0.000    0.000    0.000    0.000 
#
# Total GULP energy -178751.240970 kJ/mol
# GULP energy per Si atom -5585.976280 kJ/mol
# Density = 1.883971 g / cm^3
# Si number density = 18.882690 Si / 1000 Ang^3
#
#
#
# Elastic Constant Matrix: (Units=GPa)
#
#
# Indices 1 2 3 4 5 6 
#
# 1 108.2794 35.9002 35.7924 0.0000 33.2328 0.0001
# 2 35.9002 33.6739 40.0252 0.0000 14.4981 0.0001
# 3 35.7924 40.0252 92.3730 0.0000 29.3474 0.0000
# 4 0.0000 0.0000 0.0000 33.4196 0.0000 3.2411
# 5 33.2328 14.4981 29.3474 0.0000 25.6474 0.0000
# 6 0.0001 0.0001 0.0000 3.2411 0.0000 28.8127
#
#
#
# Elastic Compliance Matrix: (Units=1/GPa)
#
#
# Indices 1 2 3 4 5 6 
#
# 1 0.022201 -0.024772 0.010718 0.000000 -0.027029 0.000000
# 2 -0.024772 0.089611 -0.036662 0.000000 0.023393 0.000000
# 3 0.010718 -0.036662 0.032031 0.000000 -0.029815 0.000000
# 4 0.000000 0.000000 0.000000 0.030253 0.000000 -0.003403
# 5 -0.027029 0.023393 -0.029815 0.000000 0.094905 0.000000
# 6 0.000000 0.000000 0.000000 -0.003403 0.000000 0.035090
#
#
# Mechanical properties :
#
#
# Convention : Reuss Voigt Hill
#
# Bulk Modulus (GPa) = 23.57831 50.86244 37.22037
# Shear Modulus (GPa) = 11.91443 25.74985 18.83214
#
# Velocity S-wave (km/s) = 2.51464 3.69680 3.16147
# Velocity P-wave (km/s) = 4.57658 6.72431 5.75158
#
# Compressibility (1/GPa) = 0.04241186
#
# Stress axis : x y z
#
# Youngs Moduli (GPa) = 45.04304 11.15932 31.22001
#
# Poissons Ratio (x) = 0.27643 -0.33462
# Poissons Ratio (y) = 1.11579 1.14459
# Poissons Ratio (z) = -0.48278 0.40912
#
# Static dielectric constant tensor:
#      x y z
#    x 1.659550 0.000000 0.014470 
#    y 0.000000 1.626510 0.000000 
#    z 0.014470 0.000000 1.646550 
# 
# From -- ./inp_files/375446.got.cif
#   From: 2010.05.17/outbox.cif.g08.bks.cpg/sg12_188_cif.got.tgz:375446.got - 2010.06.03 13:09:07.
