data_PCOD9182030
_publ_section_title
;
Structure prediction by ZEFSAII (Michael W. Deem and Ramdas Pophale) SiO2 
 PCOD9182030
Probable space group: C 2/M
;
_chemical_formula_sum "Si O2"
_cell_formula_units_Z 40
_cell_length_a 14.827328
_cell_length_b 9.176607
_cell_length_c 28.807752
_cell_angle_alpha 90.000000
_cell_angle_beta 151.917191
_cell_angle_gamma 90.000000
_cell_volume 1845.194413
_symmetry_space_group_name_H-M "C 2/M"
_symmetry_group_IT_number 12
_symmetry_cell_setting 'monoclinic'
loop_
_space_group_symop_operation_xyz
x,y,z
-x,y,-z
-x,-y,-z
x,-y,z
1/2+x,1/2+y,z
1/2-x,1/2+y,-z
1/2-x,1/2-y,-z
1/2+x,1/2-y,z
loop_
_atom_site_type_symbol
_atom_site_label
_atom_site_fract_x
_atom_site_fract_y
_atom_site_fract_z
Si Si1 0.437585 0.826697 0.422180
Si Si2 0.476765 0.669048 0.731079
Si Si3 0.472813 0.670018 0.876347
Si Si4 0.276812 0.171025 0.086734
Si Si5 0.016699 0.672037 0.657960
O O1 0.500000 0.763242 0.500000
O O2 0.517131 0.769586 0.409565
O O3 0.207081 0.817133 0.318719
O O4 0.485845 0.000000 0.444626
O O5 0.514004 0.500000 0.740328
O O6 0.655221 0.743677 0.837209
O O7 0.424815 0.741876 0.658533
O O8 0.518078 0.500000 0.884818
O O9 0.580827 0.775252 0.889635
O O10 0.245774 0.685699 0.770720
O O11 0.566803 0.695849 0.969607
O O12 0.299449 0.000000 0.105893
O O13 0.969714 0.500000 0.638690
#
# Coordination Sequence:
#
# PCOD9182030 Si02
#       5
#     8   8   8   8   8
#     4   9  19  38  62  82 107 147 187 228 283 341
#     4  11  22  37  57  84 116 147 187 232 279 331
#     4   9  18  34  55  81 113 152 189 226 273 327
#     4  10  19  32  55  83 113 149 191 229 271 327
#     4  10  20  37  59  83 113 148 187 227 277 335
#
# _framework density 21.677931999999998
#
# number of rings (size 3 to 8) (size 9 to 14) (size 15 to 20)
#    0.000    2.200    2.000    1.200    0.000    3.200 
#    0.000    4.000    0.000    4.200    0.000    0.000 
#    0.000    0.000    0.000    0.000    0.000    0.000 
#
# Total GULP energy -111689.401050 kJ/mol
# GULP energy per Si atom -5584.470052 kJ/mol
# Density = 2.162859 g / cm^3
# Si number density = 21.677932 Si / 1000 Ang^3
#
#
#
# Elastic Constant Matrix: (Units=GPa)
#
#
# Indices 1 2 3 4 5 6 
#
# 1 113.2698 36.5707 15.0070 0.0000 -36.4328 0.0000
# 2 36.5707 50.4829 23.5426 0.0001 -16.0043 0.0000
# 3 15.0070 23.5426 66.6865 0.0001 -31.0323 0.0001
# 4 0.0000 0.0001 0.0001 10.1818 0.0001 -7.9558
# 5 -36.4328 -16.0043 -31.0323 0.0001 42.4417 0.0000
# 6 0.0000 0.0000 0.0001 -7.9558 0.0000 29.2392
#
#
#
# Elastic Compliance Matrix: (Units=1/GPa)
#
#
# Indices 1 2 3 4 5 6 
#
# 1 0.015979 -0.010054 0.006930 0.000000 0.014992 0.000000
# 2 -0.010054 0.030562 -0.010883 0.000000 -0.005064 0.000000
# 3 0.006930 -0.010883 0.027490 0.000000 0.021945 0.000000
# 4 0.000000 0.000000 0.000000 0.124734 -0.000001 0.033939
# 5 0.014992 -0.005064 0.021945 -0.000001 0.050568 0.000000
# 6 0.000000 0.000000 0.000000 0.033939 0.000000 0.043435
#
#
# Mechanical properties :
#
#
# Convention : Reuss Voigt Hill
#
# Bulk Modulus (GPa) = 21.73124 42.29778 32.01451
# Shear Modulus (GPa) = 14.87558 26.72714 20.80136
#
# Velocity S-wave (km/s) = 2.62240 3.51510 3.10104
# Velocity P-wave (km/s) = 4.38357 6.00241 5.25569
#
# Compressibility (1/GPa) = 0.04601671
#
# Stress axis : x y z
#
# Youngs Moduli (GPa) = 62.58363 32.72013 36.37654
#
# Poissons Ratio (x) = 0.32897 -0.25210
# Poissons Ratio (y) = 0.62923 0.39589
# Poissons Ratio (z) = -0.43372 0.35610
#
# Static dielectric constant tensor:
#      x y z
#    x 1.807190 0.000000 -0.024670 
#    y 0.000000 1.726820 0.000000 
#    z -0.024670 0.000000 1.844290 
# 
# From -- ./inp_files/211167.got.cif
#   From: 2010.05.17/outbox.cif.g08.bks.cpg/sg12_106_cif.got.tgz:211167.got - 2010.06.03 13:09:07.
