data_PCOD9182181
_publ_section_title
;
Structure prediction by ZEFSAII (Michael W. Deem and Ramdas Pophale) SiO2 
 PCOD9182181
Probable space group: C 2/M
;
_chemical_formula_sum "Si O2"
_cell_formula_units_Z 60
_cell_length_a 24.146144
_cell_length_b 15.271696
_cell_length_c 15.110723
_cell_angle_alpha 90.000000
_cell_angle_beta 33.021735
_cell_angle_gamma 90.000000
_cell_volume 3036.565481
_symmetry_space_group_name_H-M "C 2/M"
_symmetry_group_IT_number 12
_symmetry_cell_setting 'monoclinic'
loop_
_space_group_symop_operation_xyz
x,y,z
-x,y,-z
-x,-y,-z
x,-y,z
1/2+x,1/2+y,z
1/2-x,1/2+y,-z
1/2-x,1/2-y,-z
1/2+x,1/2-y,z
loop_
_atom_site_type_symbol
_atom_site_label
_atom_site_fract_x
_atom_site_fract_y
_atom_site_fract_z
Si Si1 0.815534 0.208314 0.096715
Si Si2 0.500000 0.801272 0.500000
Si Si3 0.587284 0.904925 0.668512
Si Si4 0.716486 0.654645 0.509864
Si Si5 0.350950 0.760344 0.553461
Si Si6 0.356145 0.096462 0.005890
Si Si7 0.991085 0.100310 0.118072
Si Si8 0.175177 0.600292 0.163232
O O1 0.745790 0.188180 0.275752
O O2 0.762825 0.163777 0.082694
O O3 0.811233 0.313368 0.101027
O O4 0.927794 0.169560 0.953572
O O5 0.429022 0.746291 0.529029
O O6 0.426602 0.862496 0.655987
O O7 0.681569 0.899792 0.609698
O O8 0.597968 0.826659 0.584646
O O9 0.477271 0.898796 0.860293
O O10 0.590703 0.000000 0.617977
O O11 0.750000 0.750000 0.500000
O O12 0.681566 0.674227 0.456743
O O13 0.621177 0.620503 0.694361
O O14 0.338148 0.100596 0.924167
O O15 0.320111 0.000000 0.084728
O O16 0.017788 0.000000 0.106951
O O17 0.000000 0.106535 0.000000
O O18 0.194283 0.500000 0.165731
#
# Coordination Sequence:
#
# PCOD9182181 Si02
#       8
#     8   4   8   8   8   8   8   8
#     4  11  22  36  57  84 118 157 191 237 291 358
#     4  10  19  32  56  88 119 152 191 248 294 342
#     4  10  19  35  60  85 110 146 193 251 303 344
#     4  10  20  36  56  80 116 155 196 237 283 350
#     4  10  21  35  56  86 116 155 197 239 292 349
#     4  10  21  38  58  83 115 154 197 244 292 342
#     4  11  23  38  58  88 122 153 190 242 305 365
#     4  10  20  34  56  87 118 149 190 241 299 353
#
# _framework density 19.759166
#
# number of rings (size 3 to 8) (size 9 to 14) (size 15 to 20)
#    0.000    1.733    1.333    4.600    0.000    3.733 
#    0.000    1.333    0.000    2.000    0.000    3.733 
#    0.000    0.000    0.000    0.000    0.000    0.000 
#
# Total GULP energy -167327.598248 kJ/mol
# GULP energy per Si atom -5577.586608 kJ/mol
# Density = 1.971419 g / cm^3
# Si number density = 19.759166 Si / 1000 Ang^3
#
#
#
# Elastic Constant Matrix: (Units=GPa)
#
#
# Indices 1 2 3 4 5 6 
#
# 1 83.0755 25.4531 19.7046 0.0000 -16.1519 0.0000
# 2 25.4531 90.6543 13.0041 0.0000 -9.8454 0.0000
# 3 19.7046 13.0041 36.1603 0.0000 -14.7378 0.0000
# 4 0.0000 0.0000 0.0000 49.6526 0.0000 -9.3618
# 5 -16.1519 -9.8454 -14.7378 0.0000 24.6165 0.0000
# 6 0.0000 0.0000 0.0000 -9.3618 0.0000 24.0431
#
#
#
# Elastic Compliance Matrix: (Units=1/GPa)
#
#
# Indices 1 2 3 4 5 6 
#
# 1 0.015237 -0.002941 -0.004828 0.000000 0.005931 0.000000
# 2 -0.002941 0.012351 -0.002133 0.000000 0.001733 0.000000
# 3 -0.004828 -0.002133 0.038908 0.000000 0.019273 0.000000
# 4 0.000000 0.000000 0.000000 0.021736 0.000000 0.008463
# 5 0.005931 0.001733 0.019273 0.000000 0.056746 0.000000
# 6 0.000000 0.000000 0.000000 0.008463 0.000000 0.044888
#
#
# Mechanical properties :
#
#
# Convention : Reuss Voigt Hill
#
# Bulk Modulus (GPa) = 21.41721 36.24597 28.83159
# Shear Modulus (GPa) = 22.19934 29.77765 25.98849
#
# Velocity S-wave (km/s) = 3.35549 3.88626 3.63059
# Velocity P-wave (km/s) = 5.08676 6.20653 5.67434
#
# Compressibility (1/GPa) = 0.04669142
#
# Stress axis : x y z
#
# Youngs Moduli (GPa) = 65.63143 80.96584 25.70196
#
# Poissons Ratio (x) = 0.23815 0.12409
# Poissons Ratio (y) = 0.19305 0.05481
# Poissons Ratio (z) = 0.31686 0.17266
#
# Static dielectric constant tensor:
#      x y z
#    x 1.727500 0.000000 -0.015660 
#    y 0.000000 1.636990 0.000000 
#    z -0.015660 0.000000 1.695140 
# 
# From -- ./inp_files/293489.got.cif
#   From: 2010.05.17/outbox.cif.g08.bks.cpg/sg12_147_cif.got.tgz:293489.got - 2010.06.03 13:09:07.
