data_PCOD9182720
_publ_section_title
;
Structure prediction by ZEFSAII (Michael W. Deem and Ramdas Pophale) SiO2 
 PCOD9182720
Probable space group: C 2/M
;
_chemical_formula_sum "Si O2"
_cell_formula_units_Z 32
_cell_length_a 18.500432
_cell_length_b 14.473103
_cell_length_c 4.965765
_cell_angle_alpha 90.000000
_cell_angle_beta 109.447561
_cell_angle_gamma 90.000000
_cell_volume 1253.766865
_symmetry_space_group_name_H-M "C 2/M"
_symmetry_group_IT_number 12
_symmetry_cell_setting 'monoclinic'
loop_
_space_group_symop_operation_xyz
x,y,z
-x,y,-z
-x,-y,-z
x,-y,z
1/2+x,1/2+y,z
1/2-x,1/2+y,-z
1/2-x,1/2-y,-z
1/2+x,1/2-y,z
loop_
_atom_site_type_symbol
_atom_site_label
_atom_site_fract_x
_atom_site_fract_y
_atom_site_fract_z
Si Si1 0.053785 0.789299 0.313559
Si Si2 0.408066 0.899818 0.406928
Si Si3 0.694603 0.355910 0.211508
Si Si4 0.284360 0.135387 0.824505
O O1 0.103432 0.700825 0.473050
O O2 0.112084 0.862425 0.251295
O O3 0.000000 0.817944 0.500000
O O4 0.000000 0.758694 0.000000
O O5 0.500000 0.898406 0.500000
O O6 0.392073 0.000000 0.515242
O O7 0.361566 0.896817 0.068478
O O8 0.707813 0.246190 0.186646
O O9 0.757186 0.393864 0.497068
O O10 0.715346 0.391933 0.943058
#
# Coordination Sequence:
#
# PCOD9182720 Si02
#       4
#     8   8   8   8
#     4  11  21  34  53  78 107 138 173 214 262 312
#     4  10  21  35  50  73 109 149 181 205 240 302
#     4  10  19  34  54  75  99 131 175 224 268 302
#     4  10  19  33  53  73  99 138 178 217 259 299
#
# _framework density 25.523088999999999
#
# number of rings (size 3 to 8) (size 9 to 14) (size 15 to 20)
#    0.000    1.750    0.000    9.000    0.000    0.500 
#    0.000   12.500    0.000    0.000    0.000    0.000 
#    0.000   20.000    0.000    7.500    0.000   11.500 
#
# Total GULP energy -89332.691099 kJ/mol
# GULP energy per Si atom -5583.293194 kJ/mol
# Density = 2.546500 g / cm^3
# Si number density = 25.523089 Si / 1000 Ang^3
#
#
#
# Elastic Constant Matrix: (Units=GPa)
#
#
# Indices 1 2 3 4 5 6 
#
# 1 189.1218 19.5027 36.2029 0.0000 -16.2966 0.0000
# 2 19.5027 63.9886 8.4421 0.0000 11.1592 0.0000
# 3 36.2029 8.4421 152.3286 0.0000 -1.1510 0.0000
# 4 0.0000 0.0000 0.0000 -47.1334 0.0000 -29.5515
# 5 -16.2966 11.1592 -1.1510 0.0000 51.2118 0.0000
# 6 0.0000 0.0000 0.0000 -29.5515 0.0000 -12.1445
#
#
#
# Elastic Compliance Matrix: (Units=1/GPa)
#
#
# Indices 1 2 3 4 5 6 
#
# 1 0.005943 -0.002045 -0.001282 0.000000 0.002308 0.000000
# 2 -0.002045 0.017081 -0.000494 0.000000 -0.004384 0.000000
# 3 -0.001282 -0.000494 0.006896 0.000000 -0.000145 0.000000
# 4 0.000000 0.000000 0.000000 0.040363 0.000000 -0.098217
# 5 0.002308 -0.004384 -0.000145 0.000000 0.021213 0.000000
# 6 0.000000 0.000000 0.000000 -0.098217 0.000000 0.156653
#
#
# Mechanical properties :
#
#
# Convention : Reuss Voigt Hill
#
# Bulk Modulus (GPa) = 44.88568 59.30381 52.09475
# Shear Modulus (GPa) = 18.99592 21.13953 20.06773
#
# Velocity S-wave (km/s) = 2.73108 2.88106 2.80707
# Velocity P-wave (km/s) = 5.25067 5.86115 5.56429
#
# Compressibility (1/GPa) = 0.02227882
#
# Stress axis : x y z
#
# Youngs Moduli (GPa) = 168.27553 58.54605 145.01975
#
# Poissons Ratio (x) = 0.11970 0.18586
# Poissons Ratio (y) = 0.34406 0.07161
# Poissons Ratio (z) = 0.21566 0.02891
#
# Static dielectric constant tensor:
#      x y z
#    x 2.158340 0.000000 -0.046970 
#    y 0.000000 2.066780 0.000000 
#    z -0.046970 0.000000 1.967010 
# 
# From -- ./inp_files/20041.got.cif
#   From: 2010.05.17/outbox.cif.g08.bks.cpg/sg12_11_cif.got.tgz:20041.got - 2010.06.03 13:09:07.
