data_PCOD9182608
_publ_section_title
;
Structure prediction by ZEFSAII (Michael W. Deem and Ramdas Pophale) SiO2 
 PCOD9182608
Probable space group: C 2/M
;
_chemical_formula_sum "Si O2"
_cell_formula_units_Z 64
_cell_length_a 25.668307
_cell_length_b 13.625900
_cell_length_c 9.637500
_cell_angle_alpha 90.000000
_cell_angle_beta 68.332650
_cell_angle_gamma 90.000000
_cell_volume 3132.585273
_symmetry_space_group_name_H-M "C 2/M"
_symmetry_group_IT_number 12
_symmetry_cell_setting 'monoclinic'
loop_
_space_group_symop_operation_xyz
x,y,z
-x,y,-z
-x,-y,-z
x,-y,z
1/2+x,1/2+y,z
1/2-x,1/2+y,-z
1/2-x,1/2-y,-z
1/2+x,1/2-y,z
loop_
_atom_site_type_symbol
_atom_site_label
_atom_site_fract_x
_atom_site_fract_y
_atom_site_fract_z
Si Si1 0.004108 0.615464 0.833076
Si Si2 0.975829 0.213446 0.679929
Si Si3 0.142980 0.881640 0.157260
Si Si4 0.761638 0.617545 0.576848
Si Si5 0.164759 0.791689 0.842760
Si Si6 0.082072 0.116573 0.705096
Si Si7 0.635615 0.885258 0.689772
Si Si8 0.681432 0.381780 0.407211
O O1 0.989782 0.500000 0.838156
O O2 0.069710 0.627853 0.728849
O O3 0.968086 0.682073 0.764766
O O4 0.000000 0.644042 0.000000
O O5 0.920036 0.148322 0.737192
O O6 0.000000 0.222941 0.500000
O O7 0.022262 0.161842 0.731901
O O8 0.182151 0.851361 0.248026
O O9 0.146392 0.000000 0.130495
O O10 0.158402 0.819826 0.007449
O O11 0.756204 0.500000 0.602767
O O12 0.724588 0.669303 0.729133
O O13 0.826330 0.640464 0.481815
O O14 0.730912 0.644961 0.462335
O O15 0.115027 0.849036 0.809124
O O16 0.154524 0.681234 0.800388
O O17 0.123856 0.146831 0.539538
O O18 0.077515 0.000000 0.711960
O O19 0.645714 0.000000 0.709637
O O20 0.681056 0.500000 0.404734
#
# Coordination Sequence:
#
# PCOD9182608 Si02
#       8
#     8   8   8   8   8   8   8   8
#     4  10  22  42  63  84 113 149 192 245 291 327
#     4  12  23  35  55  84 114 155 193 232 275 338
#     4  11  22  34  53  83 120 155 183 225 287 349
#     4   9  18  34  59  85 111 147 187 229 274 340
#     4  11  20  35  54  84 115 147 184 239 289 330
#     4  10  19  33  52  76 111 150 187 225 270 336
#     4  10  20  36  60  84 106 144 196 235 278 337
#     4   8  16  32  51  75 112 152 181 211 269 339
#
# _framework density 20.430409999999998
#
# number of rings (size 3 to 8) (size 9 to 14) (size 15 to 20)
#    0.000    1.875    2.500    3.375    0.000    0.750 
#    0.000    1.875    0.000    1.500    0.000    9.625 
#    0.000    0.000    0.000    0.000    0.000    0.000 
#
# Total GULP energy -178717.327243 kJ/mol
# GULP energy per Si atom -5584.916476 kJ/mol
# Density = 2.038391 g / cm^3
# Si number density = 20.430410 Si / 1000 Ang^3
#
#
#
# Elastic Constant Matrix: (Units=GPa)
#
#
# Indices 1 2 3 4 5 6 
#
# 1 32.0507 2.7107 12.2918 0.0000 -5.7373 0.0000
# 2 2.7107 86.1118 -0.8940 0.0000 -1.1682 0.0000
# 3 12.2918 -0.8940 67.9856 0.0000 13.5477 0.0000
# 4 0.0000 0.0000 0.0000 25.0383 0.0000 0.5468
# 5 -5.7373 -1.1682 13.5477 0.0000 27.4793 0.0000
# 6 0.0000 0.0000 0.0000 0.5468 0.0000 19.0058
#
#
#
# Elastic Compliance Matrix: (Units=1/GPa)
#
#
# Indices 1 2 3 4 5 6 
#
# 1 0.036971 -0.001093 -0.009124 0.000000 0.012171 0.000000
# 2 -0.001093 0.011652 0.000330 0.000000 0.000104 0.000000
# 3 -0.009124 0.000330 0.018564 0.000000 -0.011043 0.000000
# 4 0.000000 0.000000 0.000000 0.039964 0.000000 -0.001150
# 5 0.012171 0.000104 -0.011043 0.000000 0.044381 0.000000
# 6 0.000000 0.000000 0.000000 -0.001150 0.000000 0.052649
#
#
# Mechanical properties :
#
#
# Convention : Reuss Voigt Hill
#
# Bulk Modulus (GPa) = 21.09175 23.81833 22.45504
# Shear Modulus (GPa) = 20.85430 25.77398 23.31414
#
# Velocity S-wave (km/s) = 3.19838 3.55568 3.38175
# Velocity P-wave (km/s) = 4.89751 5.34236 5.12476
#
# Compressibility (1/GPa) = 0.04741189
#
# Stress axis : x y z
#
# Youngs Moduli (GPa) = 27.04829 85.82163 53.86905
#
# Poissons Ratio (x) = 0.09384 0.49150
# Poissons Ratio (y) = 0.02958 -0.01778
# Poissons Ratio (z) = 0.24679 -0.02833
#
# Static dielectric constant tensor:
#      x y z
#    x 1.726580 0.000000 -0.024650 
#    y 0.000000 1.770310 0.000000 
#    z -0.024650 0.000000 1.733640 
# 
# From -- ./inp_files/111943.got.cif
#   From: 2010.05.17/outbox.cif.g08.bks.cpg/sg12_56_cif.got.tgz:111943.got - 2010.06.03 13:09:07.
