data_PCOD9182292
_publ_section_title
;
Structure prediction by ZEFSAII (Michael W. Deem and Ramdas Pophale) SiO2 
 PCOD9182292
Probable space group: C 2/M
;
_chemical_formula_sum "Si O2"
_cell_formula_units_Z 52
_cell_length_a 13.278673
_cell_length_b 9.281335
_cell_length_c 18.205830
_cell_angle_alpha 90.000000
_cell_angle_beta 110.322147
_cell_angle_gamma 90.000000
_cell_volume 2104.092776
_symmetry_space_group_name_H-M "C 2/M"
_symmetry_group_IT_number 12
_symmetry_cell_setting 'monoclinic'
loop_
_space_group_symop_operation_xyz
x,y,z
-x,y,-z
-x,-y,-z
x,-y,z
1/2+x,1/2+y,z
1/2-x,1/2+y,-z
1/2-x,1/2-y,-z
1/2+x,1/2-y,z
loop_
_atom_site_type_symbol
_atom_site_label
_atom_site_fract_x
_atom_site_fract_y
_atom_site_fract_z
Si Si1 0.784909 0.720650 0.115322
Si Si2 0.290026 0.000000 0.991764
Si Si3 0.356181 0.169723 0.430268
Si Si4 0.166976 0.165883 0.722213
Si Si5 0.457698 0.659891 0.914781
Si Si6 0.865655 0.672420 0.594894
Si Si7 0.571528 0.163116 0.233104
O O1 0.755544 0.875392 0.075473
O O2 0.846854 0.740395 0.207495
O O3 0.669412 0.650854 0.105474
O O4 0.828554 0.624687 0.060601
O O5 0.377192 0.265146 0.363911
O O6 0.234149 0.219708 0.420040
O O7 0.411272 0.189729 0.524339
O O8 0.361593 0.000000 0.413026
O O9 0.297868 0.162880 0.745561
O O10 0.131204 0.000000 0.722101
O O11 0.507676 0.500000 0.925639
O O12 0.473264 0.735161 0.841493
O O13 0.500000 0.734475 0.000000
O O14 0.834566 0.500000 0.592296
O O15 0.939111 0.701756 0.684051
O O16 0.534663 0.000000 0.212070
#
# Coordination Sequence:
#
# PCOD9182292 Si02
#       7
#     8   4   8   8   8   8   8
#     4  10  19  33  47  67  86 119 150 185 220 269
#     4  10  20  32  50  64  86 114 154 186 224 260
#     4   9  15  20  33  53  74 106 140 172 206 247
#     4   9  16  26  38  55  83 109 139 176 213 257
#     4  10  20  32  45  64  91 119 148 184 222 262
#     4   8  14  24  33  48  76 106 140 173 207 249
#     4   8  15  26  40  55  77 111 146 178 211 250
#
# _framework density 24.713737999999999
#
# number of rings (size 3 to 8) (size 9 to 14) (size 15 to 20)
#    0.000    2.923    1.538    1.385    2.154    4.615 
#    0.000    0.000    0.000    0.000    0.000    0.000 
#    0.000    0.000    0.000    8.308    0.000    4.308 
#
# Total GULP energy -144825.139946 kJ/mol
# GULP energy per Si atom -5570.197690 kJ/mol
# Density = 2.465749 g / cm^3
# Si number density = 24.713738 Si / 1000 Ang^3
#
#
#
# Elastic Constant Matrix: (Units=GPa)
#
#
# Indices 1 2 3 4 5 6 
#
# 1 56.6510 -5.1559 19.1265 0.0000 -7.8252 0.0000
# 2 -5.1559 109.4276 75.7432 0.0000 -9.4607 0.0000
# 3 19.1265 75.7432 242.3307 0.0000 4.5600 0.0000
# 4 0.0000 0.0000 0.0000 -120.4391 0.0000 70.2744
# 5 -7.8252 -9.4607 4.5600 0.0000 38.6838 0.0000
# 6 0.0000 0.0000 0.0000 70.2744 0.0000 -29.7164
#
#
#
# Elastic Compliance Matrix: (Units=1/GPa)
#
#
# Indices 1 2 3 4 5 6 
#
# 1 0.019524 0.003174 -0.002628 0.000000 0.005035 0.000000
# 2 0.003174 0.012610 -0.004272 0.000000 0.004230 0.000000
# 3 -0.002628 -0.004272 0.005711 0.000000 -0.002250 0.000000
# 4 0.000000 0.000000 0.000000 0.021859 0.000000 0.051692
# 5 0.005035 0.004230 -0.002250 0.000000 0.028169 0.000000
# 6 0.000000 0.000000 0.000000 0.051692 0.000000 0.088592
#
#
# Mechanical properties :
#
#
# Convention : Reuss Voigt Hill
#
# Bulk Modulus (GPa) = 32.90031 65.31521 49.10776
# Shear Modulus (GPa) = 25.76697 -1.04797 12.35950
#
# Velocity S-wave (km/s) = 3.23246 -0.65189 2.23873
# Velocity P-wave (km/s) = 5.22237 5.09112 5.15716
#
# Compressibility (1/GPa) = 0.03039485
#
# Stress axis : x y z
#
# Youngs Moduli (GPa) = 51.22017 79.29929 175.08579
#
# Poissons Ratio (x) = -0.25171 0.46009
# Poissons Ratio (y) = -0.16258 0.74791
# Poissons Ratio (z) = 0.13460 0.33874
#
# Static dielectric constant tensor:
#      x y z
#    x 2.094070 0.000000 -0.006860 
#    y 0.000000 1.886690 0.000000 
#    z -0.006860 0.000000 1.932430 
# 
# From -- ./inp_files/287114.got.cif
#   From: 2010.05.17/outbox.cif.g08.bks.cpg/sg12_144_cif.got.tgz:287114.got - 2010.06.03 13:09:07.
