data_PCOD9182337
_publ_section_title
;
Structure prediction by ZEFSAII (Michael W. Deem and Ramdas Pophale) SiO2 
 PCOD9182337
Probable space group: C 2/M
;
_chemical_formula_sum "Si O2"
_cell_formula_units_Z 60
_cell_length_a 5.484147
_cell_length_b 27.052330
_cell_length_c 19.538389
_cell_angle_alpha 90.000000
_cell_angle_beta 92.639985
_cell_angle_gamma 90.000000
_cell_volume 2895.618488
_symmetry_space_group_name_H-M "C 2/M"
_symmetry_group_IT_number 12
_symmetry_cell_setting 'monoclinic'
loop_
_space_group_symop_operation_xyz
x,y,z
-x,y,-z
-x,-y,-z
x,-y,z
1/2+x,1/2+y,z
1/2-x,1/2+y,-z
1/2-x,1/2-y,-z
1/2+x,1/2-y,z
loop_
_atom_site_type_symbol
_atom_site_label
_atom_site_fract_x
_atom_site_fract_y
_atom_site_fract_z
Si Si1 0.986004 0.870488 0.142272
Si Si2 0.454434 0.225707 0.257572
Si Si3 0.744929 0.500000 0.456940
Si Si4 0.959747 0.762937 0.099849
Si Si5 0.244596 0.056397 0.957001
Si Si6 0.984781 0.946191 0.658350
Si Si7 0.665855 0.055233 0.792674
Si Si8 0.208526 0.374586 0.272489
O O1 0.038379 0.819889 0.105589
O O2 0.782178 0.902358 0.101187
O O3 0.894008 0.855232 0.216796
O O4 0.214090 0.906707 0.153464
O O5 0.198378 0.244938 0.283458
O O6 0.439591 0.236562 0.175174
O O7 0.510042 0.168606 0.275940
O O8 0.500000 0.500000 0.500000
O O9 0.709542 0.453157 0.405235
O O10 0.000000 0.500000 0.500000
O O11 0.686353 0.763640 0.068274
O O12 0.233499 0.000000 0.929565
O O13 0.500000 0.061433 0.000000
O O14 0.000000 0.062430 0.000000
O O15 0.843455 0.945432 0.728671
O O16 0.150278 0.897457 0.661037
O O17 0.120446 0.000000 0.656663
O O18 0.415899 0.076999 0.761564
O O19 0.648112 0.000000 0.820045
#
# Coordination Sequence:
#
# PCOD9182337 Si02
#       8
#     8   8   4   8   8   8   8   8
#     4  11  22  35  58  83 105 152 195 223 305 355
#     4  10  19  33  49  78 113 149 184 221 282 349
#     4  10  22  38  62  78 116 176 206 226 270 324
#     4  10  19  33  53  81 111 140 180 229 276 350
#     4  10  24  44  61  78 108 143 192 250 283 339
#     4   8  20  34  49  83 120 151 193 237 277 318
#     4  10  20  32  51  81 121 147 183 232 293 345
#     4  11  20  31  57  81 118 155 182 236 292 351
#
# _framework density 20.720963000000001
#
# number of rings (size 3 to 8) (size 9 to 14) (size 15 to 20)
#    0.400    1.600    2.667    2.400    5.600    1.600 
#    0.000    0.000    0.000    2.400    0.000    0.000 
#    0.000    3.200    0.000    0.000    0.000    0.000 
#
# Total GULP energy -167319.778245 kJ/mol
# GULP energy per Si atom -5577.325941 kJ/mol
# Density = 2.067380 g / cm^3
# Si number density = 20.720963 Si / 1000 Ang^3
#
#
#
# Elastic Constant Matrix: (Units=GPa)
#
#
# Indices 1 2 3 4 5 6 
#
# 1 112.0758 20.5071 14.7040 0.0000 19.6305 0.0000
# 2 20.5071 84.8779 18.2056 0.0000 15.7131 0.0000
# 3 14.7040 18.2056 41.3655 0.0000 13.6814 0.0000
# 4 0.0000 0.0000 0.0000 8.5692 0.0000 5.9540
# 5 19.6305 15.7131 13.6814 0.0000 26.0259 0.0000
# 6 0.0000 0.0000 0.0000 5.9540 0.0000 11.4579
#
#
#
# Elastic Compliance Matrix: (Units=1/GPa)
#
#
# Indices 1 2 3 4 5 6 
#
# 1 0.010421 -0.001061 -0.001028 0.000000 -0.006680 0.000000
# 2 -0.001061 0.013902 -0.003910 0.000000 -0.005538 0.000000
# 3 -0.001028 -0.003910 0.030532 0.000000 -0.012914 0.000000
# 4 0.000000 0.000000 0.000000 0.182638 0.000000 -0.094906
# 5 -0.006680 -0.005538 -0.012914 0.000000 0.053593 0.000000
# 6 0.000000 0.000000 0.000000 -0.094906 0.000000 0.136592
#
#
# Mechanical properties :
#
#
# Convention : Reuss Voigt Hill
#
# Bulk Modulus (GPa) = 23.33306 38.35030 30.84168
# Shear Modulus (GPa) = 11.01413 21.53746 16.27579
#
# Velocity S-wave (km/s) = 2.30803 3.22748 2.80567
# Velocity P-wave (km/s) = 4.28809 5.69535 5.04106
#
# Compressibility (1/GPa) = 0.04285765
#
# Stress axis : x y z
#
# Youngs Moduli (GPa) = 95.95554 71.93366 32.75225
#
# Poissons Ratio (x) = 0.07631 0.03368
# Poissons Ratio (y) = 0.10179 0.12805
# Poissons Ratio (z) = 0.09868 0.28124
#
# Static dielectric constant tensor:
#      x y z
#    x 1.819330 0.000000 0.028070 
#    y 0.000000 1.759230 0.000000 
#    z 0.028070 0.000000 1.783650 
# 
# From -- ./inp_files/298308.got.cif
#   From: 2010.05.17/outbox.cif.g08.bks.cpg/sg12_150_cif.got.tgz:298308.got - 2010.06.03 13:09:07.
