data_PCOD9182040
_publ_section_title
;
Structure prediction by ZEFSAII (Michael W. Deem and Ramdas Pophale) SiO2 
 PCOD9182040
Probable space group: C 2/M
;
_chemical_formula_sum "Si O2"
_cell_formula_units_Z 56
_cell_length_a 18.424872
_cell_length_b 8.650706
_cell_length_c 19.344641
_cell_angle_alpha 90.000000
_cell_angle_beta 103.725433
_cell_angle_gamma 90.000000
_cell_volume 2995.259328
_symmetry_space_group_name_H-M "C 2/M"
_symmetry_group_IT_number 12
_symmetry_cell_setting 'monoclinic'
loop_
_space_group_symop_operation_xyz
x,y,z
-x,y,-z
-x,-y,-z
x,-y,z
1/2+x,1/2+y,z
1/2-x,1/2+y,-z
1/2-x,1/2-y,-z
1/2+x,1/2-y,z
loop_
_atom_site_type_symbol
_atom_site_label
_atom_site_fract_x
_atom_site_fract_y
_atom_site_fract_z
Si Si1 0.991817 0.314400 0.294336
Si Si2 0.723262 0.814368 0.567403
Si Si3 0.438252 0.685492 0.428900
Si Si4 0.868254 0.312857 0.154744
Si Si5 0.795299 0.685791 0.843434
Si Si6 0.668371 0.813950 0.000682
Si Si7 0.847013 0.814809 0.708789
O O1 0.992529 0.500000 0.297448
O O2 0.074274 0.253896 0.297142
O O3 0.962525 0.249294 0.360152
O O4 0.934898 0.266820 0.220429
O O5 0.750000 0.750000 0.500000
O O6 0.641947 0.750856 0.567802
O O7 0.782377 0.768540 0.640074
O O8 0.720855 0.000000 0.564020
O O9 0.500000 0.729641 0.500000
O O10 0.434700 0.500000 0.425453
O O11 0.861028 0.500000 0.156308
O O12 0.789716 0.241373 0.162051
O O13 0.881034 0.268915 0.076921
O O14 0.796227 0.500000 0.838488
O O15 0.825772 0.757140 0.780117
O O16 0.843399 0.733636 0.922479
O O17 0.670759 0.000000 0.001911
O O18 0.750000 0.750000 0.000000
O O19 0.851546 0.000000 0.709506
#
# Coordination Sequence:
#
# PCOD9182040 Si02
#       7
#     8   8   8   8   8   8   8
#     4  11  23  38  58  83 110 145 188 229 272 324
#     4  11  24  41  62  87 113 145 184 225 272 323
#     4  11  24  41  61  86 116 148 180 219 271 326
#     4   9  18  34  55  80 111 144 179 225 279 328
#     4  10  19  32  55  84 109 141 186 228 270 325
#     4   8  15  29  50  77 108 140 177 223 272 323
#     4  11  24  40  56  78 112 149 183 225 277 326
#
# _framework density 18.696210000000001
#
# number of rings (size 3 to 8) (size 9 to 14) (size 15 to 20)
#    0.000    1.857    0.000    3.857    0.000   12.000 
#    0.000    0.714    0.000    4.286    0.000    0.000 
#    0.000    0.000    0.000    0.000    0.000    0.000 
#
# Total GULP energy -156332.481819 kJ/mol
# GULP energy per Si atom -5583.302922 kJ/mol
# Density = 1.865366 g / cm^3
# Si number density = 18.696210 Si / 1000 Ang^3
#
#
#
# Elastic Constant Matrix: (Units=GPa)
#
#
# Indices 1 2 3 4 5 6 
#
# 1 144.9027 38.7706 111.1213 0.0000 -1.5025 0.0000
# 2 38.7706 36.4271 55.7270 0.0000 3.2836 0.0000
# 3 111.1213 55.7270 232.6416 0.0000 -2.7228 0.0000
# 4 0.0000 0.0000 0.0000 26.4003 0.0000 -2.8742
# 5 -1.5025 3.2836 -2.7228 0.0000 32.2649 0.0000
# 6 0.0000 0.0000 0.0000 -2.8742 0.0000 33.4500
#
#
#
# Elastic Compliance Matrix: (Units=1/GPa)
#
#
# Indices 1 2 3 4 5 6 
#
# 1 0.011729 -0.006320 -0.004078 0.000000 0.000845 0.000000
# 2 -0.006320 0.047658 -0.008466 0.000000 -0.005859 0.000000
# 3 -0.004078 -0.008466 0.008290 0.000000 0.001371 0.000000
# 4 0.000000 0.000000 0.000000 0.038236 0.000000 0.003285
# 5 0.000845 -0.005859 0.001371 0.000000 0.031745 0.000000
# 6 0.000000 0.000000 0.000000 0.003285 0.000000 0.030178
#
#
# Mechanical properties :
#
#
# Convention : Reuss Voigt Hill
#
# Bulk Modulus (GPa) = 33.39059 91.68990 62.54025
# Shear Modulus (GPa) = 23.19682 32.31321 27.75502
#
# Velocity S-wave (km/s) = 3.52621 4.16183 3.85714
# Velocity P-wave (km/s) = 5.87173 8.49958 7.30480
#
# Compressibility (1/GPa) = 0.02994856
#
# Stress axis : x y z
#
# Youngs Moduli (GPa) = 85.26234 20.98279 120.62146
#
# Poissons Ratio (x) = 0.13261 0.49193
# Poissons Ratio (y) = 0.53887 1.02115
# Poissons Ratio (z) = 0.34773 0.17764
#
# Static dielectric constant tensor:
#      x y z
#    x 1.593100 0.000000 0.011800 
#    y 0.000000 1.629930 0.000000 
#    z 0.011800 0.000000 1.674190 
# 
# From -- ./inp_files/275477.got.cif
#   From: 2010.05.17/outbox.cif.g08.bks.cpg/sg12_138_cif.got.tgz:275477.got - 2010.06.03 13:09:07.
