data_PCOD9182930
_publ_section_title
;
Structure prediction by ZEFSAII (Michael W. Deem and Ramdas Pophale) SiO2 
 PCOD9182930
Probable space group: C 2/M
;
_chemical_formula_sum "Si O2"
_cell_formula_units_Z 64
_cell_length_a 16.871082
_cell_length_b 7.785187
_cell_length_c 23.586055
_cell_angle_alpha 90.000000
_cell_angle_beta 81.239058
_cell_angle_gamma 90.000000
_cell_volume 3061.754345
_symmetry_space_group_name_H-M "C 2/M"
_symmetry_group_IT_number 12
_symmetry_cell_setting 'monoclinic'
loop_
_space_group_symop_operation_xyz
x,y,z
-x,y,-z
-x,-y,-z
x,-y,z
1/2+x,1/2+y,z
1/2-x,1/2+y,-z
1/2-x,1/2-y,-z
1/2+x,1/2-y,z
loop_
_atom_site_type_symbol
_atom_site_label
_atom_site_fract_x
_atom_site_fract_y
_atom_site_fract_z
Si Si1 0.642902 0.206772 0.562464
Si Si2 0.486318 0.699570 0.936114
Si Si3 0.127592 0.707176 0.316413
Si Si4 0.195417 0.707556 0.748920
Si Si5 0.635001 0.802276 0.873881
Si Si6 0.672519 0.793119 0.435044
Si Si7 0.050159 0.289846 0.681826
Si Si8 0.839042 0.703460 0.002808
O O1 0.636406 0.271495 0.498576
O O2 0.732720 0.250624 0.573833
O O3 0.578720 0.264518 0.615769
O O4 0.637523 0.000000 0.560978
O O5 0.506069 0.500000 0.931847
O O6 0.538027 0.794265 0.883434
O O7 0.500000 0.765972 0.000000
O O8 0.391846 0.721411 0.946088
O O9 0.124005 0.500000 0.317703
O O10 0.213758 0.751085 0.279365
O O11 0.133745 0.769743 0.381037
O O12 0.042451 0.765508 0.298702
O O13 0.189580 0.500000 0.750234
O O14 0.175633 0.773990 0.814330
O O15 0.122364 0.766928 0.715896
O O16 0.647522 0.724313 0.934883
O O17 0.661097 0.000000 0.874298
O O18 0.665320 0.000000 0.435938
O O19 0.050516 0.500000 0.683729
O O20 0.853077 0.500000 0.002488
O O21 0.750000 0.750000 0.000000
#
# Coordination Sequence:
#
# PCOD9182930 Si02
#       8
#     8   8   8   8   8   8   8   8
#     4   9  16  29  50  73  98 134 175 214 265 325
#     4   9  17  31  53  78 103 132 169 207 250 307
#     4  10  20  34  52  77 107 137 175 225 271 313
#     4  10  20  38  58  75 104 145 183 217 260 317
#     4   9  19  35  55  76 103 138 175 213 259 310
#     4   9  17  28  47  75 103 130 168 220 272 315
#     4   9  18  33  54  76 101 137 179 217 261 320
#     4  10  19  33  53  79 110 140 171 214 265 312
#
# _framework density 20.903047000000001
#
# number of rings (size 3 to 8) (size 9 to 14) (size 15 to 20)
#    0.000    2.625    1.250    0.750    0.000    3.000 
#    2.250    3.750    0.000    0.000    0.000    4.375 
#    0.000    0.000    0.000    0.000    0.000    0.000 
#
# Total GULP energy -178173.658185 kJ/mol
# GULP energy per Si atom -5567.926818 kJ/mol
# Density = 2.085547 g / cm^3
# Si number density = 20.903047 Si / 1000 Ang^3
#
#
#
# Elastic Constant Matrix: (Units=GPa)
#
#
# Indices 1 2 3 4 5 6 
#
# 1 117.0571 3.5986 60.2440 0.0000 -22.8668 0.0000
# 2 3.5986 40.0765 6.3836 0.0000 2.7882 0.0000
# 3 60.2440 6.3836 115.9960 0.0000 -17.1931 0.0000
# 4 0.0000 0.0000 0.0000 11.9749 0.0000 -7.6369
# 5 -22.8668 2.7882 -17.1931 0.0000 16.2965 0.0000
# 6 0.0000 0.0000 0.0000 -7.6369 0.0000 23.8615
#
#
#
# Elastic Compliance Matrix: (Units=1/GPa)
#
#
# Indices 1 2 3 4 5 6 
#
# 1 0.014043 -0.001476 -0.005042 0.000000 0.014637 0.000000
# 2 -0.001476 0.025988 -0.001932 0.000000 -0.008555 0.000000
# 3 -0.005042 -0.001932 0.012264 0.000000 0.006194 0.000000
# 4 0.000000 0.000000 0.000000 0.104925 0.000000 0.033581
# 5 0.014637 -0.008555 0.006194 0.000000 0.089899 0.000000
# 6 0.000000 0.000000 0.000000 0.033581 0.000000 0.052656
#
#
# Mechanical properties :
#
#
# Convention : Reuss Voigt Hill
#
# Bulk Modulus (GPa) = 28.25324 45.95357 37.10340
# Shear Modulus (GPa) = 15.22195 23.95348 19.58772
#
# Velocity S-wave (km/s) = 2.70148 3.38883 3.06449
# Velocity P-wave (km/s) = 4.82455 6.11099 5.50547
#
# Compressibility (1/GPa) = 0.03539417
#
# Stress axis : x y z
#
# Youngs Moduli (GPa) = 71.21183 38.47979 81.53785
#
# Poissons Ratio (x) = 0.05680 0.41115
# Poissons Ratio (y) = 0.10511 0.15750
# Poissons Ratio (z) = 0.35908 0.07433
#
# Static dielectric constant tensor:
#      x y z
#    x 1.860890 0.000000 -0.013720 
#    y 0.000000 1.830720 0.000000 
#    z -0.013720 0.000000 1.765110 
# 
# From -- ./inp_files/359717.got.cif
#   From: 2010.05.17/outbox.cif.g08.bks.cpg/sg12_180_cif.got.tgz:359717.got - 2010.06.03 13:09:07.
