data_PCOD9182786
_publ_section_title
;
Structure prediction by ZEFSAII (Michael W. Deem and Ramdas Pophale) SiO2 
 PCOD9182786
Probable space group: C 2/M
;
_chemical_formula_sum "Si O2"
_cell_formula_units_Z 48
_cell_length_a 18.996948
_cell_length_b 8.699915
_cell_length_c 19.406243
_cell_angle_alpha 90.000000
_cell_angle_beta 120.975471
_cell_angle_gamma 90.000000
_cell_volume 2749.904208
_symmetry_space_group_name_H-M "C 2/M"
_symmetry_group_IT_number 12
_symmetry_cell_setting 'monoclinic'
loop_
_space_group_symop_operation_xyz
x,y,z
-x,y,-z
-x,-y,-z
x,-y,z
1/2+x,1/2+y,z
1/2-x,1/2+y,-z
1/2-x,1/2-y,-z
1/2+x,1/2-y,z
loop_
_atom_site_type_symbol
_atom_site_label
_atom_site_fract_x
_atom_site_fract_y
_atom_site_fract_z
Si Si1 0.682309 0.314626 0.761788
Si Si2 0.827990 0.185913 0.743383
Si Si3 0.489882 0.677711 0.165506
Si Si4 0.681745 0.817931 0.915282
Si Si5 0.495972 0.677681 0.336098
Si Si6 0.674609 0.686365 0.418929
O O1 0.679600 0.500000 0.762185
O O2 0.756777 0.257480 0.753023
O O3 0.691716 0.254272 0.844309
O O4 0.592980 0.256808 0.689149
O O5 0.817257 0.228358 0.657596
O O6 0.920279 0.232289 0.812739
O O7 0.825283 0.000000 0.746130
O O8 0.478046 0.500000 0.138547
O O9 0.409963 0.773401 0.105896
O O10 0.495028 0.677485 0.251855
O O11 0.689778 0.000000 0.914905
O O12 0.750000 0.750000 0.000000
O O13 0.496468 0.500000 0.359477
O O14 0.584960 0.743955 0.399947
O O15 0.673503 0.500000 0.421590
O O16 0.750000 0.750000 0.500000
#
# Coordination Sequence:
#
# PCOD9182786 Si02
#       6
#     8   8   8   8   8   8
#     4  10  19  33  53  75  99 129 167 206 245 293
#     4   9  18  33  52  74 102 133 163 202 251 297
#     4   8  15  31  52  71  95 129 166 200 241 294
#     4  11  21  34  53  76 102 130 163 202 244 291
#     4   7  13  28  48  67  91 127 164 197 238 291
#     4   9  17  31  50  71  97 129 166 205 247 294
#
# _framework density 17.455155000000001
#
# number of rings (size 3 to 8) (size 9 to 14) (size 15 to 20)
#    0.000    3.000    0.000    5.000    0.000    1.333 
#    0.000    9.167    0.000   10.000    0.000    0.000 
#    0.000    0.000    0.000    0.000    0.000    0.000 
#
# Total GULP energy -133631.000806 kJ/mol
# GULP energy per Si atom -5567.958367 kJ/mol
# Density = 1.741543 g / cm^3
# Si number density = 17.455155 Si / 1000 Ang^3
#
#
#
# Elastic Constant Matrix: (Units=GPa)
#
#
# Indices 1 2 3 4 5 6 
#
# 1 177.3727 44.4246 64.9185 0.0000 33.2151 0.0000
# 2 44.4246 44.4404 32.0472 0.0000 11.7835 0.0000
# 3 64.9185 32.0472 88.8012 0.0000 34.9165 0.0000
# 4 0.0000 0.0000 0.0000 25.6192 0.0000 3.7116
# 5 33.2151 11.7835 34.9165 0.0000 28.0907 0.0000
# 6 0.0000 0.0000 0.0000 3.7116 0.0000 30.1385
#
#
#
# Elastic Compliance Matrix: (Units=1/GPa)
#
#
# Indices 1 2 3 4 5 6 
#
# 1 0.008944 -0.005840 -0.002418 0.000000 -0.005121 0.000000
# 2 -0.005840 0.034274 -0.010096 0.000000 0.005077 0.000000
# 3 -0.002418 -0.010096 0.027154 0.000000 -0.026659 0.000000
# 4 0.000000 0.000000 0.000000 0.039742 0.000000 -0.004894
# 5 -0.005121 0.005077 -0.026659 0.000000 0.072661 0.000000
# 6 0.000000 0.000000 0.000000 -0.004894 0.000000 0.033783
#
#
# Mechanical properties :
#
#
# Convention : Reuss Voigt Hill
#
# Bulk Modulus (GPa) = 29.70422 65.93279 47.81850
# Shear Modulus (GPa) = 18.90444 28.05129 23.47787
#
# Velocity S-wave (km/s) = 3.29451 4.01315 3.67146
# Velocity P-wave (km/s) = 5.61481 7.70250 6.73998
#
# Compressibility (1/GPa) = 0.03366526
#
# Stress axis : x y z
#
# Youngs Moduli (GPa) = 111.80241 29.17646 36.82667
#
# Poissons Ratio (x) = 0.17039 0.08903
# Poissons Ratio (y) = 0.65291 0.37181
# Poissons Ratio (z) = 0.27030 0.29457
#
# Static dielectric constant tensor:
#      x y z
#    x 1.626730 0.000000 0.028680 
#    y 0.000000 1.592000 0.000000 
#    z 0.028680 0.000000 1.576830 
# 
# From -- ./inp_files/274608.got.cif
#   From: 2010.05.17/outbox.cif.g08.bks.cpg/sg12_138_cif.got.tgz:274608.got - 2010.06.03 13:09:07.
