data_PCOD9182367
_publ_section_title
;
Structure prediction by ZEFSAII (Michael W. Deem and Ramdas Pophale) SiO2 
 PCOD9182367
Probable space group: C 2/M
;
_chemical_formula_sum "Si O2"
_cell_formula_units_Z 50
_cell_length_a 25.418654
_cell_length_b 7.644963
_cell_length_c 14.639481
_cell_angle_alpha 90.000000
_cell_angle_beta 118.197767
_cell_angle_gamma 90.000000
_cell_volume 2507.195295
_symmetry_space_group_name_H-M "C 2/M"
_symmetry_group_IT_number 12
_symmetry_cell_setting 'monoclinic'
loop_
_space_group_symop_operation_xyz
x,y,z
-x,y,-z
-x,-y,-z
x,-y,z
1/2+x,1/2+y,z
1/2-x,1/2+y,-z
1/2-x,1/2-y,-z
1/2+x,1/2-y,z
loop_
_atom_site_type_symbol
_atom_site_label
_atom_site_fract_x
_atom_site_fract_y
_atom_site_fract_z
Si Si1 0.000000 0.000000 0.000000
Si Si2 0.147070 0.211586 0.934912
Si Si3 0.701595 0.288030 0.173739
Si Si4 0.829706 0.295470 0.248953
Si Si5 0.488803 0.702220 0.199099
Si Si6 0.579186 0.809822 0.128137
Si Si7 0.464101 0.212863 0.379746
O O1 0.051880 0.845574 0.046176
O O2 0.176310 0.279447 0.865752
O O3 0.077825 0.269600 0.875517
O O4 0.146744 0.000000 0.929431
O O5 0.179587 0.264845 0.054032
O O6 0.702283 0.500000 0.176918
O O7 0.769066 0.223173 0.242684
O O8 0.649546 0.221922 0.197028
O O9 0.832087 0.500000 0.274796
O O10 0.895198 0.223894 0.326556
O O11 0.492689 0.500000 0.166153
O O12 0.541481 0.798450 0.190442
O O13 0.493183 0.711218 0.311644
O O14 0.570151 0.000000 0.078667
O O15 0.500000 0.258327 0.500000
O O16 0.464066 0.000000 0.370487
#
# Coordination Sequence:
#
# PCOD9182367 Si02
#       7
#     2   8   8   8   8   8   8
#     4  12  22  40  52  78 118 148 200 244 256 316
#     4   9  18  29  47  70 102 143 176 225 277 315
#     4  10  19  33  50  71 110 150 188 231 271 330
#     4   9  18  31  50  75 104 144 183 226 286 334
#     4  10  19  34  54  77 112 144 184 240 284 333
#     4  12  24  36  56  80 110 157 197 234 282 325
#     4   9  18  34  56  83 112 140 183 239 291 348
#
# _framework density 19.942602000000001
#
# number of rings (size 3 to 8) (size 9 to 14) (size 15 to 20)
#    0.000    2.080    1.600    2.160    2.240    2.240 
#    0.000    0.000    0.000    0.960    0.000    0.000 
#    0.000    0.000    0.000    0.000    0.000    0.000 
#
# Total GULP energy -139407.259442 kJ/mol
# GULP energy per Si atom -5576.290378 kJ/mol
# Density = 1.989721 g / cm^3
# Si number density = 19.942602 Si / 1000 Ang^3
#
#
#
# Elastic Constant Matrix: (Units=GPa)
#
#
# Indices 1 2 3 4 5 6 
#
# 1 158.7118 21.8863 30.1318 0.0000 16.5513 0.0000
# 2 21.8863 89.7550 12.2644 0.0000 3.5613 0.0000
# 3 30.1318 12.2644 65.4511 0.0000 4.9057 0.0000
# 4 0.0000 0.0000 0.0000 33.5983 0.0000 1.3532
# 5 16.5513 3.5613 4.9057 0.0000 15.4844 0.0000
# 6 0.0000 0.0000 0.0000 1.3532 0.0000 19.0678
#
#
#
# Elastic Compliance Matrix: (Units=1/GPa)
#
#
# Indices 1 2 3 4 5 6 
#
# 1 0.007743 -0.001223 -0.002803 0.000000 -0.007107 0.000000
# 2 -0.001223 0.011688 -0.001561 0.000000 -0.000886 0.000000
# 3 -0.002803 -0.001561 0.017014 0.000000 -0.002036 0.000000
# 4 0.000000 0.000000 0.000000 0.029849 0.000000 -0.002118
# 5 -0.007107 -0.000886 -0.002036 0.000000 0.073026 0.000000
# 6 0.000000 0.000000 0.000000 -0.002118 0.000000 0.052595
#
#
# Mechanical properties :
#
#
# Convention : Reuss Voigt Hill
#
# Bulk Modulus (GPa) = 39.56963 49.16477 44.36720
# Shear Modulus (GPa) = 23.63945 30.27247 26.95596
#
# Velocity S-wave (km/s) = 3.44666 3.90035 3.68050
# Velocity P-wave (km/s) = 5.97697 6.70748 6.35273
#
# Compressibility (1/GPa) = 0.02527191
#
# Stress axis : x y z
#
# Youngs Moduli (GPa) = 129.15528 85.55707 58.77567
#
# Poissons Ratio (x) = 0.10464 0.16473
# Poissons Ratio (y) = 0.15796 0.09173
# Poissons Ratio (z) = 0.36197 0.13352
#
# Static dielectric constant tensor:
#      x y z
#    x 1.689570 0.000000 0.105920 
#    y 0.000000 1.793070 0.000000 
#    z 0.105920 0.000000 1.533460 
# 
# From -- ./inp_files/237990.got.cif
#   From: 2010.05.17/outbox.cif.g08.bks.cpg/sg12_119_cif.got.tgz:237990.got - 2010.06.03 13:09:07.
