data_PCOD9182001
_publ_section_title
;
Structure prediction by ZEFSAII (Michael W. Deem and Ramdas Pophale) SiO2 
 PCOD9182001
Probable space group: C 2/M
;
_chemical_formula_sum "Si O2"
_cell_formula_units_Z 56
_cell_length_a 22.031646
_cell_length_b 13.171327
_cell_length_c 9.722231
_cell_angle_alpha 90.000000
_cell_angle_beta 51.984457
_cell_angle_gamma 90.000000
_cell_volume 2222.708368
_symmetry_space_group_name_H-M "C 2/M"
_symmetry_group_IT_number 12
_symmetry_cell_setting 'monoclinic'
loop_
_space_group_symop_operation_xyz
x,y,z
-x,y,-z
-x,-y,-z
x,-y,z
1/2+x,1/2+y,z
1/2-x,1/2+y,-z
1/2-x,1/2-y,-z
1/2+x,1/2-y,z
loop_
_atom_site_type_symbol
_atom_site_label
_atom_site_fract_x
_atom_site_fract_y
_atom_site_fract_z
Si Si1 0.312378 0.758344 0.617428
Si Si2 0.582334 0.114581 0.069040
Si Si3 0.820427 0.668839 0.317483
Si Si4 0.625028 0.609674 0.793509
Si Si5 0.483141 0.333744 0.806944
Si Si6 0.769152 0.615265 0.940138
Si Si7 0.893645 0.113779 0.669117
O O1 0.264301 0.658461 0.629765
O O2 0.328980 0.835682 0.468613
O O3 0.274292 0.813479 0.800937
O O4 0.389492 0.706872 0.569309
O O5 0.615839 0.118523 0.866324
O O6 0.553071 0.000000 0.136700
O O7 0.526718 0.211193 0.165578
O O8 0.657425 0.132887 0.061739
O O9 0.824806 0.790285 0.284852
O O10 0.662649 0.500000 0.729313
O O11 0.561171 0.625643 0.764876
O O12 0.580940 0.619700 0.999497
O O13 0.459034 0.371104 0.691525
O O14 0.775836 0.500000 0.881696
O O15 0.688322 0.622683 0.133103
O O16 0.896651 0.000000 0.607681
#
# Coordination Sequence:
#
# PCOD9182001 Si02
#       7
#     8   8   8   8   8   8   8
#     4  11  21  36  53  82 115 151 190 234 284 343
#     4  10  19  35  58  84 111 141 185 240 287 335
#     4  10  23  36  54  78 117 155 186 232 289 334
#     4  10  20  37  57  83 117 151 192 232 277 339
#     4  10  19  34  58  85 114 149 188 237 286 330
#     4  10  19  32  55  82 108 140 184 237 285 334
#     4  11  20  32  56  86 114 147 191 240 287 336
#
# _framework density 25.194489000000001
#
# number of rings (size 3 to 8) (size 9 to 14) (size 15 to 20)
#    0.000    1.714    2.857    3.857    0.000    2.857 
#    0.000    9.286    0.000    1.714    0.000    2.000 
#    0.000    0.000    0.000    0.000    0.000    0.000 
#
# Total GULP energy -156674.687255 kJ/mol
# GULP energy per Si atom -5595.524545 kJ/mol
# Density = 2.513715 g / cm^3
# Si number density = 25.194489 Si / 1000 Ang^3
#
#
#
# Elastic Constant Matrix: (Units=GPa)
#
#
# Indices 1 2 3 4 5 6 
#
# 1 77.2611 10.3550 12.1226 0.0000 19.7766 0.0000
# 2 10.3550 148.9880 13.3145 0.0000 6.5503 0.0000
# 3 12.1226 13.3145 100.0070 0.0000 25.0530 0.0000
# 4 0.0000 0.0000 0.0000 14.1457 0.0000 0.7600
# 5 19.7766 6.5503 25.0530 0.0000 39.6811 0.0000
# 6 0.0000 0.0000 0.0000 0.7600 0.0000 28.9021
#
#
#
# Elastic Compliance Matrix: (Units=1/GPa)
#
#
# Indices 1 2 3 4 5 6 
#
# 1 0.014913 -0.000724 0.000143 0.000000 -0.007403 0.000000
# 2 -0.000724 0.006842 -0.000749 0.000000 -0.000296 0.000000
# 3 0.000143 -0.000749 0.011960 0.000000 -0.007499 0.000000
# 4 0.000000 0.000000 0.000000 0.070793 0.000000 -0.001861
# 5 -0.007403 -0.000296 -0.007499 0.000000 0.033674 0.000000
# 6 0.000000 0.000000 0.000000 -0.001861 0.000000 0.034649
#
#
# Mechanical properties :
#
#
# Convention : Reuss Voigt Hill
#
# Bulk Modulus (GPa) = 32.19993 44.20448 38.20220
# Shear Modulus (GPa) = 26.90461 35.91004 31.40732
#
# Velocity S-wave (km/s) = 3.27138 3.77943 3.53455
# Velocity P-wave (km/s) = 5.20361 6.05217 5.64386
#
# Compressibility (1/GPa) = 0.03105597
#
# Stress axis : x y z
#
# Youngs Moduli (GPa) = 67.05703 146.15173 83.61029
#
# Poissons Ratio (x) = 0.10578 -0.01198
# Poissons Ratio (y) = 0.04853 0.06263
# Poissons Ratio (z) = -0.00961 0.10948
#
# Static dielectric constant tensor:
#      x y z
#    x 2.116800 0.000000 -0.031060 
#    y 0.000000 1.986400 0.000000 
#    z -0.031060 0.000000 2.066500 
# 
# From -- ./inp_files/96232.got.cif
#   From: 2010.05.17/outbox.cif.g08.bks.cpg/sg12_49_cif.got.tgz:96232.got - 2010.06.03 13:09:07.
