data_PCOD9182463
_publ_section_title
;
Structure prediction by ZEFSAII (Michael W. Deem and Ramdas Pophale) SiO2 
 PCOD9182463
Probable space group: C 2/M
;
_chemical_formula_sum "Si O2"
_cell_formula_units_Z 56
_cell_length_a 31.717712
_cell_length_b 13.501131
_cell_length_c 12.769630
_cell_angle_alpha 90.000000
_cell_angle_beta 143.688468
_cell_angle_gamma 90.000000
_cell_volume 3238.177580
_symmetry_space_group_name_H-M "C 2/M"
_symmetry_group_IT_number 12
_symmetry_cell_setting 'monoclinic'
loop_
_space_group_symop_operation_xyz
x,y,z
-x,y,-z
-x,-y,-z
x,-y,z
1/2+x,1/2+y,z
1/2-x,1/2+y,-z
1/2-x,1/2-y,-z
1/2+x,1/2-y,z
loop_
_atom_site_type_symbol
_atom_site_label
_atom_site_fract_x
_atom_site_fract_y
_atom_site_fract_z
Si Si1 0.920618 0.118103 0.311237
Si Si2 0.835157 0.613179 0.943230
Si Si3 0.927513 0.115463 0.671794
Si Si4 0.425140 0.701444 0.095619
Si Si5 0.143482 0.177840 0.265039
Si Si6 0.698328 0.890293 0.369094
Si Si7 0.188615 0.119885 0.732915
O O1 0.906550 0.140809 0.162386
O O2 0.858707 0.156113 0.264472
O O3 0.000000 0.155886 0.500000
O O4 0.922651 0.000000 0.331174
O O5 0.852629 0.500000 0.007495
O O6 0.804793 0.610532 0.763635
O O7 0.769789 0.654196 0.882167
O O8 0.901678 0.686411 0.073522
O O9 0.909211 0.130106 0.756474
O O10 0.857720 0.140350 0.463805
O O11 0.992557 0.182616 0.765090
O O12 0.945408 0.000000 0.686468
O O13 0.383306 0.669293 0.907181
O O14 0.221056 0.129353 0.433519
O O15 0.152445 0.294887 0.310037
O O16 0.674701 0.000000 0.356337
O O17 0.194227 0.000000 0.750372
#
# Coordination Sequence:
#
# PCOD9182463 Si02
#       7
#     8   8   8   8   8   8   8
#     4  10  19  33  51  76 108 136 165 207 262 315
#     4   9  18  35  55  75  99 136 181 214 245 298
#     4  11  20  33  53  78 107 136 168 211 260 310
#     4  11  22  32  50  81 107 133 167 217 265 304
#     4  10  20  31  49  80 108 133 172 211 258 312
#     4   9  17  32  52  73 104 143 173 206 252 307
#     4   9  17  32  56  75  95 135 179 207 242 305
#
# _framework density 17.293676999999999
#
# number of rings (size 3 to 8) (size 9 to 14) (size 15 to 20)
#    0.000    2.143    2.857    1.286    0.000    3.429 
#    0.000    0.714    0.000    3.857    0.000    0.000 
#    0.000    0.000    0.000    0.000    0.000    0.000 
#
# Total GULP energy -156035.383879 kJ/mol
# GULP energy per Si atom -5572.692281 kJ/mol
# Density = 1.725432 g / cm^3
# Si number density = 17.293677 Si / 1000 Ang^3
#
#
#
# Elastic Constant Matrix: (Units=GPa)
#
#
# Indices 1 2 3 4 5 6 
#
# 1 86.5222 24.3109 26.5203 0.0000 2.6022 0.0000
# 2 24.3109 48.1648 22.3981 0.0000 14.2844 0.0000
# 3 26.5203 22.3981 34.4137 0.0000 6.5288 0.0000
# 4 0.0000 0.0000 0.0000 14.1060 0.0000 1.4818
# 5 2.6022 14.2844 6.5288 0.0000 26.9362 0.0000
# 6 0.0000 0.0000 0.0000 1.4818 0.0000 22.3311
#
#
#
# Elastic Compliance Matrix: (Units=1/GPa)
#
#
# Indices 1 2 3 4 5 6 
#
# 1 0.015699 -0.004233 -0.009938 0.000000 0.003137 0.000000
# 2 -0.004233 0.034847 -0.016761 0.000000 -0.014008 0.000000
# 3 -0.009938 -0.016761 0.047963 0.000000 -0.001777 0.000000
# 4 0.000000 0.000000 0.000000 0.071390 0.000000 -0.004737
# 5 0.003137 -0.014008 -0.001777 0.000000 0.044681 0.000000
# 6 0.000000 0.000000 0.000000 -0.004737 0.000000 0.045095
#
#
# Mechanical properties :
#
#
# Convention : Reuss Voigt Hill
#
# Bulk Modulus (GPa) = 27.28868 35.06215 31.17542
# Shear Modulus (GPa) = 14.98111 19.06609 17.02360
#
# Velocity S-wave (km/s) = 2.94645 3.32398 3.14089
# Velocity P-wave (km/s) = 5.23348 5.92033 5.58747
#
# Compressibility (1/GPa) = 0.03664523
#
# Stress axis : x y z
#
# Youngs Moduli (GPa) = 63.69863 28.69669 20.84942
#
# Poissons Ratio (x) = 0.12146 0.20721
# Poissons Ratio (y) = 0.26961 0.34946
# Poissons Ratio (z) = 0.63306 0.48098
#
# Static dielectric constant tensor:
#      x y z
#    x 1.596660 0.000000 0.003560 
#    y 0.000000 1.603560 0.000000 
#    z 0.003560 0.000000 1.581920 
# 
# From -- ./inp_files/189233.got.cif
#   From: 2010.05.17/outbox.cif.g08.bks.cpg/sg12_95_cif.got.tgz:189233.got - 2010.06.03 13:09:07.
