data_PCOD9182550
_publ_section_title
;
Structure prediction by ZEFSAII (Michael W. Deem and Ramdas Pophale) SiO2 
 PCOD9182550
Probable space group: C 2/M
;
_chemical_formula_sum "Si O2"
_cell_formula_units_Z 64
_cell_length_a 14.926332
_cell_length_b 8.484544
_cell_length_c 28.284885
_cell_angle_alpha 90.000000
_cell_angle_beta 72.158496
_cell_angle_gamma 90.000000
_cell_volume 3409.815354
_symmetry_space_group_name_H-M "C 2/M"
_symmetry_group_IT_number 12
_symmetry_cell_setting 'monoclinic'
loop_
_space_group_symop_operation_xyz
x,y,z
-x,y,-z
-x,-y,-z
x,-y,z
1/2+x,1/2+y,z
1/2-x,1/2+y,-z
1/2-x,1/2-y,-z
1/2+x,1/2-y,z
loop_
_atom_site_type_symbol
_atom_site_label
_atom_site_fract_x
_atom_site_fract_y
_atom_site_fract_z
Si Si1 0.463201 0.189639 0.742277
Si Si2 0.257072 0.688714 0.445799
Si Si3 0.948648 0.809968 0.364510
Si Si4 0.580388 0.809556 0.809715
Si Si5 0.733158 0.810863 0.271219
Si Si6 0.854004 0.188551 0.621244
Si Si7 0.149536 0.690190 0.998400
Si Si8 0.955198 0.692213 0.078424
O O1 0.536312 0.246802 0.690704
O O2 0.495948 0.242116 0.788651
O O3 0.360169 0.242923 0.742315
O O4 0.462643 0.000000 0.741654
O O5 0.257448 0.500000 0.446329
O O6 0.250000 0.750000 0.500000
O O7 0.354188 0.744113 0.405437
O O8 0.174193 0.747956 0.425219
O O9 0.041676 0.762130 0.378853
O O10 0.947044 0.000000 0.362514
O O11 0.675556 0.754931 0.769181
O O12 0.569824 0.752244 0.865078
O O13 0.579932 0.000000 0.811107
O O14 0.717317 0.752876 0.327303
O O15 0.736763 0.000000 0.271029
O O16 0.850076 0.000000 0.621891
O O17 0.152413 0.500000 0.998196
O O18 0.060682 0.738739 0.045487
O O19 0.250000 0.750000 0.000000
O O20 0.118460 0.741092 0.950464
O O21 0.954459 0.500000 0.078666
#
# Coordination Sequence:
#
# PCOD9182550 Si02
#       8
#     8   8   8   8   8   8   8   8
#     4   9  19  33  51  74 101 132 168 205 248 301
#     4  11  23  38  55  79 107 136 170 214 263 310
#     4   9  20  37  56  75 101 135 170 207 252 302
#     4  10  19  33  52  74 102 139 175 209 249 305
#     4  10  20  34  51  77 108 135 165 208 257 303
#     4  10  20  37  58  78 101 136 176 212 251 304
#     4   9  17  33  55  75  97 133 175 217 260 307
#     4   8  17  33  51  72 102 137 173 208 256 315
#
# _framework density 18.769344
#
# number of rings (size 3 to 8) (size 9 to 14) (size 15 to 20)
#    0.000    2.500    0.000    2.625    0.000    6.000 
#    0.000    6.250    0.000    0.000    0.000    0.000 
#    0.000    0.000    0.000    0.000    0.000    0.000 
#
# Total GULP energy -178570.804701 kJ/mol
# GULP energy per Si atom -5580.337647 kJ/mol
# Density = 1.872662 g / cm^3
# Si number density = 18.769344 Si / 1000 Ang^3
#
#
#
# Elastic Constant Matrix: (Units=GPa)
#
#
# Indices 1 2 3 4 5 6 
#
# 1 85.6448 10.9773 40.9424 0.0000 21.1900 0.0000
# 2 10.9773 12.5865 13.4274 0.0000 6.4669 0.0000
# 3 40.9424 13.4274 107.5719 0.0000 30.8613 0.0000
# 4 0.0000 0.0000 0.0000 19.4296 0.0000 -0.1259
# 5 21.1900 6.4669 30.8613 0.0000 21.2327 0.0000
# 6 0.0000 0.0000 0.0000 -0.1259 0.0000 25.7854
#
#
#
# Elastic Compliance Matrix: (Units=1/GPa)
#
#
# Indices 1 2 3 4 5 6 
#
# 1 0.016284 -0.006087 -0.002243 0.000000 -0.011138 0.000000
# 2 -0.006087 0.098818 -0.005362 0.000000 -0.016229 0.000000
# 3 -0.002243 -0.005362 0.016652 0.000000 -0.020332 0.000000
# 4 0.000000 0.000000 0.000000 0.051470 0.000000 0.000251
# 5 -0.011138 -0.016229 -0.020332 0.000000 0.092708 0.000000
# 6 0.000000 0.000000 0.000000 0.000251 0.000000 0.038783
#
#
# Mechanical properties :
#
#
# Convention : Reuss Voigt Hill
#
# Bulk Modulus (GPa) = 9.58128 37.38858 23.48493
# Shear Modulus (GPa) = 13.26655 22.65328 17.95992
#
# Velocity S-wave (km/s) = 2.66149 3.47786 3.09670
# Velocity P-wave (km/s) = 3.81583 6.00755 5.03245
#
# Compressibility (1/GPa) = 0.10437020
#
# Stress axis : x y z
#
# Youngs Moduli (GPa) = 61.40958 10.11965 60.05251
#
# Poissons Ratio (x) = 0.06160 0.13468
# Poissons Ratio (y) = 0.37381 0.32200
# Poissons Ratio (z) = 0.13772 0.05426
#
# Static dielectric constant tensor:
#      x y z
#    x 1.659100 0.000000 0.016870 
#    y 0.000000 1.640040 0.000000 
#    z 0.016870 0.000000 1.630840 
# 
# From -- ./inp_files/359794.got.cif
#   From: 2010.05.17/outbox.cif.g08.bks.cpg/sg12_180_cif.got.tgz:359794.got - 2010.06.03 13:09:07.
