data_PCOD9182671
_publ_section_title
;
Structure prediction by ZEFSAII (Michael W. Deem and Ramdas Pophale) SiO2 
 PCOD9182671
Probable space group: C 2/M
;
_chemical_formula_sum "Si O2"
_cell_formula_units_Z 64
_cell_length_a 12.097930
_cell_length_b 19.689897
_cell_length_c 24.807381
_cell_angle_alpha 90.000000
_cell_angle_beta 36.787470
_cell_angle_gamma 90.000000
_cell_volume 3538.770306
_symmetry_space_group_name_H-M "C 2/M"
_symmetry_group_IT_number 12
_symmetry_cell_setting 'monoclinic'
loop_
_space_group_symop_operation_xyz
x,y,z
-x,y,-z
-x,-y,-z
x,-y,z
1/2+x,1/2+y,z
1/2-x,1/2+y,-z
1/2-x,1/2-y,-z
1/2+x,1/2-y,z
loop_
_atom_site_type_symbol
_atom_site_label
_atom_site_fract_x
_atom_site_fract_y
_atom_site_fract_z
Si Si1 0.753410 0.788924 0.751479
Si Si2 0.182449 0.306697 0.068253
Si Si3 0.014523 0.734972 0.430771
Si Si4 0.070269 0.925091 0.338136
Si Si5 0.139045 0.577413 0.677583
Si Si6 0.254084 0.864391 0.478966
Si Si7 0.709493 0.827005 0.178200
Si Si8 0.042975 0.077300 0.047291
O O1 0.538079 0.803044 0.843367
O O2 0.863040 0.858789 0.719506
O O3 0.819048 0.731916 0.767607
O O4 0.802608 0.760430 0.672128
O O5 0.253034 0.296255 0.102202
O O6 0.250000 0.250000 0.000000
O O7 0.269545 0.379760 0.018489
O O8 0.878262 0.798961 0.475517
O O9 0.939189 0.667676 0.430888
O O10 0.000000 0.722637 0.500000
O O11 0.197655 0.921275 0.342345
O O12 0.859026 0.914191 0.438078
O O13 0.098300 0.000000 0.303311
O O14 0.070939 0.500000 0.701244
O O15 0.214678 0.601198 0.590541
O O16 0.971050 0.626471 0.758253
O O17 0.875807 0.875508 0.133185
O O18 0.048686 0.000000 0.065725
O O19 0.000000 0.072750 0.000000
#
# Coordination Sequence:
#
# PCOD9182671 Si02
#       8
#     8   8   8   8   8   8   8   8
#     4  11  21  36  58  85 114 151 189 239 284 339
#     4  11  22  36  58  85 117 147 187 234 282 346
#     4  10  21  34  56  83 115 152 194 234 287 339
#     4  10  21  35  54  84 116 150 190 239 293 341
#     4  11  20  33  56  86 116 147 188 243 295 342
#     4  10  19  33  52  81 115 150 189 237 291 339
#     4  11  21  36  58  87 116 147 192 232 291 344
#     4   9  19  35  56  84 117 146 178 231 293 345
#
# _framework density 18.085379
#
# number of rings (size 3 to 8) (size 9 to 14) (size 15 to 20)
#    0.000    1.625    3.750    2.625    0.000    2.000 
#    0.000    0.000    0.000    2.250    0.000    1.750 
#    0.000    0.000    0.000    0.000    0.000    0.000 
#
# Total GULP energy -178433.880605 kJ/mol
# GULP energy per Si atom -5576.058769 kJ/mol
# Density = 1.804422 g / cm^3
# Si number density = 18.085379 Si / 1000 Ang^3
#
#
#
# Elastic Constant Matrix: (Units=GPa)
#
#
# Indices 1 2 3 4 5 6 
#
# 1 16.6755 31.3555 14.3139 -0.0022 -2.6883 -0.0015
# 2 31.3555 144.8566 47.7745 -0.0021 5.7857 0.0002
# 3 14.3139 47.7745 96.7726 -0.0017 -7.9321 -0.0007
# 4 -0.0022 -0.0021 -0.0017 17.6966 -0.0017 2.1144
# 5 -2.6883 5.7857 -7.9321 -0.0017 29.4489 0.0011
# 6 -0.0015 0.0002 -0.0007 2.1144 0.0011 26.2386
#
#
#
# Elastic Compliance Matrix: (Units=1/GPa)
#
#
# Indices 1 2 3 4 5 6 
#
# 1 0.107912 -0.022679 -0.003674 0.000011 0.013317 0.000005
# 2 -0.022679 0.013240 -0.003645 -0.000002 -0.005653 -0.000001
# 3 -0.003674 -0.003645 0.012995 0.000001 0.003881 0.000000
# 4 0.000011 -0.000002 0.000001 0.057057 0.000005 -0.004598
# 5 0.013317 -0.005653 0.003881 0.000005 0.037329 -0.000001
# 6 0.000005 -0.000001 0.000000 -0.004598 -0.000001 0.038482
#
#
# Mechanical properties :
#
#
# Convention : Reuss Voigt Hill
#
# Bulk Modulus (GPa) = 13.48605 49.46584 31.47595
# Shear Modulus (GPa) = 14.21551 25.66753 19.94152
#
# Velocity S-wave (km/s) = 2.80665 3.77137 3.32419
# Velocity P-wave (km/s) = 4.23983 6.80992 5.67235
#
# Compressibility (1/GPa) = 0.07415067
#
# Stress axis : x y z
#
# Youngs Moduli (GPa) = 9.26684 75.52615 76.95420
#
# Poissons Ratio (x) = 1.71282 0.28273
# Poissons Ratio (y) = 0.21016 0.28053
# Poissons Ratio (z) = 0.03405 0.27533
#
# Static dielectric constant tensor:
#      x y z
#    x 1.626270 0.000000 -0.011160 
#    y 0.000000 1.636850 0.000000 
#    z -0.011160 0.000000 1.658450 
# 
# From -- ./inp_files/336669.got.cif
#   From: 2010.05.17/outbox.cif.g08.bks.cpg/sg12_169_cif.got.tgz:336669.got - 2010.06.03 13:09:07.
