data_PCOD9182141
_publ_section_title
;
Structure prediction by ZEFSAII (Michael W. Deem and Ramdas Pophale) SiO2 
 PCOD9182141
Probable space group: C 2/M
;
_chemical_formula_sum "Si O2"
_cell_formula_units_Z 64
_cell_length_a 14.856449
_cell_length_b 7.718389
_cell_length_c 23.751684
_cell_angle_alpha 90.000000
_cell_angle_beta 83.555270
_cell_angle_gamma 90.000000
_cell_volume 2706.343352
_symmetry_space_group_name_H-M "C 2/M"
_symmetry_group_IT_number 12
_symmetry_cell_setting 'monoclinic'
loop_
_space_group_symop_operation_xyz
x,y,z
-x,y,-z
-x,-y,-z
x,-y,z
1/2+x,1/2+y,z
1/2-x,1/2+y,-z
1/2-x,1/2-y,-z
1/2+x,1/2-y,z
loop_
_atom_site_type_symbol
_atom_site_label
_atom_site_fract_x
_atom_site_fract_y
_atom_site_fract_z
Si Si1 0.213439 0.289900 0.863862
Si Si2 0.823049 0.192562 0.540614
Si Si3 0.328906 0.299466 0.377461
Si Si4 0.459443 0.212281 0.061991
Si Si5 0.391437 0.208205 0.721996
Si Si6 0.576804 0.203475 0.158362
Si Si7 0.983373 0.790403 0.597056
Si Si8 0.683129 0.802104 0.743152
O O1 0.218593 0.500000 0.860840
O O2 0.315683 0.223542 0.860690
O O3 0.169589 0.232761 0.807089
O O4 0.144462 0.239557 0.917841
O O5 0.750000 0.250000 0.500000
O O6 0.761491 0.196700 0.601336
O O7 0.916428 0.279809 0.553538
O O8 0.848707 0.000000 0.521809
O O9 0.309688 0.500000 0.391630
O O10 0.412640 0.232905 0.408827
O O11 0.353583 0.287502 0.310125
O O12 0.519875 0.275085 0.110367
O O13 0.462206 0.000000 0.061241
O O14 0.500000 0.271660 0.000000
O O15 0.438946 0.268469 0.776750
O O16 0.442823 0.246714 0.660993
O O17 0.292178 0.292397 0.729066
O O18 0.378053 0.000000 0.726386
O O19 0.554732 0.000000 0.161805
O O20 0.985409 0.000000 0.592983
O O21 0.650862 0.000000 0.743477
#
# Coordination Sequence:
#
# PCOD9182141 Si02
#       8
#     8   8   8   8   8   8   8   8
#     4   9  19  34  54  79 109 146 188 232 285 345
#     4  11  24  44  66  87 118 159 197 241 286 336
#     4  11  23  39  60  89 119 153 194 237 286 343
#     4   9  18  34  55  78 108 150 195 234 281 344
#     4  10  19  32  56  84 115 149 190 237 286 345
#     4   9  19  34  53  80 111 144 186 237 286 335
#     4  10  23  40  59  86 121 155 189 233 291 342
#     4  10  19  33  55  82 117 151 186 235 292 347
#
# _framework density 23.648145
#
# number of rings (size 3 to 8) (size 9 to 14) (size 15 to 20)
#    0.000    2.125    1.250    1.500    1.750    3.500 
#    0.000    3.125    0.000    0.750    0.000    0.000 
#    0.000    0.000    0.000    0.000    0.000    0.000 
#
# Total GULP energy -178764.838694 kJ/mol
# GULP energy per Si atom -5586.401209 kJ/mol
# Density = 2.359432 g / cm^3
# Si number density = 23.648145 Si / 1000 Ang^3
#
#
#
# Elastic Constant Matrix: (Units=GPa)
#
#
# Indices 1 2 3 4 5 6 
#
# 1 80.5997 -3.2241 32.0216 0.0000 9.7117 0.0000
# 2 -3.2241 44.5208 1.5583 0.0000 3.3733 0.0000
# 3 32.0216 1.5583 94.9553 0.0000 -1.2064 0.0000
# 4 0.0000 0.0000 0.0000 14.7321 0.0000 1.5288
# 5 9.7117 3.3733 -1.2064 0.0000 45.0200 0.0000
# 6 0.0000 0.0000 0.0000 1.5288 0.0000 12.8742
#
#
#
# Elastic Compliance Matrix: (Units=1/GPa)
#
#
# Indices 1 2 3 4 5 6 
#
# 1 0.014911 0.001521 -0.005097 0.000000 -0.003467 0.000000
# 2 0.001521 0.022759 -0.000913 0.000000 -0.002058 0.000000
# 3 -0.005097 -0.000913 0.012284 0.000000 0.001497 0.000000
# 4 0.000000 0.000000 0.000000 0.068726 0.000000 -0.008161
# 5 -0.003467 -0.002058 0.001497 0.000000 0.023155 0.000000
# 6 0.000000 0.000000 0.000000 -0.008161 0.000000 0.078644
#
#
# Mechanical properties :
#
#
# Convention : Reuss Voigt Hill
#
# Bulk Modulus (GPa) = 24.40427 31.19860 27.80143
# Shear Modulus (GPa) = 20.56637 27.17327 23.86982
#
# Velocity S-wave (km/s) = 2.95224 3.39346 3.18051
# Velocity P-wave (km/s) = 4.68648 5.34562 5.02686
#
# Compressibility (1/GPa) = 0.04097644
#
# Stress axis : x y z
#
# Youngs Moduli (GPa) = 67.06586 43.93789 81.40519
#
# Poissons Ratio (x) = -0.06683 0.41495
# Poissons Ratio (y) = -0.10200 0.07429
# Poissons Ratio (z) = 0.34186 0.04009
#
# Static dielectric constant tensor:
#      x y z
#    x 1.892270 0.000000 0.017850 
#    y 0.000000 1.878730 0.000000 
#    z 0.017850 0.000000 1.930530 
# 
# From -- ./inp_files/338756.got.cif
#   From: 2010.05.17/outbox.cif.g08.bks.cpg/sg12_170_cif.got.tgz:338756.got - 2010.06.03 13:09:07.
