data_PCOD9182416
_publ_section_title
;
Structure prediction by ZEFSAII (Michael W. Deem and Ramdas Pophale) SiO2 
 PCOD9182416
Probable space group: C 2/M
;
_chemical_formula_sum "Si O2"
_cell_formula_units_Z 56
_cell_length_a 23.707400
_cell_length_b 14.286021
_cell_length_c 9.095912
_cell_angle_alpha 90.000000
_cell_angle_beta 85.566115
_cell_angle_gamma 90.000000
_cell_volume 3071.423896
_symmetry_space_group_name_H-M "C 2/M"
_symmetry_group_IT_number 12
_symmetry_cell_setting 'monoclinic'
loop_
_space_group_symop_operation_xyz
x,y,z
-x,y,-z
-x,-y,-z
x,-y,z
1/2+x,1/2+y,z
1/2-x,1/2+y,-z
1/2-x,1/2-y,-z
1/2+x,1/2-y,z
loop_
_atom_site_type_symbol
_atom_site_label
_atom_site_fract_x
_atom_site_fract_y
_atom_site_fract_z
Si Si1 0.895100 0.730902 0.101333
Si Si2 0.452257 0.102910 0.860595
Si Si3 0.135009 0.603153 0.383319
Si Si4 0.689025 0.609497 0.888387
Si Si5 0.758687 0.729156 0.665216
Si Si6 0.719150 0.890360 0.873619
Si Si7 0.043567 0.318672 0.624230
O O1 0.864625 0.826746 0.055428
O O2 0.843207 0.655558 0.111752
O O3 0.923532 0.743194 0.257815
O O4 0.939578 0.685203 0.978676
O O5 0.401162 0.101150 0.756736
O O6 0.505560 0.118237 0.741360
O O7 0.452453 0.000000 0.931088
O O8 0.160036 0.500000 0.405136
O O9 0.181540 0.679465 0.341025
O O10 0.092944 0.628869 0.524968
O O11 0.675770 0.500000 0.879284
O O12 0.711506 0.658074 0.736059
O O13 0.743544 0.619074 0.985448
O O14 0.750000 0.750000 0.500000
O O15 0.753142 0.825664 0.753658
O O16 0.715703 0.000000 0.838262
O O17 0.000000 0.284466 0.500000
#
# Coordination Sequence:
#
# PCOD9182416 Si02
#       7
#     8   8   8   8   8   8   8
#     4  11  20  34  57  80 105 139 177 217 264 317
#     4  10  20  33  53  79 104 135 176 220 265 314
#     4  10  19  33  51  72 105 144 176 211 260 316
#     4  10  21  38  58  81 110 142 179 222 267 319
#     4  11  21  32  51  81 112 143 179 216 262 321
#     4  10  21  36  55  82 114 144 177 219 265 321
#     4  10  22  36  50  74 108 143 178 218 265 316
#
# _framework density 18.232586000000001
#
# number of rings (size 3 to 8) (size 9 to 14) (size 15 to 20)
#    0.000    1.714    0.000    6.857    0.000    9.143 
#    0.000    0.000    0.000    2.143    0.000    2.000 
#    0.000    0.000    0.000    0.000    0.000    0.000 
#
# Total GULP energy -155985.987190 kJ/mol
# GULP energy per Si atom -5570.928114 kJ/mol
# Density = 1.819109 g / cm^3
# Si number density = 18.232586 Si / 1000 Ang^3
#
#
#
# Elastic Constant Matrix: (Units=GPa)
#
#
# Indices 1 2 3 4 5 6 
#
# 1 75.4855 36.9255 10.6462 0.0000 -14.2128 0.0000
# 2 36.9255 115.0965 29.7910 0.0000 -14.8970 0.0000
# 3 10.6462 29.7910 83.9744 0.0000 -16.4489 0.0000
# 4 0.0000 0.0000 0.0000 -14.0252 0.0000 -33.4073
# 5 -14.2128 -14.8970 -16.4489 0.0000 25.6026 0.0000
# 6 0.0000 0.0000 0.0000 -33.4073 0.0000 -29.2095
#
#
#
# Elastic Compliance Matrix: (Units=1/GPa)
#
#
# Indices 1 2 3 4 5 6 
#
# 1 0.016762 -0.004693 0.000947 0.000000 0.007183 0.000000
# 2 -0.004693 0.011229 -0.002996 0.000000 0.002003 0.000000
# 3 0.000947 -0.002996 0.014429 0.000000 0.008052 0.000000
# 4 0.000000 0.000000 0.000000 0.041351 0.000000 -0.047294
# 5 0.007183 0.002003 0.008052 0.000000 0.049385 0.000000
# 6 0.000000 0.000000 0.000000 -0.047294 0.000000 0.019855
#
#
# Mechanical properties :
#
#
# Convention : Reuss Voigt Hill
#
# Bulk Modulus (GPa) = 34.56063 47.69798 41.12930
# Shear Modulus (GPa) = 28.38650 9.61983 19.00317
#
# Velocity S-wave (km/s) = 3.95005 2.29948 3.23191
# Velocity P-wave (km/s) = 6.30876 5.76783 6.04435
#
# Compressibility (1/GPa) = 0.02893466
#
# Stress axis : x y z
#
# Youngs Moduli (GPa) = 59.65814 89.05663 69.30702
#
# Poissons Ratio (x) = 0.41795 -0.06562
# Poissons Ratio (y) = 0.27998 0.20766
# Poissons Ratio (z) = -0.05648 0.26683
#
# Static dielectric constant tensor:
#      x y z
#    x 1.678060 0.000000 0.034440 
#    y 0.000000 1.606940 0.000000 
#    z 0.034440 0.000000 1.666610 
# 
# From -- ./inp_files/86307.got.cif
#   From: 2010.05.17/outbox.cif.g08.bks.cpg/sg12_44_cif.got.tgz:86307.got - 2010.06.03 13:09:07.
