data_PCOD9182096
_publ_section_title
;
Structure prediction by ZEFSAII (Michael W. Deem and Ramdas Pophale) SiO2 
 PCOD9182096
Probable space group: C 2/M
;
_chemical_formula_sum "Si O2"
_cell_formula_units_Z 48
_cell_length_a 15.163108
_cell_length_b 30.288134
_cell_length_c 12.059705
_cell_angle_alpha 90.000000
_cell_angle_beta 150.256160
_cell_angle_gamma 90.000000
_cell_volume 2747.811462
_symmetry_space_group_name_H-M "C 2/M"
_symmetry_group_IT_number 12
_symmetry_cell_setting 'monoclinic'
loop_
_space_group_symop_operation_xyz
x,y,z
-x,y,-z
-x,-y,-z
x,-y,z
1/2+x,1/2+y,z
1/2-x,1/2+y,-z
1/2-x,1/2-y,-z
1/2+x,1/2-y,z
loop_
_atom_site_type_symbol
_atom_site_label
_atom_site_fract_x
_atom_site_fract_y
_atom_site_fract_z
Si Si1 0.337798 0.450617 0.236819
Si Si2 0.583569 0.849355 0.277592
Si Si3 0.816214 0.141375 0.104968
Si Si4 0.702207 0.759285 0.321484
Si Si5 0.500000 0.081512 0.000000
Si Si6 0.000000 0.803324 0.500000
Si Si7 0.921655 0.162407 0.804052
O O1 0.500000 0.445955 0.500000
O O2 0.344502 0.500000 0.196155
O O3 0.348291 0.410654 0.160993
O O4 0.155098 0.444690 0.106717
O O5 0.586532 0.803465 0.211427
O O6 0.589568 0.887569 0.191734
O O7 0.746628 0.852929 0.542831
O O8 0.394471 0.851537 0.132058
O O9 0.890183 0.166209 0.295070
O O10 0.922950 0.160623 0.117839
O O11 0.750000 0.750000 0.500000
O O12 0.865628 0.773571 0.423861
O O13 0.629879 0.711569 0.211758
O O14 0.000000 0.138926 0.000000
#
# Coordination Sequence:
#
# PCOD9182096 Si02
#       7
#     8   8   8   8   4   4   8
#     4  10  19  32  55  88 119 143 176 227 293 357
#     4  10  21  36  57  82 111 153 195 229 281 341
#     4  11  22  37  61  81 112 156 188 231 293 342
#     4  10  21  37  52  82 112 150 200 235 276 330
#     4  10  19  34  58  86 120 146 180 228 289 346
#     4  12  20  36  61  80 116 156 187 232 292 336
#     4  11  25  40  53  80 118 152 200 245 275 328
#
# _framework density 17.468447000000001
#
# number of rings (size 3 to 8) (size 9 to 14) (size 15 to 20)
#    0.000    1.500    4.167    3.250    3.500    4.000 
#    0.000    0.000    0.000    0.500    0.000    4.667 
#    0.000    0.000    0.000    0.000    0.000    0.000 
#
# Total GULP energy -133723.048798 kJ/mol
# GULP energy per Si atom -5571.793700 kJ/mol
# Density = 1.742869 g / cm^3
# Si number density = 17.468447 Si / 1000 Ang^3
#
#
#
# Elastic Constant Matrix: (Units=GPa)
#
#
# Indices 1 2 3 4 5 6 
#
# 1 79.0370 28.8739 40.8503 0.0000 6.7889 0.0000
# 2 28.8739 90.7560 18.0583 0.0000 13.2524 0.0000
# 3 40.8503 18.0583 115.1400 -0.0001 -11.1615 0.0000
# 4 0.0000 0.0000 -0.0001 -18.7616 -0.0001 16.7438
# 5 6.7889 13.2524 -11.1615 -0.0001 31.3373 0.0000
# 6 0.0000 0.0000 0.0000 16.7438 0.0000 9.1977
#
#
#
# Elastic Compliance Matrix: (Units=1/GPa)
#
#
# Indices 1 2 3 4 5 6 
#
# 1 0.017520 -0.003730 -0.006055 0.000000 -0.004375 0.000000
# 2 -0.003730 0.013219 -0.001257 0.000000 -0.005230 0.000000
# 3 -0.006055 -0.001257 0.011610 0.000000 0.005978 0.000000
# 4 0.000000 0.000000 0.000000 -0.020308 0.000000 0.036969
# 5 -0.004375 -0.005230 0.005978 0.000000 0.037200 0.000000
# 6 0.000000 0.000000 0.000000 0.036969 0.000000 0.041424
#
#
# Mechanical properties :
#
#
# Convention : Reuss Voigt Hill
#
# Bulk Modulus (GPa) = 49.34595 51.16645 50.25620
# Shear Modulus (GPa) = 38.60865 17.49804 28.05335
#
# Velocity S-wave (km/s) = 4.70637 3.16839 4.01177
# Velocity P-wave (km/s) = 7.60547 6.53753 7.09163
#
# Compressibility (1/GPa) = 0.02026509
#
# Stress axis : x y z
#
# Youngs Moduli (GPa) = 57.07623 75.64808 86.13292
#
# Poissons Ratio (x) = 0.28220 0.52154
# Poissons Ratio (y) = 0.21292 0.10824
# Poissons Ratio (z) = 0.34560 0.09507
#
# Static dielectric constant tensor:
#      x y z
#    x 1.572120 0.000000 -0.001580 
#    y 0.000000 1.619580 0.000000 
#    z -0.001580 0.000000 1.639340 
# 
# From -- ./inp_files/150366.got.cif
#   From: 2010.05.17/outbox.cif.g08.bks.cpg/sg12_76_cif.got.tgz:150366.got - 2010.06.03 13:09:07.
