data_PCOD9182595
_publ_section_title
;
Structure prediction by ZEFSAII (Michael W. Deem and Ramdas Pophale) SiO2 
 PCOD9182595
Probable space group: C 2/M
;
_chemical_formula_sum "Si O2"
_cell_formula_units_Z 64
_cell_length_a 15.180626
_cell_length_b 7.574393
_cell_length_c 31.055812
_cell_angle_alpha 90.000000
_cell_angle_beta 119.695540
_cell_angle_gamma 90.000000
_cell_volume 3101.953387
_symmetry_space_group_name_H-M "C 2/M"
_symmetry_group_IT_number 12
_symmetry_cell_setting 'monoclinic'
loop_
_space_group_symop_operation_xyz
x,y,z
-x,y,-z
-x,-y,-z
x,-y,z
1/2+x,1/2+y,z
1/2-x,1/2+y,-z
1/2-x,1/2-y,-z
1/2+x,1/2-y,z
loop_
_atom_site_type_symbol
_atom_site_label
_atom_site_fract_x
_atom_site_fract_y
_atom_site_fract_z
Si Si1 0.701013 0.292570 0.689631
Si Si2 0.071690 0.213493 0.243710
Si Si3 0.921038 0.783565 0.422229
Si Si4 0.854352 0.788766 0.500130
Si Si5 0.141075 0.784306 0.769369
Si Si6 0.493450 0.291999 0.865614
Si Si7 0.191232 0.286711 0.120582
Si Si8 0.784983 0.787969 0.056532
O O1 0.676185 0.500000 0.685744
O O2 0.821134 0.275111 0.712458
O O3 0.637249 0.220016 0.634246
O O4 0.674680 0.219789 0.730570
O O5 0.053915 0.278472 0.190334
O O6 0.973021 0.267893 0.246584
O O7 0.075312 0.000000 0.244374
O O8 0.864777 0.727710 0.452868
O O9 0.039450 0.728797 0.452397
O O10 0.919661 0.000000 0.421821
O O11 0.750000 0.750000 0.500000
O O12 0.860228 0.000000 0.500110
O O13 0.218706 0.727308 0.825530
O O14 0.144279 0.000000 0.770436
O O15 0.508520 0.500000 0.861069
O O16 0.414056 0.270309 0.884505
O O17 0.602711 0.218815 0.905086
O O18 0.192438 0.500000 0.121103
O O19 0.211780 0.225179 0.077106
O O20 0.788457 0.000000 0.060552
O O21 0.750000 0.750000 0.000000
#
# Coordination Sequence:
#
# PCOD9182595 Si02
#       8
#     8   8   8   8   8   8   8   8
#     4  10  19  33  53  77 104 137 177 214 250 304
#     4  10  19  33  52  76 105 137 169 208 259 306
#     4   8  17  33  51  73 106 142 172 209 260 312
#     4   9  17  33  55  76 101 138 179 215 257 307
#     4   9  17  31  52  74  99 134 171 204 248 305
#     4  10  20  35  55  77 104 136 167 207 260 309
#     4  10  19  35  57  78 100 133 174 211 247 301
#     4  10  22  39  57  77 105 136 169 211 259 308
#
# _framework density 20.632159000000001
#
# number of rings (size 3 to 8) (size 9 to 14) (size 15 to 20)
#    0.000    2.500    2.500    0.750    0.000    2.500 
#    0.000    7.500    0.000    0.000    0.000    0.000 
#    0.000    0.000    0.000    0.000    0.000    0.000 
#
# Total GULP energy -178581.600822 kJ/mol
# GULP energy per Si atom -5580.675026 kJ/mol
# Density = 2.058520 g / cm^3
# Si number density = 20.632159 Si / 1000 Ang^3
#
#
#
# Elastic Constant Matrix: (Units=GPa)
#
#
# Indices 1 2 3 4 5 6 
#
# 1 80.7194 -9.3071 -3.8039 0.0000 0.7461 0.0000
# 2 -9.3071 42.4440 4.7707 0.0000 -2.4137 0.0000
# 3 -3.8039 4.7707 76.2761 0.0000 2.5388 0.0000
# 4 0.0000 0.0000 0.0000 8.4119 0.0000 4.8651
# 5 0.7461 -2.4137 2.5388 0.0000 22.2513 0.0000
# 6 0.0000 0.0000 0.0000 4.8651 0.0000 23.3986
#
#
#
# Elastic Compliance Matrix: (Units=1/GPa)
#
#
# Indices 1 2 3 4 5 6 
#
# 1 0.012727 0.002727 0.000470 0.000000 -0.000185 0.000000
# 2 0.002727 0.024481 -0.001486 0.000000 0.002734 0.000000
# 3 0.000470 -0.001486 0.013283 0.000000 -0.001693 0.000000
# 4 0.000000 0.000000 0.000000 0.135130 0.000000 -0.028097
# 5 -0.000185 0.002734 -0.001693 0.000000 0.045437 0.000000
# 6 0.000000 0.000000 0.000000 -0.028097 0.000000 0.048580
#
#
# Mechanical properties :
#
#
# Convention : Reuss Voigt Hill
#
# Bulk Modulus (GPa) = 18.54806 20.30654 19.42730
# Shear Modulus (GPa) = 16.99604 24.66433 20.83019
#
# Velocity S-wave (km/s) = 2.87324 3.46125 3.18086
# Velocity P-wave (km/s) = 4.47401 5.08303 4.78821
#
# Compressibility (1/GPa) = 0.05391400
#
# Stress axis : x y z
#
# Youngs Moduli (GPa) = 78.57352 40.84795 75.28417
#
# Poissons Ratio (x) = -0.11141 -0.03540
# Poissons Ratio (y) = -0.21430 0.11188
# Poissons Ratio (z) = -0.03695 0.06071
#
# Static dielectric constant tensor:
#      x y z
#    x 1.711390 0.000000 -0.011470 
#    y 0.000000 1.750290 0.000000 
#    z -0.011470 0.000000 1.723230 
# 
# From -- ./inp_files/375046.got.cif
#   From: 2010.05.17/outbox.cif.g08.bks.cpg/sg12_188_cif.got.tgz:375046.got - 2010.06.03 13:09:07.
