data_PCOD9182512
_publ_section_title
;
Structure prediction by ZEFSAII (Michael W. Deem and Ramdas Pophale) SiO2 
 PCOD9182512
Probable space group: C 2/M
;
_chemical_formula_sum "Si O2"
_cell_formula_units_Z 32
_cell_length_a 14.973405
_cell_length_b 15.632255
_cell_length_c 8.545494
_cell_angle_alpha 90.000000
_cell_angle_beta 120.204091
_cell_angle_gamma 90.000000
_cell_volume 1728.674310
_symmetry_space_group_name_H-M "C 2/M"
_symmetry_group_IT_number 12
_symmetry_cell_setting 'monoclinic'
loop_
_space_group_symop_operation_xyz
x,y,z
-x,y,-z
-x,-y,-z
x,-y,z
1/2+x,1/2+y,z
1/2-x,1/2+y,-z
1/2-x,1/2-y,-z
1/2+x,1/2-y,z
loop_
_atom_site_type_symbol
_atom_site_label
_atom_site_fract_x
_atom_site_fract_y
_atom_site_fract_z
Si Si1 0.000000 0.769466 0.500000
Si Si2 0.500000 0.652917 0.000000
Si Si3 0.874840 0.097137 0.178134
Si Si4 0.141972 0.600583 0.047347
Si Si5 0.436603 0.807287 0.745575
O O1 0.070636 0.831777 0.666876
O O2 0.067183 0.711428 0.440894
O O3 0.426825 0.602559 0.053467
O O4 0.567043 0.716363 0.168611
O O5 0.887996 0.000000 0.251163
O O6 0.752923 0.115680 0.069126
O O7 0.118638 0.500000 0.019673
O O8 0.050273 0.652751 0.882669
O O9 0.140559 0.631545 0.227506
#
# Coordination Sequence:
#
# PCOD9182512 Si02
#       5
#     4   4   8   8   8
#     4  10  21  32  47  74 104 132 158 198 251 288
#     4   8  17  30  49  72  94 128 166 198 231 280
#     4  10  19  33  52  73 100 131 163 201 243 289
#     4   9  18  34  55  73  94 130 168 201 240 288
#     4   9  18  33  52  74 100 127 162 205 242 289
#
# _framework density 18.511293999999999
#
# number of rings (size 3 to 8) (size 9 to 14) (size 15 to 20)
#    0.000    3.000    0.000    2.250    0.000   10.000 
#    0.000    5.000    0.000   12.000    0.000    0.000 
#    0.000    0.000    0.000    0.000    0.000    0.000 
#
# Total GULP energy -89108.816400 kJ/mol
# GULP energy per Si atom -5569.301025 kJ/mol
# Density = 1.846916 g / cm^3
# Si number density = 18.511294 Si / 1000 Ang^3
#
#
#
# Elastic Constant Matrix: (Units=GPa)
#
#
# Indices 1 2 3 4 5 6 
#
# 1 133.5699 34.0705 34.0133 0.0000 -18.8143 0.0000
# 2 34.0705 71.2966 18.8858 0.0000 -4.0568 0.0000
# 3 34.0133 18.8858 53.0208 0.0000 -28.3922 0.0000
# 4 0.0000 0.0000 0.0000 10.4303 0.0000 -0.1053
# 5 -18.8143 -4.0568 -28.3922 0.0000 27.3142 0.0000
# 6 0.0000 0.0000 0.0000 -0.1053 0.0000 29.4964
#
#
#
# Elastic Compliance Matrix: (Units=1/GPa)
#
#
# Indices 1 2 3 4 5 6 
#
# 1 0.009646 -0.003488 -0.003755 0.000000 0.002223 0.000000
# 2 -0.003488 0.017511 -0.008781 0.000000 -0.008930 0.000000
# 3 -0.003755 -0.008781 0.050327 0.000000 0.048423 0.000000
# 4 0.000000 0.000000 0.000000 0.095878 0.000000 0.000342
# 5 0.002223 -0.008930 0.048423 0.000000 0.087149 0.000000
# 6 0.000000 0.000000 0.000000 0.000342 0.000000 0.033904
#
#
# Mechanical properties :
#
#
# Convention : Reuss Voigt Hill
#
# Bulk Modulus (GPa) = 22.00986 47.98071 34.99529
# Shear Modulus (GPa) = 14.63660 24.84271 19.73966
#
# Velocity S-wave (km/s) = 2.81496 3.66735 3.26906
# Velocity P-wave (km/s) = 4.74143 6.62635 5.76150
#
# Compressibility (1/GPa) = 0.04543418
#
# Stress axis : x y z
#
# Youngs Moduli (GPa) = 103.67205 57.10745 19.86997
#
# Poissons Ratio (x) = 0.19921 0.07461
# Poissons Ratio (y) = 0.36164 0.17449
# Poissons Ratio (z) = 0.38930 0.50149
#
# Static dielectric constant tensor:
#      x y z
#    x 1.654850 0.000000 -0.022540 
#    y 0.000000 1.634970 0.000000 
#    z -0.022540 0.000000 1.647800 
# 
# From -- ./inp_files/59875.got.cif
#   From: 2010.05.17/outbox.cif.g08.bks.cpg/sg12_30_cif.got.tgz:59875.got - 2010.06.03 13:09:07.
