data_PCOD9182240
_publ_section_title
;
Structure prediction by ZEFSAII (Michael W. Deem and Ramdas Pophale) SiO2 
 PCOD9182240
Probable space group: C 2/M
;
_chemical_formula_sum "Si O2"
_cell_formula_units_Z 44
_cell_length_a 24.893375
_cell_length_b 18.661882
_cell_length_c 15.713830
_cell_angle_alpha 90.000000
_cell_angle_beta 159.885867
_cell_angle_gamma 90.000000
_cell_volume 2510.397509
_symmetry_space_group_name_H-M "C 2/M"
_symmetry_group_IT_number 12
_symmetry_cell_setting 'monoclinic'
loop_
_space_group_symop_operation_xyz
x,y,z
-x,y,-z
-x,-y,-z
x,-y,z
1/2+x,1/2+y,z
1/2-x,1/2+y,-z
1/2-x,1/2-y,-z
1/2+x,1/2-y,z
loop_
_atom_site_type_symbol
_atom_site_label
_atom_site_fract_x
_atom_site_fract_y
_atom_site_fract_z
Si Si1 0.000000 0.652482 0.500000
Si Si2 0.458605 0.693630 0.760022
Si Si3 0.907491 0.281203 0.196840
Si Si4 0.601179 0.840895 0.233190
Si Si5 0.767897 0.082311 0.806099
Si Si6 0.016512 0.581987 0.280120
O O1 0.007648 0.702673 0.429430
O O2 0.847529 0.603367 0.286949
O O3 0.514467 0.728626 0.754449
O O4 0.444657 0.760242 0.804615
O O5 0.286766 0.660586 0.493644
O O6 0.587371 0.636315 0.980365
O O7 0.894166 0.358874 0.131929
O O8 0.750000 0.250000 0.000000
O O9 0.566293 0.893023 0.260551
O O10 0.500000 0.859389 0.000000
O O11 0.662652 0.087459 0.563587
O O12 0.818057 0.000000 0.889368
O O13 0.962538 0.500000 0.201673
#
# Coordination Sequence:
#
# PCOD9182240 Si02
#       6
#     4   8   8   8   8   8
#     4  10  19  32  58  82 117 146 184 224 285 342
#     4  10  22  36  55  86 115 145 193 237 281 331
#     4  10  19  34  54  85 112 148 183 229 277 337
#     4  10  23  37  59  80 111 152 193 239 278 333
#     4  10  20  35  57  86 118 145 183 234 288 342
#     4   9  21  38  57  84 115 151 186 233 288 337
#
# _framework density 17.527104999999999
#
# number of rings (size 3 to 8) (size 9 to 14) (size 15 to 20)
#    0.000    2.182    1.818    0.273   10.182    1.818 
#    0.000    1.818    0.000    0.000    0.000    2.545 
#    0.000    0.000    0.000    0.000    0.000    0.000 
#
# Total GULP energy -122614.393336 kJ/mol
# GULP energy per Si atom -5573.381515 kJ/mol
# Density = 1.748721 g / cm^3
# Si number density = 17.527105 Si / 1000 Ang^3
#
#
#
# Elastic Constant Matrix: (Units=GPa)
#
#
# Indices 1 2 3 4 5 6 
#
# 1 104.4559 40.7271 37.1793 0.0000 4.5474 0.0000
# 2 40.7271 115.7729 46.1824 0.0000 11.9030 0.0000
# 3 37.1793 46.1824 56.6253 0.0000 14.8280 0.0000
# 4 0.0000 0.0000 0.0000 29.8603 0.0000 -2.5929
# 5 4.5474 11.9030 14.8280 0.0000 32.9650 0.0000
# 6 0.0000 0.0000 0.0000 -2.5929 0.0000 10.0037
#
#
#
# Elastic Compliance Matrix: (Units=1/GPa)
#
#
# Indices 1 2 3 4 5 6 
#
# 1 0.012863 -0.001708 -0.007651 0.000000 0.002284 0.000000
# 2 -0.001708 0.013030 -0.009448 0.000000 -0.000219 0.000000
# 3 -0.007651 -0.009448 0.033120 0.000000 -0.010431 0.000000
# 4 0.000000 0.000000 0.000000 0.034260 0.000000 0.008880
# 5 0.002284 -0.000219 -0.010431 0.000000 0.034791 0.000000
# 6 0.000000 0.000000 0.000000 0.008880 0.000000 0.102265
#
#
# Mechanical properties :
#
#
# Convention : Reuss Voigt Hill
#
# Bulk Modulus (GPa) = 46.72911 58.33686 52.53299
# Shear Modulus (GPa) = 18.17673 24.75013 21.46343
#
# Velocity S-wave (km/s) = 3.22384 3.76188 3.50320
# Velocity P-wave (km/s) = 6.36997 7.22669 6.81181
#
# Compressibility (1/GPa) = 0.02139994
#
# Stress axis : x y z
#
# Youngs Moduli (GPa) = 77.74197 76.74695 30.19281
#
# Poissons Ratio (x) = 0.13107 0.23100
# Poissons Ratio (y) = 0.13277 0.28526
# Poissons Ratio (z) = 0.59479 0.72511
#
# Static dielectric constant tensor:
#      x y z
#    x 1.601110 0.000000 -0.038110 
#    y 0.000000 1.621470 0.000000 
#    z -0.038110 0.000000 1.238060 
# 
# From -- ./inp_files/241559.got.cif
#   From: 2010.05.17/outbox.cif.g08.bks.cpg/sg12_121_cif.got.tgz:241559.got - 2010.06.03 13:09:07.
