data_PCOD9182281
_publ_section_title
;
Structure prediction by ZEFSAII (Michael W. Deem and Ramdas Pophale) SiO2 
 PCOD9182281
Probable space group: C 2/M
;
_chemical_formula_sum "Si O2"
_cell_formula_units_Z 30
_cell_length_a 9.555988
_cell_length_b 23.485437
_cell_length_c 6.732433
_cell_angle_alpha 90.000000
_cell_angle_beta 48.451110
_cell_angle_gamma 90.000000
_cell_volume 1130.770007
_symmetry_space_group_name_H-M "C 2/M"
_symmetry_group_IT_number 12
_symmetry_cell_setting 'monoclinic'
loop_
_space_group_symop_operation_xyz
x,y,z
-x,y,-z
-x,-y,-z
x,-y,z
1/2+x,1/2+y,z
1/2-x,1/2+y,-z
1/2-x,1/2-y,-z
1/2+x,1/2-y,z
loop_
_atom_site_type_symbol
_atom_site_label
_atom_site_fract_x
_atom_site_fract_y
_atom_site_fract_z
Si Si1 0.500000 0.000000 0.500000
Si Si2 0.000000 0.110245 0.000000
Si Si3 0.215481 0.175936 0.242714
Si Si4 0.782549 0.560308 0.039735
Si Si5 0.723672 0.203048 0.277484
O O1 0.438443 0.951197 0.724552
O O2 0.155915 0.151162 0.748967
O O3 0.899558 0.072895 0.926568
O O4 0.302391 0.113493 0.166472
O O5 0.293425 0.233346 0.270290
O O6 0.000000 0.172371 0.500000
O O7 0.231328 0.191785 0.995911
O O8 0.762425 0.500000 0.168564
O O9 0.500000 0.199677 0.500000
#
# Coordination Sequence:
#
# PCOD9182281 Si02
#       5
#     2   4   8   8   8
#     4   8  20  34  58  84  92 150 188 220 272 298
#     4  10  19  32  60  88 105 130 190 236 254 312
#     4   9  18  34  54  80 115 142 175 219 273 326
#     4   9  19  34  56  80 103 140 184 225 264 306
#     4   9  19  35  57  80 110 148 177 218 268 320
#
# _framework density 26.530593
#
# number of rings (size 3 to 8) (size 9 to 14) (size 15 to 20)
#    0.800    2.133    0.000    0.400    7.467    0.533 
#    0.000   33.333    0.000    0.000    0.000   10.267 
#    0.000    0.000    0.000    0.000    0.000    0.000 
#
# Total GULP energy -83514.297055 kJ/mol
# GULP energy per Si atom -5567.619804 kJ/mol
# Density = 2.647021 g / cm^3
# Si number density = 26.530593 Si / 1000 Ang^3
#
#
#
# Elastic Constant Matrix: (Units=GPa)
#
#
# Indices 1 2 3 4 5 6 
#
# 1 97.9805 17.8453 29.7012 0.0000 -12.7804 0.0000
# 2 17.8453 230.5307 58.5618 0.0000 -12.1155 0.0000
# 3 29.7012 58.5618 163.4341 0.0000 -25.2301 0.0000
# 4 0.0000 0.0000 0.0000 38.6731 0.0000 3.2723
# 5 -12.7804 -12.1155 -25.2301 0.0000 43.8741 0.0000
# 6 0.0000 0.0000 0.0000 3.2723 0.0000 14.2480
#
#
#
# Elastic Compliance Matrix: (Units=1/GPa)
#
#
# Indices 1 2 3 4 5 6 
#
# 1 0.011026 -0.000346 -0.001535 0.000000 0.002234 0.000000
# 2 -0.000346 0.004788 -0.001607 0.000000 0.000297 0.000000
# 3 -0.001535 -0.001607 0.007502 0.000000 0.003423 0.000000
# 4 0.000000 0.000000 0.000000 0.026370 0.000000 -0.006056
# 5 0.002234 0.000297 0.003423 0.000000 0.025494 0.000000
# 6 0.000000 0.000000 0.000000 -0.006056 0.000000 0.071576
#
#
# Mechanical properties :
#
#
# Convention : Reuss Voigt Hill
#
# Bulk Modulus (GPa) = 61.19968 78.24022 69.71995
# Shear Modulus (GPa) = 31.41118 45.08152 38.24635
#
# Velocity S-wave (km/s) = 3.44461 4.12664 3.80095
# Velocity P-wave (km/s) = 6.24004 7.22912 6.75271
#
# Compressibility (1/GPa) = 0.01633996
#
# Stress axis : x y z
#
# Youngs Moduli (GPa) = 90.69654 208.83502 133.30002
#
# Poissons Ratio (x) = 0.07230 0.20460
# Poissons Ratio (y) = 0.03140 0.21421
# Poissons Ratio (z) = 0.13921 0.33560
#
# Static dielectric constant tensor:
#      x y z
#    x 2.166340 0.000000 0.067140 
#    y 0.000000 2.181950 0.000000 
#    z 0.067140 0.000000 2.069790 
# 
# From -- ./inp_files/64296.got.cif
#   From: 2010.05.17/outbox.cif.g08.bks.cpg/sg12_33_cif.got.tgz:64296.got - 2010.06.03 13:09:07.
