data_PCOD9182213
_publ_section_title
;
Structure prediction by ZEFSAII (Michael W. Deem and Ramdas Pophale) SiO2 
 PCOD9182213
Probable space group: C 2/M
;
_chemical_formula_sum "Si O2"
_cell_formula_units_Z 64
_cell_length_a 25.459801
_cell_length_b 19.503600
_cell_length_c 16.589797
_cell_angle_alpha 90.000000
_cell_angle_beta 158.939476
_cell_angle_gamma 90.000000
_cell_volume 2960.283180
_symmetry_space_group_name_H-M "C 2/M"
_symmetry_group_IT_number 12
_symmetry_cell_setting 'monoclinic'
loop_
_space_group_symop_operation_xyz
x,y,z
-x,y,-z
-x,-y,-z
x,-y,z
1/2+x,1/2+y,z
1/2-x,1/2+y,-z
1/2-x,1/2-y,-z
1/2+x,1/2-y,z
loop_
_atom_site_type_symbol
_atom_site_label
_atom_site_fract_x
_atom_site_fract_y
_atom_site_fract_z
Si Si1 0.034421 0.172817 0.811790
Si Si2 0.162627 0.723215 0.725006
Si Si3 0.348836 0.202692 0.474568
Si Si4 0.165533 0.880775 0.738443
Si Si5 0.636990 0.922495 0.309777
Si Si6 0.807005 0.082504 0.403731
Si Si7 0.533068 0.920263 0.782005
Si Si8 0.898761 0.869331 0.783401
O O1 0.952810 0.241299 0.664675
O O2 0.960550 0.111325 0.656504
O O3 0.995484 0.160955 0.849815
O O4 0.206681 0.181547 0.047990
O O5 0.194505 0.728118 0.675515
O O6 0.158984 0.800830 0.752889
O O7 0.000000 0.694235 0.500000
O O8 0.440861 0.132049 0.596193
O O9 0.208224 0.186313 0.328016
O O10 0.213739 0.890520 0.715094
O O11 0.000000 0.908678 0.500000
O O12 0.292747 0.914307 0.973430
O O13 0.685170 0.891197 0.293575
O O14 0.517047 0.894989 0.199638
O O15 0.785509 0.919931 0.576253
O O16 0.590936 0.000000 0.226384
O O17 0.804609 0.000000 0.400733
O O18 0.490283 0.000000 0.711993
O O19 0.000000 0.897947 0.000000
#
# Coordination Sequence:
#
# PCOD9182213 Si02
#       8
#     8   8   8   8   8   8   8   8
#     4  11  21  39  60  86 118 152 190 237 290 347
#     4  11  24  40  60  87 114 153 202 240 287 342
#     4  11  21  39  60  86 118 152 190 237 290 347
#     4  11  23  39  59  85 116 154 199 243 287 340
#     4   8  18  35  54  83 119 153 186 222 286 356
#     4  10  21  38  60  87 119 152 190 238 289 344
#     4  10  21  38  60  87 119 152 190 238 289 344
#     4  10  19  32  57  86 115 144 186 241 287 336
#
# _framework density 21.619554000000001
#
# number of rings (size 3 to 8) (size 9 to 14) (size 15 to 20)
#    0.000    1.750    3.750    0.750    0.000    3.250 
#    0.000    3.750    0.000    0.750    0.000    0.000 
#    0.000    0.000    0.000    0.000    0.000    0.000 
#
# Total GULP energy -178583.399284 kJ/mol
# GULP energy per Si atom -5580.731228 kJ/mol
# Density = 2.157035 g / cm^3
# Si number density = 21.619554 Si / 1000 Ang^3
#
#
#
# Elastic Constant Matrix: (Units=GPa)
#
#
# Indices 1 2 3 4 5 6 
#
# 1 26.0228 0.1911 -0.5937 0.0000 -6.9381 0.0000
# 2 0.1911 43.0569 19.0445 0.0000 8.1456 0.0000
# 3 -0.5937 19.0445 98.2037 0.0000 15.5443 0.0000
# 4 0.0000 0.0000 0.0000 -5.1103 0.0000 5.1143
# 5 -6.9381 8.1456 15.5443 0.0000 28.2895 0.0000
# 6 0.0000 0.0000 0.0000 5.1143 0.0000 17.2786
#
#
#
# Elastic Compliance Matrix: (Units=1/GPa)
#
#
# Indices 1 2 3 4 5 6 
#
# 1 0.041436 -0.001800 -0.001195 0.000000 0.011337 0.000000
# 2 -0.001800 0.026158 -0.004186 0.000000 -0.005673 0.000000
# 3 -0.001195 -0.004186 0.011876 0.000000 -0.005613 0.000000
# 4 0.000000 0.000000 0.000000 -0.150965 0.000000 0.044684
# 5 0.011337 -0.005673 -0.005613 0.000000 0.042847 0.000000
# 6 0.000000 0.000000 0.000000 0.044684 0.000000 0.044649
#
#
# Mechanical properties :
#
#
# Convention : Reuss Voigt Hill
#
# Bulk Modulus (GPa) = 15.35894 22.72969 19.04432
# Shear Modulus (GPa) = 96.03180 18.00100 57.01640
#
# Velocity S-wave (km/s) = 6.67198 2.88866 5.14100
# Velocity P-wave (km/s) = 8.15313 4.65426 6.63836
#
# Compressibility (1/GPa) = 0.06510864
#
# Stress axis : x y z
#
# Youngs Moduli (GPa) = 24.13331 38.22966 84.20413
#
# Poissons Ratio (x) = 0.06882 0.10062
# Poissons Ratio (y) = 0.04345 0.35244
# Poissons Ratio (z) = 0.02884 0.16001
#
# Static dielectric constant tensor:
#      x y z
#    x 1.824920 0.000000 0.014890 
#    y 0.000000 1.753990 0.000000 
#    z 0.014890 0.000000 1.821010 
# 
# From -- ./inp_files/265097.got.cif
#   From: 2010.05.17/outbox.cif.g08.bks.cpg/sg12_133_cif.got.tgz:265097.got - 2010.06.03 13:09:07.
