data_PCOD9182887
_publ_section_title
;
Structure prediction by ZEFSAII (Michael W. Deem and Ramdas Pophale) SiO2 
 PCOD9182887
Probable space group: C 2/M
;
_chemical_formula_sum "Si O2"
_cell_formula_units_Z 52
_cell_length_a 11.602118
_cell_length_b 29.104846
_cell_length_c 9.184319
_cell_angle_alpha 90.000000
_cell_angle_beta 80.969743
_cell_angle_gamma 90.000000
_cell_volume 3062.901877
_symmetry_space_group_name_H-M "C 2/M"
_symmetry_group_IT_number 12
_symmetry_cell_setting 'monoclinic'
loop_
_space_group_symop_operation_xyz
x,y,z
-x,y,-z
-x,-y,-z
x,-y,z
1/2+x,1/2+y,z
1/2-x,1/2+y,-z
1/2-x,1/2-y,-z
1/2+x,1/2-y,z
loop_
_atom_site_type_symbol
_atom_site_label
_atom_site_fract_x
_atom_site_fract_y
_atom_site_fract_z
Si Si1 0.666573 0.623055 0.341284
Si Si2 0.000000 0.614341 0.000000
Si Si3 0.618621 0.284534 0.890577
Si Si4 0.305822 0.946362 0.151013
Si Si5 0.106169 0.132239 0.681799
Si Si6 0.308690 0.184824 0.085419
Si Si7 0.632029 0.553814 0.910769
O O1 0.724803 0.574326 0.292630
O O2 0.667197 0.631660 0.512839
O O3 0.532348 0.624871 0.316838
O O4 0.740580 0.658381 0.227355
O O5 0.070868 0.580365 0.879562
O O6 0.103116 0.650262 0.013717
O O7 0.623437 0.318393 0.753357
O O8 0.629446 0.230066 0.861447
O O9 0.500000 0.293675 0.000000
O O10 0.719517 0.298642 0.981573
O O11 0.325620 0.000000 0.162014
O O12 0.228814 0.938775 0.018241
O O13 0.147157 0.091337 0.781019
O O14 0.640338 0.500000 0.862996
O O15 0.500000 0.560137 0.000000
#
# Coordination Sequence:
#
# PCOD9182887 Si02
#       7
#     8   4   8   8   8   8   8
#     4  10  21  33  51  78 113 144 174 214 276 322
#     4  10  19  34  54  82 106 134 179 226 262 316
#     4  11  20  35  59  81 107 138 183 225 267 311
#     4  10  20  35  56  79 107 143 183 226 266 313
#     4  11  20  33  52  79 113 144 171 220 270 327
#     4  10  21  36  56  81 106 141 179 222 266 313
#     4  10  19  33  53  78 106 138 179 224 268 310
#
# _framework density 16.977364000000001
#
# number of rings (size 3 to 8) (size 9 to 14) (size 15 to 20)
#    0.000    1.692    3.846    2.538    0.000    1.231 
#    0.000    1.538    0.000   14.769    0.000   12.923 
#    0.000    0.000    0.000    0.000    0.000    0.000 
#
# Total GULP energy -144839.953976 kJ/mol
# GULP energy per Si atom -5570.767461 kJ/mol
# Density = 1.693872 g / cm^3
# Si number density = 16.977364 Si / 1000 Ang^3
#
#
#
# Elastic Constant Matrix: (Units=GPa)
#
#
# Indices 1 2 3 4 5 6 
#
# 1 61.9934 37.4042 29.5134 0.0000 -14.8615 0.0000
# 2 37.4042 118.1486 45.5763 0.0000 -1.1148 0.0000
# 3 29.5134 45.5763 86.2190 0.0000 -5.3785 0.0000
# 4 0.0000 0.0000 0.0000 5.4473 0.0000 1.0554
# 5 -14.8615 -1.1148 -5.3785 0.0000 11.8639 0.0000
# 6 0.0000 0.0000 0.0000 1.0554 0.0000 29.8932
#
#
#
# Elastic Compliance Matrix: (Units=1/GPa)
#
#
# Indices 1 2 3 4 5 6 
#
# 1 0.032083 -0.008125 -0.004351 0.000000 0.037454 0.000000
# 2 -0.008125 0.012719 -0.004634 0.000000 -0.011084 0.000000
# 3 -0.004351 -0.004634 0.015611 0.000000 0.001192 0.000000
# 4 0.000000 0.000000 0.000000 0.184843 0.000000 -0.006526
# 5 0.037454 -0.011084 0.001192 0.000000 0.130705 0.000000
# 6 0.000000 0.000000 0.000000 -0.006526 0.000000 0.033683
#
#
# Mechanical properties :
#
#
# Convention : Reuss Voigt Hill
#
# Bulk Modulus (GPa) = 38.17610 54.59430 46.38520
# Shear Modulus (GPa) = 11.04741 19.69868 15.37304
#
# Velocity S-wave (km/s) = 2.55368 3.41000 3.01242
# Velocity P-wave (km/s) = 5.58841 6.90877 6.28337
#
# Compressibility (1/GPa) = 0.02619440
#
# Stress axis : x y z
#
# Youngs Moduli (GPa) = 31.16901 78.62196 64.05606
#
# Poissons Ratio (x) = 0.63883 0.27869
# Poissons Ratio (y) = 0.25326 0.29680
# Poissons Ratio (z) = 0.13561 0.36430
#
# Static dielectric constant tensor:
#      x y z
#    x 1.580530 0.000000 0.001930 
#    y 0.000000 1.606420 0.000000 
#    z 0.001930 0.000000 1.537180 
# 
# From -- ./inp_files/53756.got.cif
#   From: 2010.05.17/outbox.cif.g08.bks.cpg/sg12_27_cif.got.tgz:53756.got - 2010.06.03 13:09:07.
