data_PCOD9182053
_publ_section_title
;
Structure prediction by ZEFSAII (Michael W. Deem and Ramdas Pophale) SiO2 
 PCOD9182053
Probable space group: C 2/M
;
_chemical_formula_sum "Si O2"
_cell_formula_units_Z 44
_cell_length_a 11.970162
_cell_length_b 26.462676
_cell_length_c 15.474342
_cell_angle_alpha 90.000000
_cell_angle_beta 153.347338
_cell_angle_gamma 90.000000
_cell_volume 2198.804413
_symmetry_space_group_name_H-M "C 2/M"
_symmetry_group_IT_number 12
_symmetry_cell_setting 'monoclinic'
loop_
_space_group_symop_operation_xyz
x,y,z
-x,y,-z
-x,-y,-z
x,-y,z
1/2+x,1/2+y,z
1/2-x,1/2+y,-z
1/2-x,1/2-y,-z
1/2+x,1/2-y,z
loop_
_atom_site_type_symbol
_atom_site_label
_atom_site_fract_x
_atom_site_fract_y
_atom_site_fract_z
Si Si1 0.263393 0.316415 0.227621
Si Si2 0.571429 0.358730 0.279639
Si Si3 0.759165 0.867709 0.893350
Si Si4 0.500000 0.396340 0.500000
Si Si5 0.045936 0.718685 0.414080
Si Si6 0.200187 0.440601 0.450989
O O1 0.443668 0.338547 0.278486
O O2 0.285204 0.357655 0.318395
O O3 0.362786 0.261664 0.323770
O O4 0.000000 0.311698 0.000000
O O5 0.791490 0.318761 0.413749
O O6 0.688770 0.412332 0.387873
O O7 0.371449 0.360954 0.066068
O O8 0.614371 0.818035 0.758952
O O9 0.560448 0.912891 0.749625
O O10 0.000000 0.876592 0.000000
O O11 0.386209 0.428878 0.499097
O O12 0.250000 0.750000 0.500000
O O13 0.173704 0.500000 0.444498
#
# Coordination Sequence:
#
# PCOD9182053 Si02
#       6
#     8   8   8   4   8   8
#     4  10  19  32  55  84 115 152 189 230 284 346
#     4   9  21  39  54  79 117 151 192 242 287 340
#     4  11  23  39  58  84 118 154 197 246 290 341
#     4  10  21  38  60  90 122 148 187 240 294 356
#     4   9  20  35  54  82 116 158 198 233 280 341
#     4  10  22  41  64  87 113 150 195 246 302 352
#
# _framework density 20.010874000000001
#
# number of rings (size 3 to 8) (size 9 to 14) (size 15 to 20)
#    0.000    2.182    0.000    3.000    0.000    9.818 
#    0.000    0.909    0.000    6.000    0.000    0.000 
#    0.000    0.000    0.000    0.000    0.000    0.000 
#
# Total GULP energy -122859.130656 kJ/mol
# GULP energy per Si atom -5584.505939 kJ/mol
# Density = 1.996533 g / cm^3
# Si number density = 20.010874 Si / 1000 Ang^3
#
#
#
# Elastic Constant Matrix: (Units=GPa)
#
#
# Indices 1 2 3 4 5 6 
#
# 1 31.6564 19.8413 0.9684 0.0027 8.2088 -0.0001
# 2 19.8413 170.1473 66.2601 0.0000 -1.0307 -0.0002
# 3 0.9684 66.2601 143.1732 0.0044 -8.1838 0.0003
# 4 0.0027 0.0000 0.0044 8.3204 0.0023 2.0342
# 5 8.2088 -1.0307 -8.1838 0.0023 37.8982 0.0003
# 6 -0.0001 -0.0002 0.0003 2.0342 0.0003 20.5624
#
#
#
# Elastic Compliance Matrix: (Units=1/GPa)
#
#
# Indices 1 2 3 4 5 6 
#
# 1 0.036641 -0.004942 0.001598 -0.000011 -0.007726 0.000001
# 2 -0.004942 0.007846 -0.003568 0.000003 0.000513 0.000000
# 3 0.001598 -0.003568 0.008707 -0.000006 0.001437 0.000000
# 4 -0.000011 0.000003 -0.000006 0.123166 -0.000006 -0.012185
# 5 -0.007726 0.000513 0.001437 -0.000006 0.028384 0.000000
# 6 0.000001 0.000000 0.000000 -0.012185 0.000000 0.049838
#
#
# Mechanical properties :
#
#
# Convention : Reuss Voigt Hill
#
# Bulk Modulus (GPa) = 25.40042 57.67962 41.54002
# Shear Modulus (GPa) = 17.76001 30.54999 24.15500
#
# Velocity S-wave (km/s) = 2.98236 3.91150 3.47809
# Velocity P-wave (km/s) = 4.95783 7.02043 6.07728
#
# Compressibility (1/GPa) = 0.03936943
#
# Stress axis : x y z
#
# Youngs Moduli (GPa) = 27.29180 127.44844 114.84508
#
# Poissons Ratio (x) = 0.62982 -0.18348
# Poissons Ratio (y) = 0.13487 0.40982
# Poissons Ratio (z) = -0.04360 0.45480
#
# Static dielectric constant tensor:
#      x y z
#    x 1.817060 0.000000 0.094580 
#    y 0.000000 1.682690 0.000000 
#    z 0.094580 0.000000 2.018700 
# 
# From -- ./inp_files/11593.got.cif
#   From: 2010.05.17/outbox.cif.g08.bks.cpg/sg12_6_cif.got.tgz:11593.got - 2010.06.03 13:09:07.
