data_PCOD9182861
_publ_section_title
;
Structure prediction by ZEFSAII (Michael W. Deem and Ramdas Pophale) SiO2 
 PCOD9182861
Probable space group: C 2/M
;
_chemical_formula_sum "Si O2"
_cell_formula_units_Z 64
_cell_length_a 25.188998
_cell_length_b 8.454114
_cell_length_c 16.856259
_cell_angle_alpha 90.000000
_cell_angle_beta 90.948278
_cell_angle_gamma 90.000000
_cell_volume 3589.059874
_symmetry_space_group_name_H-M "C 2/M"
_symmetry_group_IT_number 12
_symmetry_cell_setting 'monoclinic'
loop_
_space_group_symop_operation_xyz
x,y,z
-x,y,-z
-x,-y,-z
x,-y,z
1/2+x,1/2+y,z
1/2-x,1/2+y,-z
1/2-x,1/2-y,-z
1/2+x,1/2-y,z
loop_
_atom_site_type_symbol
_atom_site_label
_atom_site_fract_x
_atom_site_fract_y
_atom_site_fract_z
Si Si1 0.869577 0.690440 0.124319
Si Si2 0.941445 0.806940 0.527622
Si Si3 0.041688 0.190292 0.765662
Si Si4 0.677914 0.810971 0.208927
Si Si5 0.806996 0.308578 0.971293
Si Si6 0.378565 0.690972 0.374134
Si Si7 0.072728 0.808628 0.291496
Si Si8 0.289947 0.811104 0.263037
O O1 0.870324 0.500000 0.125711
O O2 0.925812 0.749990 0.157791
O O3 0.825048 0.742979 0.187598
O O4 0.850738 0.742707 0.037091
O O5 0.898309 0.757568 0.461103
O O6 0.929970 0.755410 0.616799
O O7 0.000000 0.757604 0.500000
O O8 0.941921 0.000000 0.527864
O O9 0.076172 0.237685 0.688974
O O10 0.981367 0.245081 0.753395
O O11 0.041496 0.000000 0.767189
O O12 0.681978 0.753313 0.117725
O O13 0.625481 0.747822 0.249805
O O14 0.731431 0.758168 0.254557
O O15 0.675971 0.000000 0.207486
O O16 0.806059 0.500000 0.970994
O O17 0.750000 0.250000 0.000000
O O18 0.375458 0.500000 0.373195
O O19 0.323523 0.758751 0.340358
O O20 0.072259 0.000000 0.291989
O O21 0.286784 0.000000 0.260395
#
# Coordination Sequence:
#
# PCOD9182861 Si02
#       8
#     8   8   8   8   8   8   8   8
#     4   9  18  32  52  78 105 132 168 216 265 311
#     4   9  15  29  55  83 106 135 177 221 261 306
#     4   9  17  30  51  79 107 137 172 212 258 309
#     4  11  23  37  54  77 107 142 178 216 264 318
#     4  10  20  35  55  79 104 134 176 221 264 311
#     4   9  16  29  53  82 108 132 171 221 263 308
#     4  10  20  35  55  79 109 143 178 215 261 315
#     4  10  19  33  53  77 107 139 173 215 266 316
#
# _framework density 17.831968
#
# number of rings (size 3 to 8) (size 9 to 14) (size 15 to 20)
#    0.000    2.375    2.500    0.750    0.000    2.000 
#    0.000    1.875    0.000    4.500    0.000    0.000 
#    0.000    0.000    0.000    0.000    0.000    0.000 
#
# Total GULP energy -178492.463731 kJ/mol
# GULP energy per Si atom -5577.889492 kJ/mol
# Density = 1.779138 g / cm^3
# Si number density = 17.831968 Si / 1000 Ang^3
#
#
#
# Elastic Constant Matrix: (Units=GPa)
#
#
# Indices 1 2 3 4 5 6 
#
# 1 171.2544 23.6574 101.1021 0.0000 20.5743 0.0000
# 2 23.6574 9.0908 20.0452 0.0000 3.3635 0.0000
# 3 101.1021 20.0452 136.7102 0.0000 18.3882 0.0000
# 4 0.0000 0.0000 0.0000 18.4450 0.0000 2.0132
# 5 20.5743 3.3635 18.3882 0.0000 33.8580 0.0000
# 6 0.0000 0.0000 0.0000 2.0132 0.0000 27.8290
#
#
#
# Elastic Compliance Matrix: (Units=1/GPa)
#
#
# Indices 1 2 3 4 5 6 
#
# 1 0.012100 -0.017122 -0.006125 0.000000 -0.002325 0.000000
# 2 -0.017122 0.187163 -0.014757 0.000000 -0.000174 0.000000
# 3 -0.006125 -0.014757 0.014359 0.000000 -0.002611 0.000000
# 4 0.000000 0.000000 0.000000 0.054647 0.000000 -0.003953
# 5 -0.002325 -0.000174 -0.002611 0.000000 0.032383 0.000000
# 6 0.000000 0.000000 0.000000 -0.003953 0.000000 0.036220
#
#
# Mechanical properties :
#
#
# Convention : Reuss Voigt Hill
#
# Bulk Modulus (GPa) = 7.26669 67.40720 37.33694
# Shear Modulus (GPa) = 10.89914 27.50978 19.20446
#
# Velocity S-wave (km/s) = 2.47495 3.93201 3.28528
# Velocity P-wave (km/s) = 3.50016 7.64838 5.94764
#
# Compressibility (1/GPa) = 0.13761418
#
# Stress axis : x y z
#
# Youngs Moduli (GPa) = 82.64565 5.34292 69.64138
#
# Poissons Ratio (x) = 0.09148 0.42655
# Poissons Ratio (y) = 1.41507 1.02770
# Poissons Ratio (z) = 0.50620 0.07885
#
# Static dielectric constant tensor:
#      x y z
#    x 1.585810 0.000000 0.018430 
#    y 0.000000 1.616810 0.000000 
#    z 0.018430 0.000000 1.615160 
# 
# From -- ./inp_files/238752.got.cif
#   From: 2010.05.17/outbox.cif.g08.bks.cpg/sg12_120_cif.got.tgz:238752.got - 2010.06.03 13:09:07.
