data_PCOD9182582
_publ_section_title
;
Structure prediction by ZEFSAII (Michael W. Deem and Ramdas Pophale) SiO2 
 PCOD9182582
Probable space group: C 2/M
;
_chemical_formula_sum "Si O2"
_cell_formula_units_Z 56
_cell_length_a 19.573490
_cell_length_b 18.056676
_cell_length_c 9.747418
_cell_angle_alpha 90.000000
_cell_angle_beta 42.713040
_cell_angle_gamma 90.000000
_cell_volume 2336.870853
_symmetry_space_group_name_H-M "C 2/M"
_symmetry_group_IT_number 12
_symmetry_cell_setting 'monoclinic'
loop_
_space_group_symop_operation_xyz
x,y,z
-x,y,-z
-x,-y,-z
x,-y,z
1/2+x,1/2+y,z
1/2-x,1/2+y,-z
1/2-x,1/2-y,-z
1/2+x,1/2-y,z
loop_
_atom_site_type_symbol
_atom_site_label
_atom_site_fract_x
_atom_site_fract_y
_atom_site_fract_z
Si Si1 0.400617 0.132982 0.577781
Si Si2 0.348831 0.585130 0.676310
Si Si3 0.370622 0.136785 0.062835
Si Si4 0.091706 0.420029 0.715513
Si Si5 0.849340 0.786911 0.180781
Si Si6 0.619399 0.274750 0.552499
Si Si7 0.808132 0.910993 0.037719
O O1 0.500000 0.100824 0.500000
O O2 0.365550 0.086489 0.497492
O O3 0.433657 0.211099 0.460488
O O4 0.302673 0.128106 0.817192
O O5 0.374776 0.500000 0.604238
O O6 0.227611 0.596618 0.844991
O O7 0.388435 0.647700 0.515228
O O8 0.370366 0.599612 0.804946
O O9 0.363830 0.135051 0.239749
O O10 0.384576 0.224062 0.019812
O O11 0.473175 0.095162 0.877155
O O12 0.110290 0.500000 0.748040
O O13 0.733205 0.759868 0.373237
O O14 0.900159 0.786525 0.256479
O O15 0.853577 0.865744 0.098660
O O16 0.798137 0.000000 0.070418
#
# Coordination Sequence:
#
# PCOD9182582 Si02
#       7
#     8   8   8   8   8   8   8
#     4  11  22  35  53  76 114 152 180 215 267 329
#     4  10  20  34  54  78 106 138 181 232 278 317
#     4  10  19  33  52  75 109 145 183 219 260 318
#     4  11  21  32  49  79 113 150 183 213 259 323
#     4   9  18  35  55  74 107 141 181 232 269 312
#     4   9  19  35  53  77 103 140 190 225 266 321
#     4  10  22  36  53  83 113 142 180 227 277 321
#
# _framework density 23.963668999999999
#
# number of rings (size 3 to 8) (size 9 to 14) (size 15 to 20)
#    0.000    2.000    1.429    3.000    2.000    9.143 
#    0.000    0.000    0.000    0.429    0.000    3.000 
#    0.000    0.000    0.000    0.000    0.000    0.000 
#
# Total GULP energy -156298.521844 kJ/mol
# GULP energy per Si atom -5582.090066 kJ/mol
# Density = 2.390913 g / cm^3
# Si number density = 23.963669 Si / 1000 Ang^3
#
#
#
# Elastic Constant Matrix: (Units=GPa)
#
#
# Indices 1 2 3 4 5 6 
#
# 1 48.4700 6.6768 0.7539 0.0000 4.9969 0.0000
# 2 6.6768 165.5348 37.3214 0.0000 22.2844 0.0000
# 3 0.7539 37.3214 53.1191 0.0000 24.0737 0.0000
# 4 0.0000 0.0000 0.0000 30.7573 0.0000 6.4691
# 5 4.9969 22.2844 24.0737 0.0000 24.5689 0.0000
# 6 0.0000 0.0000 0.0000 6.4691 0.0000 19.7529
#
#
#
# Elastic Compliance Matrix: (Units=1/GPa)
#
#
# Indices 1 2 3 4 5 6 
#
# 1 0.021396 -0.000673 0.003354 0.000000 -0.007028 0.000000
# 2 -0.000673 0.007310 -0.003928 0.000000 -0.002645 0.000000
# 3 0.003354 -0.003928 0.036393 0.000000 -0.032779 0.000000
# 4 0.000000 0.000000 0.000000 0.034918 0.000000 -0.011436
# 5 -0.007028 -0.002645 -0.032779 0.000000 0.076649 0.000000
# 6 0.000000 0.000000 0.000000 -0.011436 0.000000 0.054371
#
#
# Mechanical properties :
#
#
# Convention : Reuss Voigt Hill
#
# Bulk Modulus (GPa) = 15.97286 39.62534 27.79910
# Shear Modulus (GPa) = 19.65420 29.84062 24.74741
#
# Velocity S-wave (km/s) = 2.86696 3.53263 3.21706
# Velocity P-wave (km/s) = 4.19991 5.76288 5.04232
#
# Compressibility (1/GPa) = 0.06260618
#
# Stress axis : x y z
#
# Youngs Moduli (GPa) = 46.73685 136.80388 27.47757
#
# Poissons Ratio (x) = 0.09209 -0.09217
# Poissons Ratio (y) = 0.03146 0.10792
# Poissons Ratio (z) = -0.15677 0.53733
#
# Static dielectric constant tensor:
#      x y z
#    x 1.915110 0.000000 -0.020170 
#    y 0.000000 1.909890 0.000000 
#    z -0.020170 0.000000 1.962290 
# 
# From -- ./inp_files/87839.got.cif
#   From: 2010.05.17/outbox.cif.g08.bks.cpg/sg12_44_cif.got.tgz:87839.got - 2010.06.03 13:09:07.
