data_PCOD9182940
_publ_section_title
;
Structure prediction by ZEFSAII (Michael W. Deem and Ramdas Pophale) SiO2 
 PCOD9182940
Probable space group: C 2/M
;
_chemical_formula_sum "Si O2"
_cell_formula_units_Z 48
_cell_length_a 21.035657
_cell_length_b 7.567099
_cell_length_c 12.190209
_cell_angle_alpha 90.000000
_cell_angle_beta 110.489362
_cell_angle_gamma 90.000000
_cell_volume 1817.667381
_symmetry_space_group_name_H-M "C 2/M"
_symmetry_group_IT_number 12
_symmetry_cell_setting 'monoclinic'
loop_
_space_group_symop_operation_xyz
x,y,z
-x,y,-z
-x,-y,-z
x,-y,z
1/2+x,1/2+y,z
1/2-x,1/2+y,-z
1/2-x,1/2-y,-z
1/2+x,1/2-y,z
loop_
_atom_site_type_symbol
_atom_site_label
_atom_site_fract_x
_atom_site_fract_y
_atom_site_fract_z
Si Si1 0.006221 0.702848 0.630568
Si Si2 0.828212 0.309163 0.029703
Si Si3 0.146148 0.213100 0.646543
Si Si4 0.803002 0.791503 0.784127
Si Si5 0.021884 0.282896 0.884403
Si Si6 0.671290 0.289604 0.428845
O O1 0.984189 0.500000 0.610955
O O2 0.088168 0.707820 0.684476
O O3 0.986285 0.771078 0.743178
O O4 0.000000 0.785042 0.500000
O O5 0.831846 0.500000 0.085547
O O6 0.900501 0.214435 0.087720
O O7 0.750000 0.250000 0.000000
O O8 0.828524 0.317669 0.899412
O O9 0.221888 0.270644 0.722646
O O10 0.132840 0.272009 0.512453
O O11 0.144893 0.000000 0.651538
O O12 0.838876 0.719681 0.697313
O O13 0.816921 0.000000 0.807567
O O14 0.021466 0.500000 0.883619
O O15 0.000000 0.234181 0.000000
O O16 0.663378 0.500000 0.419574
O O17 0.750000 0.250000 0.500000
#
# Coordination Sequence:
#
# PCOD9182940 Si02
#       6
#     8   8   8   8   8   8
#     4  10  21  37  59  85 110 144 195 251 304 359
#     4  11  22  36  59  88 118 155 200 249 304 368
#     4  10  19  33  54  81 115 152 194 243 299 363
#     4  10  19  33  53  79 115 153 192 242 299 357
#     4   9  20  40  62  85 118 160 203 247 298 360
#     4   8  16  29  46  71 104 143 181 223 279 342
#
# _framework density 26.407471000000001
#
# number of rings (size 3 to 8) (size 9 to 14) (size 15 to 20)
#    0.000    2.333    0.000    2.500    0.000    4.333 
#    0.000    2.500    0.000    4.500    0.000    0.000 
#    0.000    0.000    0.000    0.000    0.000    0.000 
#
# Total GULP energy -133631.156954 kJ/mol
# GULP energy per Si atom -5567.964873 kJ/mol
# Density = 2.634737 g / cm^3
# Si number density = 26.407471 Si / 1000 Ang^3
#
#
#
# Elastic Constant Matrix: (Units=GPa)
#
#
# Indices 1 2 3 4 5 6 
#
# 1 147.3315 5.2028 32.8734 0.0000 -14.2963 0.0000
# 2 5.2028 94.9107 15.9248 0.0000 3.6920 0.0000
# 3 32.8734 15.9248 222.1162 0.0000 -39.7445 0.0000
# 4 0.0000 0.0000 0.0000 -3.8266 0.0000 -3.7477
# 5 -14.2963 3.6920 -39.7445 0.0000 29.1865 0.0000
# 6 0.0000 0.0000 0.0000 -3.7477 0.0000 9.3692
#
#
#
# Elastic Compliance Matrix: (Units=1/GPa)
#
#
# Indices 1 2 3 4 5 6 
#
# 1 0.007197 -0.000418 -0.000522 0.000000 0.002867 0.000000
# 2 -0.000418 0.010914 -0.001328 0.000000 -0.003394 0.000000
# 3 -0.000522 -0.001328 0.006160 0.000000 0.008300 0.000000
# 4 0.000000 0.000000 0.000000 -0.187768 0.000000 -0.075107
# 5 0.002867 -0.003394 0.008300 0.000000 0.047399 0.000000
# 6 0.000000 0.000000 0.000000 -0.075107 0.000000 0.076689
#
#
# Mechanical properties :
#
#
# Convention : Reuss Voigt Hill
#
# Bulk Modulus (GPa) = 50.67397 63.59561 57.13479
# Shear Modulus (GPa) = -176.71333 34.30297 -71.20518
#
# Velocity S-wave (km/s) = -8.18921 3.60806 -5.19832
# Velocity P-wave (km/s) = 8.37775 6.44144 3.78778
#
# Compressibility (1/GPa) = 0.01973400
#
# Stress axis : x y z
#
# Youngs Moduli (GPa) = 138.94864 91.62574 162.34159
#
# Poissons Ratio (x) = 0.03834 0.08476
# Poissons Ratio (y) = 0.05814 0.21556
# Poissons Ratio (z) = 0.07255 0.12166
#
# Static dielectric constant tensor:
#      x y z
#    x 2.187630 0.000000 0.027450 
#    y 0.000000 1.928740 0.000000 
#    z 0.027450 0.000000 2.190130 
# 
# From -- ./inp_files/173068.got.cif
#   From: 2010.05.17/outbox.cif.g08.bks.cpg/sg12_87_cif.got.tgz:173068.got - 2010.06.03 13:09:07.
