data_PCOD9182155
_publ_section_title
;
Structure prediction by ZEFSAII (Michael W. Deem and Ramdas Pophale) SiO2 
 PCOD9182155
Probable space group: C 2/M
;
_chemical_formula_sum "Si O2"
_cell_formula_units_Z 64
_cell_length_a 20.529192
_cell_length_b 8.045113
_cell_length_c 21.990869
_cell_angle_alpha 90.000000
_cell_angle_beta 122.477396
_cell_angle_gamma 90.000000
_cell_volume 3063.971303
_symmetry_space_group_name_H-M "C 2/M"
_symmetry_group_IT_number 12
_symmetry_cell_setting 'monoclinic'
loop_
_space_group_symop_operation_xyz
x,y,z
-x,y,-z
-x,-y,-z
x,-y,z
1/2+x,1/2+y,z
1/2-x,1/2+y,-z
1/2-x,1/2-y,-z
1/2+x,1/2-y,z
loop_
_atom_site_type_symbol
_atom_site_label
_atom_site_fract_x
_atom_site_fract_y
_atom_site_fract_z
Si Si1 0.336027 0.692843 0.177929
Si Si2 0.768941 0.799194 0.440550
Si Si3 0.506363 0.298801 0.687616
Si Si4 0.556642 0.296638 0.475010
Si Si5 0.896173 0.308127 0.080914
Si Si6 0.127936 0.699979 0.288233
Si Si7 0.670390 0.688858 0.070578
Si Si8 0.931687 0.298621 0.869916
O O1 0.322852 0.500000 0.186479
O O2 0.406766 0.757963 0.254310
O O3 0.365707 0.709105 0.123433
O O4 0.254449 0.783140 0.141411
O O5 0.750000 0.750000 0.500000
O O6 0.855612 0.741980 0.470074
O O7 0.702972 0.736240 0.361761
O O8 0.768380 0.000000 0.437130
O O9 0.507831 0.500000 0.688440
O O10 0.473504 0.242601 0.606230
O O11 0.447823 0.244317 0.710956
O O12 0.500000 0.242463 0.500000
O O13 0.556703 0.500000 0.474431
O O14 0.904046 0.500000 0.104561
O O15 0.979911 0.249933 0.099097
O O16 0.839982 0.297506 0.995036
O O17 0.132873 0.500000 0.288688
O O18 0.117147 0.756297 0.213595
O O19 0.662671 0.500000 0.046488
O O20 0.605358 0.730676 0.087404
O O21 0.930226 0.500000 0.873395
#
# Coordination Sequence:
#
# PCOD9182155 Si02
#       8
#     8   8   8   8   8   8   8   8
#     4  11  23  39  61  88 118 155 201 246 294 352
#     4  10  19  32  56  85 114 150 190 237 284 335
#     4  10  20  35  59  86 113 151 194 243 288 339
#     4   9  18  33  54  84 117 151 191 235 282 333
#     4  11  22  40  65  89 117 155 196 242 296 352
#     4  10  20  35  58  87 116 153 193 239 292 347
#     4  12  26  41  59  86 121 156 194 245 298 351
#     4  10  22  40  61  87 119 155 196 242 296 352
#
# _framework density 20.887923000000001
#
# number of rings (size 3 to 8) (size 9 to 14) (size 15 to 20)
#    0.000    1.625    2.500    2.625    0.000    4.500 
#    0.000    3.750    0.000    1.500    0.000    0.000 
#    0.000    0.000    0.000    0.000    0.000    0.000 
#
# Total GULP energy -178870.215701 kJ/mol
# GULP energy per Si atom -5589.694241 kJ/mol
# Density = 2.084038 g / cm^3
# Si number density = 20.887923 Si / 1000 Ang^3
#
#
#
# Elastic Constant Matrix: (Units=GPa)
#
#
# Indices 1 2 3 4 5 6 
#
# 1 71.4436 1.0426 -9.8311 0.0000 14.8211 0.0000
# 2 1.0426 22.2061 -1.7840 0.0000 2.7602 0.0000
# 3 -9.8311 -1.7840 68.9500 0.0000 17.9178 0.0000
# 4 0.0000 0.0000 0.0000 9.4065 0.0000 0.1024
# 5 14.8211 2.7602 17.9178 0.0000 36.2519 0.0000
# 6 0.0000 0.0000 0.0000 0.1024 0.0000 26.6214
#
#
#
# Elastic Compliance Matrix: (Units=1/GPa)
#
#
# Indices 1 2 3 4 5 6 
#
# 1 0.016545 0.000746 0.004763 0.000000 -0.009175 0.000000
# 2 0.000746 0.045840 0.002615 0.000000 -0.005088 0.000000
# 3 0.004763 0.002615 0.018137 0.000000 -0.011111 0.000000
# 4 0.000000 0.000000 0.000000 0.106313 0.000000 -0.000409
# 5 -0.009175 -0.005088 -0.011111 0.000000 0.037215 0.000000
# 6 0.000000 0.000000 0.000000 -0.000409 0.000000 0.037565
#
#
# Mechanical properties :
#
#
# Convention : Reuss Voigt Hill
#
# Bulk Modulus (GPa) = 10.33388 15.71718 13.02553
# Shear Modulus (GPa) = 18.00989 26.00078 22.00534
#
# Velocity S-wave (km/s) = 2.93954 3.53197 3.24928
# Velocity P-wave (km/s) = 4.05946 4.91670 4.50850
#
# Compressibility (1/GPa) = 0.09676905
#
# Stress axis : x y z
#
# Youngs Moduli (GPa) = 60.44162 21.81499 55.13499
#
# Poissons Ratio (x) = -0.01628 -0.26259
# Poissons Ratio (y) = -0.04510 -0.14415
# Poissons Ratio (z) = -0.28786 -0.05704
#
# Static dielectric constant tensor:
#      x y z
#    x 1.708990 0.000000 0.033870 
#    y 0.000000 1.737760 0.000000 
#    z 0.033870 0.000000 1.744210 
# 
# From -- ./inp_files/320044.got.cif
#   From: 2010.05.17/outbox.cif.g08.bks.cpg/sg12_161_cif.got.tgz:320044.got - 2010.06.03 13:09:07.
