data_PCOD9182145
_publ_section_title
;
Structure prediction by ZEFSAII (Michael W. Deem and Ramdas Pophale) SiO2 
 PCOD9182145
Probable space group: C 2/M
;
_chemical_formula_sum "Si O2"
_cell_formula_units_Z 48
_cell_length_a 20.563986
_cell_length_b 9.117884
_cell_length_c 27.586946
_cell_angle_alpha 90.000000
_cell_angle_beta 33.041388
_cell_angle_gamma 90.000000
_cell_volume 2820.307417
_symmetry_space_group_name_H-M "C 2/M"
_symmetry_group_IT_number 12
_symmetry_cell_setting 'monoclinic'
loop_
_space_group_symop_operation_xyz
x,y,z
-x,y,-z
-x,-y,-z
x,-y,z
1/2+x,1/2+y,z
1/2-x,1/2+y,-z
1/2-x,1/2-y,-z
1/2+x,1/2-y,z
loop_
_atom_site_type_symbol
_atom_site_label
_atom_site_fract_x
_atom_site_fract_y
_atom_site_fract_z
Si Si1 0.257507 0.824660 0.763527
Si Si2 0.988723 0.826766 0.949315
Si Si3 0.888514 0.175992 0.770860
Si Si4 0.537228 0.676344 0.422199
Si Si5 0.737340 0.825308 0.956242
Si Si6 0.875651 0.824621 0.431433
O O1 0.117560 0.791987 0.845946
O O2 0.304487 0.757342 0.784737
O O3 0.341731 0.754700 0.670162
O O4 0.271307 0.000000 0.756118
O O5 0.963348 0.000000 0.957355
O O6 0.000000 0.804471 0.000000
O O7 0.883254 0.731356 0.993502
O O8 0.845082 0.211873 0.851857
O O9 0.023998 0.213144 0.671572
O O10 0.875041 0.000000 0.772246
O O11 0.500000 0.714137 0.500000
O O12 0.553506 0.500000 0.409121
O O13 0.436551 0.715334 0.445024
O O14 0.734654 0.000000 0.963434
O O15 0.750000 0.750000 0.000000
O O16 0.750000 0.750000 0.500000
O O17 0.859981 0.000000 0.440896
#
# Coordination Sequence:
#
# PCOD9182145 Si02
#       6
#     8   8   8   8   8   8
#     4  10  19  32  56  85 109 139 179 225 269 315
#     4  10  20  36  57  82 113 143 178 226 272 322
#     4   9  19  36  56  77 106 144 181 219 269 324
#     4   9  19  37  57  76 108 144 176 221 271 319
#     4  11  23  38  57  80 111 148 184 226 274 326
#     4   9  18  34  55  78 102 134 174 217 264 314
#
# _framework density 17.019421999999999
#
# number of rings (size 3 to 8) (size 9 to 14) (size 15 to 20)
#    0.000    2.333    1.667    2.000    0.000    5.333 
#    3.000    0.000    0.000    0.000    0.000    0.000 
#    0.000    0.000    0.000    0.000    0.000    0.000 
#
# Total GULP energy -133875.571914 kJ/mol
# GULP energy per Si atom -5578.148830 kJ/mol
# Density = 1.698069 g / cm^3
# Si number density = 17.019422 Si / 1000 Ang^3
#
#
#
# Elastic Constant Matrix: (Units=GPa)
#
#
# Indices 1 2 3 4 5 6 
#
# 1 82.6697 42.1572 87.3900 0.0000 7.8934 0.0000
# 2 42.1572 37.0282 59.7717 -0.0001 3.3726 0.0002
# 3 87.3900 59.7717 167.3907 0.0000 9.3848 0.0000
# 4 0.0000 -0.0001 0.0000 30.4003 0.0000 -2.6163
# 5 7.8934 3.3726 9.3848 0.0000 32.4785 0.0000
# 6 0.0000 0.0002 0.0000 -2.6163 0.0000 30.9998
#
#
#
# Elastic Compliance Matrix: (Units=1/GPa)
#
#
# Indices 1 2 3 4 5 6 
#
# 1 0.034340 -0.023973 -0.009188 0.000000 -0.003201 0.000000
# 2 -0.023973 0.080492 -0.016349 0.000000 0.002192 -0.000001
# 3 -0.009188 -0.016349 0.016658 0.000000 -0.000883 0.000000
# 4 0.000000 0.000000 0.000000 0.033135 0.000000 0.002796
# 5 -0.003201 0.002192 -0.000883 0.000000 0.031595 0.000000
# 6 0.000000 -0.000001 0.000000 0.002796 0.000000 0.032494
#
#
# Mechanical properties :
#
#
# Convention : Reuss Voigt Hill
#
# Bulk Modulus (GPa) = 30.79851 73.96958 52.38404
# Shear Modulus (GPa) = 14.76850 25.29368 20.03109
#
# Velocity S-wave (km/s) = 2.94895 3.85926 3.43440
# Velocity P-wave (km/s) = 5.45256 7.96334 6.82441
#
# Compressibility (1/GPa) = 0.03246911
#
# Stress axis : x y z
#
# Youngs Moduli (GPa) = 29.12079 12.42359 60.03051
#
# Poissons Ratio (x) = 0.29784 0.55155
# Poissons Ratio (y) = 0.69813 0.98144
# Poissons Ratio (z) = 0.26756 0.20311
#
# Static dielectric constant tensor:
#      x y z
#    x 1.546430 0.000000 0.011710 
#    y 0.000000 1.566340 0.000000 
#    z 0.011710 0.000000 1.585010 
# 
# From -- ./inp_files/345394.got.cif
#   From: 2010.05.17/outbox.cif.g08.bks.cpg/sg12_173_cif.got.tgz:345394.got - 2010.06.03 13:09:07.
