data_PCOD9182877
_publ_section_title
;
Structure prediction by ZEFSAII (Michael W. Deem and Ramdas Pophale) SiO2 
 PCOD9182877
Probable space group: C 2/M
;
_chemical_formula_sum "Si O2"
_cell_formula_units_Z 64
_cell_length_a 11.538163
_cell_length_b 27.749750
_cell_length_c 14.905495
_cell_angle_alpha 90.000000
_cell_angle_beta 44.762555
_cell_angle_gamma 90.000000
_cell_volume 3360.623569
_symmetry_space_group_name_H-M "C 2/M"
_symmetry_group_IT_number 12
_symmetry_cell_setting 'monoclinic'
loop_
_space_group_symop_operation_xyz
x,y,z
-x,y,-z
-x,-y,-z
x,-y,z
1/2+x,1/2+y,z
1/2-x,1/2+y,-z
1/2-x,1/2-y,-z
1/2+x,1/2-y,z
loop_
_atom_site_type_symbol
_atom_site_label
_atom_site_fract_x
_atom_site_fract_y
_atom_site_fract_z
Si Si1 0.571497 0.225843 0.064577
Si Si2 0.745282 0.444886 0.358496
Si Si3 0.378908 0.444316 0.390135
Si Si4 0.884668 0.554272 0.772725
Si Si5 0.831104 0.614929 0.631571
Si Si6 0.706481 0.874915 0.023326
Si Si7 0.242194 0.444113 0.846204
Si Si8 0.956990 0.175792 0.130678
O O1 0.454413 0.268610 0.163489
O O2 0.500000 0.220430 0.000000
O O3 0.750000 0.250000 0.000000
O O4 0.587615 0.171627 0.092261
O O5 0.693618 0.500000 0.365111
O O6 0.624983 0.428053 0.503572
O O7 0.772832 0.422724 0.245733
O O8 0.924349 0.445530 0.305113
O O9 0.318617 0.500000 0.422395
O O10 0.267450 0.408853 0.395377
O O11 0.560635 0.444896 0.249588
O O12 0.820080 0.500000 0.820239
O O13 0.870280 0.572127 0.679539
O O14 0.797949 0.592365 0.885801
O O15 0.712655 0.651147 0.749661
O O16 0.000000 0.636082 0.500000
O O17 0.666234 0.910633 0.963747
O O18 0.889839 0.853047 0.910410
O O19 0.184648 0.500000 0.883069
O O20 0.000000 0.175647 0.000000
#
# Coordination Sequence:
#
# PCOD9182877 Si02
#       8
#     8   8   8   8   8   8   8   8
#     4   9  21  39  65  92 116 154 206 264 319 377
#     4   9  19  34  49  72 113 163 205 242 284 344
#     4  10  19  33  53  77 111 161 212 245 285 353
#     4  11  23  35  53  86 129 166 200 244 301 370
#     4  12  22  36  61  90 121 160 204 252 307 365
#     4  11  21  36  58  89 117 155 203 252 302 369
#     4  10  20  33  52  80 118 160 200 244 294 353
#     4  10  20  41  61  88 118 154 200 258 314 367
#
# _framework density 19.044084999999999
#
# number of rings (size 3 to 8) (size 9 to 14) (size 15 to 20)
#    0.000    1.750    3.750    1.125    1.750    2.000 
#    0.000    2.500    0.000    0.750    6.500    0.000 
#    0.000    0.000    0.000    0.000    0.000    0.000 
#
# Total GULP energy -178222.502155 kJ/mol
# GULP energy per Si atom -5569.453192 kJ/mol
# Density = 1.900074 g / cm^3
# Si number density = 19.044085 Si / 1000 Ang^3
#
#
#
# Elastic Constant Matrix: (Units=GPa)
#
#
# Indices 1 2 3 4 5 6 
#
# 1 71.4169 17.9020 16.2648 0.0000 8.7072 0.0000
# 2 17.9020 112.8775 42.0160 0.0000 3.6535 0.0000
# 3 16.2648 42.0160 87.6816 0.0000 0.7389 0.0000
# 4 0.0000 0.0000 0.0000 8.4557 0.0000 -12.5091
# 5 8.7072 3.6535 0.7389 0.0000 36.4427 0.0000
# 6 0.0000 0.0000 0.0000 -12.5091 0.0000 4.6576
#
#
#
# Elastic Compliance Matrix: (Units=1/GPa)
#
#
# Indices 1 2 3 4 5 6 
#
# 1 0.015281 -0.001543 -0.002066 0.000000 -0.003454 0.000000
# 2 -0.001543 0.010973 -0.004967 0.000000 -0.000631 0.000000
# 3 -0.002066 -0.004967 0.014162 0.000000 0.000704 0.000000
# 4 0.000000 0.000000 0.000000 -0.039777 0.000000 -0.106830
# 5 -0.003454 -0.000631 0.000704 0.000000 0.028315 0.000000
# 6 0.000000 0.000000 0.000000 -0.106830 0.000000 -0.072213
#
#
# Mechanical properties :
#
#
# Convention : Reuss Voigt Hill
#
# Bulk Modulus (GPa) = 42.98313 47.14907 45.06610
# Shear Modulus (GPa) = -272.42606 22.96408 -124.73099
#
# Velocity S-wave (km/s) = -11.97334 3.47628 -8.10173
# Velocity P-wave (km/s) = 12.98185 6.39721 7.98762
#
# Compressibility (1/GPa) = 0.02326494
#
# Stress axis : x y z
#
# Youngs Moduli (GPa) = 65.44204 91.13327 70.61040
#
# Poissons Ratio (x) = 0.14058 0.14590
# Poissons Ratio (y) = 0.10095 0.35070
# Poissons Ratio (z) = 0.13522 0.45263
#
# Static dielectric constant tensor:
#      x y z
#    x 1.728900 0.000000 -0.001580 
#    y 0.000000 1.655950 0.000000 
#    z -0.001580 0.000000 1.703080 
# 
# From -- ./inp_files/209386.got.cif
#   From: 2010.05.17/outbox.cif.g08.bks.cpg/sg12_105_cif.got.tgz:209386.got - 2010.06.03 13:09:07.
