data_PCOD9182973
_publ_section_title
;
Structure prediction by ZEFSAII (Michael W. Deem and Ramdas Pophale) SiO2 
 PCOD9182973
Probable space group: C 2/M
;
_chemical_formula_sum "Si O2"
_cell_formula_units_Z 56
_cell_length_a 21.325872
_cell_length_b 9.855499
_cell_length_c 21.039939
_cell_angle_alpha 90.000000
_cell_angle_beta 39.207804
_cell_angle_gamma 90.000000
_cell_volume 2795.372096
_symmetry_space_group_name_H-M "C 2/M"
_symmetry_group_IT_number 12
_symmetry_cell_setting 'monoclinic'
loop_
_space_group_symop_operation_xyz
x,y,z
-x,y,-z
-x,-y,-z
x,-y,z
1/2+x,1/2+y,z
1/2-x,1/2+y,-z
1/2-x,1/2-y,-z
1/2+x,1/2-y,z
loop_
_atom_site_type_symbol
_atom_site_label
_atom_site_fract_x
_atom_site_fract_y
_atom_site_fract_z
Si Si1 0.719841 0.841563 0.465348
Si Si2 0.062497 0.851445 0.545111
Si Si3 0.084996 0.161742 0.769827
Si Si4 0.167566 0.837004 0.833410
Si Si5 0.730299 0.343580 0.920243
Si Si6 0.151650 0.147909 0.333134
Si Si7 0.892155 0.842282 0.851860
O O1 0.750000 0.750000 0.500000
O O2 0.613442 0.780942 0.531973
O O3 0.805086 0.819127 0.345234
O O4 0.716886 0.000000 0.481347
O O5 0.106234 0.856403 0.439427
O O6 0.944767 0.839447 0.635134
O O7 0.087677 0.000000 0.555092
O O8 0.090395 0.210086 0.839165
O O9 0.001025 0.212954 0.786682
O O10 0.064793 0.000000 0.787951
O O11 0.161730 0.806559 0.913288
O O12 0.271862 0.768197 0.734124
O O13 0.170692 0.000000 0.824995
O O14 0.762981 0.500000 0.885152
O O15 0.824809 0.246546 0.857389
O O16 0.666106 0.340003 0.034904
O O17 0.199424 0.000000 0.283474
O O18 0.898390 0.000000 0.825566
#
# Coordination Sequence:
#
# PCOD9182973 Si02
#       7
#     8   8   8   8   8   8   8
#     4  11  22  36  53  75 104 139 178 220 264 314
#     4   9  18  34  52  72  99 133 175 217 256 305
#     4   9  19  35  55  78 104 138 177 218 263 312
#     4  10  19  33  53  81 112 135 172 224 266 312
#     4   9  19  34  55  82 108 135 170 218 265 309
#     4   9  18  32  52  75 101 134 171 212 260 310
#     4   9  18  36  58  77 104 142 177 209 258 321
#
# _framework density 20.033111999999999
#
# number of rings (size 3 to 8) (size 9 to 14) (size 15 to 20)
#    0.000    2.571    1.429    1.286    0.000    2.857 
#    0.000   10.714    0.000    0.000    0.000    5.000 
#    0.000    0.000    0.000    0.000    0.000    0.000 
#
# Total GULP energy -155949.083174 kJ/mol
# GULP energy per Si atom -5569.610113 kJ/mol
# Density = 1.998752 g / cm^3
# Si number density = 20.033112 Si / 1000 Ang^3
#
#
#
# Elastic Constant Matrix: (Units=GPa)
#
#
# Indices 1 2 3 4 5 6 
#
# 1 78.4818 42.5440 6.1588 0.0000 -0.8670 0.0000
# 2 42.5440 54.1421 14.4608 -0.0001 3.5449 0.0001
# 3 6.1588 14.4608 25.3083 0.0000 3.5436 0.0000
# 4 0.0000 -0.0001 0.0000 16.5157 0.0000 -0.0059
# 5 -0.8670 3.5449 3.5436 0.0000 26.7774 0.0000
# 6 0.0000 0.0001 0.0000 -0.0059 0.0000 30.6021
#
#
#
# Elastic Compliance Matrix: (Units=1/GPa)
#
#
# Indices 1 2 3 4 5 6 
#
# 1 0.023020 -0.019669 0.005265 0.000000 0.002652 0.000000
# 2 -0.019669 0.038644 -0.016800 0.000000 -0.003529 0.000000
# 3 0.005265 -0.016800 0.048392 0.000000 -0.004010 0.000000
# 4 0.000000 0.000000 0.000000 0.060549 0.000000 0.000012
# 5 0.002652 -0.003529 -0.004010 0.000000 0.038429 0.000000
# 6 0.000000 0.000000 0.000000 0.000012 0.000000 0.032678
#
#
# Mechanical properties :
#
#
# Convention : Reuss Voigt Hill
#
# Bulk Modulus (GPa) = 20.98687 31.58436 26.28561
# Shear Modulus (GPa) = 15.62500 21.09695 18.36097
#
# Velocity S-wave (km/s) = 2.79580 3.24868 3.03071
# Velocity P-wave (km/s) = 4.57393 5.46554 5.03950
#
# Compressibility (1/GPa) = 0.04764885
#
# Stress axis : x y z
#
# Youngs Moduli (GPa) = 43.44018 25.87757 20.66457
#
# Poissons Ratio (x) = 0.50898 -0.10880
# Poissons Ratio (y) = 0.85442 0.34716
# Poissons Ratio (z) = -0.22872 0.43474
#
# Static dielectric constant tensor:
#      x y z
#    x 1.858160 0.000000 -0.010990 
#    y 0.000000 1.792320 0.000000 
#    z -0.010990 0.000000 1.824270 
# 
# From -- ./inp_files/320928.got.cif
#   From: 2010.05.17/outbox.cif.g08.bks.cpg/sg12_161_cif.got.tgz:320928.got - 2010.06.03 13:09:07.
