data_PCOD9182408
_publ_section_title
;
Structure prediction by ZEFSAII (Michael W. Deem and Ramdas Pophale) SiO2 
 PCOD9182408
Probable space group: C 2/M
;
_chemical_formula_sum "Si O2"
_cell_formula_units_Z 56
_cell_length_a 22.544886
_cell_length_b 29.629638
_cell_length_c 22.615757
_cell_angle_alpha 90.000000
_cell_angle_beta 166.804927
_cell_angle_gamma 90.000000
_cell_volume 3448.489696
_symmetry_space_group_name_H-M "C 2/M"
_symmetry_group_IT_number 12
_symmetry_cell_setting 'monoclinic'
loop_
_space_group_symop_operation_xyz
x,y,z
-x,y,-z
-x,-y,-z
x,-y,z
1/2+x,1/2+y,z
1/2-x,1/2+y,-z
1/2-x,1/2-y,-z
1/2+x,1/2-y,z
loop_
_atom_site_type_symbol
_atom_site_label
_atom_site_fract_x
_atom_site_fract_y
_atom_site_fract_z
Si Si1 0.468635 0.674502 0.538817
Si Si2 0.970581 0.735607 0.040222
Si Si3 0.026018 0.783627 0.209383
Si Si4 0.239370 0.947589 0.767814
Si Si5 0.764071 0.447884 0.932516
Si Si6 0.993251 0.689414 0.736962
Si Si7 0.779491 0.108681 0.456670
O O1 0.500000 0.663738 0.500000
O O2 0.397299 0.633859 0.513274
O O3 0.227707 0.708441 0.307258
O O4 0.726687 0.701491 0.809282
O O5 0.959666 0.775898 0.076512
O O6 0.000000 0.748885 0.000000
O O7 0.310231 0.801397 0.502467
O O8 0.016560 0.733999 0.231027
O O9 0.796336 0.813852 0.014588
O O10 0.219639 0.948095 0.818524
O O11 0.000000 0.929006 0.500000
O O12 0.254705 0.000000 0.762713
O O13 0.500000 0.923359 0.000000
O O14 0.754773 0.500000 0.943639
O O15 0.524980 0.417416 0.723802
O O16 0.048525 0.426515 0.218085
O O17 0.861488 0.647561 0.642204
#
# Coordination Sequence:
#
# PCOD9182408 Si02
#       7
#     8   8   8   8   8   8   8
#     4  10  21  33  47  69  95 126 163 205 253 292
#     4  10  19  33  51  71 101 132 161 195 237 290
#     4  10  19  33  51  74 101 123 162 193 238 286
#     4   9  17  31  48  63  80 105 146 198 252 302
#     4  11  24  37  51  66  87 121 161 211 256 307
#     4  10  21  31  52  74  95 129 156 203 242 279
#     4  12  22  36  53  69  95 121 167 207 257 295
#
# _framework density 16.238993000000001
#
# number of rings (size 3 to 8) (size 9 to 14) (size 15 to 20)
#    0.000    1.714    1.429    3.857    4.000    4.000 
#    0.000    0.000    0.000    0.429    0.000    0.000 
#    0.000    0.000    0.000    0.000    0.000   50.000 
#
# Total GULP energy -156217.285853 kJ/mol
# GULP energy per Si atom -5579.188780 kJ/mol
# Density = 1.620203 g / cm^3
# Si number density = 16.238993 Si / 1000 Ang^3
#
#
#
# Elastic Constant Matrix: (Units=GPa)
#
#
# Indices 1 2 3 4 5 6 
#
# 1 48.8113 28.0818 21.4060 0.0011 0.5498 0.0024
# 2 28.0818 54.7364 18.1733 -0.0012 9.1764 0.0011
# 3 21.4060 18.1733 169.7902 -0.0233 -42.5499 0.0282
# 4 0.0011 -0.0012 -0.0233 -3.0697 0.0021 2.8146
# 5 0.5498 9.1764 -42.5499 0.0021 64.1153 -0.0224
# 6 0.0024 0.0011 0.0282 2.8146 -0.0224 12.9421
#
#
#
# Elastic Compliance Matrix: (Units=1/GPa)
#
#
# Indices 1 2 3 4 5 6 
#
# 1 0.029851 -0.014707 -0.002070 0.000028 0.000475 -0.000005
# 2 -0.014707 0.027544 -0.002459 -0.000004 -0.005448 -0.000003
# 3 -0.002070 -0.002459 0.007804 -0.000051 0.005549 0.000004
# 4 0.000028 -0.000004 -0.000051 -0.271609 -0.000004 0.059068
# 5 0.000475 -0.005448 0.005549 -0.000004 0.020055 0.000024
# 6 -0.000005 -0.000003 0.000004 0.059068 0.000024 0.064422
#
#
# Mechanical properties :
#
#
# Convention : Reuss Voigt Hill
#
# Bulk Modulus (GPa) = 37.41565 45.40667 41.41116
# Shear Modulus (GPa) = -67.06893 28.50932 -19.27981
#
# Velocity S-wave (km/s) = -6.43357 4.19454 -3.44939
# Velocity P-wave (km/s) = 5.66543 7.17504 3.11320
#
# Compressibility (1/GPa) = 0.02672679
#
# Stress axis : x y z
#
# Youngs Moduli (GPa) = 33.50017 36.30495 128.13125
#
# Poissons Ratio (x) = 0.53393 0.26526
# Poissons Ratio (y) = 0.49268 0.31513
# Poissons Ratio (z) = 0.06935 0.08929
#
# Static dielectric constant tensor:
#      x y z
#    x 1.556070 -0.000090 0.012520 
#    y -0.000090 1.526030 -0.000060 
#    z 0.012520 -0.000060 1.577530 
# 
# From -- ./inp_files/350732.got.cif
#   From: 2010.05.17/outbox.cif.g08.bks.cpg/sg12_176_cif.got.tgz:350732.got - 2010.06.03 13:09:07.
