data_PCOD9182064
_publ_section_title
;
Structure prediction by ZEFSAII (Michael W. Deem and Ramdas Pophale) SiO2 
 PCOD9182064
Probable space group: C 2/M
;
_chemical_formula_sum "Si O2"
_cell_formula_units_Z 48
_cell_length_a 19.067839
_cell_length_b 10.833291
_cell_length_c 13.153940
_cell_angle_alpha 90.000000
_cell_angle_beta 67.526065
_cell_angle_gamma 90.000000
_cell_volume 2510.815906
_symmetry_space_group_name_H-M "C 2/M"
_symmetry_group_IT_number 12
_symmetry_cell_setting 'monoclinic'
loop_
_space_group_symop_operation_xyz
x,y,z
-x,y,-z
-x,-y,-z
x,-y,z
1/2+x,1/2+y,z
1/2-x,1/2+y,-z
1/2-x,1/2-y,-z
1/2+x,1/2-y,z
loop_
_atom_site_type_symbol
_atom_site_label
_atom_site_fract_x
_atom_site_fract_y
_atom_site_fract_z
Si Si1 0.090393 0.000000 0.824397
Si Si2 0.582618 0.500000 0.076073
Si Si3 0.839323 0.257114 0.969991
Si Si4 0.690717 0.728251 0.788546
Si Si5 0.640468 0.863324 0.244458
Si Si6 0.236361 0.862286 0.431307
Si Si7 0.919870 0.863368 0.600272
O O1 0.137048 0.122650 0.770950
O O2 0.003642 0.000000 0.837607
O O3 0.085370 0.000000 0.950637
O O4 0.625331 0.625237 0.079774
O O5 0.868837 0.354521 0.872071
O O6 0.750000 0.250000 0.000000
O O7 0.847799 0.276510 0.085911
O O8 0.770963 0.664161 0.776269
O O9 0.712617 0.832818 0.696271
O O10 0.593234 0.752466 0.319707
O O11 0.620781 0.000000 0.292046
O O12 0.250000 0.750000 0.500000
O O13 0.149450 0.858838 0.441402
O O14 0.252350 0.000000 0.462868
O O15 0.000000 0.855478 0.500000
O O16 0.914529 0.000000 0.653352
#
# Coordination Sequence:
#
# PCOD9182064 Si02
#       7
#     4   4   8   8   8   8   8
#     4   9  16  32  58  76 106 144 193 234 266 318
#     4   9  18  32  50  84 110 146 192 227 268 321
#     4   9  19  31  52  81 118 145 180 224 272 332
#     4   9  18  35  55  80 109 148 185 228 279 328
#     4  10  19  32  55  85 115 144 183 225 280 341
#     4  10  22  38  59  85 109 145 194 237 284 342
#     4   9  20  40  60  81 110 146 189 240 285 327
#
# _framework density 19.117291000000002
#
# number of rings (size 3 to 8) (size 9 to 14) (size 15 to 20)
#    0.000    2.667    0.833    0.000    5.833    1.667 
#    6.000    0.000    0.000    0.000    0.000    4.667 
#    0.000    0.000    0.000    0.000    0.000    0.000 
#
# Total GULP energy -133779.482094 kJ/mol
# GULP energy per Si atom -5574.145087 kJ/mol
# Density = 1.907378 g / cm^3
# Si number density = 19.117291 Si / 1000 Ang^3
#
#
#
# Elastic Constant Matrix: (Units=GPa)
#
#
# Indices 1 2 3 4 5 6 
#
# 1 66.7700 41.4172 21.6638 0.0000 -21.8648 0.0000
# 2 41.4172 157.6571 61.2310 0.0000 -5.8503 0.0000
# 3 21.6638 61.2310 68.0550 0.0000 -5.3103 0.0000
# 4 0.0000 0.0000 0.0000 26.5427 0.0000 1.9226
# 5 -21.8648 -5.8503 -5.3103 0.0000 25.5320 0.0000
# 6 0.0000 0.0000 0.0000 1.9226 0.0000 25.1407
#
#
#
# Elastic Compliance Matrix: (Units=1/GPa)
#
#
# Indices 1 2 3 4 5 6 
#
# 1 0.025418 -0.005223 -0.001817 0.000000 0.020193 0.000000
# 2 -0.005223 0.010827 -0.008370 0.000000 -0.003732 0.000000
# 3 -0.001817 -0.008370 0.022904 0.000000 0.001290 0.000000
# 4 0.000000 0.000000 0.000000 0.037885 0.000000 -0.002897
# 5 0.020193 -0.003732 0.001290 0.000000 0.055872 0.000000
# 6 0.000000 0.000000 0.000000 -0.002897 0.000000 0.039998
#
#
# Mechanical properties :
#
#
# Convention : Reuss Voigt Hill
#
# Bulk Modulus (GPa) = 35.29821 60.12289 47.71055
# Shear Modulus (GPa) = 21.44388 26.65442 24.04915
#
# Velocity S-wave (km/s) = 3.35281 3.73803 3.55065
# Velocity P-wave (km/s) = 5.78728 7.08154 6.46687
#
# Compressibility (1/GPa) = 0.02833005
#
# Stress axis : x y z
#
# Youngs Moduli (GPa) = 39.34194 92.35976 43.66044
#
# Poissons Ratio (x) = 0.48235 0.07932
# Poissons Ratio (y) = 0.20546 0.36545
# Poissons Ratio (z) = 0.07148 0.77308
#
# Static dielectric constant tensor:
#      x y z
#    x 1.652660 0.000000 0.031070 
#    y 0.000000 1.664030 0.000000 
#    z 0.031070 0.000000 1.721990 
# 
# From -- ./inp_files/229989.got.cif
#   From: 2010.05.17/outbox.cif.g08.bks.cpg/sg12_115_cif.got.tgz:229989.got - 2010.06.03 13:09:07.
