data_PCOD9182350
_publ_section_title
;
Structure prediction by ZEFSAII (Michael W. Deem and Ramdas Pophale) SiO2 
 PCOD9182350
Probable space group: C 2/M
;
_chemical_formula_sum "Si O2"
_cell_formula_units_Z 48
_cell_length_a 13.967358
_cell_length_b 28.250876
_cell_length_c 10.673487
_cell_angle_alpha 90.000000
_cell_angle_beta 29.791504
_cell_angle_gamma 90.000000
_cell_volume 2092.539564
_symmetry_space_group_name_H-M "C 2/M"
_symmetry_group_IT_number 12
_symmetry_cell_setting 'monoclinic'
loop_
_space_group_symop_operation_xyz
x,y,z
-x,y,-z
-x,-y,-z
x,-y,z
1/2+x,1/2+y,z
1/2-x,1/2+y,-z
1/2-x,1/2-y,-z
1/2+x,1/2-y,z
loop_
_atom_site_type_symbol
_atom_site_label
_atom_site_fract_x
_atom_site_fract_y
_atom_site_fract_z
Si Si1 0.271708 0.198331 0.763074
Si Si2 0.274194 0.807126 0.236833
Si Si3 0.723765 0.346063 0.554027
Si Si4 0.107338 0.052446 0.742070
Si Si5 0.305060 0.860644 0.964886
Si Si6 0.450394 0.947147 0.688415
O O1 0.500000 0.190823 0.500000
O O2 0.245037 0.254578 0.795775
O O3 0.185106 0.178667 0.731377
O O4 0.220155 0.171040 0.948812
O O5 0.185366 0.814436 0.474969
O O6 0.500000 0.814650 0.000000
O O7 0.215885 0.844618 0.197081
O O8 0.608960 0.395853 0.675560
O O9 0.959186 0.353523 0.292150
O O10 0.339056 0.048499 0.493185
O O11 0.049752 0.000000 0.756745
O O12 0.000000 0.056928 0.000000
O O13 0.300781 0.915797 0.933472
O O14 0.500000 0.922471 0.500000
O O15 0.377002 0.000000 0.746588
#
# Coordination Sequence:
#
# PCOD9182350 Si02
#       6
#     8   8   8   8   8   8
#     4  10  19  33  50  69  96 129 166 203 237 277
#     4  10  20  33  49  70  99 131 162 197 240 287
#     4   9  18  32  49  72 100 127 157 198 243 285
#     4   9  17  30  49  73  97 122 156 197 238 281
#     4   9  17  31  50  72  98 127 159 198 240 283
#     4   9  16  29  50  73  96 123 157 196 237 282
#
# _framework density 22.938634
#
# number of rings (size 3 to 8) (size 9 to 14) (size 15 to 20)
#    0.000    2.667    0.000    3.500    0.000    0.667 
#    0.000    4.167    0.000    5.000    0.000    0.000 
#    0.000   14.667    0.000    0.667    0.000    0.000 
#
# Total GULP energy -133884.705360 kJ/mol
# GULP energy per Si atom -5578.529390 kJ/mol
# Density = 2.288642 g / cm^3
# Si number density = 22.938634 Si / 1000 Ang^3
#
#
#
# Elastic Constant Matrix: (Units=GPa)
#
#
# Indices 1 2 3 4 5 6 
#
# 1 193.4368 -141.1114 -73.4754 0.0001 215.4792 -0.0001
# 2 -141.1114 461.2974 232.3630 -0.0002 -308.4230 0.0001
# 3 -73.4754 232.3630 221.7633 -0.0001 -212.1177 0.0000
# 4 0.0001 -0.0002 -0.0001 26.4709 0.0002 -8.1064
# 5 215.4792 -308.4230 -212.1177 0.0002 407.0035 -0.0001
# 6 -0.0001 0.0001 0.0000 -8.1064 -0.0001 13.5547
#
#
#
# Elastic Compliance Matrix: (Units=1/GPa)
#
#
# Indices 1 2 3 4 5 6 
#
# 1 0.015207 0.000237 -0.005462 0.000000 -0.010718 0.000000
# 2 0.000237 0.005515 -0.003634 0.000000 0.002160 0.000000
# 3 -0.005462 -0.003634 0.013239 0.000000 0.007037 0.000000
# 4 0.000000 0.000000 0.000000 0.046247 0.000000 0.027658
# 5 -0.010718 0.002160 0.007037 0.000000 0.013435 0.000000
# 6 0.000000 0.000000 0.000000 0.027658 0.000000 0.090317
#
#
# Mechanical properties :
#
#
# Convention : Reuss Voigt Hill
#
# Bulk Modulus (GPa) = 61.56445 101.33889 81.45167
# Shear Modulus (GPa) = 24.14378 146.65390 85.39884
#
# Velocity S-wave (km/s) = 3.24780 8.00449 6.10820
# Velocity P-wave (km/s) = 6.40010 11.38874 9.23755
#
# Compressibility (1/GPa) = 0.01624314
#
# Stress axis : x y z
#
# Youngs Moduli (GPa) = 65.75760 181.33099 75.53522
#
# Poissons Ratio (x) = -0.04297 0.41255
# Poissons Ratio (y) = -0.01558 0.27452
# Poissons Ratio (z) = 0.35914 0.65901
#
# Static dielectric constant tensor:
#      x y z
#    x 1.932490 0.000000 -0.058890 
#    y 0.000000 1.910250 0.000000 
#    z -0.058890 0.000000 1.883870 
# 
# From -- ./inp_files/160681.got.cif
#   From: 2010.05.17/outbox.cif.g08.bks.cpg/sg12_81_cif.got.tgz:160681.got - 2010.06.03 13:09:07.
