data_PCOD9182559
_publ_section_title
;
Structure prediction by ZEFSAII (Michael W. Deem and Ramdas Pophale) SiO2 
 PCOD9182559
Probable space group: C 2/M
;
_chemical_formula_sum "Si O2"
_cell_formula_units_Z 64
_cell_length_a 14.620419
_cell_length_b 8.430136
_cell_length_c 29.171020
_cell_angle_alpha 90.000000
_cell_angle_beta 88.522671
_cell_angle_gamma 90.000000
_cell_volume 3594.194982
_symmetry_space_group_name_H-M "C 2/M"
_symmetry_group_IT_number 12
_symmetry_cell_setting 'monoclinic'
loop_
_space_group_symop_operation_xyz
x,y,z
-x,y,-z
-x,-y,-z
x,-y,z
1/2+x,1/2+y,z
1/2-x,1/2+y,-z
1/2-x,1/2-y,-z
1/2+x,1/2-y,z
loop_
_atom_site_type_symbol
_atom_site_label
_atom_site_fract_x
_atom_site_fract_y
_atom_site_fract_z
Si Si1 0.758967 0.689774 0.551361
Si Si2 0.751386 0.808402 0.697130
Si Si3 0.740149 0.691980 0.198170
Si Si4 0.247550 0.190046 0.051688
Si Si5 0.900757 0.191697 0.620940
Si Si6 0.392659 0.193081 0.124624
Si Si7 0.109464 0.808342 0.627600
Si Si8 0.101384 0.309667 0.125216
O O1 0.759768 0.500000 0.551259
O O2 0.750000 0.750000 0.500000
O O3 0.849647 0.750353 0.575972
O O4 0.673328 0.743257 0.584155
O O5 0.758871 0.753492 0.749372
O O6 0.837119 0.756628 0.664489
O O7 0.660510 0.750323 0.672513
O O8 0.750623 0.000000 0.697342
O O9 0.737625 0.500000 0.197898
O O10 0.830958 0.741490 0.168925
O O11 0.654446 0.751854 0.169783
O O12 0.336223 0.242399 0.080176
O O13 0.159929 0.250149 0.081148
O O14 0.246210 0.000000 0.051853
O O15 0.250000 0.250000 0.000000
O O16 0.005119 0.246767 0.624203
O O17 0.901193 0.000000 0.620376
O O18 0.496835 0.248329 0.124964
O O19 0.394630 0.000000 0.124571
O O20 0.109008 0.000000 0.628186
O O21 0.101282 0.500000 0.124772
#
# Coordination Sequence:
#
# PCOD9182559 Si02
#       8
#     8   8   8   8   8   8   8   8
#     4  10  20  34  51  72  97 128 163 203 246 295
#     4   9  18  32  52  74  99 130 165 201 241 288
#     4   9  18  34  51  72 102 134 163 199 246 291
#     4  10  20  36  54  74 101 132 163 202 247 294
#     4   9  18  34  52  72  99 131 163 201 246 293
#     4   8  17  33  51  69  98 134 163 194 242 294
#     4   9  19  34  51  71  99 130 162 200 247 294
#     4  10  19  33  52  74  97 129 169 204 239 287
#
# _framework density 17.806491999999999
#
# number of rings (size 3 to 8) (size 9 to 14) (size 15 to 20)
#    0.000    2.750    0.000    1.875    0.000    3.500 
#    0.000   11.250    0.000    0.000    0.000    0.000 
#    0.000    0.000    0.000    0.000    0.000    0.000 
#
# Total GULP energy -178454.393978 kJ/mol
# GULP energy per Si atom -5576.699812 kJ/mol
# Density = 1.776596 g / cm^3
# Si number density = 17.806492 Si / 1000 Ang^3
#
#
#
# Elastic Constant Matrix: (Units=GPa)
#
#
# Indices 1 2 3 4 5 6 
#
# 1 186.2634 21.9541 90.2598 0.0000 7.1702 0.0000
# 2 21.9541 16.2858 22.0868 0.0000 0.9401 0.0000
# 3 90.2598 22.0868 171.8582 0.0000 18.8591 0.0000
# 4 0.0000 0.0000 0.0000 27.0856 0.0000 5.9341
# 5 7.1702 0.9401 18.8591 0.0000 8.7506 0.0000
# 6 0.0000 0.0000 0.0000 5.9341 0.0000 24.4955
#
#
#
# Elastic Compliance Matrix: (Units=1/GPa)
#
#
# Indices 1 2 3 4 5 6 
#
# 1 0.007663 -0.005694 -0.003498 0.000000 0.001872 0.000000
# 2 -0.005694 0.080463 -0.009056 0.000000 0.015538 0.000000
# 3 -0.003498 -0.009056 0.011000 0.000000 -0.019868 0.000000
# 4 0.000000 0.000000 0.000000 0.038989 0.000000 -0.009445
# 5 0.001872 0.015538 -0.019868 0.000000 0.153893 0.000000
# 6 0.000000 0.000000 0.000000 -0.009445 0.000000 0.043112
#
#
# Mechanical properties :
#
#
# Convention : Reuss Voigt Hill
#
# Bulk Modulus (GPa) = 15.96655 71.44541 43.70598
# Shear Modulus (GPa) = 12.73909 28.07346 20.40627
#
# Velocity S-wave (km/s) = 2.67763 3.97493 3.38894
# Velocity P-wave (km/s) = 4.30648 7.82797 6.31755
#
# Compressibility (1/GPa) = 0.06263092
#
# Stress axis : x y z
#
# Youngs Moduli (GPa) = 130.49752 12.42801 90.90859
#
# Poissons Ratio (x) = 0.07076 0.31802
# Poissons Ratio (y) = 0.74303 0.82324
# Poissons Ratio (z) = 0.45651 0.11254
#
# Static dielectric constant tensor:
#      x y z
#    x 1.598770 0.000000 -0.011480 
#    y 0.000000 1.615170 0.000000 
#    z -0.011480 0.000000 1.589650 
# 
# From -- ./inp_files/359822.got.cif
#   From: 2010.05.17/outbox.cif.g08.bks.cpg/sg12_180_cif.got.tgz:359822.got - 2010.06.03 13:09:07.
