data_PCOD9182490
_publ_section_title
;
Structure prediction by ZEFSAII (Michael W. Deem and Ramdas Pophale) SiO2 
 PCOD9182490
Probable space group: C 2/M
;
_chemical_formula_sum "Si O2"
_cell_formula_units_Z 48
_cell_length_a 21.119210
_cell_length_b 21.200902
_cell_length_c 14.548197
_cell_angle_alpha 90.000000
_cell_angle_beta 159.109483
_cell_angle_gamma 90.000000
_cell_volume 2322.748944
_symmetry_space_group_name_H-M "C 2/M"
_symmetry_group_IT_number 12
_symmetry_cell_setting 'monoclinic'
loop_
_space_group_symop_operation_xyz
x,y,z
-x,y,-z
-x,-y,-z
x,-y,z
1/2+x,1/2+y,z
1/2-x,1/2+y,-z
1/2-x,1/2-y,-z
1/2+x,1/2-y,z
loop_
_atom_site_type_symbol
_atom_site_label
_atom_site_fract_x
_atom_site_fract_y
_atom_site_fract_z
Si Si1 0.788638 0.280459 0.910427
Si Si2 0.567211 0.119036 0.327839
Si Si3 0.684518 0.865851 0.301984
Si Si4 0.614284 0.928227 0.744282
Si Si5 0.805141 0.772907 0.732825
Si Si6 0.071139 0.167760 0.778847
O O1 0.750973 0.253733 0.758915
O O2 0.628045 0.299665 0.759953
O O3 0.906697 0.226073 0.120004
O O4 0.897733 0.345589 0.053355
O O5 0.680922 0.098092 0.394250
O O6 0.503777 0.074065 0.322902
O O7 0.673014 0.174686 0.520911
O O8 0.672726 0.789431 0.300241
O O9 0.880368 0.867228 0.521637
O O10 0.500000 0.883130 0.000000
O O11 0.500000 0.907786 0.500000
O O12 0.673150 0.000000 0.807343
O O13 0.776488 0.881328 0.984096
O O14 0.000000 0.802320 0.000000
#
# Coordination Sequence:
#
# PCOD9182490 Si02
#       6
#     8   8   8   8   8   8
#     4  10  19  33  51  88 120 159 198 236 297 363
#     4  11  20  36  58  85 123 160 196 241 301 355
#     4  11  21  36  56  89 126 164 193 238 293 364
#     4  10  23  44  65  87 115 153 203 257 304 348
#     4  11  19  30  54  85 131 161 190 234 296 366
#     4  10  21  36  58  86 123 157 201 245 296 356
#
# _framework density 20.665168999999999
#
# number of rings (size 3 to 8) (size 9 to 14) (size 15 to 20)
#    0.000    1.500    5.000    2.500    0.000    0.667 
#    0.000    0.833    0.000    5.500    0.000    0.000 
#    0.000    0.000    0.000    0.000    0.000    0.000 
#
# Total GULP energy -133811.420506 kJ/mol
# GULP energy per Si atom -5575.475854 kJ/mol
# Density = 2.061813 g / cm^3
# Si number density = 20.665169 Si / 1000 Ang^3
#
#
#
# Elastic Constant Matrix: (Units=GPa)
#
#
# Indices 1 2 3 4 5 6 
#
# 1 136.0624 11.0936 48.7879 0.0000 -0.8545 0.0000
# 2 11.0936 39.8687 27.5128 0.0000 -4.1205 0.0000
# 3 48.7879 27.5128 121.2541 0.0000 10.5758 0.0000
# 4 0.0000 0.0000 0.0000 13.6749 0.0000 0.6763
# 5 -0.8545 -4.1205 10.5758 0.0000 30.2920 0.0000
# 6 0.0000 0.0000 0.0000 0.6763 0.0000 11.5835
#
#
#
# Elastic Compliance Matrix: (Units=1/GPa)
#
#
# Indices 1 2 3 4 5 6 
#
# 1 0.008658 0.000299 -0.003688 0.000000 0.001573 0.000000
# 2 0.000299 0.031087 -0.007780 0.000000 0.006953 0.000000
# 3 -0.003688 -0.007780 0.011962 0.000000 -0.005339 0.000000
# 4 0.000000 0.000000 0.000000 0.073338 0.000000 -0.004282
# 5 0.001573 0.006953 -0.005339 0.000000 0.035866 0.000000
# 6 0.000000 0.000000 0.000000 -0.004282 0.000000 0.086580
#
#
# Mechanical properties :
#
#
# Convention : Reuss Voigt Hill
#
# Bulk Modulus (GPa) = 34.05200 52.44154 43.24677
# Shear Modulus (GPa) = 17.88141 25.09616 21.48879
#
# Velocity S-wave (km/s) = 2.94478 3.48863 3.22818
# Velocity P-wave (km/s) = 5.29868 6.45440 5.90488
#
# Compressibility (1/GPa) = 0.02936685
#
# Stress axis : x y z
#
# Youngs Moduli (GPa) = 115.50473 32.16780 83.59604
#
# Poissons Ratio (x) = -0.00961 0.30834
# Poissons Ratio (y) = -0.03452 0.65041
# Poissons Ratio (z) = 0.42604 0.25028
#
# Static dielectric constant tensor:
#      x y z
#    x 1.840010 0.000000 0.006170 
#    y 0.000000 1.690520 0.000000 
#    z 0.006170 0.000000 1.828020 
# 
# From -- ./inp_files/235569.got.cif
#   From: 2010.05.17/outbox.cif.g08.bks.cpg/sg12_118_cif.got.tgz:235569.got - 2010.06.03 13:09:07.
