data_PCOD9182781
_publ_section_title
;
Structure prediction by ZEFSAII (Michael W. Deem and Ramdas Pophale) SiO2 
 PCOD9182781
Probable space group: C 2/M
;
_chemical_formula_sum "Si O2"
_cell_formula_units_Z 64
_cell_length_a 21.205607
_cell_length_b 7.534647
_cell_length_c 25.383025
_cell_angle_alpha 90.000000
_cell_angle_beta 129.168349
_cell_angle_gamma 90.000000
_cell_volume 3144.293994
_symmetry_space_group_name_H-M "C 2/M"
_symmetry_group_IT_number 12
_symmetry_cell_setting 'monoclinic'
loop_
_space_group_symop_operation_xyz
x,y,z
-x,y,-z
-x,-y,-z
x,-y,z
1/2+x,1/2+y,z
1/2-x,1/2+y,-z
1/2-x,1/2-y,-z
1/2+x,1/2-y,z
loop_
_atom_site_type_symbol
_atom_site_label
_atom_site_fract_x
_atom_site_fract_y
_atom_site_fract_z
Si Si1 0.710324 0.783398 0.207354
Si Si2 0.993978 0.291127 0.649259
Si Si3 0.407121 0.216791 0.947380
Si Si4 0.354980 0.713881 0.207373
Si Si5 0.254111 0.208161 0.659402
Si Si6 0.066873 0.715014 0.578315
Si Si7 0.738132 0.212366 0.054986
Si Si8 0.184942 0.713729 0.420226
O O1 0.636484 0.730975 0.130308
O O2 0.793219 0.728711 0.221305
O O3 0.710254 0.717707 0.267075
O O4 0.711196 0.000000 0.208683
O O5 0.983321 0.500000 0.633344
O O6 0.904474 0.217227 0.612135
O O7 0.054872 0.272117 0.730403
O O8 0.038151 0.218826 0.620428
O O9 0.346089 0.274881 0.962165
O O10 0.408570 0.000000 0.949231
O O11 0.500000 0.277687 0.000000
O O12 0.355586 0.500000 0.207254
O O13 0.313087 0.776024 0.131099
O O14 0.156812 0.222659 0.611593
O O15 0.285722 0.283528 0.621002
O O16 0.275338 0.000000 0.670597
O O17 0.070299 0.500000 0.580540
O O18 0.000000 0.768167 0.500000
O O19 0.736792 0.000000 0.059787
O O20 0.750000 0.250000 0.000000
O O21 0.179636 0.500000 0.413286
O O22 0.250000 0.750000 0.500000
#
# Coordination Sequence:
#
# PCOD9182781 Si02
#       8
#     8   8   8   8   8   8   8   8
#     4   8  14  27  48  72  99 126 158 207 250 281
#     4  10  20  34  51  75 104 131 167 209 252 302
#     4   8  14  27  48  75 102 129 165 203 243 291
#     4   9  17  32  53  74 101 136 170 205 250 300
#     4  10  19  33  53  75  98 127 167 209 248 292
#     4  10  20  33  51  74 101 131 162 202 250 300
#     4   9  18  32  51  77 105 135 169 205 249 300
#     4  10  22  38  53  73 102 135 169 208 257 308
#
# _framework density 20.354330999999998
#
# number of rings (size 3 to 8) (size 9 to 14) (size 15 to 20)
#    0.000    2.750    1.250    2.250    0.000    2.750 
#    2.250    0.000    0.000    0.375    0.000    0.000 
#    0.000    0.000    0.000    0.000    0.000    0.000 
#
# Total GULP energy -178544.154112 kJ/mol
# GULP energy per Si atom -5579.504816 kJ/mol
# Density = 2.030800 g / cm^3
# Si number density = 20.354331 Si / 1000 Ang^3
#
#
#
# Elastic Constant Matrix: (Units=GPa)
#
#
# Indices 1 2 3 4 5 6 
#
# 1 110.0212 -2.2272 71.4885 0.0000 1.8914 -0.0001
# 2 -2.2272 47.4741 -8.9109 0.0000 -3.1906 -0.0001
# 3 71.4885 -8.9109 145.0387 0.0000 1.1913 0.0000
# 4 0.0000 0.0000 0.0000 13.0719 0.0000 -6.3702
# 5 1.8914 -3.1906 1.1913 0.0000 42.7211 0.0000
# 6 -0.0001 -0.0001 0.0000 -6.3702 0.0000 3.7311
#
#
#
# Elastic Compliance Matrix: (Units=1/GPa)
#
#
# Indices 1 2 3 4 5 6 
#
# 1 0.013398 -0.000648 -0.006640 0.000000 -0.000456 0.000001
# 2 -0.000648 0.021445 0.001624 0.000001 0.001585 0.000002
# 3 -0.006640 0.001624 0.010266 0.000000 0.000129 0.000000
# 4 0.000000 0.000001 0.000000 0.455390 0.000000 0.777504
# 5 -0.000456 0.001585 0.000129 0.000000 0.023543 0.000000
# 6 0.000001 0.000002 0.000000 0.777504 0.000000 1.595482
#
#
# Mechanical properties :
#
#
# Convention : Reuss Voigt Hill
#
# Bulk Modulus (GPa) = 29.60244 47.02608 38.31426
# Shear Modulus (GPa) = 2.33414 28.05039 15.19226
#
# Velocity S-wave (km/s) = 1.07203 3.71631 2.73498
# Velocity P-wave (km/s) = 4.01341 6.44736 5.37010
#
# Compressibility (1/GPa) = 0.03378100
#
# Stress axis : x y z
#
# Youngs Moduli (GPa) = 74.63585 46.63077 97.40633
#
# Poissons Ratio (x) = 0.03024 0.64678
# Poissons Ratio (y) = 0.04840 -0.15820
# Poissons Ratio (z) = 0.49559 -0.07574
#
# Static dielectric constant tensor:
#      x y z
#    x 1.705530 0.000000 -0.014790 
#    y 0.000000 1.796900 0.000000 
#    z -0.014790 0.000000 1.714270 
# 
# From -- ./inp_files/346270.got.cif
#   From: 2010.05.17/outbox.cif.g08.bks.cpg/sg12_174_cif.got.tgz:346270.got - 2010.06.03 13:09:07.
