data_PCOD9182327
_publ_section_title
;
Structure prediction by ZEFSAII (Michael W. Deem and Ramdas Pophale) SiO2 
 PCOD9182327
Probable space group: C 2/M
;
_chemical_formula_sum "Si O2"
_cell_formula_units_Z 64
_cell_length_a 25.183107
_cell_length_b 9.121572
_cell_length_c 15.850287
_cell_angle_alpha 90.000000
_cell_angle_beta 107.108727
_cell_angle_gamma 90.000000
_cell_volume 3479.842822
_symmetry_space_group_name_H-M "C 2/M"
_symmetry_group_IT_number 12
_symmetry_cell_setting 'monoclinic'
loop_
_space_group_symop_operation_xyz
x,y,z
-x,y,-z
-x,-y,-z
x,-y,z
1/2+x,1/2+y,z
1/2-x,1/2+y,-z
1/2-x,1/2-y,-z
1/2+x,1/2-y,z
loop_
_atom_site_type_symbol
_atom_site_label
_atom_site_fract_x
_atom_site_fract_y
_atom_site_fract_z
Si Si1 0.867678 0.167189 0.291595
Si Si2 0.066318 0.321936 0.021856
Si Si3 0.104754 0.334544 0.856520
Si Si4 0.181783 0.672203 0.383212
Si Si5 0.522386 0.838037 0.262195
Si Si6 0.997811 0.835930 0.400267
Si Si7 0.109831 0.827282 0.206371
Si Si8 0.815236 0.827019 0.440969
O O1 0.861498 0.248053 0.199243
O O2 0.933403 0.163071 0.342774
O O3 0.839420 0.229706 0.363227
O O4 0.847698 0.000000 0.273188
O O5 0.067884 0.500000 0.026521
O O6 0.102519 0.251604 0.113174
O O7 0.093560 0.275329 0.945379
O O8 0.000000 0.283268 0.000000
O O9 0.126872 0.500000 0.873929
O O10 0.041988 0.343746 0.791413
O O11 0.168119 0.500000 0.376844
O O12 0.153387 0.753503 0.291157
O O13 0.165573 0.744758 0.465368
O O14 0.248503 0.685027 0.406912
O O15 0.527584 0.789427 0.361046
O O16 0.551189 0.711547 0.222737
O O17 0.545554 0.000000 0.254606
O O18 0.000000 0.810458 0.500000
O O19 0.020584 0.000000 0.393536
O O20 0.119102 0.000000 0.202881
O O21 0.830276 0.000000 0.454973
#
# Coordination Sequence:
#
# PCOD9182327 Si02
#       8
#     8   8   8   8   8   8   8   8
#     4   9  18  32  51  75 106 140 174 214 261 316
#     4  10  19  36  57  77 108 146 180 218 266 319
#     4   9  18  33  53  76 105 140 177 215 255 310
#     4  10  21  37  57  81 108 140 182 227 273 324
#     4  10  19  33  49  70 102 140 180 216 258 308
#     4   9  18  30  44  69 104 142 175 208 258 312
#     4  12  24  35  52  79 109 141 179 225 275 321
#     4   9  19  37  59  82 108 142 180 223 274 323
#
# _framework density 18.391635000000001
#
# number of rings (size 3 to 8) (size 9 to 14) (size 15 to 20)
#    0.000    2.250    1.250    1.875    1.750    2.500 
#    0.000    0.000    0.000    0.750    0.000    0.000 
#    0.000    0.000    0.000    0.000    0.000    0.000 
#
# Total GULP energy -178319.683587 kJ/mol
# GULP energy per Si atom -5572.490112 kJ/mol
# Density = 1.834978 g / cm^3
# Si number density = 18.391635 Si / 1000 Ang^3
#
#
#
# Elastic Constant Matrix: (Units=GPa)
#
#
# Indices 1 2 3 4 5 6 
#
# 1 35.2287 19.3946 32.8219 0.0000 -14.2852 0.0000
# 2 19.3946 65.0124 65.0788 0.0000 -9.8015 0.0000
# 3 32.8219 65.0788 159.4525 0.0000 -30.0424 0.0000
# 4 0.0000 0.0000 0.0000 26.8306 0.0000 -3.0742
# 5 -14.2852 -9.8015 -30.0424 0.0000 30.3162 0.0000
# 6 0.0000 0.0000 0.0000 -3.0742 0.0000 17.3263
#
#
#
# Elastic Compliance Matrix: (Units=1/GPa)
#
#
# Indices 1 2 3 4 5 6 
#
# 1 0.040654 -0.007243 -0.002759 0.000000 0.014080 0.000000
# 2 -0.007243 0.027465 -0.010683 0.000000 -0.005120 0.000000
# 3 -0.002759 -0.010683 0.012669 0.000000 0.007801 0.000000
# 4 0.000000 0.000000 0.000000 0.038044 0.000000 0.006750
# 5 0.014080 -0.005120 0.007801 0.000000 0.045695 0.000000
# 6 0.000000 0.000000 0.000000 0.006750 0.000000 0.058913
#
#
# Mechanical properties :
#
#
# Convention : Reuss Voigt Hill
#
# Bulk Modulus (GPa) = 25.36981 54.92047 40.14514
# Shear Modulus (GPa) = 17.98882 24.38783 21.18833
#
# Velocity S-wave (km/s) = 3.13085 3.64542 3.39789
# Velocity P-wave (km/s) = 5.18592 6.90255 6.10488
#
# Compressibility (1/GPa) = 0.03941693
#
# Stress axis : x y z
#
# Youngs Moduli (GPa) = 24.59801 36.41059 78.93055
#
# Poissons Ratio (x) = 0.26372 0.21778
# Poissons Ratio (y) = 0.17816 0.84322
# Poissons Ratio (z) = 0.06787 0.38898
#
# Static dielectric constant tensor:
#      x y z
#    x 1.651570 0.000000 -0.018340 
#    y 0.000000 1.650080 0.000000 
#    z -0.018340 0.000000 1.651560 
# 
# From -- ./inp_files/244212.got.cif
#   From: 2010.05.17/outbox.cif.g08.bks.cpg/sg12_123_cif.got.tgz:244212.got - 2010.06.03 13:09:07.
