data_PCOD9182034
_publ_section_title
;
Structure prediction by ZEFSAII (Michael W. Deem and Ramdas Pophale) SiO2 
 PCOD9182034
Probable space group: C 2/M
;
_chemical_formula_sum "Si O2"
_cell_formula_units_Z 36
_cell_length_a 9.644297
_cell_length_b 26.431249
_cell_length_c 7.105949
_cell_angle_alpha 90.000000
_cell_angle_beta 48.548339
_cell_angle_gamma 90.000000
_cell_volume 1357.657996
_symmetry_space_group_name_H-M "C 2/M"
_symmetry_group_IT_number 12
_symmetry_cell_setting 'monoclinic'
loop_
_space_group_symop_operation_xyz
x,y,z
-x,y,-z
-x,-y,-z
x,-y,z
1/2+x,1/2+y,z
1/2-x,1/2+y,-z
1/2-x,1/2-y,-z
1/2+x,1/2-y,z
loop_
_atom_site_type_symbol
_atom_site_label
_atom_site_fract_x
_atom_site_fract_y
_atom_site_fract_z
Si Si1 0.156162 0.000000 0.070237
Si Si2 0.714745 0.306813 0.750422
Si Si3 0.276092 0.911499 0.235398
Si Si4 0.780938 0.698965 0.242809
Si Si5 0.706414 0.081525 0.337477
O O1 0.819335 0.955662 0.791107
O O2 0.175545 0.955898 0.890556
O O3 0.745704 0.303796 0.498161
O O4 0.794873 0.253509 0.755406
O O5 0.795406 0.360772 0.735748
O O6 0.500000 0.308302 0.000000
O O7 0.211301 0.855121 0.232714
O O8 0.244656 0.917946 0.486768
O O9 0.500000 0.914820 0.000000
O O10 0.000000 0.699497 0.000000
O O11 0.500000 0.061453 0.500000
#
# Coordination Sequence:
#
# PCOD9182034 Si02
#       5
#     4   8   8   8   8
#     4  12  22  34  55  87 120 154 202 258 285 345
#     4   9  18  36  61  85 120 159 193 239 310 364
#     4  10  19  32  55  83 118 150 189 248 304 332
#     4   8  16  33  61  86 111 156 202 235 291 365
#     4  11  22  34  57  91 118 149 207 250 289 353
#
# _framework density 26.516248999999998
#
# number of rings (size 3 to 8) (size 9 to 14) (size 15 to 20)
#    0.000    2.222    2.222    1.333    0.000    0.000 
#    0.000    1.667    0.000    9.333    0.000    0.000 
#    0.000    0.000    0.000    0.000    0.000    0.000 
#
# Total GULP energy -100313.161741 kJ/mol
# GULP energy per Si atom -5572.953430 kJ/mol
# Density = 2.645590 g / cm^3
# Si number density = 26.516249 Si / 1000 Ang^3
#
#
#
# Elastic Constant Matrix: (Units=GPa)
#
#
# Indices 1 2 3 4 5 6 
#
# 1 71.4751 56.0164 82.5734 0.0000 28.0317 0.0000
# 2 56.0164 315.2965 41.0406 0.0000 19.7785 0.0000
# 3 82.5734 41.0406 142.7254 0.0000 18.2436 0.0000
# 4 0.0000 0.0000 0.0000 0.9724 0.0000 49.7710
# 5 28.0317 19.7785 18.2436 0.0000 70.7854 0.0000
# 6 0.0000 0.0000 0.0000 49.7710 0.0000 -5.2833
#
#
#
# Elastic Compliance Matrix: (Units=1/GPa)
#
#
# Indices 1 2 3 4 5 6 
#
# 1 0.060515 -0.005754 -0.031538 0.000000 -0.014229 0.000000
# 2 -0.005754 0.003876 0.002132 0.000000 0.000646 0.000000
# 3 -0.031538 0.002132 0.023907 0.000000 0.005732 0.000000
# 4 0.000000 0.000000 0.000000 0.002128 0.000000 0.020050
# 5 -0.014229 0.000646 0.005732 0.000000 0.018104 0.000000
# 6 0.000000 0.000000 0.000000 0.020050 0.000000 -0.000392
#
#
# Mechanical properties :
#
#
# Convention : Reuss Voigt Hill
#
# Bulk Modulus (GPa) = 55.62184 98.75090 77.18637
# Shear Modulus (GPa) = 27.10751 36.61934 31.86343
#
# Velocity S-wave (km/s) = 3.20081 3.72023 3.47025
# Velocity P-wave (km/s) = 5.88917 7.46833 6.72526
#
# Compressibility (1/GPa) = 0.01797855
#
# Stress axis : x y z
#
# Youngs Moduli (GPa) = 16.52478 258.00986 41.82897
#
# Poissons Ratio (x) = 1.48449 1.31919
# Poissons Ratio (y) = 0.09508 -0.08917
# Poissons Ratio (z) = 0.52115 -0.54999
#
# Static dielectric constant tensor:
#      x y z
#    x 1.999910 0.000000 -0.027840 
#    y 0.000000 2.071640 0.000000 
#    z -0.027840 0.000000 2.091820 
# 
# From -- ./inp_files/160771.got.cif
#   From: 2010.05.17/outbox.cif.g08.bks.cpg/sg12_81_cif.got.tgz:160771.got - 2010.06.03 13:09:07.
