data_PCOD9182360
_publ_section_title
;
Structure prediction by ZEFSAII (Michael W. Deem and Ramdas Pophale) SiO2 
 PCOD9182360
Probable space group: C 2/M
;
_chemical_formula_sum "Si O2"
_cell_formula_units_Z 40
_cell_length_a 12.009459
_cell_length_b 11.462089
_cell_length_c 14.160371
_cell_angle_alpha 90.000000
_cell_angle_beta 106.617935
_cell_angle_gamma 90.000000
_cell_volume 1867.811395
_symmetry_space_group_name_H-M "C 2/M"
_symmetry_group_IT_number 12
_symmetry_cell_setting 'monoclinic'
loop_
_space_group_symop_operation_xyz
x,y,z
-x,y,-z
-x,-y,-z
x,-y,z
1/2+x,1/2+y,z
1/2-x,1/2+y,-z
1/2-x,1/2-y,-z
1/2+x,1/2-y,z
loop_
_atom_site_type_symbol
_atom_site_label
_atom_site_fract_x
_atom_site_fract_y
_atom_site_fract_z
Si Si1 0.363202 0.874436 0.954243
Si Si2 0.119915 0.129996 0.586676
Si Si3 0.264486 0.869169 0.341478
Si Si4 0.315916 0.192533 0.146076
Si Si5 0.007733 0.126823 0.764844
O O1 0.296320 0.776100 0.881199
O O2 0.343701 0.000000 0.902842
O O3 0.500000 0.858195 0.000000
O O4 0.309838 0.876133 0.046941
O O5 0.189631 0.252296 0.594898
O O6 0.000000 0.139253 0.500000
O O7 0.082392 0.124587 0.686884
O O8 0.171385 0.000000 0.575746
O O9 0.316988 0.868445 0.247613
O O10 0.125699 0.856865 0.296036
O O11 0.287698 0.000000 0.387445
O O12 0.431567 0.271129 0.163361
O O13 0.017184 0.000000 0.814803
#
# Coordination Sequence:
#
# PCOD9182360 Si02
#       5
#     8   8   8   8   8
#     4  10  20  32  48  71  98 129 168 212 252 293
#     4   9  19  36  55  76 104 136 168 202 246 303
#     4  10  20  34  53  77 103 131 168 212 252 294
#     4  10  19  33  50  70  99 133 168 206 253 302
#     4   9  18  33  52  73 100 135 170 205 251 304
#
# _framework density 21.415437000000001
#
# number of rings (size 3 to 8) (size 9 to 14) (size 15 to 20)
#    0.000    2.400    0.000    2.400    0.000    2.000 
#    0.000    5.000    0.000    9.600    0.000    0.000 
#    0.000    0.000    0.000    0.000    0.000    0.000 
#
# Total GULP energy -111462.215117 kJ/mol
# GULP energy per Si atom -5573.110756 kJ/mol
# Density = 2.136669 g / cm^3
# Si number density = 21.415437 Si / 1000 Ang^3
#
#
#
# Elastic Constant Matrix: (Units=GPa)
#
#
# Indices 1 2 3 4 5 6 
#
# 1 64.2057 44.9750 -12.7438 0.0000 9.9950 0.0000
# 2 44.9750 190.1164 27.0838 0.0000 28.3946 0.0000
# 3 -12.7438 27.0838 37.5611 0.0000 -2.3534 0.0000
# 4 0.0000 0.0000 0.0000 -193.1945 0.0000 -55.7759
# 5 9.9950 28.3946 -2.3534 0.0000 29.4161 0.0000
# 6 0.0000 0.0000 0.0000 -55.7759 0.0000 -36.2389
#
#
#
# Elastic Compliance Matrix: (Units=1/GPa)
#
#
# Indices 1 2 3 4 5 6 
#
# 1 0.023431 -0.007501 0.013381 0.000000 0.000350 0.000000
# 2 -0.007501 0.009562 -0.009908 0.000000 -0.007474 0.000000
# 3 0.013381 -0.009908 0.038817 0.000000 0.008123 0.000000
# 4 0.000000 0.000000 0.000000 -0.009315 0.000000 0.014338
# 5 0.000350 -0.007474 0.008123 0.000000 0.041741 0.000000
# 6 0.000000 0.000000 0.000000 0.014338 0.000000 -0.049662
#
#
# Mechanical properties :
#
#
# Convention : Reuss Voigt Hill
#
# Bulk Modulus (GPa) = 15.68597 45.61256 30.64927
# Shear Modulus (GPa) = 59.60762 -24.49891 17.55436
#
# Velocity S-wave (km/s) = 5.28151 -3.38595 2.86616
# Velocity P-wave (km/s) = 6.67331 2.46149 5.02951
#
# Compressibility (1/GPa) = 0.06375125
#
# Stress axis : x y z
#
# Youngs Moduli (GPa) = 42.67879 104.57708 25.76222
#
# Poissons Ratio (x) = 0.78447 -0.34471
# Poissons Ratio (y) = 0.32015 0.25526
# Poissons Ratio (z) = -0.57106 1.03619
#
# Static dielectric constant tensor:
#      x y z
#    x 1.756830 0.000000 -0.022350 
#    y 0.000000 1.841220 0.000000 
#    z -0.022350 0.000000 1.753460 
# 
# From -- ./inp_files/202856.got.cif
#   From: 2010.05.17/outbox.cif.g08.bks.cpg/sg12_102_cif.got.tgz:202856.got - 2010.06.03 13:09:07.
