data_PCOD9182821
_publ_section_title
;
Structure prediction by ZEFSAII (Michael W. Deem and Ramdas Pophale) SiO2 
 PCOD9182821
Probable space group: C 2/M
;
_chemical_formula_sum "Si O2"
_cell_formula_units_Z 56
_cell_length_a 21.589571
_cell_length_b 7.556944
_cell_length_c 32.160742
_cell_angle_alpha 90.000000
_cell_angle_beta 151.846895
_cell_angle_gamma 90.000000
_cell_volume 2475.717969
_symmetry_space_group_name_H-M "C 2/M"
_symmetry_group_IT_number 12
_symmetry_cell_setting 'monoclinic'
loop_
_space_group_symop_operation_xyz
x,y,z
-x,y,-z
-x,-y,-z
x,-y,z
1/2+x,1/2+y,z
1/2-x,1/2+y,-z
1/2-x,1/2-y,-z
1/2+x,1/2-y,z
loop_
_atom_site_type_symbol
_atom_site_label
_atom_site_fract_x
_atom_site_fract_y
_atom_site_fract_z
Si Si1 0.622576 0.785527 0.628451
Si Si2 0.678365 0.203297 0.181692
Si Si3 0.150154 0.788499 0.404017
Si Si4 0.859005 0.799200 0.125927
Si Si5 0.326007 0.215513 0.434145
Si Si6 0.916202 0.205217 0.071506
Si Si7 0.364154 0.282242 0.222307
O O1 0.706293 0.712363 0.715794
O O2 0.680657 0.730678 0.617901
O O3 0.469291 0.733493 0.536776
O O4 0.628148 0.000000 0.633997
O O5 0.549645 0.288141 0.125047
O O6 0.741209 0.279111 0.176791
O O7 0.642339 0.000000 0.152763
O O8 0.250000 0.750000 0.500000
O O9 0.212572 0.721836 0.397750
O O10 0.002430 0.726042 0.324216
O O11 0.141702 0.000000 0.395152
O O12 0.929503 0.723249 0.126626
O O13 0.868558 0.720107 0.177316
O O14 0.910130 0.000000 0.160649
O O15 0.705197 0.798280 0.022778
O O16 0.324572 0.000000 0.432991
O O17 0.875979 0.000000 0.051949
O O18 0.356926 0.500000 0.218340
#
# Coordination Sequence:
#
# PCOD9182821 Si02
#       7
#     8   8   8   8   8   8   8
#     4   9  17  32  52  77 105 138 184 229 274 324
#     4  11  22  35  52  79 113 147 180 222 271 324
#     4  10  19  33  53  76 106 144 186 226 268 317
#     4   9  19  39  63  84 107 140 183 225 268 325
#     4   8  16  30  52  76 101 138 183 230 273 323
#     4  10  21  37  61  87 110 140 177 225 278 325
#     4   9  20  36  56  80 108 148 189 221 264 329
#
# _framework density 22.619702
#
# number of rings (size 3 to 8) (size 9 to 14) (size 15 to 20)
#    0.000    2.571    0.000    2.571    2.000    1.143 
#    0.000    7.857    0.000    0.000    0.000    0.000 
#    0.000    0.000    0.000    0.000    0.000    0.000 
#
# Total GULP energy -156365.467230 kJ/mol
# GULP energy per Si atom -5584.480972 kJ/mol
# Density = 2.256822 g / cm^3
# Si number density = 22.619702 Si / 1000 Ang^3
#
#
#
# Elastic Constant Matrix: (Units=GPa)
#
#
# Indices 1 2 3 4 5 6 
#
# 1 149.3673 2.5623 42.6625 -0.0002 18.6907 0.0005
# 2 2.5623 56.5448 -5.1186 -0.0023 4.0111 0.0038
# 3 42.6625 -5.1186 49.4472 -0.0004 -1.9636 0.0001
# 4 -0.0002 -0.0023 -0.0004 21.0543 0.0000 1.8964
# 5 18.6907 4.0111 -1.9636 0.0000 32.2953 -0.0004
# 6 0.0005 0.0038 0.0001 1.8964 -0.0004 4.2639
#
#
#
# Elastic Compliance Matrix: (Units=1/GPa)
#
#
# Indices 1 2 3 4 5 6 
#
# 1 0.010072 -0.000828 -0.009025 0.000000 -0.006275 -0.000001
# 2 -0.000828 0.018065 0.002521 0.000004 -0.001611 -0.000018
# 3 -0.009025 0.002521 0.028535 0.000001 0.006645 -0.000002
# 4 0.000000 0.000004 0.000001 0.049478 -0.000001 -0.022005
# 5 -0.006275 -0.001611 0.006645 -0.000001 0.035200 0.000006
# 6 -0.000001 -0.000018 -0.000002 -0.022005 0.000006 0.244313
#
#
# Mechanical properties :
#
#
# Convention : Reuss Voigt Hill
#
# Bulk Modulus (GPa) = 23.80549 37.28574 30.54561
# Shear Modulus (GPa) = 12.06766 25.87290 18.97028
#
# Velocity S-wave (km/s) = 2.31227 3.38571 2.89911
# Velocity P-wave (km/s) = 4.20427 5.63947 4.97391
#
# Compressibility (1/GPa) = 0.04200712
#
# Stress axis : x y z
#
# Youngs Moduli (GPa) = 99.28460 55.35536 35.04458
#
# Poissons Ratio (x) = 0.04585 0.31628
# Poissons Ratio (y) = 0.08223 -0.08834
# Poissons Ratio (z) = 0.89604 -0.13953
#
# Static dielectric constant tensor:
#      x y z
#    x 1.849010 0.000000 -0.011510 
#    y 0.000000 1.781970 0.000000 
#    z -0.011510 0.000000 1.795200 
# 
# From -- ./inp_files/380731.got.cif
#   From: 2010.05.17/outbox.cif.g08.bks.cpg/sg12_191_cif.got.tgz:380731.got - 2010.06.03 13:09:07.
