data_PCOD9182501
_publ_section_title
;
Structure prediction by ZEFSAII (Michael W. Deem and Ramdas Pophale) SiO2 
 PCOD9182501
Probable space group: C 2/M
;
_chemical_formula_sum "Si O2"
_cell_formula_units_Z 40
_cell_length_a 14.834021
_cell_length_b 7.691714
_cell_length_c 21.966906
_cell_angle_alpha 90.000000
_cell_angle_beta 128.435486
_cell_angle_gamma 90.000000
_cell_volume 1963.287058
_symmetry_space_group_name_H-M "C 2/M"
_symmetry_group_IT_number 12
_symmetry_cell_setting 'monoclinic'
loop_
_space_group_symop_operation_xyz
x,y,z
-x,y,-z
-x,-y,-z
x,-y,z
1/2+x,1/2+y,z
1/2-x,1/2+y,-z
1/2-x,1/2-y,-z
1/2+x,1/2-y,z
loop_
_atom_site_type_symbol
_atom_site_label
_atom_site_fract_x
_atom_site_fract_y
_atom_site_fract_z
Si Si1 0.383827 0.786984 0.875665
Si Si2 0.071941 0.210306 0.406996
Si Si3 0.640476 0.791823 0.995249
Si Si4 0.319789 0.702299 0.294119
Si Si5 0.288852 0.206290 0.419197
O O1 0.515465 0.729673 0.918870
O O2 0.288171 0.723647 0.788088
O O3 0.385366 0.000000 0.874457
O O4 0.350732 0.733888 0.930644
O O5 0.174361 0.270953 0.405978
O O6 0.107283 0.259619 0.490400
O O7 0.946691 0.278203 0.336108
O O8 0.070730 0.000000 0.404473
O O9 0.633739 0.000000 0.994793
O O10 0.750000 0.750000 0.000000
O O11 0.326547 0.500000 0.278885
O O12 0.301626 0.711838 0.358729
O O13 0.279224 0.000000 0.406447
#
# Coordination Sequence:
#
# PCOD9182501 Si02
#       5
#     8   8   8   8   8
#     4   8  17  33  51  72  99 130 162 194 235 293
#     4   9  19  34  50  68  94 131 169 199 236 291
#     4   9  17  33  55  75  97 128 162 195 237 287
#     4  10  19  33  52  71  95 130 167 199 236 287
#     4  10  20  33  49  72 100 127 160 205 249 283
#
# _framework density 20.373995000000001
#
# number of rings (size 3 to 8) (size 9 to 14) (size 15 to 20)
#    0.000    2.800    0.000    2.400    0.000    5.600 
#    0.000    6.000    0.000    0.000    0.000    0.000 
#    0.000    0.000    0.000    0.000    0.000    0.000 
#
# Total GULP energy -111561.892629 kJ/mol
# GULP energy per Si atom -5578.094631 kJ/mol
# Density = 2.032762 g / cm^3
# Si number density = 20.373995 Si / 1000 Ang^3
#
#
#
# Elastic Constant Matrix: (Units=GPa)
#
#
# Indices 1 2 3 4 5 6 
#
# 1 119.4067 -1.7421 54.6889 0.0000 32.8147 0.0000
# 2 -1.7421 32.7405 2.5316 0.0000 4.8082 0.0000
# 3 54.6889 2.5316 120.7971 0.0000 46.0956 0.0000
# 4 0.0000 0.0000 0.0000 7.0795 0.0000 -0.7277
# 5 32.8147 4.8082 46.0956 0.0000 24.4579 0.0000
# 6 0.0000 0.0000 0.0000 -0.7277 0.0000 23.7256
#
#
#
# Elastic Compliance Matrix: (Units=1/GPa)
#
#
# Indices 1 2 3 4 5 6 
#
# 1 0.014110 0.004422 0.003828 0.000000 -0.027016 0.000000
# 2 0.004422 0.034132 0.007504 0.000000 -0.026786 0.000000
# 3 0.003828 0.007504 0.031733 0.000000 -0.066419 0.000000
# 4 0.000000 0.000000 0.000000 0.141700 0.000000 0.004346
# 5 -0.027016 -0.026786 -0.066419 0.000000 0.207579 0.000000
# 6 0.000000 0.000000 0.000000 0.004346 0.000000 0.042282
#
#
# Mechanical properties :
#
#
# Convention : Reuss Voigt Hill
#
# Bulk Modulus (GPa) = 8.96983 42.65567 25.81275
# Shear Modulus (GPa) = 10.47805 25.55033 18.01419
#
# Velocity S-wave (km/s) = 2.27025 3.54512 2.97674
# Velocity P-wave (km/s) = 3.35919 6.14320 4.95092
#
# Compressibility (1/GPa) = 0.11148482
#
# Stress axis : x y z
#
# Youngs Moduli (GPa) = 70.87025 29.29802 31.51309
#
# Poissons Ratio (x) = -0.12957 -0.12065
# Poissons Ratio (y) = -0.31341 -0.23648
# Poissons Ratio (z) = -0.27132 -0.21985
#
# Static dielectric constant tensor:
#      x y z
#    x 1.730360 0.000000 0.036560 
#    y 0.000000 1.754380 0.000000 
#    z 0.036560 0.000000 1.712300 
# 
# From -- ./inp_files/211349.got.cif
#   From: 2010.05.17/outbox.cif.g08.bks.cpg/sg12_106_cif.got.tgz:211349.got - 2010.06.03 13:09:07.
