data_PCOD9182923
_publ_section_title
;
Structure prediction by ZEFSAII (Michael W. Deem and Ramdas Pophale) SiO2 
 PCOD9182923
Probable space group: C 2/M
;
_chemical_formula_sum "Si O2"
_cell_formula_units_Z 42
_cell_length_a 26.356375
_cell_length_b 10.540763
_cell_length_c 13.957478
_cell_angle_alpha 90.000000
_cell_angle_beta 150.701287
_cell_angle_gamma 90.000000
_cell_volume 1897.560743
_symmetry_space_group_name_H-M "C 2/M"
_symmetry_group_IT_number 12
_symmetry_cell_setting 'monoclinic'
loop_
_space_group_symop_operation_xyz
x,y,z
-x,y,-z
-x,-y,-z
x,-y,z
1/2+x,1/2+y,z
1/2-x,1/2+y,-z
1/2-x,1/2-y,-z
1/2+x,1/2-y,z
loop_
_atom_site_type_symbol
_atom_site_label
_atom_site_fract_x
_atom_site_fract_y
_atom_site_fract_z
Si Si1 0.022354 0.645670 0.296702
Si Si2 0.899850 0.654013 0.275553
Si Si3 0.332807 0.785277 0.772840
Si Si4 0.000000 0.500000 0.000000
Si Si5 0.113633 0.141326 0.318544
Si Si6 0.766954 0.646144 0.225642
O O1 0.012053 0.500000 0.242623
O O2 0.044939 0.748702 0.253136
O O3 0.125747 0.643006 0.534651
O O4 0.928023 0.680872 0.212179
O O5 0.899682 0.500000 0.280768
O O6 0.800977 0.692597 0.175989
O O7 0.000000 0.700922 0.500000
O O8 0.225870 0.840961 0.553088
O O9 0.366404 0.668604 0.760069
O O10 0.307730 0.735247 0.836852
O O11 0.417694 0.890703 0.899025
O O12 0.073958 0.000000 0.269931
O O13 0.729991 0.500000 0.159367
#
# Coordination Sequence:
#
# PCOD9182923 Si02
#       6
#     8   8   8   2   8   8
#     4   8  14  23  44  74 106 136 170 210 260 314
#     4   7  10  19  38  67 101 132 164 207 260 310
#     4  10  21  33  53  72 107 139 183 215 268 313
#     4  12  24  40  50  76 106 150 176 224 252 334
#     4  10  19  33  53  79 107 140 175 219 265 313
#     4   8  13  25  45  70 100 136 170 214 265 311
#
# _framework density 22.133678
#
# number of rings (size 3 to 8) (size 9 to 14) (size 15 to 20)
#    0.000    3.238    0.952    2.857    1.333    2.286 
#    0.000    1.905    2.095    2.857    0.000    1.333 
#    0.000    0.000    0.000    0.000    0.000    0.000 
#
# Total GULP energy -117001.483556 kJ/mol
# GULP energy per Si atom -5571.499217 kJ/mol
# Density = 2.208330 g / cm^3
# Si number density = 22.133678 Si / 1000 Ang^3
#
#
#
# Elastic Constant Matrix: (Units=GPa)
#
#
# Indices 1 2 3 4 5 6 
#
# 1 166.3702 87.1772 56.5130 0.0000 41.0742 0.0000
# 2 87.1772 121.5183 38.5347 0.0000 27.7534 0.0000
# 3 56.5130 38.5347 86.8070 0.0000 26.7401 0.0000
# 4 0.0000 0.0000 0.0000 15.9741 0.0000 9.1775
# 5 41.0742 27.7534 26.7401 0.0000 46.8767 0.0000
# 6 0.0000 0.0000 0.0000 9.1775 0.0000 28.6367
#
#
#
# Elastic Compliance Matrix: (Units=1/GPa)
#
#
# Indices 1 2 3 4 5 6 
#
# 1 0.011485 -0.006144 -0.003361 0.000000 -0.004509 0.000000
# 2 -0.006144 0.013503 -0.001444 0.000000 -0.001788 0.000000
# 3 -0.003361 -0.001444 0.015987 0.000000 -0.005320 0.000000
# 4 0.000000 0.000000 0.000000 0.076729 0.000000 -0.024590
# 5 -0.004509 -0.001788 -0.005320 0.000000 0.029376 0.000000
# 6 0.000000 0.000000 0.000000 -0.024590 0.000000 0.042801
#
#
# Mechanical properties :
#
#
# Convention : Reuss Voigt Hill
#
# Bulk Modulus (GPa) = 52.41427 82.12725 67.27076
# Shear Modulus (GPa) = 22.92142 31.12886 27.02514
#
# Velocity S-wave (km/s) = 3.22155 3.75427 3.49807
# Velocity P-wave (km/s) = 6.12944 7.48187 6.83917
#
# Compressibility (1/GPa) = 0.01907877
#
# Stress axis : x y z
#
# Youngs Moduli (GPa) = 87.07325 74.05897 62.54915
#
# Poissons Ratio (x) = 0.45499 0.21020
# Poissons Ratio (y) = 0.53495 0.09031
# Poissons Ratio (z) = 0.29262 0.10692
#
# Static dielectric constant tensor:
#      x y z
#    x 1.851570 0.000000 -0.026100 
#    y 0.000000 1.734210 0.000000 
#    z -0.026100 0.000000 1.864740 
# 
# From -- ./inp_files/288970.got.cif
#   From: 2010.05.17/outbox.cif.g08.bks.cpg/sg12_145_cif.got.tgz:288970.got - 2010.06.03 13:09:07.
