data_PCOD9182537
_publ_section_title
;
Structure prediction by ZEFSAII (Michael W. Deem and Ramdas Pophale) SiO2 
 PCOD9182537
Probable space group: C 2/M
;
_chemical_formula_sum "Si O2"
_cell_formula_units_Z 48
_cell_length_a 14.608616
_cell_length_b 8.532610
_cell_length_c 23.180727
_cell_angle_alpha 90.000000
_cell_angle_beta 70.379123
_cell_angle_gamma 90.000000
_cell_volume 2721.692335
_symmetry_space_group_name_H-M "C 2/M"
_symmetry_group_IT_number 12
_symmetry_cell_setting 'monoclinic'
loop_
_space_group_symop_operation_xyz
x,y,z
-x,y,-z
-x,-y,-z
x,-y,z
1/2+x,1/2+y,z
1/2-x,1/2+y,-z
1/2-x,1/2-y,-z
1/2+x,1/2-y,z
loop_
_atom_site_type_symbol
_atom_site_label
_atom_site_fract_x
_atom_site_fract_y
_atom_site_fract_z
Si Si1 0.640143 0.312143 0.734829
Si Si2 0.802193 0.687524 0.402000
Si Si3 0.561461 0.309514 0.166942
Si Si4 0.036938 0.810293 0.929717
Si Si5 0.102321 0.810578 0.505237
Si Si6 0.269620 0.811784 0.168531
O O1 0.642940 0.500000 0.736177
O O2 0.672038 0.254383 0.665675
O O3 0.529905 0.261617 0.774161
O O4 0.707288 0.247344 0.771993
O O5 0.804144 0.500000 0.399326
O O6 0.875918 0.745680 0.435808
O O7 0.694388 0.736660 0.446260
O O8 0.563719 0.500000 0.166999
O O9 0.534707 0.261902 0.107315
O O10 0.665258 0.254926 0.167781
O O11 0.142931 0.748072 0.890274
O O12 0.041072 0.000000 0.928771
O O13 0.000000 0.758152 0.000000
O O14 0.000000 0.759189 0.500000
O O15 0.101671 0.000000 0.508529
O O16 0.270129 0.000000 0.168563
#
# Coordination Sequence:
#
# PCOD9182537 Si02
#       6
#     8   8   8   8   8   8
#     4  10  20  36  54  72 100 136 169 200 248 308
#     4  10  20  34  53  78 104 129 166 213 252 289
#     4   8  17  33  51  71  98 133 166 201 248 299
#     4   9  18  34  53  73 101 136 169 200 244 304
#     4   9  19  36  55  74 101 138 172 202 247 304
#     4  10  19  33  52  74 100 128 166 212 251 288
#
# _framework density 17.636085999999999
#
# number of rings (size 3 to 8) (size 9 to 14) (size 15 to 20)
#    0.000    2.667    0.000    2.500    0.000    3.333 
#    0.000   15.000    0.000    0.000    0.000    0.000 
#    0.000    0.000    0.000    0.000    0.000    0.000 
#
# Total GULP energy -133858.988615 kJ/mol
# GULP energy per Si atom -5577.457859 kJ/mol
# Density = 1.759595 g / cm^3
# Si number density = 17.636086 Si / 1000 Ang^3
#
#
#
# Elastic Constant Matrix: (Units=GPa)
#
#
# Indices 1 2 3 4 5 6 
#
# 1 187.7250 29.0456 95.3646 0.0000 13.4294 0.0000
# 2 29.0456 23.9341 32.1961 0.0000 3.3578 0.0000
# 3 95.3646 32.1961 184.6416 0.0000 12.0159 0.0000
# 4 0.0000 0.0000 0.0000 30.6820 0.0000 -0.5985
# 5 13.4294 3.3578 12.0159 0.0000 7.2337 0.0000
# 6 0.0000 0.0000 0.0000 -0.5985 0.0000 22.2218
#
#
#
# Elastic Compliance Matrix: (Units=1/GPa)
#
#
# Indices 1 2 3 4 5 6 
#
# 1 0.008085 -0.004922 -0.002791 0.000000 -0.008089 0.000000
# 2 -0.004922 0.058328 -0.007244 0.000000 -0.005903 0.000000
# 3 -0.002791 -0.007244 0.008481 0.000000 -0.005544 0.000000
# 4 0.000000 0.000000 0.000000 0.032610 0.000000 0.000878
# 5 -0.008089 -0.005903 -0.005544 0.000000 0.165209 0.000000
# 6 0.000000 0.000000 0.000000 0.000878 0.000000 0.045024
#
#
# Mechanical properties :
#
#
# Convention : Reuss Voigt Hill
#
# Bulk Modulus (GPa) = 22.23255 78.83481 50.53368
# Shear Modulus (GPa) = 13.78755 28.00713 20.89734
#
# Velocity S-wave (km/s) = 2.79907 3.98937 3.44600
# Velocity P-wave (km/s) = 4.80417 8.12514 6.67450
#
# Compressibility (1/GPa) = 0.04497909
#
# Stress axis : x y z
#
# Youngs Moduli (GPa) = 123.68438 17.14444 117.90447
#
# Poissons Ratio (x) = 0.08439 0.32908
# Poissons Ratio (y) = 0.60883 0.85412
# Poissons Ratio (z) = 0.34522 0.12420
#
# Static dielectric constant tensor:
#      x y z
#    x 1.594000 0.000000 -0.005190 
#    y 0.000000 1.603820 0.000000 
#    z -0.005190 0.000000 1.574830 
# 
# From -- ./inp_files/308271.got.cif
#   From: 2010.05.17/outbox.cif.g08.bks.cpg/sg12_155_cif.got.tgz:308271.got - 2010.06.03 13:09:07.
