data_PCOD9182629
_publ_section_title
;
Structure prediction by ZEFSAII (Michael W. Deem and Ramdas Pophale) SiO2 
 PCOD9182629
Probable space group: C 2/M
;
_chemical_formula_sum "Si O2"
_cell_formula_units_Z 56
_cell_length_a 27.429470
_cell_length_b 8.703822
_cell_length_c 13.335047
_cell_angle_alpha 90.000000
_cell_angle_beta 60.405727
_cell_angle_gamma 90.000000
_cell_volume 2768.303353
_symmetry_space_group_name_H-M "C 2/M"
_symmetry_group_IT_number 12
_symmetry_cell_setting 'monoclinic'
loop_
_space_group_symop_operation_xyz
x,y,z
-x,y,-z
-x,-y,-z
x,-y,z
1/2+x,1/2+y,z
1/2-x,1/2+y,-z
1/2-x,1/2-y,-z
1/2+x,1/2-y,z
loop_
_atom_site_type_symbol
_atom_site_label
_atom_site_fract_x
_atom_site_fract_y
_atom_site_fract_z
Si Si1 0.837468 0.316761 0.752551
Si Si2 0.235256 0.315806 0.763738
Si Si3 0.130254 0.680590 0.752664
Si Si4 0.027530 0.180338 0.767298
Si Si5 0.824860 0.180382 0.978501
Si Si6 0.072575 0.678973 0.028450
Si Si7 0.032821 0.318377 0.362945
O O1 0.834344 0.500000 0.748843
O O2 0.798495 0.244773 0.705910
O O3 0.813969 0.262687 0.884405
O O4 0.902672 0.269749 0.685907
O O5 0.234372 0.500000 0.768098
O O6 0.193652 0.268213 0.715347
O O7 0.206797 0.252123 0.894371
O O8 0.131139 0.500000 0.726020
O O9 0.092324 0.770345 0.712178
O O10 0.097001 0.696949 0.892389
O O11 0.999914 0.228358 0.690182
O O12 0.990833 0.272817 0.886939
O O13 0.022170 0.000000 0.790460
O O14 0.889795 0.214212 0.938557
O O15 0.813487 0.000000 0.982311
O O16 0.080623 0.500000 0.047806
O O17 0.033727 0.500000 0.333909
O O18 0.000000 0.303073 0.500000
#
# Coordination Sequence:
#
# PCOD9182629 Si02
#       7
#     8   8   8   8   8   8   8
#     4  11  21  35  57  81 110 146 185 234 286 337
#     4  10  21  36  54  79 114 154 192 227 272 331
#     4   9  20  36  54  77 111 155 193 226 269 330
#     4  12  23  34  55  84 114 147 183 235 289 334
#     4  11  20  31  50  79 115 151 190 231 277 331
#     4  10  19  33  52  77 112 154 194 229 273 333
#     4  10  23  43  65  85 108 145 191 237 289 346
#
# _framework density 20.228997
#
# number of rings (size 3 to 8) (size 9 to 14) (size 15 to 20)
#    0.000    1.571    1.429    5.571    0.000    6.000 
#    0.000    0.000    0.000    0.857    0.000    0.000 
#    0.000    0.000    0.000    0.000    0.000    0.000 
#
# Total GULP energy -156383.239444 kJ/mol
# GULP energy per Si atom -5585.115694 kJ/mol
# Density = 2.018296 g / cm^3
# Si number density = 20.228997 Si / 1000 Ang^3
#
#
#
# Elastic Constant Matrix: (Units=GPa)
#
#
# Indices 1 2 3 4 5 6 
#
# 1 168.6877 41.0192 16.7415 0.0000 -13.8184 0.0000
# 2 41.0192 65.9637 5.3706 0.0000 -0.5647 0.0000
# 3 16.7415 5.3706 23.1167 0.0000 -3.5002 0.0000
# 4 0.0000 0.0000 0.0000 9.1043 0.0000 -6.2861
# 5 -13.8184 -0.5647 -3.5002 0.0000 11.1107 0.0000
# 6 0.0000 0.0000 0.0000 -6.2861 0.0000 29.7472
#
#
#
# Elastic Compliance Matrix: (Units=1/GPa)
#
#
# Indices 1 2 3 4 5 6 
#
# 1 0.008135 -0.004701 -0.003469 0.000000 0.008786 0.000000
# 2 -0.004701 0.018170 -0.001640 0.000000 -0.005440 0.000000
# 3 -0.003469 -0.001640 0.047765 0.000000 0.010649 0.000000
# 4 0.000000 0.000000 0.000000 0.128602 0.000000 0.027176
# 5 0.008786 -0.005440 0.010649 0.000000 0.104009 0.000000
# 6 0.000000 0.000000 0.000000 0.027176 0.000000 0.039359
#
#
# Mechanical properties :
#
#
# Convention : Reuss Voigt Hill
#
# Bulk Modulus (GPa) = 18.36592 42.67007 30.51799
# Shear Modulus (GPa) = 13.02722 22.96823 17.99772
#
# Velocity S-wave (km/s) = 2.54044 3.37324 2.98602
# Velocity P-wave (km/s) = 4.20759 6.02586 5.19687
#
# Compressibility (1/GPa) = 0.05444867
#
# Stress axis : x y z
#
# Youngs Moduli (GPa) = 122.92052 55.03486 20.93593
#
# Poissons Ratio (x) = 0.25873 0.07263
# Poissons Ratio (y) = 0.57788 0.03434
# Poissons Ratio (z) = 0.42643 0.09028
#
# Static dielectric constant tensor:
#      x y z
#    x 1.814830 0.000000 -0.025430 
#    y 0.000000 1.674260 0.000000 
#    z -0.025430 0.000000 1.691350 
# 
# From -- ./inp_files/243611.got.cif
#   From: 2010.05.17/outbox.cif.g08.bks.cpg/sg12_122_cif.got.tgz:243611.got - 2010.06.03 13:09:07.
