data_PCOD9182132
_publ_section_title
;
Structure prediction by ZEFSAII (Michael W. Deem and Ramdas Pophale) SiO2 
 PCOD9182132
Probable space group: C 2/M
;
_chemical_formula_sum "Si O2"
_cell_formula_units_Z 56
_cell_length_a 14.178757
_cell_length_b 9.587808
_cell_length_c 21.948826
_cell_angle_alpha 90.000000
_cell_angle_beta 116.184430
_cell_angle_gamma 90.000000
_cell_volume 2677.591707
_symmetry_space_group_name_H-M "C 2/M"
_symmetry_group_IT_number 12
_symmetry_cell_setting 'monoclinic'
loop_
_space_group_symop_operation_xyz
x,y,z
-x,y,-z
-x,-y,-z
x,-y,z
1/2+x,1/2+y,z
1/2-x,1/2+y,-z
1/2-x,1/2-y,-z
1/2+x,1/2-y,z
loop_
_atom_site_type_symbol
_atom_site_label
_atom_site_fract_x
_atom_site_fract_y
_atom_site_fract_z
Si Si1 0.914527 0.162666 0.062154
Si Si2 0.319803 0.339827 0.601214
Si Si3 0.257335 0.160273 0.232986
Si Si4 0.621661 0.660861 0.525771
Si Si5 0.743988 0.658961 0.083386
Si Si6 0.493521 0.839971 0.292264
Si Si7 0.434251 0.840804 0.819794
O O1 0.819064 0.224763 0.075719
O O2 0.012518 0.253788 0.111305
O O3 0.934532 0.000000 0.080561
O O4 0.869861 0.174527 0.980944
O O5 0.310985 0.500000 0.618083
O O6 0.348746 0.338477 0.537452
O O7 0.210088 0.259254 0.580424
O O8 0.416659 0.261854 0.659895
O O9 0.244777 0.166927 0.155984
O O10 0.377446 0.195015 0.282679
O O11 0.172515 0.268067 0.232501
O O12 0.236076 0.000000 0.244877
O O13 0.500000 0.704857 0.500000
O O14 0.630311 0.500000 0.550039
O O15 0.779949 0.500000 0.076748
O O16 0.490734 0.838104 0.217923
O O17 0.518391 0.000000 0.317176
O O18 0.416212 0.000000 0.832614
#
# Coordination Sequence:
#
# PCOD9182132 Si02
#       7
#     8   8   8   8   8   8   8
#     4  10  19  32  56  83 107 142 186 235 289 347
#     4  10  21  36  59  90 119 149 190 234 270 320
#     4  10  21  39  59  80 109 148 192 235 287 347
#     4   9  19  38  62  88 121 156 186 221 273 329
#     4   9  18  35  56  79 110 144 182 232 294 352
#     4  10  22  41  60  77 113 159 190 228 283 338
#     4  11  23  39  57  80 111 148 191 238 290 345
#
# _framework density 20.914317
#
# number of rings (size 3 to 8) (size 9 to 14) (size 15 to 20)
#    0.000    2.143    1.429    1.286    0.000    5.429 
#    0.000    7.143    0.000    0.000    0.000    0.000 
#    0.000    0.000    0.000    0.000    0.000    0.000 
#
# Total GULP energy -156393.893534 kJ/mol
# GULP energy per Si atom -5585.496198 kJ/mol
# Density = 2.086672 g / cm^3
# Si number density = 20.914317 Si / 1000 Ang^3
#
#
#
# Elastic Constant Matrix: (Units=GPa)
#
#
# Indices 1 2 3 4 5 6 
#
# 1 98.8620 64.0721 16.4857 0.0000 34.5754 0.0000
# 2 64.0721 133.1846 51.0836 0.0000 44.7463 0.0000
# 3 16.4857 51.0836 62.9514 0.0000 29.4552 0.0000
# 4 0.0000 0.0000 0.0000 25.6661 0.0000 9.1461
# 5 34.5754 44.7463 29.4552 0.0000 41.9347 0.0000
# 6 0.0000 0.0000 0.0000 9.1461 0.0000 29.0301
#
#
#
# Elastic Compliance Matrix: (Units=1/GPa)
#
#
# Indices 1 2 3 4 5 6 
#
# 1 0.017706 -0.007149 0.006593 0.000000 -0.011602 0.000000
# 2 -0.007149 0.015993 -0.008757 0.000000 -0.005020 0.000000
# 3 0.006593 -0.008757 0.028951 0.000000 -0.016427 0.000000
# 4 0.000000 0.000000 0.000000 0.043889 0.000000 -0.013828
# 5 -0.011602 -0.005020 -0.016427 0.000000 0.050307 0.000000
# 6 0.000000 0.000000 0.000000 -0.013828 0.000000 0.038803
#
#
# Mechanical properties :
#
#
# Convention : Reuss Voigt Hill
#
# Bulk Modulus (GPa) = 22.71482 62.03117 42.37300
# Shear Modulus (GPa) = 21.83869 30.21663 26.02766
#
# Velocity S-wave (km/s) = 3.23491 3.80515 3.53156
# Velocity P-wave (km/s) = 4.98371 7.00212 6.07729
#
# Compressibility (1/GPa) = 0.04402413
#
# Stress axis : x y z
#
# Youngs Moduli (GPa) = 56.47645 62.52777 34.54093
#
# Poissons Ratio (x) = 0.44702 -0.22772
# Poissons Ratio (y) = 0.40376 0.30247
# Poissons Ratio (z) = -0.37234 0.54755
#
# Static dielectric constant tensor:
#      x y z
#    x 1.771860 0.000000 -0.008220 
#    y 0.000000 1.715010 0.000000 
#    z -0.008220 0.000000 1.764020 
# 
# From -- ./inp_files/339032.got.cif
#   From: 2010.05.17/outbox.cif.g08.bks.cpg/sg12_170_cif.got.tgz:339032.got - 2010.06.03 13:09:07.
