data_PCOD9182355
_publ_section_title
;
Structure prediction by ZEFSAII (Michael W. Deem and Ramdas Pophale) SiO2 
 PCOD9182355
Probable space group: C 2/M
;
_chemical_formula_sum "Si O2"
_cell_formula_units_Z 64
_cell_length_a 21.286389
_cell_length_b 7.686118
_cell_length_c 26.217119
_cell_angle_alpha 90.000000
_cell_angle_beta 50.076950
_cell_angle_gamma 90.000000
_cell_volume 3289.551799
_symmetry_space_group_name_H-M "C 2/M"
_symmetry_group_IT_number 12
_symmetry_cell_setting 'monoclinic'
loop_
_space_group_symop_operation_xyz
x,y,z
-x,y,-z
-x,-y,-z
x,-y,z
1/2+x,1/2+y,z
1/2-x,1/2+y,-z
1/2-x,1/2-y,-z
1/2+x,1/2-y,z
loop_
_atom_site_type_symbol
_atom_site_label
_atom_site_fract_x
_atom_site_fract_y
_atom_site_fract_z
Si Si1 0.418627 0.791709 0.774785
Si Si2 0.023004 0.209686 0.364003
Si Si3 0.159365 0.291218 0.792911
Si Si4 0.015849 0.706324 0.151752
Si Si5 0.172540 0.207330 0.004583
Si Si6 0.180003 0.786346 0.348224
Si Si7 0.232146 0.209825 0.864250
Si Si8 0.082220 0.796936 0.492268
O O1 0.473499 0.756609 0.696777
O O2 0.455220 0.721872 0.808562
O O3 0.326163 0.725136 0.813455
O O4 0.411577 0.000000 0.783784
O O5 0.108149 0.267272 0.346331
O O6 0.947982 0.277135 0.437979
O O7 0.021705 0.000000 0.368569
O O8 0.158199 0.500000 0.788195
O O9 0.232922 0.227080 0.718276
O O10 0.183977 0.255174 0.838276
O O11 0.070268 0.222261 0.823768
O O12 0.003914 0.500000 0.165204
O O13 0.089640 0.727296 0.073523
O O14 0.166193 0.000000 0.005262
O O15 0.250000 0.250000 0.000000
O O16 0.190436 0.273581 0.938211
O O17 0.152728 0.724694 0.418727
O O18 0.179318 0.000000 0.349449
O O19 0.235174 0.000000 0.865384
O O20 0.000000 0.792888 0.500000
O O21 0.102694 0.000000 0.490069
#
# Coordination Sequence:
#
# PCOD9182355 Si02
#       8
#     8   8   8   8   8   8   8   8
#     4  10  19  33  50  70 102 138 165 201 253 307
#     4   9  15  25  46  75  99 123 167 218 251 289
#     4  10  20  34  55  79 103 133 173 217 249 295
#     4  10  22  39  54  75 106 137 171 209 255 306
#     4  11  22  38  59  80 103 135 171 211 255 303
#     4   8  13  24  44  72 100 127 162 206 256 295
#     4  10  21  36  54  75 102 134 165 204 259 309
#     4   7  11  20  38  67 101 127 153 205 260 291
#
# _framework density 19.455537
#
# number of rings (size 3 to 8) (size 9 to 14) (size 15 to 20)
#    0.000    2.625    2.500    1.875    0.000    2.500 
#    0.000    2.500    0.000    4.875    0.000    0.000 
#    0.000    0.000    0.000    0.000    0.000    0.000 
#
# Total GULP energy -178419.864318 kJ/mol
# GULP energy per Si atom -5575.620760 kJ/mol
# Density = 1.941126 g / cm^3
# Si number density = 19.455537 Si / 1000 Ang^3
#
#
#
# Elastic Constant Matrix: (Units=GPa)
#
#
# Indices 1 2 3 4 5 6 
#
# 1 122.3534 6.0255 93.3765 0.0003 -0.5397 0.0019
# 2 6.0255 31.0504 -3.6165 0.0014 0.2982 -0.0028
# 3 93.3765 -3.6165 200.5591 0.0005 14.3275 0.0001
# 4 0.0003 0.0014 0.0005 10.4998 0.0000 3.6409
# 5 -0.5397 0.2982 14.3275 0.0000 24.2422 0.0001
# 6 0.0019 -0.0028 0.0001 3.6409 0.0001 12.6601
#
#
#
# Elastic Compliance Matrix: (Units=1/GPa)
#
#
# Indices 1 2 3 4 5 6 
#
# 1 0.013399 -0.003410 -0.006603 0.000001 0.004243 -0.000003
# 2 -0.003410 0.033155 0.002318 -0.000008 -0.001854 0.000010
# 3 -0.006603 0.002318 0.008472 -0.000001 -0.005183 0.000002
# 4 0.000001 -0.000008 -0.000001 0.105789 0.000001 -0.030424
# 5 0.004243 -0.001854 -0.005183 0.000001 0.044431 -0.000001
# 6 -0.000003 0.000010 0.000002 -0.030424 -0.000001 0.087738
#
#
# Mechanical properties :
#
#
# Convention : Reuss Voigt Hill
#
# Bulk Modulus (GPa) = 25.22926 60.61489 42.92208
# Shear Modulus (GPa) = 15.54797 26.69227 21.12012
#
# Velocity S-wave (km/s) = 2.83000 3.70802 3.29836
# Velocity P-wave (km/s) = 4.86563 7.03959 6.05104
#
# Compressibility (1/GPa) = 0.03963651
#
# Stress axis : x y z
#
# Youngs Moduli (GPa) = 74.63405 30.16123 118.03287
#
# Poissons Ratio (x) = 0.10285 0.77934
# Poissons Ratio (y) = 0.25449 -0.27358
# Poissons Ratio (z) = 0.49279 -0.06991
#
# Static dielectric constant tensor:
#      x y z
#    x 1.650890 0.000000 0.006910 
#    y 0.000000 1.741410 0.000000 
#    z 0.006910 0.000000 1.706480 
# 
# From -- ./inp_files/365184.got.cif
#   From: 2010.05.17/outbox.cif.g08.bks.cpg/sg12_183_cif.got.tgz:365184.got - 2010.06.03 13:09:07.
