data_PCOD9182394
_publ_section_title
;
Structure prediction by ZEFSAII (Michael W. Deem and Ramdas Pophale) SiO2 
 PCOD9182394
Probable space group: C 2/M
;
_chemical_formula_sum "Si O2"
_cell_formula_units_Z 48
_cell_length_a 20.286955
_cell_length_b 21.729993
_cell_length_c 9.320109
_cell_angle_alpha 90.000000
_cell_angle_beta 142.394053
_cell_angle_gamma 90.000000
_cell_volume 2507.200959
_symmetry_space_group_name_H-M "C 2/M"
_symmetry_group_IT_number 12
_symmetry_cell_setting 'monoclinic'
loop_
_space_group_symop_operation_xyz
x,y,z
-x,y,-z
-x,-y,-z
x,-y,z
1/2+x,1/2+y,z
1/2-x,1/2+y,-z
1/2-x,1/2-y,-z
1/2+x,1/2-y,z
loop_
_atom_site_type_symbol
_atom_site_label
_atom_site_fract_x
_atom_site_fract_y
_atom_site_fract_z
Si Si1 0.281477 0.710460 0.358635
Si Si2 0.477692 0.700796 0.302031
Si Si3 0.833304 0.609935 0.647486
Si Si4 0.050087 0.430240 0.886015
Si Si5 0.850128 0.671321 0.132128
Si Si6 0.275413 0.654308 0.794526
O O1 0.410150 0.705593 0.590781
O O2 0.211257 0.667539 0.339829
O O3 0.242342 0.779657 0.310474
O O4 0.250852 0.690258 0.142843
O O5 0.500000 0.675645 0.500000
O O6 0.427797 0.769459 0.243124
O O7 0.392314 0.659056 0.069029
O O8 0.749986 0.603526 0.370550
O O9 0.948487 0.610116 0.765516
O O10 0.864045 0.566104 0.834242
O O11 0.016560 0.500000 0.793196
O O12 0.099899 0.390950 0.844166
O O13 0.810988 0.657844 0.224722
#
# Coordination Sequence:
#
# PCOD9182394 Si02
#       6
#     8   8   8   8   8   8
#     4  10  19  33  50  79 116 160 183 212 280 344
#     4  11  18  32  56  80 123 158 180 215 277 343
#     4  10  21  34  53  79 112 141 185 231 277 336
#     4  10  22  42  61  79 108 151 191 239 299 333
#     4  10  20  33  56  82 112 152 193 230 274 330
#     4  11  20  32  52  86 117 149 190 228 267 339
#
# _framework density 19.144855
#
# number of rings (size 3 to 8) (size 9 to 14) (size 15 to 20)
#    0.000    1.667    3.333    3.500    0.000    2.000 
#    0.000    2.500    0.000    0.000    0.000   32.667 
#    0.000    0.000    0.000    0.000    0.000    0.000 
#
# Total GULP energy -133640.545698 kJ/mol
# GULP energy per Si atom -5568.356071 kJ/mol
# Density = 1.910128 g / cm^3
# Si number density = 19.144855 Si / 1000 Ang^3
#
#
#
# Elastic Constant Matrix: (Units=GPa)
#
#
# Indices 1 2 3 4 5 6 
#
# 1 41.0677 56.7781 16.8219 0.0000 13.0774 0.0000
# 2 56.7781 34.7079 27.0862 0.0000 4.3621 0.0000
# 3 16.8219 27.0862 119.8605 0.0000 3.8389 0.0000
# 4 0.0000 0.0000 0.0000 10.8767 0.0000 -4.9906
# 5 13.0774 4.3621 3.8389 0.0000 32.3230 0.0000
# 6 0.0000 0.0000 0.0000 -4.9906 0.0000 -15.3576
#
#
#
# Elastic Compliance Matrix: (Units=1/GPa)
#
#
# Indices 1 2 3 4 5 6 
#
# 1 -0.016495 0.030183 -0.004607 0.000000 0.003147 0.000000
# 2 0.030183 -0.019779 0.000541 0.000000 -0.009607 0.000000
# 3 -0.004607 0.000541 0.008844 0.000000 0.000740 0.000000
# 4 0.000000 0.000000 0.000000 0.080010 0.000000 -0.026000
# 5 0.003147 -0.009607 0.000740 0.000000 0.030873 0.000000
# 6 0.000000 0.000000 0.000000 -0.026000 0.000000 -0.056665
#
#
# Mechanical properties :
#
#
# Convention : Reuss Voigt Hill
#
# Bulk Modulus (GPa) = 40.31438 44.11207 42.21322
# Shear Modulus (GPa) = -291.02447 11.89843 -139.56302
#
# Velocity S-wave (km/s) = -12.34268 2.49568 -8.54732
# Velocity P-wave (km/s) = 13.49145 5.60320 8.67823
#
# Compressibility (1/GPa) = 0.02480504
#
# Stress axis : x y z
#
# Youngs Moduli (GPa) = -60.62497 -50.55803 113.07734
#
# Poissons Ratio (x) = 1.52600 0.52091
# Poissons Ratio (y) = 1.82985 -0.06121
# Poissons Ratio (z) = -0.27928 0.02737
#
# Static dielectric constant tensor:
#      x y z
#    x 1.669440 0.000000 -0.020370 
#    y 0.000000 1.653280 0.000000 
#    z -0.020370 0.000000 1.758910 
# 
# From -- ./inp_files/90486.got.cif
#   From: 2010.05.17/outbox.cif.g08.bks.cpg/sg12_46_cif.got.tgz:90486.got - 2010.06.03 13:09:07.
