data_PCOD9182800
_publ_section_title
;
Structure prediction by ZEFSAII (Michael W. Deem and Ramdas Pophale) SiO2 
 PCOD9182800
Probable space group: C 2/M
;
_chemical_formula_sum "Si O2"
_cell_formula_units_Z 48
_cell_length_a 16.075083
_cell_length_b 8.875117
_cell_length_c 14.234953
_cell_angle_alpha 90.000000
_cell_angle_beta 90.678732
_cell_angle_gamma 90.000000
_cell_volume 2030.733230
_symmetry_space_group_name_H-M "C 2/M"
_symmetry_group_IT_number 12
_symmetry_cell_setting 'monoclinic'
loop_
_space_group_symop_operation_xyz
x,y,z
-x,y,-z
-x,-y,-z
x,-y,z
1/2+x,1/2+y,z
1/2-x,1/2+y,-z
1/2-x,1/2-y,-z
1/2+x,1/2-y,z
loop_
_atom_site_type_symbol
_atom_site_label
_atom_site_fract_x
_atom_site_fract_y
_atom_site_fract_z
Si Si1 0.679179 0.823991 0.602892
Si Si2 0.170357 0.181482 0.945292
Si Si3 0.426069 0.680345 0.882352
Si Si4 0.488528 0.173549 0.275296
Si Si5 0.084662 0.171302 0.438301
Si Si6 0.731253 0.181115 0.229983
O O1 0.596234 0.812916 0.667127
O O2 0.654847 0.736228 0.508094
O O3 0.749696 0.751038 0.668664
O O4 0.693809 0.000000 0.583934
O O5 0.190539 0.219508 0.837935
O O6 0.173189 0.000000 0.949875
O O7 0.250000 0.250000 0.000000
O O8 0.092527 0.227467 0.009970
O O9 0.426743 0.500000 0.880341
O O10 0.503389 0.735059 0.821221
O O11 0.347675 0.746326 0.822884
O O12 0.559265 0.228974 0.349134
O O13 0.501823 0.000000 0.251927
O O14 0.000000 0.167940 0.500000
O O15 0.102419 0.000000 0.409308
O O16 0.723150 0.000000 0.235343
#
# Coordination Sequence:
#
# PCOD9182800 Si02
#       6
#     8   8   8   8   8   8
#     4  10  20  34  52  75 103 134 168 206 248 295
#     4   8  16  30  49  72  97 129 167 205 245 294
#     4  10  19  33  53  76 102 132 168 208 251 298
#     4  10  20  34  52  75 103 134 168 206 248 295
#     4   9  17  31  52  75  98 129 168 205 245 297
#     4  10  19  33  53  76 102 132 168 208 251 298
#
# _framework density 23.636783000000001
#
# number of rings (size 3 to 8) (size 9 to 14) (size 15 to 20)
#    0.000    2.500    0.000    2.500    0.000    5.333 
#    0.000    1.667    0.000    5.000    0.000    0.000 
#    0.000    0.000    0.000    0.000    0.000    0.000 
#
# Total GULP energy -134169.980908 kJ/mol
# GULP energy per Si atom -5590.415871 kJ/mol
# Density = 2.358298 g / cm^3
# Si number density = 23.636783 Si / 1000 Ang^3
#
#
#
# Elastic Constant Matrix: (Units=GPa)
#
#
# Indices 1 2 3 4 5 6 
#
# 1 80.5569 -3.9456 1.5657 0.0000 -9.0111 0.0000
# 2 -3.9456 59.2467 25.3400 0.0000 2.9793 0.0000
# 3 1.5657 25.3400 118.5019 0.0000 -3.1692 0.0000
# 4 0.0000 0.0000 0.0000 25.6690 0.0000 -12.1332
# 5 -9.0111 2.9793 -3.1692 0.0000 44.3891 0.0000
# 6 0.0000 0.0000 0.0000 -12.1332 0.0000 16.1424
#
#
#
# Elastic Compliance Matrix: (Units=1/GPa)
#
#
# Indices 1 2 3 4 5 6 
#
# 1 0.012741 0.000843 -0.000281 0.000000 0.002510 0.000000
# 2 0.000843 0.018738 -0.004055 0.000000 -0.001376 0.000000
# 3 -0.000281 -0.004055 0.009333 0.000000 0.000881 0.000000
# 4 0.000000 0.000000 0.000000 0.060426 0.000000 0.045418
# 5 0.002510 -0.001376 0.000881 0.000000 0.023193 0.000000
# 6 0.000000 0.000000 0.000000 0.045418 0.000000 0.096087
#
#
# Mechanical properties :
#
#
# Convention : Reuss Voigt Hill
#
# Bulk Modulus (GPa) = 29.56382 33.80283 31.68333
# Shear Modulus (GPa) = 20.93980 32.92980 26.93480
#
# Velocity S-wave (km/s) = 2.97963 3.73655 3.37935
# Velocity P-wave (km/s) = 4.93683 5.74001 5.35351
#
# Compressibility (1/GPa) = 0.03382513
#
# Stress axis : x y z
#
# Youngs Moduli (GPa) = 78.48626 53.36706 107.14614
#
# Poissons Ratio (x) = -0.04497 0.03015
# Poissons Ratio (y) = -0.06614 0.43446
# Poissons Ratio (z) = 0.02209 0.21639
#
# Static dielectric constant tensor:
#      x y z
#    x 2.002090 0.000000 -0.074200 
#    y 0.000000 1.781030 0.000000 
#    z -0.074200 0.000000 1.868290 
# 
# From -- ./inp_files/172152.got.cif
#   From: 2010.05.17/outbox.cif.g08.bks.cpg/sg12_87_cif.got.tgz:172152.got - 2010.06.03 13:09:07.
