data_PCOD9182480
_publ_section_title
;
Structure prediction by ZEFSAII (Michael W. Deem and Ramdas Pophale) SiO2 
 PCOD9182480
Probable space group: C 2/M
;
_chemical_formula_sum "Si O2"
_cell_formula_units_Z 58
_cell_length_a 9.543442
_cell_length_b 23.904043
_cell_length_c 12.977387
_cell_angle_alpha 90.000000
_cell_angle_beta 83.180185
_cell_angle_gamma 90.000000
_cell_volume 2939.543442
_symmetry_space_group_name_H-M "C 2/M"
_symmetry_group_IT_number 12
_symmetry_cell_setting 'monoclinic'
loop_
_space_group_symop_operation_xyz
x,y,z
-x,y,-z
-x,-y,-z
x,-y,z
1/2+x,1/2+y,z
1/2-x,1/2+y,-z
1/2-x,1/2-y,-z
1/2+x,1/2-y,z
loop_
_atom_site_type_symbol
_atom_site_label
_atom_site_fract_x
_atom_site_fract_y
_atom_site_fract_z
Si Si1 0.150554 0.431436 0.535907
Si Si2 0.180991 0.561149 0.155468
Si Si3 0.570972 0.401711 0.166796
Si Si4 0.903696 0.217968 0.908565
Si Si5 0.500000 0.500000 0.000000
Si Si6 0.150570 0.435349 0.770345
Si Si7 0.860406 0.063858 0.348306
Si Si8 0.856503 0.668421 0.956035
O O1 0.152023 0.500000 0.535073
O O2 0.158312 0.413117 0.653311
O O3 0.279263 0.411123 0.453131
O O4 0.000000 0.415457 0.500000
O O5 0.222614 0.500000 0.104853
O O6 0.248878 0.563729 0.262459
O O7 0.219505 0.614834 0.086030
O O8 0.012091 0.564344 0.181041
O O9 0.532472 0.337128 0.148898
O O10 0.739519 0.406128 0.164634
O O11 0.500863 0.413492 0.284016
O O12 0.522117 0.449205 0.088756
O O13 0.890361 0.281927 0.869814
O O14 0.749071 0.197651 0.955555
O O15 0.000000 0.226321 0.000000
O O16 0.196280 0.500000 0.764370
O O17 0.891642 0.000000 0.373349
O O18 0.000000 0.650978 0.000000
#
# Coordination Sequence:
#
# PCOD9182480 Si02
#       8
#     8   8   8   8   2   8   8   8
#     4   9  16  31  54  76 108 146 169 220 278 319
#     4  10  20  32  52  80 111 133 171 225 277 327
#     4  12  22  35  52  78 107 153 181 220 270 318
#     4  10  21  37  55  68 101 147 192 222 263 308
#     4  12  24  36  52  72 124 152 174 218 280 322
#     4  10  19  33  51  81 110 138 178 220 272 330
#     4  10  19  33  51  79 110 141 181 216 266 336
#     4  10  21  37  52  75 100 141 191 230 256 313
#
# _framework density 19.730955000000002
#
# number of rings (size 3 to 8) (size 9 to 14) (size 15 to 20)
#    0.000    1.793    3.448    1.655    0.000    0.828 
#    0.000    2.069    0.000    0.000    0.000    5.793 
#    0.000    0.000    0.000    0.000    0.000    0.000 
#
# Total GULP energy -161443.903250 kJ/mol
# GULP energy per Si atom -5567.031147 kJ/mol
# Density = 1.968605 g / cm^3
# Si number density = 19.730955 Si / 1000 Ang^3
#
#
#
# Elastic Constant Matrix: (Units=GPa)
#
#
# Indices 1 2 3 4 5 6 
#
# 1 64.5248 -4.1911 -13.5781 0.0000 2.9574 0.0000
# 2 -4.1911 104.0644 18.5488 0.0000 8.5306 0.0000
# 3 -13.5781 18.5488 37.1925 0.0000 3.6946 0.0000
# 4 0.0000 0.0000 0.0000 5.6868 0.0000 1.4305
# 5 2.9574 8.5306 3.6946 0.0000 20.5362 0.0000
# 6 0.0000 0.0000 0.0000 1.4305 0.0000 17.4739
#
#
#
# Elastic Compliance Matrix: (Units=1/GPa)
#
#
# Indices 1 2 3 4 5 6 
#
# 1 0.017055 -0.000212 0.006687 0.000000 -0.003571 0.000000
# 2 -0.000212 0.010802 -0.005114 0.000000 -0.003537 0.000000
# 3 0.006687 -0.005114 0.032341 0.000000 -0.004657 0.000000
# 4 0.000000 0.000000 0.000000 0.179542 0.000000 -0.014698
# 5 -0.003571 -0.003537 -0.004657 0.000000 0.051516 0.000000
# 6 0.000000 0.000000 0.000000 -0.014698 0.000000 0.058431
#
#
# Mechanical properties :
#
#
# Convention : Reuss Voigt Hill
#
# Bulk Modulus (GPa) = 15.89301 23.03787 19.46544
# Shear Modulus (GPa) = 13.58920 22.40619 17.99769
#
# Velocity S-wave (km/s) = 2.62720 3.37350 3.02347
# Velocity P-wave (km/s) = 4.15635 5.18415 4.69844
#
# Compressibility (1/GPa) = 0.06292075
#
# Stress axis : x y z
#
# Youngs Moduli (GPa) = 58.63400 92.57334 30.92024
#
# Poissons Ratio (x) = 0.01965 -0.20676
# Poissons Ratio (y) = 0.01245 0.15811
# Poissons Ratio (z) = -0.39208 0.47338
#
# Static dielectric constant tensor:
#      x y z
#    x 1.476740 0.000000 0.040170 
#    y 0.000000 1.778630 0.000000 
#    z 0.040170 0.000000 1.699600 
# 
# From -- ./inp_files/198431.got.cif
#   From: 2010.05.17/outbox.cif.g08.bks.cpg/sg12_100_cif.got.tgz:198431.got - 2010.06.03 13:09:07.
