data_PCOD9182657
_publ_section_title
;
Structure prediction by ZEFSAII (Michael W. Deem and Ramdas Pophale) SiO2 
 PCOD9182657
Probable space group: C 2/M
;
_chemical_formula_sum "Si O2"
_cell_formula_units_Z 64
_cell_length_a 34.549936
_cell_length_b 7.775165
_cell_length_c 15.219887
_cell_angle_alpha 90.000000
_cell_angle_beta 135.731045
_cell_angle_gamma 90.000000
_cell_volume 2853.913173
_symmetry_space_group_name_H-M "C 2/M"
_symmetry_group_IT_number 12
_symmetry_cell_setting 'monoclinic'
loop_
_space_group_symop_operation_xyz
x,y,z
-x,y,-z
-x,-y,-z
x,-y,z
1/2+x,1/2+y,z
1/2-x,1/2+y,-z
1/2-x,1/2-y,-z
1/2+x,1/2-y,z
loop_
_atom_site_type_symbol
_atom_site_label
_atom_site_fract_x
_atom_site_fract_y
_atom_site_fract_z
Si Si1 0.238639 0.203034 0.634284
Si Si2 0.381864 0.200480 0.528303
Si Si3 0.120611 0.707067 0.858507
Si Si4 0.859469 0.295748 0.296033
Si Si5 0.763449 0.707841 0.873059
Si Si6 0.354363 0.707994 0.771095
Si Si7 0.431755 0.293194 0.049645
Si Si8 0.550991 0.301850 0.203997
O O1 0.178629 0.285447 0.524222
O O2 0.258449 0.264119 0.763378
O O3 0.291059 0.235544 0.657428
O O4 0.228492 0.000000 0.620493
O O5 0.375271 0.272086 0.418338
O O6 0.426322 0.295144 0.660187
O O7 0.397221 0.000000 0.549659
O O8 0.124042 0.500000 0.859050
O O9 0.111044 0.771426 0.743886
O O10 0.076910 0.748887 0.863026
O O11 0.180396 0.771275 0.990871
O O12 0.868937 0.500000 0.316855
O O13 0.793654 0.267668 0.175934
O O14 0.764214 0.500000 0.875375
O O15 0.352947 0.500000 0.765146
O O16 0.399893 0.772849 0.775631
O O17 0.379876 0.765596 0.906384
O O18 0.433230 0.500000 0.045739
O O19 0.489501 0.225500 0.103838
O O20 0.545303 0.500000 0.165545
#
# Coordination Sequence:
#
# PCOD9182657 Si02
#       8
#     8   8   8   8   8   8   8   8
#     4  10  19  33  55  84 116 146 175 219 273 324
#     4  10  21  38  57  80 110 146 189 227 264 316
#     4  10  19  33  52  79 112 143 176 219 270 324
#     4   9  19  33  52  77 108 144 181 220 264 317
#     4   9  17  29  48  77 112 143 173 213 266 322
#     4  10  20  36  59  84 110 139 176 224 277 331
#     4  10  21  37  58  83 110 140 179 226 274 326
#     4  10  22  40  59  79 105 143 186 228 275 322
#
# _framework density 22.425348
#
# number of rings (size 3 to 8) (size 9 to 14) (size 15 to 20)
#    0.000    2.250    1.250    1.500    0.000    5.000 
#    0.000    0.625    0.000    6.000    0.000    0.000 
#    0.000    0.000    0.000    0.000    0.000    0.000 
#
# Total GULP energy -178674.386667 kJ/mol
# GULP energy per Si atom -5583.574583 kJ/mol
# Density = 2.237431 g / cm^3
# Si number density = 22.425348 Si / 1000 Ang^3
#
#
#
# Elastic Constant Matrix: (Units=GPa)
#
#
# Indices 1 2 3 4 5 6 
#
# 1 86.7552 -6.2818 10.2570 0.0000 -13.8649 0.0000
# 2 -6.2818 32.0703 -2.9611 0.0001 -0.9425 0.0000
# 3 10.2570 -2.9611 53.1109 0.0000 4.1758 0.0000
# 4 0.0000 0.0001 0.0000 13.3298 0.0000 1.0499
# 5 -13.8649 -0.9425 4.1758 0.0000 17.7552 0.0000
# 6 0.0000 0.0000 0.0000 1.0499 0.0000 18.5558
#
#
#
# Elastic Compliance Matrix: (Units=1/GPa)
#
#
# Indices 1 2 3 4 5 6 
#
# 1 0.014050 0.002780 -0.003497 0.000000 0.011942 0.000000
# 2 0.002780 0.031921 0.000957 0.000000 0.003640 0.000000
# 3 -0.003497 0.000957 0.020140 0.000000 -0.007417 0.000000
# 4 0.000000 0.000000 0.000000 0.075356 0.000000 -0.004264
# 5 0.011942 0.003640 -0.007417 0.000000 0.067584 0.000000
# 6 0.000000 0.000000 0.000000 -0.004264 0.000000 0.054133
#
#
# Mechanical properties :
#
#
# Convention : Reuss Voigt Hill
#
# Bulk Modulus (GPa) = 15.01716 19.32940 17.17328
# Shear Modulus (GPa) = 17.54984 21.32297 19.43640
#
# Velocity S-wave (km/s) = 2.80052 3.08692 2.94720
# Velocity P-wave (km/s) = 4.14346 4.61991 4.38815
#
# Compressibility (1/GPa) = 0.06659051
#
# Stress axis : x y z
#
# Youngs Moduli (GPa) = 71.17476 31.32695 49.65136
#
# Poissons Ratio (x) = -0.08709 0.17365
# Poissons Ratio (y) = -0.19787 -0.04750
# Poissons Ratio (z) = 0.24892 -0.02997
#
# Static dielectric constant tensor:
#      x y z
#    x 1.867100 0.000000 -0.040520 
#    y 0.000000 1.833640 0.000000 
#    z -0.040520 0.000000 1.825610 
# 
# From -- ./inp_files/250090.got.cif
#   From: 2010.05.17/outbox.cif.g08.bks.cpg/sg12_126_cif.got.tgz:250090.got - 2010.06.03 13:09:07.
