data_PCOD9182548
_publ_section_title
;
Structure prediction by ZEFSAII (Michael W. Deem and Ramdas Pophale) SiO2 
 PCOD9182548
Probable space group: C 2/M
;
_chemical_formula_sum "Si O2"
_cell_formula_units_Z 40
_cell_length_a 28.453148
_cell_length_b 8.726208
_cell_length_c 26.372720
_cell_angle_alpha 90.000000
_cell_angle_beta 20.403156
_cell_angle_gamma 90.000000
_cell_volume 2282.799053
_symmetry_space_group_name_H-M "C 2/M"
_symmetry_group_IT_number 12
_symmetry_cell_setting 'monoclinic'
loop_
_space_group_symop_operation_xyz
x,y,z
-x,y,-z
-x,-y,-z
x,-y,z
1/2+x,1/2+y,z
1/2-x,1/2+y,-z
1/2-x,1/2-y,-z
1/2+x,1/2-y,z
loop_
_atom_site_type_symbol
_atom_site_label
_atom_site_fract_x
_atom_site_fract_y
_atom_site_fract_z
Si Si1 0.002323 0.684080 0.165264
Si Si2 0.217779 0.683784 0.141616
Si Si3 0.480673 0.683873 0.739095
Si Si4 0.009836 0.315414 0.547895
Si Si5 0.708162 0.315962 0.427301
O O1 0.007738 0.500000 0.159915
O O2 0.007990 0.744037 0.217145
O O3 0.860653 0.733293 0.283799
O O4 0.132678 0.750986 0.005506
O O5 0.221041 0.500000 0.134393
O O6 0.146467 0.751917 0.163601
O O7 0.121096 0.727806 0.286300
O O8 0.470859 0.500000 0.752816
O O9 0.611698 0.724134 0.572522
O O10 0.016554 0.500000 0.540833
O O11 0.000000 0.261426 0.500000
O O12 0.138549 0.253426 0.448129
O O13 0.706010 0.500000 0.425264
#
# Coordination Sequence:
#
# PCOD9182548 Si02
#       5
#     8   8   8   8   8
#     4  11  21  33  49  74 108 138 167 204 246 293
#     4  10  20  34  52  75 102 133 169 206 249 298
#     4  10  19  33  52  74 102 137 174 206 243 291
#     4   9  19  37  59  78  96 124 166 213 256 300
#     4   9  20  35  52  76 103 133 169 207 247 296
#
# _framework density 17.522349999999999
#
# number of rings (size 3 to 8) (size 9 to 14) (size 15 to 20)
#    0.000    2.200    0.000    3.000    0.000    3.600 
#    0.000    1.000    0.000    6.000    0.000    0.000 
#    0.000    0.000    0.000    0.000    0.000    0.000 
#
# Total GULP energy -111666.319373 kJ/mol
# GULP energy per Si atom -5583.315969 kJ/mol
# Density = 1.748247 g / cm^3
# Si number density = 17.522350 Si / 1000 Ang^3
#
#
#
# Elastic Constant Matrix: (Units=GPa)
#
#
# Indices 1 2 3 4 5 6 
#
# 1 121.5839 28.2984 70.2756 -0.0010 5.2151 0.0002
# 2 28.2984 35.3298 37.4985 0.0003 -4.0234 0.0018
# 3 70.2756 37.4985 141.2056 -0.0019 -23.5593 0.0012
# 4 -0.0010 0.0003 -0.0019 27.1174 0.0007 -4.0077
# 5 5.2151 -4.0234 -23.5593 0.0007 14.3826 -0.0003
# 6 0.0002 0.0018 0.0012 -4.0077 -0.0003 19.0303
#
#
#
# Elastic Compliance Matrix: (Units=1/GPa)
#
#
# Indices 1 2 3 4 5 6 
#
# 1 0.017331 -0.004189 -0.012051 0.000001 -0.027195 0.000001
# 2 -0.004189 0.041182 -0.009187 -0.000002 -0.002009 -0.000004
# 3 -0.012051 -0.009187 0.021768 0.000000 0.037457 0.000000
# 4 0.000001 -0.000002 0.000000 0.038061 -0.000002 0.008016
# 5 -0.027195 -0.002009 0.037457 -0.000002 0.140184 0.000000
# 6 0.000001 -0.000004 0.000000 0.008016 0.000000 0.054236
#
#
# Mechanical properties :
#
#
# Convention : Reuss Voigt Hill
#
# Bulk Modulus (GPa) = 33.97984 63.36270 48.67127
# Shear Modulus (GPa) = 13.38960 22.90919 18.14940
#
# Velocity S-wave (km/s) = 2.76732 3.61976 3.22185
# Velocity P-wave (km/s) = 5.44473 7.32870 6.45581
#
# Compressibility (1/GPa) = 0.02942921
#
# Stress axis : x y z
#
# Youngs Moduli (GPa) = 57.69858 24.28266 45.93840
#
# Poissons Ratio (x) = 0.10172 0.55358
# Poissons Ratio (y) = 0.24169 0.42202
# Poissons Ratio (z) = 0.69530 0.22308
#
# Static dielectric constant tensor:
#      x y z
#    x 1.563380 0.000000 0.009130 
#    y 0.000000 1.586960 0.000000 
#    z 0.009130 0.000000 1.605980 
# 
# From -- ./inp_files/92707.got.cif
#   From: 2010.05.17/outbox.cif.g08.bks.cpg/sg12_47_cif.got.tgz:92707.got - 2010.06.03 13:09:07.
