data_PCOD9182404
_publ_section_title
;
Structure prediction by ZEFSAII (Michael W. Deem and Ramdas Pophale) SiO2 
 PCOD9182404
Probable space group: C 2/M
;
_chemical_formula_sum "Si O2"
_cell_formula_units_Z 64
_cell_length_a 29.672290
_cell_length_b 7.734580
_cell_length_c 14.814106
_cell_angle_alpha 90.000000
_cell_angle_beta 107.291610
_cell_angle_gamma 90.000000
_cell_volume 3246.217619
_symmetry_space_group_name_H-M "C 2/M"
_symmetry_group_IT_number 12
_symmetry_cell_setting 'monoclinic'
loop_
_space_group_symop_operation_xyz
x,y,z
-x,y,-z
-x,-y,-z
x,-y,z
1/2+x,1/2+y,z
1/2-x,1/2+y,-z
1/2-x,1/2-y,-z
1/2+x,1/2-y,z
loop_
_atom_site_type_symbol
_atom_site_label
_atom_site_fract_x
_atom_site_fract_y
_atom_site_fract_z
Si Si1 0.401166 0.790152 0.134304
Si Si2 0.757036 0.199335 0.108167
Si Si3 0.309917 0.791070 0.623982
Si Si4 0.400062 0.800209 0.785224
Si Si5 0.204746 0.707847 0.589561
Si Si6 0.500461 0.788082 0.895080
Si Si7 0.653912 0.197356 0.731983
Si Si8 0.653494 0.703177 0.075431
O O1 0.452130 0.733850 0.128089
O O2 0.384875 0.725908 0.223047
O O3 0.400690 0.000000 0.136452
O O4 0.363227 0.735138 0.036525
O O5 0.797909 0.304971 0.180803
O O6 0.705858 0.226203 0.121362
O O7 0.770998 0.000000 0.122146
O O8 0.750000 0.250000 0.000000
O O9 0.356725 0.724279 0.701880
O O10 0.259948 0.745265 0.639690
O O11 0.306908 0.729504 0.518361
O O12 0.311930 0.000000 0.624957
O O13 0.452682 0.725813 0.817797
O O14 0.382618 0.793279 0.878286
O O15 0.404501 0.000000 0.759430
O O16 0.200152 0.500000 0.586632
O O17 0.170340 0.777759 0.646982
O O18 0.499733 0.000000 0.895175
O O19 0.500000 0.734036 0.000000
O O20 0.638964 0.000000 0.704358
O O21 0.653114 0.500000 0.093221
#
# Coordination Sequence:
#
# PCOD9182404 Si02
#       8
#     8   8   8   8   8   8   8   8
#     4  10  19  33  51  69  95 133 174 207 246 303
#     4  12  23  34  48  69 100 134 169 204 242 294
#     4   9  18  32  52  76  99 128 165 209 257 302
#     4  10  19  33  53  74  98 131 171 214 257 304
#     4   9  18  33  51  74 103 130 163 206 255 307
#     4   9  16  29  51  74  95 128 174 216 253 298
#     4  10  20  33  51  72  99 136 170 206 251 300
#     4  12  23  33  47  71 102 134 167 206 252 299
#
# _framework density 19.715253000000001
#
# number of rings (size 3 to 8) (size 9 to 14) (size 15 to 20)
#    0.000    1.875    2.500    3.000    0.000    3.000 
#    0.000    1.250    0.000    0.750    0.000    5.250 
#    0.000    0.000    0.000    9.625    0.000   10.250 
#
# Total GULP energy -178633.847747 kJ/mol
# GULP energy per Si atom -5582.307742 kJ/mol
# Density = 1.967038 g / cm^3
# Si number density = 19.715253 Si / 1000 Ang^3
#
#
#
# Elastic Constant Matrix: (Units=GPa)
#
#
# Indices 1 2 3 4 5 6 
#
# 1 144.5865 0.3718 53.5855 0.0000 -16.5601 0.0000
# 2 0.3718 48.4121 -1.0505 0.0000 1.8665 0.0000
# 3 53.5855 -1.0505 89.7445 0.0000 -12.0528 0.0000
# 4 0.0000 0.0000 0.0000 8.3977 0.0000 2.4619
# 5 -16.5601 1.8665 -12.0528 0.0000 33.7563 0.0000
# 6 0.0000 0.0000 0.0000 2.4619 0.0000 8.0029
#
#
#
# Elastic Compliance Matrix: (Units=1/GPa)
#
#
# Indices 1 2 3 4 5 6 
#
# 1 0.009106 -0.000283 -0.005082 0.000000 0.002668 0.000000
# 2 -0.000283 0.020710 0.000251 0.000000 -0.001194 0.000000
# 3 -0.005082 0.000251 0.014541 0.000000 0.002685 0.000000
# 4 0.000000 0.000000 0.000000 0.130884 0.000000 -0.040263
# 5 0.002668 -0.001194 0.002685 0.000000 0.031958 0.000000
# 6 0.000000 0.000000 0.000000 -0.040263 0.000000 0.137341
#
#
# Mechanical properties :
#
#
# Convention : Reuss Voigt Hill
#
# Bulk Modulus (GPa) = 29.30132 43.17297 36.23714
# Shear Modulus (GPa) = 13.65585 25.35380 19.50483
#
# Velocity S-wave (km/s) = 2.63469 3.58997 3.14877
# Velocity P-wave (km/s) = 4.91426 6.25537 5.62493
#
# Compressibility (1/GPa) = 0.03412816
#
# Stress axis : x y z
#
# Youngs Moduli (GPa) = 109.81644 48.28666 68.77239
#
# Poissons Ratio (x) = 0.01367 0.34951
# Poissons Ratio (y) = 0.03109 -0.01726
# Poissons Ratio (z) = 0.55810 -0.01212
#
# Static dielectric constant tensor:
#      x y z
#    x 1.688490 0.000000 -0.036680 
#    y 0.000000 1.743910 0.000000 
#    z -0.036680 0.000000 1.690220 
# 
# From -- ./inp_files/243788.got.cif
#   From: 2010.05.17/outbox.cif.g08.bks.cpg/sg12_122_cif.got.tgz:243788.got - 2010.06.03 13:09:07.
