data_PCOD9182840
_publ_section_title
;
Structure prediction by ZEFSAII (Michael W. Deem and Ramdas Pophale) SiO2 
 PCOD9182840
Probable space group: C 2/M
;
_chemical_formula_sum "Si O2"
_cell_formula_units_Z 40
_cell_length_a 9.853346
_cell_length_b 13.340042
_cell_length_c 12.077080
_cell_angle_alpha 90.000000
_cell_angle_beta 70.226886
_cell_angle_gamma 90.000000
_cell_volume 1493.863035
_symmetry_space_group_name_H-M "C 2/M"
_symmetry_group_IT_number 12
_symmetry_cell_setting 'monoclinic'
loop_
_space_group_symop_operation_xyz
x,y,z
-x,y,-z
-x,-y,-z
x,-y,z
1/2+x,1/2+y,z
1/2-x,1/2+y,-z
1/2-x,1/2-y,-z
1/2+x,1/2-y,z
loop_
_atom_site_type_symbol
_atom_site_label
_atom_site_fract_x
_atom_site_fract_y
_atom_site_fract_z
Si Si1 0.210851 0.113878 0.413158
Si Si2 0.428746 0.179421 0.183116
Si Si3 0.146097 0.337465 0.403490
Si Si4 0.863711 0.888851 0.166030
Si Si5 0.715044 0.887232 0.982638
O O1 0.364161 0.126004 0.307322
O O2 0.133099 0.216266 0.394598
O O3 0.235072 0.133478 0.536521
O O4 0.157463 0.000000 0.408288
O O5 0.453391 0.297531 0.192049
O O6 0.567193 0.129853 0.091217
O O7 0.303385 0.176551 0.122817
O O8 0.209714 0.380671 0.272751
O O9 0.000000 0.375182 0.500000
O O10 0.837092 0.875787 0.041731
O O11 0.921877 0.000000 0.169553
O O12 0.720146 0.000000 0.939942
#
# Coordination Sequence:
#
# PCOD9182840 Si02
#       5
#     8   8   8   8   8
#     4  10  20  34  53  76 102 132 166 206 251 296
#     4  10  19  33  53  77 103 129 167 210 247 292
#     4  10  21  35  52  75 102 132 168 208 248 296
#     4  10  21  35  52  74 102 134 167 206 251 296
#     4  10  19  33  55  78 100 132 169 205 247 296
#
# _framework density 26.776214
#
# number of rings (size 3 to 8) (size 9 to 14) (size 15 to 20)
#    0.000    2.000    0.000    4.800    0.000    3.600 
#    0.000    2.000    0.000   14.400    0.000    0.000 
#    0.000    0.000    0.000    0.000    0.000    0.000 
#
# Total GULP energy -111878.967931 kJ/mol
# GULP energy per Si atom -5593.948397 kJ/mol
# Density = 2.671527 g / cm^3
# Si number density = 26.776214 Si / 1000 Ang^3
#
#
#
# Elastic Constant Matrix: (Units=GPa)
#
#
# Indices 1 2 3 4 5 6 
#
# 1 67.0206 -5.6173 19.2244 0.0000 -12.5625 0.0000
# 2 -5.6173 201.8389 -0.0397 0.0000 9.8909 0.0000
# 3 19.2244 -0.0397 152.7418 0.0000 5.6173 0.0000
# 4 0.0000 0.0000 0.0000 25.0521 0.0000 0.7816
# 5 -12.5625 9.8909 5.6173 0.0000 38.2853 0.0000
# 6 0.0000 0.0000 0.0000 0.7816 0.0000 1.9438
#
#
#
# Elastic Compliance Matrix: (Units=1/GPa)
#
#
# Indices 1 2 3 4 5 6 
#
# 1 0.016680 0.000181 -0.002311 0.000000 0.005765 0.000000
# 2 0.000181 0.005020 0.000024 0.000000 -0.001241 0.000000
# 3 -0.002311 0.000024 0.006903 0.000000 -0.001778 0.000000
# 4 0.000000 0.000000 0.000000 0.040424 0.000000 -0.016254
# 5 0.005765 -0.001241 -0.001778 0.000000 0.028593 0.000000
# 6 0.000000 0.000000 0.000000 -0.016254 0.000000 0.521000
#
#
# Mechanical properties :
#
#
# Convention : Reuss Voigt Hill
#
# Bulk Modulus (GPa) = 40.99822 49.85959 45.42891
# Shear Modulus (GPa) = 7.92440 40.25848 24.09144
#
# Velocity S-wave (km/s) = 1.72218 3.88173 3.00281
# Velocity P-wave (km/s) = 4.39309 6.22508 5.38753
#
# Compressibility (1/GPa) = 0.02439130
#
# Stress axis : x y z
#
# Youngs Moduli (GPa) = 59.95339 199.19087 144.85870
#
# Poissons Ratio (x) = -0.03610 0.33481
# Poissons Ratio (y) = -0.01087 -0.00350
# Poissons Ratio (z) = 0.13857 -0.00481
#
# Static dielectric constant tensor:
#      x y z
#    x 2.226160 0.000000 -0.002380 
#    y 0.000000 2.027280 0.000000 
#    z -0.002380 0.000000 1.991610 
# 
# From -- ./inp_files/129571.got.cif
#   From: 2010.05.17/outbox.cif.g08.bks.cpg/sg12_65_cif.got.tgz:129571.got - 2010.06.03 13:09:07.
