data_PCOD9182534
_publ_section_title
;
Structure prediction by ZEFSAII (Michael W. Deem and Ramdas Pophale) SiO2 
 PCOD9182534
Probable space group: C 2/M
;
_chemical_formula_sum "Si O2"
_cell_formula_units_Z 56
_cell_length_a 19.645061
_cell_length_b 9.037278
_cell_length_c 21.969343
_cell_angle_alpha 90.000000
_cell_angle_beta 122.550847
_cell_angle_gamma 90.000000
_cell_volume 3287.694907
_symmetry_space_group_name_H-M "C 2/M"
_symmetry_group_IT_number 12
_symmetry_cell_setting 'monoclinic'
loop_
_space_group_symop_operation_xyz
x,y,z
-x,y,-z
-x,-y,-z
x,-y,z
1/2+x,1/2+y,z
1/2-x,1/2+y,-z
1/2-x,1/2-y,-z
1/2+x,1/2-y,z
loop_
_atom_site_type_symbol
_atom_site_label
_atom_site_fract_x
_atom_site_fract_y
_atom_site_fract_z
Si Si1 0.915200 0.178995 0.489787
Si Si2 0.963964 0.325566 0.917441
Si Si3 0.754369 0.321281 0.355216
Si Si4 0.132028 0.672945 0.939273
Si Si5 0.703316 0.323280 0.195526
Si Si6 0.829897 0.822318 0.567049
Si Si7 0.260844 0.674798 0.104778
O O1 0.837532 0.247866 0.418335
O O2 0.902419 0.218935 0.555614
O O3 0.000000 0.225913 0.500000
O O4 0.911241 0.000000 0.483182
O O5 0.942279 0.500000 0.912759
O O6 0.886520 0.235924 0.860011
O O7 0.037874 0.310787 0.906482
O O8 0.000000 0.278910 0.000000
O O9 0.764057 0.500000 0.361431
O O10 0.733367 0.276068 0.276625
O O11 0.681027 0.283276 0.366982
O O12 0.149909 0.500000 0.935040
O O13 0.165443 0.771987 0.901296
O O14 0.181965 0.709513 0.024987
O O15 0.704376 0.500000 0.193621
O O16 0.756038 0.257784 0.166087
O O17 0.750000 0.750000 0.500000
O O18 0.824171 0.000000 0.560962
O O19 0.262325 0.500000 0.115444
#
# Coordination Sequence:
#
# PCOD9182534 Si02
#       7
#     8   8   8   8   8   8   8
#     4   9  17  30  52  81 105 128 165 209 249 295
#     4  10  19  35  54  74 100 131 170 216 263 309
#     4   9  19  34  50  71 102 138 170 204 249 301
#     4   9  18  33  52  73  98 126 164 215 263 312
#     4  11  22  34  50  74 104 137 176 219 262 308
#     4   8  14  28  49  70  96 129 162 198 238 286
#     4  10  19  33  52  73  98 131 169 210 262 316
#
# _framework density 17.03321
#
# number of rings (size 3 to 8) (size 9 to 14) (size 15 to 20)
#    0.000    2.571    1.429    0.857    0.000    2.857 
#    0.000    1.429    0.000    1.714    0.000    0.000 
#    0.000    0.000    0.000    0.000    0.000    0.000 
#
# Total GULP energy -155954.184310 kJ/mol
# GULP energy per Si atom -5569.792297 kJ/mol
# Density = 1.699444 g / cm^3
# Si number density = 17.033210 Si / 1000 Ang^3
#
#
#
# Elastic Constant Matrix: (Units=GPa)
#
#
# Indices 1 2 3 4 5 6 
#
# 1 112.2839 31.2484 55.2809 0.0000 -22.3251 0.0000
# 2 31.2484 24.1954 34.2864 0.0000 -10.4920 0.0000
# 3 55.2809 34.2864 103.5296 0.0000 -27.8457 0.0000
# 4 0.0000 0.0000 0.0000 20.8538 0.0000 0.7242
# 5 -22.3251 -10.4920 -27.8457 0.0000 25.5244 0.0000
# 6 0.0000 0.0000 0.0000 0.7242 0.0000 24.9475
#
#
#
# Elastic Compliance Matrix: (Units=1/GPa)
#
#
# Indices 1 2 3 4 5 6 
#
# 1 0.014794 -0.014405 -0.001757 0.000000 0.005102 0.000000
# 2 -0.014405 0.092451 -0.022776 0.000000 0.000556 0.000000
# 3 -0.001757 -0.022776 0.021524 0.000000 0.012583 0.000000
# 4 0.000000 0.000000 0.000000 0.048001 0.000000 -0.001393
# 5 0.005102 0.000556 0.012583 0.000000 0.057597 0.000000
# 6 0.000000 0.000000 0.000000 -0.001393 0.000000 0.040125
#
#
# Mechanical properties :
#
#
# Convention : Reuss Voigt Hill
#
# Bulk Modulus (GPa) = 19.64890 53.51559 36.58224
# Shear Modulus (GPa) = 13.53796 22.21135 17.87466
#
# Velocity S-wave (km/s) = 2.82227 3.61502 3.24296
# Velocity P-wave (km/s) = 4.70967 6.99364 5.96205
#
# Compressibility (1/GPa) = 0.05089344
#
# Stress axis : x y z
#
# Youngs Moduli (GPa) = 67.59413 10.81659 46.45897
#
# Poissons Ratio (x) = 0.15581 0.08161
# Poissons Ratio (y) = 0.97369 1.05816
# Poissons Ratio (z) = 0.11874 0.24636
#
# Static dielectric constant tensor:
#      x y z
#    x 1.610550 0.000000 -0.019920 
#    y 0.000000 1.568670 0.000000 
#    z -0.019920 0.000000 1.588990 
# 
# From -- ./inp_files/319339.got.cif
#   From: 2010.05.17/outbox.cif.g08.bks.cpg/sg12_160_cif.got.tgz:319339.got - 2010.06.03 13:09:07.
