data_PCOD9182438
_publ_section_title
;
Structure prediction by ZEFSAII (Michael W. Deem and Ramdas Pophale) SiO2 
 PCOD9182438
Probable space group: C 2/M
;
_chemical_formula_sum "Si O2"
_cell_formula_units_Z 64
_cell_length_a 18.649848
_cell_length_b 12.114657
_cell_length_c 27.884362
_cell_angle_alpha 90.000000
_cell_angle_beta 154.386197
_cell_angle_gamma 90.000000
_cell_volume 2723.550143
_symmetry_space_group_name_H-M "C 2/M"
_symmetry_group_IT_number 12
_symmetry_cell_setting 'monoclinic'
loop_
_space_group_symop_operation_xyz
x,y,z
-x,y,-z
-x,-y,-z
x,-y,z
1/2+x,1/2+y,z
1/2-x,1/2+y,-z
1/2-x,1/2-y,-z
1/2+x,1/2-y,z
loop_
_atom_site_type_symbol
_atom_site_label
_atom_site_fract_x
_atom_site_fract_y
_atom_site_fract_z
Si Si1 0.366926 0.373588 0.304297
Si Si2 0.820438 0.176667 0.380679
Si Si3 0.614819 0.876407 0.963843
Si Si4 0.322262 0.617445 0.668290
Si Si5 0.002253 0.614405 0.244171
Si Si6 0.940141 0.126238 0.094968
Si Si7 0.248734 0.877643 0.516968
Si Si8 0.352781 0.324384 0.187664
O O1 0.306825 0.500000 0.267922
O O2 0.312519 0.310608 0.318955
O O3 0.565136 0.382368 0.427310
O O4 0.324920 0.321348 0.227428
O O5 0.810158 0.286255 0.407212
O O6 0.645835 0.122889 0.291017
O O7 0.000000 0.123512 0.500000
O O8 0.757700 0.874189 0.009151
O O9 0.708999 0.882962 0.071843
O O10 0.534194 0.000000 0.909344
O O11 0.539109 0.750128 0.916047
O O12 0.239460 0.500000 0.615819
O O13 0.432247 0.626114 0.782900
O O14 0.461370 0.627316 0.710432
O O15 0.912974 0.500000 0.185633
O O16 0.108989 0.619339 0.357248
O O17 0.871484 0.709704 0.170893
O O18 0.963269 0.000000 0.086838
O O19 0.250000 0.750000 0.500000
O O20 0.269681 0.000000 0.503919
#
# Coordination Sequence:
#
# PCOD9182438 Si02
#       8
#     8   8   8   8   8   8   8   8
#     4  11  21  33  52  73 103 142 182 221 269 320
#     4  11  22  35  51  74 106 138 185 226 270 316
#     4   9  16  28  50  82 112 133 165 217 268 317
#     4   9  19  37  56  76 105 141 178 221 266 320
#     4  10  20  34  51  72 105 142 180 225 268 311
#     4   8  15  30  53  78 106 139 170 209 263 321
#     4  10  19  33  51  74 100 136 180 226 270 316
#     4  10  19  33  54  79 109 137 178 217 269 322
#
# _framework density 23.498740999999999
#
# number of rings (size 3 to 8) (size 9 to 14) (size 15 to 20)
#    0.000    2.250    2.500    2.250    0.000    1.250 
#    0.000    8.125    0.000    0.750    0.000    3.500 
#    0.000    0.000    0.000    0.000    0.000    0.000 
#
# Total GULP energy -178171.455265 kJ/mol
# GULP energy per Si atom -5567.857977 kJ/mol
# Density = 2.344526 g / cm^3
# Si number density = 23.498741 Si / 1000 Ang^3
#
#
#
# Elastic Constant Matrix: (Units=GPa)
#
#
# Indices 1 2 3 4 5 6 
#
# 1 100.0708 36.8531 24.0088 -0.0006 -20.5700 -0.0002
# 2 36.8531 205.9837 19.8166 -0.0028 1.7232 -0.0001
# 3 24.0088 19.8166 67.6349 -0.0039 -6.6187 0.0001
# 4 -0.0006 -0.0028 -0.0039 5.7049 0.0007 -21.4317
# 5 -20.5700 1.7232 -6.6187 0.0007 32.7706 0.0001
# 6 -0.0002 -0.0001 0.0001 -21.4317 0.0001 7.7303
#
#
#
# Elastic Compliance Matrix: (Units=1/GPa)
#
#
# Indices 1 2 3 4 5 6 
#
# 1 0.013137 -0.002098 -0.003296 0.000000 0.007691 0.000001
# 2 -0.002098 0.005341 -0.000996 0.000000 -0.001799 -0.000001
# 3 -0.003296 -0.000996 0.016374 -0.000001 0.001290 -0.000003
# 4 0.000000 0.000000 -0.000001 -0.018618 0.000001 -0.051616
# 5 0.007691 -0.001799 0.001290 0.000001 0.035698 0.000001
# 6 0.000001 -0.000001 -0.000003 -0.051616 0.000001 -0.013740
#
#
# Mechanical properties :
#
#
# Convention : Reuss Voigt Hill
#
# Bulk Modulus (GPa) = 45.30753 59.44961 52.37857
# Shear Modulus (GPa) = 85.72014 28.77523 57.24768
#
# Velocity S-wave (km/s) = 6.04630 3.50314 4.94114
# Velocity P-wave (km/s) = 8.25024 6.45884 7.40888
#
# Compressibility (1/GPa) = 0.02207138
#
# Stress axis : x y z
#
# Youngs Moduli (GPa) = 76.12039 187.23304 61.07429
#
# Poissons Ratio (x) = 0.39274 0.20131
# Poissons Ratio (y) = 0.15967 0.06085
# Poissons Ratio (z) = 0.25091 0.18653
#
# Static dielectric constant tensor:
#      x y z
#    x 1.870230 0.000000 -0.056150 
#    y 0.000000 2.018820 0.000000 
#    z -0.056150 0.000000 1.908940 
# 
# From -- ./inp_files/379119.got.cif
#   From: 2010.05.17/outbox.cif.g08.bks.cpg/sg12_190_cif.got.tgz:379119.got - 2010.06.03 13:09:07.
