data_PCOD9182510
_publ_section_title
;
Structure prediction by ZEFSAII (Michael W. Deem and Ramdas Pophale) SiO2 
 PCOD9182510
Probable space group: C 2/M
;
_chemical_formula_sum "Si O2"
_cell_formula_units_Z 64
_cell_length_a 14.882435
_cell_length_b 7.809984
_cell_length_c 27.202601
_cell_angle_alpha 90.000000
_cell_angle_beta 90.790588
_cell_angle_gamma 90.000000
_cell_volume 3161.500283
_symmetry_space_group_name_H-M "C 2/M"
_symmetry_group_IT_number 12
_symmetry_cell_setting 'monoclinic'
loop_
_space_group_symop_operation_xyz
x,y,z
-x,y,-z
-x,-y,-z
x,-y,z
1/2+x,1/2+y,z
1/2-x,1/2+y,-z
1/2-x,1/2-y,-z
1/2+x,1/2-y,z
loop_
_atom_site_type_symbol
_atom_site_label
_atom_site_fract_x
_atom_site_fract_y
_atom_site_fract_z
Si Si1 0.162596 0.798110 0.380650
Si Si2 0.633780 0.207934 0.636415
Si Si3 0.996799 0.299345 0.189348
Si Si4 0.839456 0.798147 0.254249
Si Si5 0.501828 0.789995 0.078566
Si Si6 0.635967 0.208039 0.271260
Si Si7 0.505427 0.799515 0.445423
Si Si8 0.854609 0.705391 0.999931
O O1 0.868030 0.500000 0.362460
O O2 0.265278 0.736034 0.377096
O O3 0.118924 0.765703 0.326858
O O4 0.103661 0.714727 0.422573
O O5 0.616723 0.265555 0.692014
O O6 0.563338 0.272608 0.595657
O O7 0.835249 0.000000 0.610090
O O8 0.019402 0.500000 0.185302
O O9 0.065636 0.227457 0.230422
O O10 0.898482 0.283580 0.212127
O O11 0.002533 0.227437 0.134505
O O12 0.736878 0.735525 0.257813
O O13 0.836760 0.000000 0.245205
O O14 0.413365 0.735422 0.047336
O O15 0.500634 0.000000 0.079339
O O16 0.589245 0.736912 0.047704
O O17 0.634154 0.000000 0.272327
O O18 0.500000 0.724003 0.500000
O O19 0.481290 0.000000 0.449669
O O20 0.859780 0.500000 0.999996
O O21 0.750000 0.750000 0.000000
#
# Coordination Sequence:
#
# PCOD9182510 Si02
#       8
#     8   8   8   8   8   8   8   8
#     4  10  20  34  53  75  99 127 162 204 245 288
#     4   9  19  36  54  72  98 133 167 198 241 298
#     4  10  19  33  52  72  99 136 169 199 240 294
#     4  10  20  33  50  76 104 129 162 205 248 288
#     4   8  17  33  51  72 100 134 169 200 242 301
#     4   9  19  34  51  71  98 132 166 197 239 296
#     4  10  21  36  53  73  98 129 164 201 245 297
#     4   9  17  33  55  75  97 130 170 209 247 291
#
# _framework density 20.243554
#
# number of rings (size 3 to 8) (size 9 to 14) (size 15 to 20)
#    0.000    2.625    0.000    2.250    0.000    6.750 
#    0.000    3.750    0.000    0.000    0.000    0.000 
#    0.000    0.000    0.000    0.000    0.000    0.000 
#
# Total GULP energy -178566.293061 kJ/mol
# GULP energy per Si atom -5580.196658 kJ/mol
# Density = 2.019748 g / cm^3
# Si number density = 20.243554 Si / 1000 Ang^3
#
#
#
# Elastic Constant Matrix: (Units=GPa)
#
#
# Indices 1 2 3 4 5 6 
#
# 1 81.3013 -4.1291 43.4395 0.0000 -12.3985 0.0000
# 2 -4.1291 18.2013 -2.4860 0.0000 6.3937 0.0000
# 3 43.4395 -2.4860 128.8004 0.0000 -15.2419 0.0000
# 4 0.0000 0.0000 0.0000 13.1122 0.0000 -6.3609
# 5 -12.3985 6.3937 -15.2419 0.0000 13.4662 0.0000
# 6 0.0000 0.0000 0.0000 -6.3609 0.0000 23.2526
#
#
#
# Elastic Compliance Matrix: (Units=1/GPa)
#
#
# Indices 1 2 3 4 5 6 
#
# 1 0.016099 -0.000544 -0.004221 0.000000 0.010303 0.000000
# 2 -0.000544 0.066849 -0.002704 0.000000 -0.035300 0.000000
# 3 -0.004221 -0.002704 0.010193 0.000000 0.008934 0.000000
# 4 0.000000 0.000000 0.000000 0.087934 0.000000 0.024055
# 5 0.010303 -0.035300 0.008934 0.000000 0.110619 0.000000
# 6 0.000000 0.000000 0.000000 0.024055 0.000000 0.049586
#
#
# Mechanical properties :
#
#
# Convention : Reuss Voigt Hill
#
# Bulk Modulus (GPa) = 12.78713 33.55020 23.16867
# Shear Modulus (GPa) = 13.07932 22.73146 17.90539
#
# Velocity S-wave (km/s) = 2.54460 3.35460 2.97728
# Velocity P-wave (km/s) = 3.86829 5.62261 4.82584
#
# Compressibility (1/GPa) = 0.07820362
#
# Stress axis : x y z
#
# Youngs Moduli (GPa) = 62.11684 14.95918 98.11128
#
# Poissons Ratio (x) = 0.00813 0.41410
# Poissons Ratio (y) = 0.03377 0.26527
# Poissons Ratio (z) = 0.26218 0.04045
#
# Static dielectric constant tensor:
#      x y z
#    x 1.720700 0.000000 0.015900 
#    y 0.000000 1.740460 0.000000 
#    z 0.015900 0.000000 1.700310 
# 
# From -- ./inp_files/359845.got.cif
#   From: 2010.05.17/outbox.cif.g08.bks.cpg/sg12_180_cif.got.tgz:359845.got - 2010.06.03 13:09:07.
