data_PCOD9182154
_publ_section_title
;
Structure prediction by ZEFSAII (Michael W. Deem and Ramdas Pophale) SiO2 
 PCOD9182154
Probable space group: C 2/M
;
_chemical_formula_sum "Si O2"
_cell_formula_units_Z 56
_cell_length_a 14.890168
_cell_length_b 19.083580
_cell_length_c 12.612973
_cell_angle_alpha 90.000000
_cell_angle_beta 53.792614
_cell_angle_gamma 90.000000
_cell_volume 2891.932215
_symmetry_space_group_name_H-M "C 2/M"
_symmetry_group_IT_number 12
_symmetry_cell_setting 'monoclinic'
loop_
_space_group_symop_operation_xyz
x,y,z
-x,y,-z
-x,-y,-z
x,-y,z
1/2+x,1/2+y,z
1/2-x,1/2+y,-z
1/2-x,1/2-y,-z
1/2+x,1/2-y,z
loop_
_atom_site_type_symbol
_atom_site_label
_atom_site_fract_x
_atom_site_fract_y
_atom_site_fract_z
Si Si1 0.199058 0.660258 0.006921
Si Si2 0.699106 0.873019 0.588904
Si Si3 0.063538 0.818026 0.558418
Si Si4 0.034488 0.744672 0.789893
Si Si5 0.123447 0.664880 0.427950
Si Si6 0.152052 0.500000 0.998419
Si Si7 0.798213 0.221423 0.143292
Si Si8 0.887833 0.500000 0.215783
O O1 0.194638 0.576081 0.008075
O O2 0.288236 0.684465 0.034287
O O3 0.074950 0.695189 0.116540
O O4 0.226214 0.697781 0.874869
O O5 0.829418 0.864934 0.504768
O O6 0.634507 0.804009 0.675847
O O7 0.677691 0.881710 0.479582
O O8 0.650409 0.933442 0.693076
O O9 0.011241 0.800302 0.710672
O O10 0.104356 0.741969 0.489560
O O11 0.000000 0.846175 0.500000
O O12 0.092610 0.776728 0.856207
O O13 0.200881 0.681235 0.274537
O O14 0.000000 0.635990 0.500000
O O15 0.020372 0.500000 0.112462
O O16 0.165112 0.500000 0.863074
#
# Coordination Sequence:
#
# PCOD9182154 Si02
#       8
#     8   8   8   8   8   4   8   4
#     4  11  24  37  62  91 127 163 207 251 304 376
#     4  11  19  36  54  85 116 158 199 242 306 368
#     4  10  19  32  56  85 113 154 193 251 308 349
#     4  11  19  35  58  87 124 152 194 256 305 359
#     4  10  19  33  57  83 120 149 186 251 308 354
#     4  11  24  42  55  86 129 171 191 251 311 381
#     4  11  21  37  58  93 121 158 209 253 303 358
#     4  11  24  36  59  81 119 164 206 236 311 386
#
# _framework density 19.364215999999999
#
# number of rings (size 3 to 8) (size 9 to 14) (size 15 to 20)
#    0.000    1.286    4.286    4.714    2.000    0.000 
#    0.000    1.429    0.000    0.000    0.000    8.500 
#    0.000    0.000    0.000    0.000    0.000    0.000 
#
# Total GULP energy -155890.663712 kJ/mol
# GULP energy per Si atom -5567.523704 kJ/mol
# Density = 1.932014 g / cm^3
# Si number density = 19.364216 Si / 1000 Ang^3
#
#
#
# Elastic Constant Matrix: (Units=GPa)
#
#
# Indices 1 2 3 4 5 6 
#
# 1 111.5182 41.1331 42.6467 0.0000 25.7306 0.0000
# 2 41.1331 41.5935 26.5170 0.0000 8.4757 0.0000
# 3 42.6467 26.5170 103.2857 0.0000 13.9735 0.0000
# 4 0.0000 0.0000 0.0000 38.0047 0.0000 6.7214
# 5 25.7306 8.4757 13.9735 0.0000 28.8390 0.0000
# 6 0.0000 0.0000 0.0000 6.7214 0.0000 25.9767
#
#
#
# Elastic Compliance Matrix: (Units=1/GPa)
#
#
# Indices 1 2 3 4 5 6 
#
# 1 0.017150 -0.013439 -0.002242 0.000000 -0.010265 0.000000
# 2 -0.013439 0.040030 -0.005093 0.000000 0.002693 0.000000
# 3 -0.002242 -0.005093 0.012245 0.000000 -0.002436 0.000000
# 4 0.000000 0.000000 0.000000 0.027574 0.000000 -0.007135
# 5 -0.010265 0.002693 -0.002436 0.000000 0.044223 0.000000
# 6 0.000000 0.000000 0.000000 -0.007135 0.000000 0.040342
#
#
# Mechanical properties :
#
#
# Convention : Reuss Voigt Hill
#
# Bulk Modulus (GPa) = 35.87117 52.99900 44.43508
# Shear Modulus (GPa) = 21.51425 28.30412 24.90918
#
# Velocity S-wave (km/s) = 3.33683 3.82733 3.59046
# Velocity P-wave (km/s) = 5.78019 6.85275 6.33920
#
# Compressibility (1/GPa) = 0.02787754
#
# Stress axis : x y z
#
# Youngs Moduli (GPa) = 58.30892 24.98119 81.66823
#
# Poissons Ratio (x) = 0.33572 0.18312
# Poissons Ratio (y) = 0.78361 0.41590
# Poissons Ratio (z) = 0.13074 0.12722
#
# Static dielectric constant tensor:
#      x y z
#    x 1.702820 0.000000 0.019820 
#    y 0.000000 1.633650 0.000000 
#    z 0.019820 0.000000 1.747770 
# 
# From -- ./inp_files/146066.got.cif
#   From: 2010.05.17/outbox.cif.g08.bks.cpg/sg12_74_cif.got.tgz:146066.got - 2010.06.03 13:09:07.
