data_PCOD9182860
_publ_section_title
;
Structure prediction by ZEFSAII (Michael W. Deem and Ramdas Pophale) SiO2 
 PCOD9182860
Probable space group: C 2/M
;
_chemical_formula_sum "Si O2"
_cell_formula_units_Z 64
_cell_length_a 15.813108
_cell_length_b 7.548146
_cell_length_c 31.907426
_cell_angle_alpha 90.000000
_cell_angle_beta 46.420254
_cell_angle_gamma 90.000000
_cell_volume 2758.907192
_symmetry_space_group_name_H-M "C 2/M"
_symmetry_group_IT_number 12
_symmetry_cell_setting 'monoclinic'
loop_
_space_group_symop_operation_xyz
x,y,z
-x,y,-z
-x,-y,-z
x,-y,z
1/2+x,1/2+y,z
1/2-x,1/2+y,-z
1/2-x,1/2-y,-z
1/2+x,1/2-y,z
loop_
_atom_site_type_symbol
_atom_site_label
_atom_site_fract_x
_atom_site_fract_y
_atom_site_fract_z
Si Si1 0.733458 0.296660 0.814694
Si Si2 0.987648 0.202164 0.744810
Si Si3 0.054912 0.786903 0.630958
Si Si4 0.188553 0.788133 0.065141
Si Si5 0.382856 0.785278 0.063534
Si Si6 0.455556 0.789113 0.578687
Si Si7 0.051648 0.781774 0.814142
Si Si8 0.314647 0.783679 0.548918
O O1 0.767917 0.500000 0.796448
O O2 0.847227 0.199462 0.792600
O O3 0.635065 0.287517 0.884142
O O4 0.672683 0.225346 0.793727
O O5 0.022020 0.281440 0.688324
O O6 0.031936 0.279722 0.773373
O O7 0.032157 0.000000 0.729377
O O8 0.187509 0.723548 0.577438
O O9 0.964536 0.744524 0.624894
O O10 0.056829 0.000000 0.632168
O O11 0.274367 0.725287 0.072434
O O12 0.058532 0.723046 0.119783
O O13 0.183395 0.000000 0.070058
O O14 0.250000 0.750000 0.000000
O O15 0.383217 0.000000 0.065941
O O16 0.500000 0.730429 0.000000
O O17 0.350145 0.728667 0.584414
O O18 0.577685 0.723245 0.516743
O O19 0.456001 0.000000 0.573577
O O20 0.051830 0.000000 0.814352
O O21 0.312530 0.000000 0.548403
#
# Coordination Sequence:
#
# PCOD9182860 Si02
#       8
#     8   8   8   8   8   8   8   8
#     4  11  22  36  58  84 106 133 179 234 274 310
#     4  10  21  40  58  73 105 150 185 220 269 332
#     4  10  20  33  54  80 106 142 188 226 266 323
#     4  10  19  33  53  77 107 138 170 209 256 318
#     4  10  20  35  56  81 111 145 175 207 263 336
#     4   9  17  32  55  80 112 146 179 225 271 318
#     4   9  19  37  57  75 102 141 177 213 267 325
#     4   8  16  32  53  80 111 148 185 215 266 331
#
# _framework density 23.197590999999999
#
# number of rings (size 3 to 8) (size 9 to 14) (size 15 to 20)
#    0.000    2.375    1.250    2.250    0.000    2.250 
#    0.000    6.250    0.000    0.000    0.000    0.000 
#    0.000    0.000    0.000    0.000    0.000    0.000 
#
# Total GULP energy -178691.337201 kJ/mol
# GULP energy per Si atom -5584.104288 kJ/mol
# Density = 2.314479 g / cm^3
# Si number density = 23.197591 Si / 1000 Ang^3
#
#
#
# Elastic Constant Matrix: (Units=GPa)
#
#
# Indices 1 2 3 4 5 6 
#
# 1 116.6079 -2.6937 1.1200 0.0081 37.0497 -0.0078
# 2 -2.6937 54.8070 -7.8468 0.0269 -1.2752 -0.0293
# 3 1.1200 -7.8468 39.2174 0.0045 27.6851 -0.0034
# 4 0.0081 0.0269 0.0045 26.9761 0.0019 -4.5957
# 5 37.0497 -1.2752 27.6851 0.0019 36.5030 -0.0017
# 6 -0.0078 -0.0293 -0.0034 -4.5957 -0.0017 18.0013
#
#
#
# Elastic Compliance Matrix: (Units=1/GPa)
#
#
# Indices 1 2 3 4 5 6 
#
# 1 0.027413 0.006089 0.042891 -0.000014 -0.060141 0.000021
# 2 0.006089 0.020522 0.016765 -0.000018 -0.018178 0.000033
# 3 0.042891 0.016765 0.124726 -0.000033 -0.137544 0.000048
# 4 -0.000014 -0.000018 -0.000033 0.038755 0.000037 0.009894
# 5 -0.060141 -0.018178 -0.137544 0.000037 0.192119 -0.000054
# 6 0.000021 0.000033 0.000048 0.009894 -0.000054 0.058078
#
#
# Mechanical properties :
#
#
# Convention : Reuss Voigt Hill
#
# Bulk Modulus (GPa) = 3.28784 21.31014 12.29899
# Shear Modulus (GPa) = 11.58729 30.96628 21.27679
#
# Velocity S-wave (km/s) = 2.23738 3.65758 3.03181
# Velocity P-wave (km/s) = 2.84516 5.20034 4.19156
#
# Compressibility (1/GPa) = 0.30415076
#
# Stress axis : x y z
#
# Youngs Moduli (GPa) = 36.47915 48.72715 8.01758
#
# Poissons Ratio (x) = -0.29669 -0.34388
# Poissons Ratio (y) = -0.22211 -0.13441
# Poissons Ratio (z) = -1.56463 -0.81691
#
# Static dielectric constant tensor:
#      x y z
#    x 1.844020 -0.000010 0.035420 
#    y -0.000010 1.924900 0.000000 
#    z 0.035420 0.000000 1.860010 
# 
# From -- ./inp_files/375489.got.cif
#   From: 2010.05.17/outbox.cif.g08.bks.cpg/sg12_188_cif.got.tgz:375489.got - 2010.06.03 13:09:07.
