data_PCOD9182217
_publ_section_title
;
Structure prediction by ZEFSAII (Michael W. Deem and Ramdas Pophale) SiO2 
 PCOD9182217
Probable space group: C 2/M
;
_chemical_formula_sum "Si O2"
_cell_formula_units_Z 48
_cell_length_a 19.153737
_cell_length_b 12.934000
_cell_length_c 20.803084
_cell_angle_alpha 90.000000
_cell_angle_beta 154.783098
_cell_angle_gamma 90.000000
_cell_volume 2195.688808
_symmetry_space_group_name_H-M "C 2/M"
_symmetry_group_IT_number 12
_symmetry_cell_setting 'monoclinic'
loop_
_space_group_symop_operation_xyz
x,y,z
-x,y,-z
-x,-y,-z
x,-y,z
1/2+x,1/2+y,z
1/2-x,1/2+y,-z
1/2-x,1/2-y,-z
1/2+x,1/2-y,z
loop_
_atom_site_type_symbol
_atom_site_label
_atom_site_fract_x
_atom_site_fract_y
_atom_site_fract_z
Si Si1 0.169125 0.113223 0.802829
Si Si2 0.912999 0.323298 0.330752
Si Si3 0.461246 0.882875 0.891553
Si Si4 0.893493 0.383760 0.168813
Si Si5 0.030854 0.167561 0.818746
Si Si6 0.761279 0.819777 0.690923
O O1 0.048205 0.117447 0.762876
O O2 0.129913 0.204809 0.722226
O O3 0.165354 0.000000 0.769545
O O4 0.354573 0.129863 0.983378
O O5 0.090132 0.322580 0.510961
O O6 0.914880 0.378415 0.263625
O O7 0.781462 0.362789 0.273690
O O8 0.337335 0.794396 0.766954
O O9 0.404882 0.000000 0.832034
O O10 0.500000 0.873191 0.000000
O O11 0.931267 0.500000 0.178047
O O12 0.992198 0.289135 0.218843
O O13 0.704492 0.355387 0.997008
O O14 0.893218 0.130236 0.753095
#
# Coordination Sequence:
#
# PCOD9182217 Si02
#       6
#     8   8   8   8   8   8
#     4  10  20  38  60  89 121 150 192 242 289 345
#     4  10  23  39  58  83 118 160 194 237 287 346
#     4  10  19  32  57  87 114 150 192 235 286 341
#     4  10  21  41  63  86 114 151 195 242 289 343
#     4  10  22  37  62  89 116 150 192 241 292 341
#     4  11  22  38  56  84 122 154 193 239 289 343
#
# _framework density 21.861021000000001
#
# number of rings (size 3 to 8) (size 9 to 14) (size 15 to 20)
#    0.000    1.833    1.667    3.500    0.000    5.333 
#    0.000    9.167    0.000    0.000    0.000    0.000 
#    0.000    0.000    0.000    0.000    0.000    0.000 
#
# Total GULP energy -134003.145716 kJ/mol
# GULP energy per Si atom -5583.464405 kJ/mol
# Density = 2.181126 g / cm^3
# Si number density = 21.861021 Si / 1000 Ang^3
#
#
#
# Elastic Constant Matrix: (Units=GPa)
#
#
# Indices 1 2 3 4 5 6 
#
# 1 156.5348 3.2252 28.8849 -0.0013 5.2883 -0.0002
# 2 3.2252 89.1899 -3.4812 0.0020 -4.1705 0.0001
# 3 28.8849 -3.4812 35.5313 0.0062 1.1256 0.0005
# 4 -0.0013 0.0020 0.0062 -2.7997 0.0011 6.7516
# 5 5.2883 -4.1705 1.1256 0.0011 33.7747 -0.0006
# 6 -0.0002 0.0001 0.0005 6.7516 -0.0006 -1.2666
#
#
#
# Elastic Compliance Matrix: (Units=1/GPa)
#
#
# Indices 1 2 3 4 5 6 
#
# 1 0.007576 -0.000564 -0.006181 0.000002 -0.001050 0.000008
# 2 -0.000564 0.011359 0.001526 -0.000001 0.001440 -0.000006
# 3 -0.006181 0.001526 0.033317 -0.000009 0.000046 -0.000036
# 4 0.000002 -0.000001 -0.000009 0.030130 0.000002 0.160607
# 5 -0.001050 0.001440 0.000046 0.000002 0.029949 -0.000005
# 6 0.000008 -0.000006 -0.000036 0.160607 -0.000005 0.066598
#
#
# Mechanical properties :
#
#
# Convention : Reuss Voigt Hill
#
# Bulk Modulus (GPa) = 23.91538 37.61265 30.76401
# Shear Modulus (GPa) = 24.59348 22.78349 23.68849
#
# Velocity S-wave (km/s) = 3.35773 3.23181 3.29537
# Velocity P-wave (km/s) = 5.09862 5.58290 5.34625
#
# Compressibility (1/GPa) = 0.04181410
#
# Stress axis : x y z
#
# Youngs Moduli (GPa) = 131.99587 88.03327 30.01469
#
# Poissons Ratio (x) = 0.04968 0.18552
# Poissons Ratio (y) = 0.07449 -0.04580
# Poissons Ratio (z) = 0.81585 -0.13434
#
# Static dielectric constant tensor:
#      x y z
#    x 1.888820 0.000000 0.009630 
#    y 0.000000 1.803890 0.000000 
#    z 0.009630 0.000000 1.741550 
# 
# From -- ./inp_files/316345.got.cif
#   From: 2010.05.17/outbox.cif.g08.bks.cpg/sg12_159_cif.got.tgz:316345.got - 2010.06.03 13:09:07.
