data_PCOD9182382
_publ_section_title
;
Structure prediction by ZEFSAII (Michael W. Deem and Ramdas Pophale) SiO2 
 PCOD9182382
Probable space group: C 2/M
;
_chemical_formula_sum "Si O2"
_cell_formula_units_Z 52
_cell_length_a 21.770834
_cell_length_b 20.877847
_cell_length_c 7.341151
_cell_angle_alpha 90.000000
_cell_angle_beta 71.046738
_cell_angle_gamma 90.000000
_cell_volume 3155.853411
_symmetry_space_group_name_H-M "C 2/M"
_symmetry_group_IT_number 12
_symmetry_cell_setting 'monoclinic'
loop_
_space_group_symop_operation_xyz
x,y,z
-x,y,-z
-x,-y,-z
x,-y,z
1/2+x,1/2+y,z
1/2-x,1/2+y,-z
1/2-x,1/2-y,-z
1/2+x,1/2-y,z
loop_
_atom_site_type_symbol
_atom_site_label
_atom_site_fract_x
_atom_site_fract_y
_atom_site_fract_z
Si Si1 0.775667 0.926011 0.573233
Si Si2 0.000000 0.168071 0.500000
Si Si3 0.553315 0.738867 0.798292
Si Si4 0.174098 0.684736 0.598324
Si Si5 0.113972 0.925758 0.256926
Si Si6 0.250253 0.720917 0.199174
Si Si7 0.855450 0.121090 0.159608
O O1 0.713194 0.881313 0.594436
O O2 0.816662 0.909140 0.715689
O O3 0.829106 0.916228 0.361025
O O4 0.756449 0.000000 0.600350
O O5 0.020242 0.212727 0.647878
O O6 0.059849 0.122324 0.385437
O O7 0.599918 0.799619 0.716588
O O8 0.595740 0.677801 0.828258
O O9 0.500000 0.754082 0.000000
O O10 0.185555 0.705683 0.376590
O O11 0.212023 0.732236 0.699161
O O12 0.100237 0.000000 0.317470
O O13 0.116595 0.918363 0.035914
O O14 0.291359 0.656413 0.148039
O O15 0.250000 0.750000 0.000000
#
# Coordination Sequence:
#
# PCOD9182382 Si02
#       7
#     8   4   8   8   8   8   8
#     4  10  20  36  55  78 108 138 171 216 262 316
#     4  12  23  36  50  72 107 142 188 212 254 308
#     4  11  22  36  54  74 106 142 177 226 259 304
#     4   9  20  33  51  79 101 133 178 215 266 314
#     4  11  22  34  51  75 108 146 178 210 250 308
#     4   9  17  28  51  76 102 127 164 218 270 307
#     4  10  19  33  50  75 103 137 173 211 257 310
#
# _framework density 16.477316999999999
#
# number of rings (size 3 to 8) (size 9 to 14) (size 15 to 20)
#    0.000    1.846    3.077    2.538    2.154    0.000 
#    0.000    0.769    0.000    0.462    0.000    0.538 
#    0.000    0.000    0.000    0.000    0.000    0.000 
#
# Total GULP energy -144829.950806 kJ/mol
# GULP energy per Si atom -5570.382723 kJ/mol
# Density = 1.643981 g / cm^3
# Si number density = 16.477317 Si / 1000 Ang^3
#
#
#
# Elastic Constant Matrix: (Units=GPa)
#
#
# Indices 1 2 3 4 5 6 
#
# 1 78.9956 38.8535 51.1193 0.0000 -13.7495 0.0000
# 2 38.8535 60.5850 28.5091 0.0000 -12.5573 0.0000
# 3 51.1193 28.5091 114.9956 0.0000 -2.4724 0.0000
# 4 0.0000 0.0000 0.0000 16.0656 0.0000 -5.3798
# 5 -13.7495 -12.5573 -2.4724 0.0000 29.2649 0.0000
# 6 0.0000 0.0000 0.0000 -5.3798 0.0000 25.7862
#
#
#
# Elastic Compliance Matrix: (Units=1/GPa)
#
#
# Indices 1 2 3 4 5 6 
#
# 1 0.023970 -0.010354 -0.007956 0.000000 0.006147 0.000000
# 2 -0.010354 0.025035 -0.001480 0.000000 0.005752 0.000000
# 3 -0.007956 -0.001480 0.012529 0.000000 -0.003315 0.000000
# 4 0.000000 0.000000 0.000000 0.066920 0.000000 0.013962
# 5 0.006147 0.005752 -0.003315 0.000000 0.039247 0.000000
# 6 0.000000 0.000000 0.000000 0.013962 0.000000 0.041693
#
#
# Mechanical properties :
#
#
# Convention : Reuss Voigt Hill
#
# Bulk Modulus (GPa) = 45.55362 54.61556 50.08459
# Shear Modulus (GPa) = 19.50901 23.29630 21.40266
#
# Velocity S-wave (km/s) = 3.44465 3.76419 3.60796
# Velocity P-wave (km/s) = 6.59751 7.21873 6.91510
#
# Compressibility (1/GPa) = 0.02195215
#
# Stress axis : x y z
#
# Youngs Moduli (GPa) = 41.71858 39.94469 79.81790
#
# Poissons Ratio (x) = 0.41359 0.63506
# Poissons Ratio (y) = 0.43196 0.11813
# Poissons Ratio (z) = 0.33193 0.05912
#
# Static dielectric constant tensor:
#      x y z
#    x 1.563650 0.000000 -0.006260 
#    y 0.000000 1.552870 0.000000 
#    z -0.006260 0.000000 1.591870 
# 
# From -- ./inp_files/29020.got.cif
#   From: 2010.05.17/outbox.cif.g08.bks.cpg/sg12_15_cif.got.tgz:29020.got - 2010.06.03 13:09:07.
