data_PCOD9182164
_publ_section_title
;
Structure prediction by ZEFSAII (Michael W. Deem and Ramdas Pophale) SiO2 
 PCOD9182164
Probable space group: C 2/M
;
_chemical_formula_sum "Si O2"
_cell_formula_units_Z 56
_cell_length_a 9.393081
_cell_length_b 18.445718
_cell_length_c 27.888841
_cell_angle_alpha 90.000000
_cell_angle_beta 140.316457
_cell_angle_gamma 90.000000
_cell_volume 3085.509086
_symmetry_space_group_name_H-M "C 2/M"
_symmetry_group_IT_number 12
_symmetry_cell_setting 'monoclinic'
loop_
_space_group_symop_operation_xyz
x,y,z
-x,y,-z
-x,-y,-z
x,-y,z
1/2+x,1/2+y,z
1/2-x,1/2+y,-z
1/2-x,1/2-y,-z
1/2+x,1/2-y,z
loop_
_atom_site_type_symbol
_atom_site_label
_atom_site_fract_x
_atom_site_fract_y
_atom_site_fract_z
Si Si1 0.276556 0.082496 0.341863
Si Si2 0.363373 0.669561 0.080779
Si Si3 0.656913 0.338241 0.753643
Si Si4 0.489850 0.783439 0.553404
Si Si5 0.867003 0.297131 0.706727
Si Si6 0.464005 0.176160 0.913492
Si Si7 0.720625 0.083829 0.771828
O O1 0.454716 0.142562 0.404079
O O2 0.242073 0.088797 0.275749
O O3 0.041117 0.104496 0.304944
O O4 0.339508 0.000000 0.369487
O O5 0.466259 0.745067 0.088747
O O6 0.214564 0.682652 0.089755
O O7 0.563763 0.616282 0.145743
O O8 0.187914 0.643397 0.994898
O O9 0.757203 0.309166 0.730082
O O10 0.537171 0.270489 0.749224
O O11 0.848654 0.364829 0.839369
O O12 0.500000 0.798864 0.500000
O O13 0.250000 0.750000 0.500000
O O14 0.676389 0.726277 0.619701
O O15 0.007204 0.367466 0.728964
O O16 0.686864 0.000000 0.775510
#
# Coordination Sequence:
#
# PCOD9182164 Si02
#       7
#     8   8   8   8   8   8   8
#     4  10  22  39  60  85 116 153 190 233 293 350
#     4  10  20  34  53  87 115 148 196 239 297 336
#     4  11  19  35  60  86 115 150 193 244 282 336
#     4  11  22  39  61  88 114 145 186 239 291 347
#     4  11  22  36  61  87 114 148 196 238 288 349
#     4  10  19  32  56  86 114 146 191 248 287 331
#     4  11  22  39  57  80 118 160 198 240 287 342
#
# _framework density 18.149355
#
# number of rings (size 3 to 8) (size 9 to 14) (size 15 to 20)
#    0.000    1.429    2.857    5.143    0.000    0.857 
#    0.000    2.857    0.000    3.429    0.000    0.000 
#    0.000    0.000    0.000    0.000    0.000    0.000 
#
# Total GULP energy -156299.208835 kJ/mol
# GULP energy per Si atom -5582.114601 kJ/mol
# Density = 1.810805 g / cm^3
# Si number density = 18.149355 Si / 1000 Ang^3
#
#
#
# Elastic Constant Matrix: (Units=GPa)
#
#
# Indices 1 2 3 4 5 6 
#
# 1 55.0522 32.1182 20.5638 0.0000 7.8312 0.0000
# 2 32.1182 117.9381 59.0223 0.0000 14.3057 0.0000
# 3 20.5638 59.0223 139.6465 0.0000 9.9838 -0.0001
# 4 0.0000 0.0000 0.0000 20.4829 0.0000 -5.4227
# 5 7.8312 14.3057 9.9838 0.0000 30.4732 0.0000
# 6 0.0000 0.0000 -0.0001 -5.4227 0.0000 11.2930
#
#
#
# Elastic Compliance Matrix: (Units=1/GPa)
#
#
# Indices 1 2 3 4 5 6 
#
# 1 0.021923 -0.005206 -0.000819 0.000000 -0.002922 0.000000
# 2 -0.005206 0.012400 -0.004254 0.000000 -0.003090 0.000000
# 3 -0.000819 -0.004254 0.009135 0.000000 -0.000786 0.000000
# 4 0.000000 0.000000 0.000000 0.055932 0.000000 0.026858
# 5 -0.002922 -0.003090 -0.000786 0.000000 0.035275 0.000000
# 6 0.000000 0.000000 0.000000 0.026858 0.000000 0.101447
#
#
# Mechanical properties :
#
#
# Convention : Reuss Voigt Hill
#
# Bulk Modulus (GPa) = 43.66465 59.56060 51.61262
# Shear Modulus (GPa) = 18.91762 25.84531 22.38146
#
# Velocity S-wave (km/s) = 3.23202 3.77773 3.51548
# Velocity P-wave (km/s) = 6.16755 7.20531 6.70653
#
# Compressibility (1/GPa) = 0.02290182
#
# Stress axis : x y z
#
# Youngs Moduli (GPa) = 45.61318 80.64328 109.46310
#
# Poissons Ratio (x) = 0.41984 0.08966
# Poissons Ratio (y) = 0.23747 0.46560
# Poissons Ratio (z) = 0.03736 0.34302
#
# Static dielectric constant tensor:
#      x y z
#    x 1.607020 0.000000 0.005780 
#    y 0.000000 1.601980 0.000000 
#    z 0.005780 0.000000 1.658330 
# 
# From -- ./inp_files/356638.got.cif
#   From: 2010.05.17/outbox.cif.g08.bks.cpg/sg12_179_cif.got.tgz:356638.got - 2010.06.03 13:09:07.
