data_PCOD9182089
_publ_section_title
;
Structure prediction by ZEFSAII (Michael W. Deem and Ramdas Pophale) SiO2 
 PCOD9182089
Probable space group: C 2/M
;
_chemical_formula_sum "Si O2"
_cell_formula_units_Z 40
_cell_length_a 19.582382
_cell_length_b 13.803014
_cell_length_c 16.752467
_cell_angle_alpha 90.000000
_cell_angle_beta 156.690741
_cell_angle_gamma 90.000000
_cell_volume 1791.750743
_symmetry_space_group_name_H-M "C 2/M"
_symmetry_group_IT_number 12
_symmetry_cell_setting 'monoclinic'
loop_
_space_group_symop_operation_xyz
x,y,z
-x,y,-z
-x,-y,-z
x,-y,z
1/2+x,1/2+y,z
1/2-x,1/2+y,-z
1/2-x,1/2-y,-z
1/2+x,1/2-y,z
loop_
_atom_site_type_symbol
_atom_site_label
_atom_site_fract_x
_atom_site_fract_y
_atom_site_fract_z
Si Si1 0.629770 0.241231 0.497881
Si Si2 0.202653 0.105092 0.700173
Si Si3 0.937420 0.185709 0.742598
Si Si4 0.811237 0.390148 0.156103
Si Si5 0.427891 0.105719 0.100295
O O1 0.723096 0.302204 0.666502
O O2 0.761560 0.162490 0.600526
O O3 0.577853 0.315116 0.370015
O O4 0.456143 0.186275 0.339757
O O5 0.000000 0.101743 0.500000
O O6 0.253263 0.000000 0.718283
O O7 0.302238 0.111984 0.890147
O O8 0.954985 0.300675 0.777455
O O9 0.113153 0.137214 0.960609
O O10 0.847768 0.500000 0.221450
O O11 0.828813 0.386697 0.078258
O O12 0.513423 0.000000 0.191692
#
# Coordination Sequence:
#
# PCOD9182089 Si02
#       5
#     8   8   8   8   8
#     4  10  21  35  54  83 114 146 186 226 270 327
#     4  10  19  32  55  87 119 147 175 217 279 344
#     4  10  20  35  55  79 112 151 186 223 269 325
#     4  10  20  37  59  80 109 148 189 233 272 314
#     4   9  18  33  55  84 115 144 175 218 279 342
#
# _framework density 22.324532000000001
#
# number of rings (size 3 to 8) (size 9 to 14) (size 15 to 20)
#    0.000    2.200    0.000    4.800    0.000    4.800 
#    0.000    6.000    0.000    5.400    0.000    7.000 
#    0.000    0.000    0.000    0.000    0.000    0.000 
#
# Total GULP energy -111627.644857 kJ/mol
# GULP energy per Si atom -5581.382243 kJ/mol
# Density = 2.227372 g / cm^3
# Si number density = 22.324532 Si / 1000 Ang^3
#
#
#
# Elastic Constant Matrix: (Units=GPa)
#
#
# Indices 1 2 3 4 5 6 
#
# 1 31.5511 9.9263 -0.6621 0.0004 1.5199 0.0005
# 2 9.9263 70.3093 9.8988 0.0007 -17.0071 0.0004
# 3 -0.6621 9.8988 51.8426 0.0006 2.0707 0.0000
# 4 0.0004 0.0007 0.0006 13.7024 0.0004 -19.2260
# 5 1.5199 -17.0071 2.0707 0.0004 40.7844 0.0002
# 6 0.0005 0.0004 0.0000 -19.2260 0.0002 -5.7910
#
#
#
# Elastic Compliance Matrix: (Units=1/GPa)
#
#
# Indices 1 2 3 4 5 6 
#
# 1 0.033782 -0.005935 0.001717 0.000000 -0.003821 0.000001
# 2 -0.005935 0.017442 -0.003713 0.000000 0.007683 0.000001
# 3 0.001717 -0.003713 0.020125 0.000000 -0.002634 0.000000
# 4 0.000000 0.000000 0.000000 0.012898 0.000000 -0.042821
# 5 -0.003821 0.007683 -0.002634 0.000000 0.027999 0.000001
# 6 0.000001 0.000001 0.000000 -0.042821 0.000001 -0.030518
#
#
# Mechanical properties :
#
#
# Convention : Reuss Voigt Hill
#
# Bulk Modulus (GPa) = 18.02217 21.33654 19.67935
# Shear Modulus (GPa) = 43.07149 18.70850 30.89000
#
# Velocity S-wave (km/s) = 4.39718 2.89801 3.72382
# Velocity P-wave (km/s) = 5.81985 4.55808 5.22718
#
# Compressibility (1/GPa) = 0.05548723
#
# Stress axis : x y z
#
# Youngs Moduli (GPa) = 29.60144 57.33273 49.68878
#
# Poissons Ratio (x) = 0.34030 -0.08534
# Poissons Ratio (y) = 0.17570 0.18450
# Poissons Ratio (z) = -0.05084 0.21288
#
# Static dielectric constant tensor:
#      x y z
#    x 1.936480 0.000000 -0.000880 
#    y 0.000000 1.850710 0.000000 
#    z -0.000880 0.000000 1.875680 
# 
# From -- ./inp_files/103868.got.cif
#   From: 2010.05.17/outbox.cif.g08.bks.cpg/sg12_52_cif.got.tgz:103868.got - 2010.06.03 13:09:07.
