data_PCOD9182008
_publ_section_title
;
Structure prediction by ZEFSAII (Michael W. Deem and Ramdas Pophale) SiO2 
 PCOD9182008
Probable space group: C 2/M
;
_chemical_formula_sum "Si O2"
_cell_formula_units_Z 64
_cell_length_a 18.349684
_cell_length_b 22.345182
_cell_length_c 9.178281
_cell_angle_alpha 90.000000
_cell_angle_beta 80.906882
_cell_angle_gamma 90.000000
_cell_volume 3716.048586
_symmetry_space_group_name_H-M "C 2/M"
_symmetry_group_IT_number 12
_symmetry_cell_setting 'monoclinic'
loop_
_space_group_symop_operation_xyz
x,y,z
-x,y,-z
-x,-y,-z
x,-y,z
1/2+x,1/2+y,z
1/2-x,1/2+y,-z
1/2-x,1/2-y,-z
1/2+x,1/2-y,z
loop_
_atom_site_type_symbol
_atom_site_label
_atom_site_fract_x
_atom_site_fract_y
_atom_site_fract_z
Si Si1 0.461865 0.715656 0.853500
Si Si2 0.109959 0.692766 0.334390
Si Si3 0.910179 0.255713 0.353433
Si Si4 0.266046 0.266531 0.228917
Si Si5 0.571480 0.934290 0.282316
Si Si6 0.809796 0.165797 0.923713
Si Si7 0.685835 0.930876 0.977937
Si Si8 0.553259 0.874095 0.846481
O O1 0.419571 0.775583 0.804733
O O2 0.530051 0.708374 0.722080
O O3 0.397682 0.665756 0.869734
O O4 0.500000 0.721016 0.000000
O O5 0.086563 0.732991 0.477127
O O6 0.197904 0.692662 0.297549
O O7 0.080819 0.626163 0.370130
O O8 0.828207 0.239353 0.329831
O O9 0.930342 0.316962 0.259687
O O10 0.229846 0.203528 0.192306
O O11 0.301632 0.294334 0.072454
O O12 0.638111 0.930256 0.142957
O O13 0.494284 0.924077 0.223013
O O14 0.573811 0.000000 0.350393
O O15 0.761560 0.106417 0.961399
O O16 0.698752 0.000000 0.936236
O O17 0.629806 0.899585 0.882723
O O18 0.500000 0.858234 0.000000
#
# Coordination Sequence:
#
# PCOD9182008 Si02
#       8
#     8   8   8   8   8   8   8   8
#     4  11  22  34  54  78 107 142 174 215 269 324
#     4  11  23  35  51  79 111 141 183 219 263 318
#     4  12  21  34  53  79 109 146 169 223 270 314
#     4  10  20  33  54  76 108 137 177 224 269 319
#     4  10  20  33  50  73 107 149 181 213 254 308
#     4  10  19  32  55  83 100 137 183 218 262 316
#     4  10  19  34  55  78 104 138 184 226 260 305
#     4  10  20  31  51  77 107 141 183 210 253 315
#
# _framework density 17.222595999999999
#
# number of rings (size 3 to 8) (size 9 to 14) (size 15 to 20)
#    0.000    1.500    5.000    1.500    1.750    1.500 
#    0.000    1.875    0.000    0.375    0.000    0.000 
#    0.000    8.000    0.000    0.000    0.000    0.000 
#
# Total GULP energy -178461.998120 kJ/mol
# GULP energy per Si atom -5576.937441 kJ/mol
# Density = 1.718340 g / cm^3
# Si number density = 17.222596 Si / 1000 Ang^3
#
#
#
# Elastic Constant Matrix: (Units=GPa)
#
#
# Indices 1 2 3 4 5 6 
#
# 1 124.4023 32.0105 30.0904 0.0000 14.7803 0.0000
# 2 32.0105 49.8096 7.9708 0.0000 13.4598 0.0000
# 3 30.0904 7.9708 55.2049 0.0000 2.9710 0.0000
# 4 0.0000 0.0000 0.0000 13.1465 0.0000 -0.7726
# 5 14.7803 13.4598 2.9710 0.0000 15.5164 0.0000
# 6 0.0000 0.0000 0.0000 -0.7726 0.0000 18.9774
#
#
#
# Elastic Compliance Matrix: (Units=1/GPa)
#
#
# Indices 1 2 3 4 5 6 
#
# 1 0.011175 -0.004903 -0.005092 0.000000 -0.005417 0.000000
# 2 -0.004903 0.028746 -0.000391 0.000000 -0.020191 0.000000
# 3 -0.005092 -0.000391 0.020882 0.000000 0.001191 0.000000
# 4 0.000000 0.000000 0.000000 0.076248 0.000000 0.003104
# 5 -0.005417 -0.020191 0.001191 0.000000 0.086894 0.000000
# 6 0.000000 0.000000 0.000000 0.003104 0.000000 0.052821
#
#
# Mechanical properties :
#
#
# Convention : Reuss Voigt Hill
#
# Bulk Modulus (GPa) = 24.98080 41.06223 33.02152
# Shear Modulus (GPa) = 16.08321 20.15107 18.11714
#
# Velocity S-wave (km/s) = 3.05920 3.42429 3.24688
# Velocity P-wave (km/s) = 5.19754 6.28714 5.76813
#
# Compressibility (1/GPa) = 0.04003075
#
# Stress axis : x y z
#
# Youngs Moduli (GPa) = 89.48305 34.78719 47.88792
#
# Poissons Ratio (x) = 0.17057 0.24384
# Poissons Ratio (y) = 0.43876 0.01874
# Poissons Ratio (z) = 0.45563 0.01361
#
# Static dielectric constant tensor:
#      x y z
#    x 1.616620 0.000000 -0.009700 
#    y 0.000000 1.577620 0.000000 
#    z -0.009700 0.000000 1.613940 
# 
# From -- ./inp_files/77539.got.cif
#   From: 2010.05.17/outbox.cif.g08.bks.cpg/sg12_39_cif.got.tgz:77539.got - 2010.06.03 13:09:07.
