data_PCOD9182041
_publ_section_title
;
Structure prediction by ZEFSAII (Michael W. Deem and Ramdas Pophale) SiO2 
 PCOD9182041
Probable space group: C 2/M
;
_chemical_formula_sum "Si O2"
_cell_formula_units_Z 48
_cell_length_a 21.051610
_cell_length_b 7.696199
_cell_length_c 15.484403
_cell_angle_alpha 90.000000
_cell_angle_beta 69.283241
_cell_angle_gamma 90.000000
_cell_volume 2346.528623
_symmetry_space_group_name_H-M "C 2/M"
_symmetry_group_IT_number 12
_symmetry_cell_setting 'monoclinic'
loop_
_space_group_symop_operation_xyz
x,y,z
-x,y,-z
-x,-y,-z
x,-y,z
1/2+x,1/2+y,z
1/2-x,1/2+y,-z
1/2-x,1/2-y,-z
1/2+x,1/2-y,z
loop_
_atom_site_type_symbol
_atom_site_label
_atom_site_fract_x
_atom_site_fract_y
_atom_site_fract_z
Si Si1 0.323361 0.787463 0.184311
Si Si2 0.427603 0.203003 0.792424
Si Si3 0.172607 0.290804 0.012003
Si Si4 0.325512 0.207413 0.497217
Si Si5 0.919332 0.286739 0.295284
Si Si6 0.827591 0.202607 0.694105
O O1 0.376048 0.733139 0.232408
O O2 0.247165 0.728808 0.244784
O O3 0.322698 0.000000 0.185686
O O4 0.340837 0.730158 0.079118
O O5 0.379862 0.277790 0.891176
O O6 0.503281 0.275648 0.747143
O O7 0.386001 0.213690 0.723510
O O8 0.436938 0.000000 0.809180
O O9 0.167444 0.500000 0.013857
O O10 0.250000 0.250000 0.000000
O O11 0.250000 0.250000 0.500000
O O12 0.379687 0.270200 0.400367
O O13 0.336540 0.278869 0.587608
O O14 0.331012 0.000000 0.500233
O O15 0.919056 0.500000 0.297284
O O16 0.828422 0.000000 0.716580
#
# Coordination Sequence:
#
# PCOD9182041 Si02
#       6
#     8   8   8   8   8   8
#     4   9  17  32  55  81 107 142 181 221 272 327
#     4  10  21  36  56  84 113 144 185 230 277 330
#     4  10  19  32  55  84 110 141 183 228 273 328
#     4  11  21  36  59  85 112 146 189 232 276 329
#     4   9  19  36  56  80 113 146 180 228 282 330
#     4  11  21  36  58  82 112 148 187 230 278 330
#
# _framework density 20.455749000000001
#
# number of rings (size 3 to 8) (size 9 to 14) (size 15 to 20)
#    0.000    2.000    3.333    1.000    0.000    1.333 
#    0.000    8.333    0.000    0.000    0.000    2.333 
#    0.000    0.000    0.000    0.000    0.000    0.000 
#
# Total GULP energy -134051.578949 kJ/mol
# GULP energy per Si atom -5585.482456 kJ/mol
# Density = 2.040919 g / cm^3
# Si number density = 20.455749 Si / 1000 Ang^3
#
#
#
# Elastic Constant Matrix: (Units=GPa)
#
#
# Indices 1 2 3 4 5 6 
#
# 1 162.1067 -4.9969 92.4086 0.0000 -17.5980 0.0000
# 2 -4.9969 35.0925 -5.1407 0.0000 -6.7049 0.0000
# 3 92.4086 -5.1407 183.7000 0.0000 -6.0599 0.0000
# 4 0.0000 0.0000 0.0000 14.1064 0.0000 1.2626
# 5 -17.5980 -6.7049 -6.0599 0.0000 37.2540 0.0000
# 6 0.0000 0.0000 0.0000 1.2626 0.0000 20.6688
#
#
#
# Elastic Compliance Matrix: (Units=1/GPa)
#
#
# Indices 1 2 3 4 5 6 
#
# 1 0.009163 0.001391 -0.004443 0.000000 0.003856 0.000000
# 2 0.001391 0.029908 0.000338 0.000000 0.006095 0.000000
# 3 -0.004443 0.000338 0.007662 0.000000 -0.000792 0.000000
# 4 0.000000 0.000000 0.000000 0.071279 0.000000 -0.004354
# 5 0.003856 0.006095 -0.000792 0.000000 0.029632 0.000000
# 6 0.000000 0.000000 0.000000 -0.004354 0.000000 0.048648
#
#
# Mechanical properties :
#
#
# Convention : Reuss Voigt Hill
#
# Bulk Modulus (GPa) = 24.21014 60.60458 42.40736
# Shear Modulus (GPa) = 23.20291 34.31440 28.75866
#
# Velocity S-wave (km/s) = 3.37159 4.10017 3.75360
# Velocity P-wave (km/s) = 5.19787 7.21849 6.28985
#
# Compressibility (1/GPa) = 0.04130501
#
# Stress axis : x y z
#
# Youngs Moduli (GPa) = 109.13284 33.43569 130.51108
#
# Poissons Ratio (x) = -0.04650 0.57990
# Poissons Ratio (y) = -0.15176 -0.04418
# Poissons Ratio (z) = 0.48491 -0.01132
#
# Static dielectric constant tensor:
#      x y z
#    x 1.677750 0.000000 -0.023450 
#    y 0.000000 1.791810 0.000000 
#    z -0.023450 0.000000 1.711900 
# 
# From -- ./inp_files/229871.got.cif
#   From: 2010.05.17/outbox.cif.g08.bks.cpg/sg12_115_cif.got.tgz:229871.got - 2010.06.03 13:09:07.
