data_PCOD9182677
_publ_section_title
;
Structure prediction by ZEFSAII (Michael W. Deem and Ramdas Pophale) SiO2 
 PCOD9182677
Probable space group: C 2/M
;
_chemical_formula_sum "Si O2"
_cell_formula_units_Z 58
_cell_length_a 12.731007
_cell_length_b 16.816605
_cell_length_c 22.134606
_cell_angle_alpha 90.000000
_cell_angle_beta 30.743712
_cell_angle_gamma 90.000000
_cell_volume 2422.493794
_symmetry_space_group_name_H-M "C 2/M"
_symmetry_group_IT_number 12
_symmetry_cell_setting 'monoclinic'
loop_
_space_group_symop_operation_xyz
x,y,z
-x,y,-z
-x,-y,-z
x,-y,z
1/2+x,1/2+y,z
1/2-x,1/2+y,-z
1/2-x,1/2-y,-z
1/2+x,1/2-y,z
loop_
_atom_site_type_symbol
_atom_site_label
_atom_site_fract_x
_atom_site_fract_y
_atom_site_fract_z
Si Si1 0.037558 0.091432 0.416237
Si Si2 0.500000 0.000000 0.000000
Si Si3 0.137433 0.588401 0.277393
Si Si4 0.004425 0.807323 0.235823
Si Si5 0.743683 0.405874 0.553332
Si Si6 0.486741 0.123409 0.218538
Si Si7 0.821393 0.627251 0.993396
Si Si8 0.383292 0.263190 0.117660
O O1 0.281049 0.091334 0.288789
O O2 0.000000 0.130348 0.500000
O O3 0.910008 0.124216 0.423783
O O4 0.962474 0.000000 0.457569
O O5 0.439902 0.931882 0.979210
O O6 0.228343 0.500000 0.239518
O O7 0.286414 0.663345 0.200381
O O8 0.968709 0.600044 0.413310
O O9 0.024318 0.590794 0.267233
O O10 0.195402 0.792717 0.188078
O O11 0.818373 0.853873 0.358691
O O12 0.952935 0.717684 0.243096
O O13 0.105013 0.857789 0.132314
O O14 0.703403 0.500000 0.585707
O O15 0.669699 0.104597 0.081307
O O16 0.948751 0.709731 0.932765
O O17 0.500000 0.293387 0.000000
#
# Coordination Sequence:
#
# PCOD9182677 Si02
#       8
#     8   2   8   8   8   8   8   8
#     4  10  19  33  52  81 120 152 184 238 298 352
#     4  12  24  36  64  92 120 160 204 232 308 386
#     4  10  21  38  59  88 119 160 201 249 298 350
#     4  10  21  38  56  83 119 160 192 242 301 358
#     4  10  21  37  60  87 121 157 204 250 296 363
#     4  11  22  35  58  84 123 152 193 246 298 361
#     4  11  23  39  59  91 116 157 196 246 304 360
#     4   9  19  38  57  81 119 151 201 246 292 355
#
# _framework density 23.942270000000001
#
# number of rings (size 3 to 8) (size 9 to 14) (size 15 to 20)
#    0.000    1.793    3.448    1.655    2.897    2.483 
#    2.483    0.000    0.000    0.828    0.000    1.931 
#    0.000    0.000    0.000    0.000    0.000    0.000 
#
# Total GULP energy -161936.619907 kJ/mol
# GULP energy per Si atom -5584.021376 kJ/mol
# Density = 2.388778 g / cm^3
# Si number density = 23.942270 Si / 1000 Ang^3
#
#
#
# Elastic Constant Matrix: (Units=GPa)
#
#
# Indices 1 2 3 4 5 6 
#
# 1 60.0083 16.9899 16.0750 0.0005 2.3848 -0.0004
# 2 16.9899 105.7634 61.4041 0.0022 17.7867 -0.0011
# 3 16.0750 61.4041 130.3652 0.0457 37.6999 0.0005
# 4 0.0005 0.0022 0.0457 93.4837 -0.0003 5.3717
# 5 2.3848 17.7867 37.6999 -0.0003 27.5830 0.0001
# 6 -0.0004 -0.0011 0.0005 5.3717 0.0001 11.9635
#
#
#
# Elastic Compliance Matrix: (Units=1/GPa)
#
#
# Indices 1 2 3 4 5 6 
#
# 1 0.017679 -0.002168 -0.001854 0.000001 0.002403 0.000000
# 2 -0.002168 0.013280 -0.005896 0.000003 -0.000318 0.000000
# 3 -0.001854 -0.005896 0.015760 -0.000008 -0.017578 0.000002
# 4 0.000001 0.000003 -0.000008 0.010980 0.000009 -0.004930
# 5 0.002403 -0.000318 -0.017578 0.000009 0.060277 -0.000003
# 6 0.000000 0.000000 0.000002 -0.004930 -0.000003 0.085802
#
#
# Mechanical properties :
#
#
# Convention : Reuss Voigt Hill
#
# Bulk Modulus (GPa) = 37.19739 53.89724 45.54731
# Shear Modulus (GPa) = 21.49860 40.05054 30.77457
#
# Velocity S-wave (km/s) = 2.99981 4.09442 3.58909
# Velocity P-wave (km/s) = 5.25057 6.70168 6.02001
#
# Compressibility (1/GPa) = 0.02688361
#
# Stress axis : x y z
#
# Youngs Moduli (GPa) = 56.56355 75.30279 63.45308
#
# Poissons Ratio (x) = 0.16325 0.11763
# Poissons Ratio (y) = 0.12262 0.37411
# Poissons Ratio (z) = 0.10486 0.44397
#
# Static dielectric constant tensor:
#      x y z
#    x 1.974810 0.000000 0.019820 
#    y 0.000000 1.887820 0.000000 
#    z 0.019820 0.000000 1.941200 
# 
# From -- ./inp_files/340647.got.cif
#   From: 2010.05.17/outbox.cif.g08.bks.cpg/sg12_171_cif.got.tgz:340647.got - 2010.06.03 13:09:07.
