data_PCOD9182500
_publ_section_title
;
Structure prediction by ZEFSAII (Michael W. Deem and Ramdas Pophale) SiO2 
 PCOD9182500
Probable space group: C 2/M
;
_chemical_formula_sum "Si O2"
_cell_formula_units_Z 56
_cell_length_a 30.732655
_cell_length_b 8.644008
_cell_length_c 19.383314
_cell_angle_alpha 90.000000
_cell_angle_beta 38.469937
_cell_angle_gamma 90.000000
_cell_volume 3203.363393
_symmetry_space_group_name_H-M "C 2/M"
_symmetry_group_IT_number 12
_symmetry_cell_setting 'monoclinic'
loop_
_space_group_symop_operation_xyz
x,y,z
-x,y,-z
-x,-y,-z
x,-y,z
1/2+x,1/2+y,z
1/2-x,1/2+y,-z
1/2-x,1/2-y,-z
1/2+x,1/2-y,z
loop_
_atom_site_type_symbol
_atom_site_label
_atom_site_fract_x
_atom_site_fract_y
_atom_site_fract_z
Si Si1 0.378317 0.686041 0.761035
Si Si2 0.535924 0.184678 0.708824
Si Si3 0.117735 0.683585 0.088857
Si Si4 0.745145 0.685204 0.845505
Si Si5 0.032690 0.181986 0.560445
Si Si6 0.319457 0.185827 0.619916
Si Si7 0.689464 0.814848 0.527493
O O1 0.374455 0.500000 0.761239
O O2 0.375117 0.735883 0.845292
O O3 0.312928 0.761300 0.804314
O O4 0.454658 0.734434 0.635967
O O5 0.462073 0.211464 0.837371
O O6 0.532910 0.281776 0.642147
O O7 0.610230 0.221406 0.651031
O O8 0.538191 0.000000 0.687785
O O9 0.126363 0.500000 0.088363
O O10 0.176293 0.743756 0.964620
O O11 0.740169 0.500000 0.854340
O O12 0.761064 0.734684 0.747148
O O13 0.104381 0.260451 0.447972
O O14 0.037708 0.000000 0.540408
O O15 0.307032 0.240148 0.556817
O O16 0.320928 0.000000 0.616069
O O17 0.750000 0.750000 0.500000
O O18 0.696297 0.000000 0.518200
#
# Coordination Sequence:
#
# PCOD9182500 Si02
#       7
#     8   8   8   8   8   8   8
#     4  10  20  33  48  70  98 128 165 209 247 280
#     4   8  16  31  50  71  98 128 156 189 236 287
#     4  10  19  33  52  71  94 129 169 206 239 276
#     4  11  22  34  48  67  94 132 170 204 240 281
#     4   9  17  29  48  71  95 123 160 204 242 277
#     4   9  20  36  50  67  98 133 160 190 240 298
#     4   9  17  32  54  79 100 119 148 189 236 290
#
# _framework density 17.481625000000001
#
# number of rings (size 3 to 8) (size 9 to 14) (size 15 to 20)
#    0.000    2.571    0.000    3.000    0.000    6.286 
#    0.000    2.857    0.000    0.857    0.000    6.000 
#    0.000    0.000    0.000    0.000    0.000    0.000 
#
# Total GULP energy -156042.024549 kJ/mol
# GULP energy per Si atom -5572.929448 kJ/mol
# Density = 1.744184 g / cm^3
# Si number density = 17.481625 Si / 1000 Ang^3
#
#
#
# Elastic Constant Matrix: (Units=GPa)
#
#
# Indices 1 2 3 4 5 6 
#
# 1 103.5227 11.8245 47.4451 -0.0049 -21.3440 0.0034
# 2 11.8245 9.1299 1.7561 -0.0115 -2.9548 -0.0006
# 3 47.4451 1.7561 90.2374 -0.0106 -8.1350 -0.0006
# 4 -0.0049 -0.0115 -0.0106 25.0026 0.0050 -5.6607
# 5 -21.3440 -2.9548 -8.1350 0.0050 18.0697 -0.0018
# 6 0.0034 -0.0006 -0.0006 -5.6607 -0.0018 21.2349
#
#
#
# Elastic Compliance Matrix: (Units=1/GPa)
#
#
# Indices 1 2 3 4 5 6 
#
# 1 0.018486 -0.017424 -0.007993 -0.000012 0.015388 -0.000006
# 2 -0.017424 0.132103 0.006965 0.000065 0.004156 0.000024
# 3 -0.007993 0.006965 0.015010 0.000009 -0.001545 0.000004
# 4 -0.000012 0.000065 0.000009 0.042565 -0.000010 0.011347
# 5 0.015388 0.004156 -0.001545 -0.000010 0.073502 0.000001
# 6 -0.000006 0.000024 0.000004 0.011347 0.000001 0.050117
#
#
# Mechanical properties :
#
#
# Convention : Reuss Voigt Hill
#
# Bulk Modulus (GPa) = 7.77038 36.10460 21.93749
# Shear Modulus (GPa) = 12.14820 22.31907 17.23363
#
# Velocity S-wave (km/s) = 2.63898 3.57699 3.14317
# Velocity P-wave (km/s) = 3.70677 6.14472 5.07433
#
# Compressibility (1/GPa) = 0.12869378
#
# Stress axis : x y z
#
# Youngs Moduli (GPa) = 54.09533 7.56988 66.62351
#
# Poissons Ratio (x) = 0.13190 0.53254
# Poissons Ratio (y) = 0.94257 -0.46405
# Poissons Ratio (z) = 0.43240 -0.05273
#
# Static dielectric constant tensor:
#      x y z
#    x 1.587650 0.000000 -0.007600 
#    y 0.000000 1.595460 0.000000 
#    z -0.007600 0.000000 1.627630 
# 
# From -- ./inp_files/287909.got.cif
#   From: 2010.05.17/outbox.cif.g08.bks.cpg/sg12_144_cif.got.tgz:287909.got - 2010.06.03 13:09:07.
