data_PCOD9182457
_publ_section_title
;
Structure prediction by ZEFSAII (Michael W. Deem and Ramdas Pophale) SiO2 
 PCOD9182457
Probable space group: C 2/M
;
_chemical_formula_sum "Si O2"
_cell_formula_units_Z 64
_cell_length_a 15.084300
_cell_length_b 27.628150
_cell_length_c 9.868238
_cell_angle_alpha 90.000000
_cell_angle_beta 109.517324
_cell_angle_gamma 90.000000
_cell_volume 3876.293119
_symmetry_space_group_name_H-M "C 2/M"
_symmetry_group_IT_number 12
_symmetry_cell_setting 'monoclinic'
loop_
_space_group_symop_operation_xyz
x,y,z
-x,y,-z
-x,-y,-z
x,-y,z
1/2+x,1/2+y,z
1/2-x,1/2+y,-z
1/2-x,1/2-y,-z
1/2+x,1/2-y,z
loop_
_atom_site_type_symbol
_atom_site_label
_atom_site_fract_x
_atom_site_fract_y
_atom_site_fract_z
Si Si1 0.882246 0.827755 0.824114
Si Si2 0.954708 0.726518 0.331335
Si Si3 0.586713 0.942749 0.144815
Si Si4 0.921344 0.171321 0.167991
Si Si5 0.459487 0.054845 0.329475
Si Si6 0.814660 0.640554 0.224945
Si Si7 0.777603 0.637698 0.884043
Si Si8 0.917651 0.716782 0.841904
O O1 0.786588 0.856738 0.755473
O O2 0.876897 0.770291 0.794647
O O3 0.970388 0.846357 0.780316
O O4 0.900964 0.827676 0.996085
O O5 0.922857 0.775356 0.236693
O O6 0.871243 0.688122 0.299468
O O7 0.000000 0.737497 0.500000
O O8 0.030960 0.701906 0.270180
O O9 0.543359 0.931686 0.269520
O O10 0.675557 0.910900 0.149087
O O11 0.606079 0.000000 0.144642
O O12 0.500000 0.930858 0.000000
O O13 0.834782 0.142551 0.189473
O O14 0.500000 0.054015 0.500000
O O15 0.375681 0.092967 0.281172
O O16 0.429257 0.000000 0.275314
O O17 0.798976 0.642365 0.055016
O O18 0.835303 0.681332 0.844710
O O19 0.000000 0.718428 0.000000
#
# Coordination Sequence:
#
# PCOD9182457 Si02
#       8
#     8   8   8   8   8   8   8   8
#     4   9  17  32  51  69  95 129 172 209 233 278
#     4  11  21  32  46  72 106 130 159 204 250 291
#     4  10  19  33  51  76 103 124 156 200 245 290
#     4   9  18  34  47  69  98 133 167 203 243 280
#     4  10  21  36  52  75 107 132 153 192 249 305
#     4  11  19  30  51  76  96 130 169 202 241 290
#     4  11  19  29  54  75  94 129 173 203 237 290
#     4  11  17  31  48  70  97 128 169 200 236 292
#
# _framework density 16.510618000000001
#
# number of rings (size 3 to 8) (size 9 to 14) (size 15 to 20)
#    0.000    1.750    5.000    2.250    0.000    2.000 
#    0.000    8.125    0.000    0.750    0.000    3.500 
#    0.000    3.500    0.000    0.000    0.000    0.000 
#
# Total GULP energy -178324.856499 kJ/mol
# GULP energy per Si atom -5572.651766 kJ/mol
# Density = 1.647304 g / cm^3
# Si number density = 16.510618 Si / 1000 Ang^3
#
#
#
# Elastic Constant Matrix: (Units=GPa)
#
#
# Indices 1 2 3 4 5 6 
#
# 1 167.1560 71.8308 24.5998 0.0000 1.1301 0.0000
# 2 71.8308 65.3179 9.2716 0.0000 6.7510 0.0000
# 3 24.5998 9.2716 45.0653 0.0000 -8.4371 0.0000
# 4 0.0000 0.0000 0.0000 11.2018 0.0000 -2.2085
# 5 1.1301 6.7510 -8.4371 0.0000 13.0124 0.0000
# 6 0.0000 0.0000 0.0000 -2.2085 0.0000 27.4303
#
#
#
# Elastic Compliance Matrix: (Units=1/GPa)
#
#
# Indices 1 2 3 4 5 6 
#
# 1 0.012132 -0.013280 -0.003184 0.000000 0.003771 0.000000
# 2 -0.013280 0.032046 -0.002550 0.000000 -0.017126 0.000000
# 3 -0.003184 -0.002550 0.028172 0.000000 0.019866 0.000000
# 4 0.000000 0.000000 0.000000 0.090712 0.000000 0.007304
# 5 0.003771 -0.017126 0.019866 0.000000 0.098288 0.000000
# 6 0.000000 0.000000 0.000000 0.007304 0.000000 0.037044
#
#
# Mechanical properties :
#
#
# Convention : Reuss Voigt Hill
#
# Bulk Modulus (GPa) = 29.13640 54.32707 41.73173
# Shear Modulus (GPa) = 14.37347 21.78470 18.07908
#
# Velocity S-wave (km/s) = 2.95372 3.63634 3.31266
# Velocity P-wave (km/s) = 5.41461 7.11382 6.32157
#
# Compressibility (1/GPa) = 0.03432134
#
# Stress axis : x y z
#
# Youngs Moduli (GPa) = 82.42579 31.20557 35.49582
#
# Poissons Ratio (x) = 0.41440 0.11303
# Poissons Ratio (y) = 1.09458 0.09053
# Poissons Ratio (z) = 0.26248 0.07958
#
# Static dielectric constant tensor:
#      x y z
#    x 1.582950 0.000000 -0.000120 
#    y 0.000000 1.549550 0.000000 
#    z -0.000120 0.000000 1.558710 
# 
# From -- ./inp_files/67013.got.cif
#   From: 2010.05.17/outbox.cif.g08.bks.cpg/sg12_34_cif.got.tgz:67013.got - 2010.06.03 13:09:07.
