data_PCOD9182900
_publ_section_title
;
Structure prediction by ZEFSAII (Michael W. Deem and Ramdas Pophale) SiO2 
 PCOD9182900
Probable space group: C 2/M
;
_chemical_formula_sum "Si O2"
_cell_formula_units_Z 44
_cell_length_a 35.122909
_cell_length_b 13.332576
_cell_length_c 5.188466
_cell_angle_alpha 90.000000
_cell_angle_beta 95.914238
_cell_angle_gamma 90.000000
_cell_volume 2416.716478
_symmetry_space_group_name_H-M "C 2/M"
_symmetry_group_IT_number 12
_symmetry_cell_setting 'monoclinic'
loop_
_space_group_symop_operation_xyz
x,y,z
-x,y,-z
-x,-y,-z
x,-y,z
1/2+x,1/2+y,z
1/2-x,1/2+y,-z
1/2-x,1/2-y,-z
1/2+x,1/2-y,z
loop_
_atom_site_type_symbol
_atom_site_label
_atom_site_fract_x
_atom_site_fract_y
_atom_site_fract_z
Si Si1 0.206552 0.785994 0.946300
Si Si2 0.144298 0.616281 0.930279
Si Si3 0.026501 0.000000 0.267941
Si Si4 0.391273 0.796541 0.589505
Si Si5 0.527074 0.720967 0.268451
Si Si6 0.830552 0.118870 0.573797
O O1 0.191496 0.848483 0.181814
O O2 0.250000 0.750000 0.000000
O O3 0.181342 0.685014 0.916311
O O4 0.196272 0.850009 0.685488
O O5 0.152005 0.500000 0.895797
O O6 0.114601 0.656803 0.696349
O O7 0.128984 0.637086 0.205953
O O8 0.045444 0.891690 0.277266
O O9 0.000000 0.000000 0.500000
O O10 0.000000 0.000000 0.000000
O O11 0.435896 0.789585 0.687919
O O12 0.368416 0.689705 0.579975
O O13 0.500000 0.729610 0.500000
O O14 0.500000 0.733908 0.000000
O O15 0.838978 0.000000 0.577884
#
# Coordination Sequence:
#
# PCOD9182900 Si02
#       6
#     8   8   4   8   8   8
#     4  10  21  38  57  85 114 142 185 229 266 328
#     4  10  21  38  58  80 106 146 190 228 273 317
#     4   8  16  28  44  72 102 132 168 204 254 326
#     4  10  21  36  57  81 109 145 184 228 270 332
#     4  10  19  33  53  78 109 142 178 224 276 325
#     4  10  21  36  56  83 116 148 177 216 277 334
#
# _framework density 18.206520000000001
#
# number of rings (size 3 to 8) (size 9 to 14) (size 15 to 20)
#    0.000    2.182    0.000    2.727    1.273    1.455 
#    0.000    0.000    0.000   10.909    0.000    0.000 
#    0.000    0.000    0.000    0.000    0.000    0.000 
#
# Total GULP energy -122656.270291 kJ/mol
# GULP energy per Si atom -5575.285013 kJ/mol
# Density = 1.816508 g / cm^3
# Si number density = 18.206520 Si / 1000 Ang^3
#
#
#
# Elastic Constant Matrix: (Units=GPa)
#
#
# Indices 1 2 3 4 5 6 
#
# 1 67.3297 18.3989 22.9338 0.0000 21.9838 0.0000
# 2 18.3989 111.8018 23.7593 0.0000 2.6696 0.0000
# 3 22.9338 23.7593 121.7134 0.0000 8.2355 0.0000
# 4 0.0000 0.0000 0.0000 13.2023 0.0000 1.7385
# 5 21.9838 2.6696 8.2355 0.0000 18.8877 0.0000
# 6 0.0000 0.0000 0.0000 1.7385 0.0000 8.9130
#
#
#
# Elastic Compliance Matrix: (Units=1/GPa)
#
#
# Indices 1 2 3 4 5 6 
#
# 1 0.025827 -0.003072 -0.002331 0.000000 -0.028610 0.000000
# 2 -0.003072 0.009702 -0.001509 0.000000 0.002862 0.000000
# 3 -0.002331 -0.001509 0.009018 0.000000 -0.001006 0.000000
# 4 0.000000 0.000000 0.000000 0.077741 0.000000 -0.015164
# 5 -0.028610 0.002862 -0.001006 0.000000 0.086279 0.000000
# 6 0.000000 0.000000 0.000000 -0.015164 0.000000 0.115153
#
#
# Mechanical properties :
#
#
# Convention : Reuss Voigt Hill
#
# Bulk Modulus (GPa) = 32.54765 47.89209 40.21987
# Shear Modulus (GPa) = 14.37670 23.91747 19.14708
#
# Velocity S-wave (km/s) = 2.81311 3.62840 3.24645
# Velocity P-wave (km/s) = 5.33547 6.62689 6.01593
#
# Compressibility (1/GPa) = 0.03072418
#
# Stress axis : x y z
#
# Youngs Moduli (GPa) = 38.71879 103.06928 110.89167
#
# Poissons Ratio (x) = 0.31661 0.25849
# Poissons Ratio (y) = 0.11894 0.16731
# Poissons Ratio (z) = 0.09025 0.15551
#
# Static dielectric constant tensor:
#      x y z
#    x 1.583110 0.000000 0.003910 
#    y 0.000000 1.638310 0.000000 
#    z 0.003910 0.000000 1.622700 
# 
# From -- ./inp_files/30898.got.cif
#   From: 2010.05.17/outbox.cif.g08.bks.cpg/sg12_16_cif.got.tgz:30898.got - 2010.06.03 13:09:07.
