data_PCOD9182004
_publ_section_title
;
Structure prediction by ZEFSAII (Michael W. Deem and Ramdas Pophale) SiO2 
 PCOD9182004
Probable space group: C 2/M
;
_chemical_formula_sum "Si O2"
_cell_formula_units_Z 64
_cell_length_a 14.160168
_cell_length_b 20.334401
_cell_length_c 13.171278
_cell_angle_alpha 90.000000
_cell_angle_beta 67.959747
_cell_angle_gamma 90.000000
_cell_volume 3515.362927
_symmetry_space_group_name_H-M "C 2/M"
_symmetry_group_IT_number 12
_symmetry_cell_setting 'monoclinic'
loop_
_space_group_symop_operation_xyz
x,y,z
-x,y,-z
-x,-y,-z
x,-y,z
1/2+x,1/2+y,z
1/2-x,1/2+y,-z
1/2-x,1/2-y,-z
1/2+x,1/2-y,z
loop_
_atom_site_type_symbol
_atom_site_label
_atom_site_fract_x
_atom_site_fract_y
_atom_site_fract_z
Si Si1 0.257288 0.841229 0.277059
Si Si2 0.391120 0.708829 0.250219
Si Si3 0.872058 0.217891 0.842971
Si Si4 0.049159 0.420625 0.872109
Si Si5 0.228386 0.171478 0.513505
Si Si6 0.879175 0.576972 0.564639
Si Si7 0.294513 0.333481 0.085648
Si Si8 0.368154 0.922071 0.800349
O O1 0.323258 0.774556 0.266534
O O2 0.171546 0.828273 0.228042
O O3 0.340580 0.892161 0.200129
O O4 0.208516 0.853583 0.407388
O O5 0.508229 0.728659 0.214777
O O6 0.355321 0.667900 0.363370
O O7 0.365782 0.670995 0.155610
O O8 0.800733 0.282452 0.865074
O O9 0.852109 0.186574 0.961119
O O10 0.054384 0.500000 0.871957
O O11 0.968501 0.398809 0.818730
O O12 0.000000 0.399079 0.000000
O O13 0.250000 0.250000 0.500000
O O14 0.322888 0.127538 0.513834
O O15 0.846486 0.500000 0.565061
O O16 0.859806 0.600553 0.687573
O O17 0.000000 0.578113 0.500000
O O18 0.234815 0.401741 0.101830
O O19 0.378104 0.000000 0.791268
#
# Coordination Sequence:
#
# PCOD9182004 Si02
#       8
#     8   8   8   8   8   8   8   8
#     4  10  21  35  52  79 112 145 186 226 283 338
#     4  10  20  36  54  78 111 146 188 231 283 335
#     4  10  21  33  55  80 105 149 184 229 282 342
#     4  10  20  34  55  84 117 150 184 230 291 358
#     4  10  21  38  52  82 119 152 189 236 293 351
#     4  10  20  35  59  88 115 150 194 242 299 356
#     4  10  19  35  55  80 110 137 186 235 284 335
#     4  10  19  32  55  82 109 143 179 228 289 337
#
# _framework density 18.205801999999998
#
# number of rings (size 3 to 8) (size 9 to 14) (size 15 to 20)
#    0.000    2.000    1.250    2.625    0.000    5.000 
#    0.000    0.000    0.000    3.750    0.000    1.750 
#    0.000    0.000    0.000    0.000    0.000    0.000 
#
# Total GULP energy -178383.371143 kJ/mol
# GULP energy per Si atom -5574.480348 kJ/mol
# Density = 1.816436 g / cm^3
# Si number density = 18.205802 Si / 1000 Ang^3
#
#
#
# Elastic Constant Matrix: (Units=GPa)
#
#
# Indices 1 2 3 4 5 6 
#
# 1 83.3298 13.0364 37.5520 0.0000 10.0980 0.0000
# 2 13.0364 19.9806 18.9656 0.0000 10.6206 0.0000
# 3 37.5520 18.9656 119.4784 0.0000 13.9127 0.0000
# 4 0.0000 0.0000 0.0000 20.5396 0.0000 -5.3521
# 5 10.0980 10.6206 13.9127 0.0000 26.0832 0.0000
# 6 0.0000 0.0000 0.0000 -5.3521 0.0000 20.2059
#
#
#
# Elastic Compliance Matrix: (Units=1/GPa)
#
#
# Indices 1 2 3 4 5 6 
#
# 1 0.014634 -0.005309 -0.003570 0.000000 -0.001599 0.000000
# 2 -0.005309 0.072962 -0.007136 0.000000 -0.023847 0.000000
# 3 -0.003570 -0.007136 0.010796 0.000000 -0.001470 0.000000
# 4 0.000000 0.000000 0.000000 0.052296 0.000000 0.013852
# 5 -0.001599 -0.023847 -0.001470 0.000000 0.049452 0.000000
# 6 0.000000 0.000000 0.000000 0.013852 0.000000 0.053160
#
#
# Mechanical properties :
#
#
# Convention : Reuss Voigt Hill
#
# Bulk Modulus (GPa) = 15.06920 40.21074 27.63997
# Shear Modulus (GPa) = 16.26278 23.58140 19.92209
#
# Velocity S-wave (km/s) = 2.99201 3.60289 3.31157
# Velocity P-wave (km/s) = 4.49792 6.28032 5.46231
#
# Compressibility (1/GPa) = 0.06636051
#
# Stress axis : x y z
#
# Youngs Moduli (GPa) = 68.33474 13.70584 92.62747
#
# Poissons Ratio (x) = 0.07276 0.33073
# Poissons Ratio (y) = 0.36276 0.66102
# Poissons Ratio (z) = 0.24399 0.09781
#
# Static dielectric constant tensor:
#      x y z
#    x 1.602000 0.000000 0.007000 
#    y 0.000000 1.655890 0.000000 
#    z 0.007000 0.000000 1.683690 
# 
# From -- ./inp_files/135346.got.cif
#   From: 2010.05.17/outbox.cif.g08.bks.cpg/sg12_68_cif.got.tgz:135346.got - 2010.06.03 13:09:07.
