data_PCOD9182307
_publ_section_title
;
Structure prediction by ZEFSAII (Michael W. Deem and Ramdas Pophale) SiO2 
 PCOD9182307
Probable space group: C 2/M
;
_chemical_formula_sum "Si O2"
_cell_formula_units_Z 56
_cell_length_a 19.059306
_cell_length_b 19.725177
_cell_length_c 18.228174
_cell_angle_alpha 90.000000
_cell_angle_beta 154.926738
_cell_angle_gamma 90.000000
_cell_volume 2904.078237
_symmetry_space_group_name_H-M "C 2/M"
_symmetry_group_IT_number 12
_symmetry_cell_setting 'monoclinic'
loop_
_space_group_symop_operation_xyz
x,y,z
-x,y,-z
-x,-y,-z
x,-y,z
1/2+x,1/2+y,z
1/2-x,1/2+y,-z
1/2-x,1/2-y,-z
1/2+x,1/2-y,z
loop_
_atom_site_type_symbol
_atom_site_label
_atom_site_fract_x
_atom_site_fract_y
_atom_site_fract_z
Si Si1 0.830711 0.169697 0.794784
Si Si2 0.103119 0.579562 0.292590
Si Si3 0.218846 0.711943 0.351565
Si Si4 0.483915 0.730988 0.258626
Si Si5 0.225222 0.636373 0.950581
Si Si6 0.848733 0.424010 0.265707
Si Si7 0.729984 0.922946 0.573557
O O1 0.787609 0.245068 0.728404
O O2 0.697830 0.132036 0.719621
O O3 0.834328 0.126756 0.722691
O O4 0.000000 0.167882 0.000000
O O5 0.118718 0.500000 0.291687
O O6 0.171146 0.633335 0.299054
O O7 0.206237 0.595056 0.465603
O O8 0.912807 0.598105 0.131572
O O9 0.392694 0.721436 0.557201
O O10 0.085693 0.743479 0.283546
O O11 0.383401 0.663059 0.144095
O O12 0.359305 0.793134 0.157159
O O13 0.252157 0.590969 0.904399
O O14 0.813661 0.500000 0.260561
O O15 0.040978 0.421063 0.424920
O O16 0.790005 0.000000 0.635680
#
# Coordination Sequence:
#
# PCOD9182307 Si02
#       7
#     8   8   8   8   8   8   8
#     4  12  23  32  45  68 102 140 175 202 231 281
#     4   9  18  34  56  76  97 127 163 210 264 305
#     4  10  19  33  48  69 101 133 168 204 249 300
#     4   9  17  30  52  75  97 127 163 213 256 289
#     4   9  16  30  52  77 100 124 166 210 249 292
#     4  10  20  33  48  69 104 144 171 193 232 295
#     4   9  18  33  51  72 100 134 168 200 240 291
#
# _framework density 19.283227
#
# number of rings (size 3 to 8) (size 9 to 14) (size 15 to 20)
#    0.000    2.286    0.000    6.429    0.000    2.286 
#    0.000    2.857    0.000    0.429    0.000    0.000 
#    0.000    4.571    0.000    0.000    0.000    0.000 
#
# Total GULP energy -156361.313117 kJ/mol
# GULP energy per Si atom -5584.332611 kJ/mol
# Density = 1.923934 g / cm^3
# Si number density = 19.283227 Si / 1000 Ang^3
#
#
#
# Elastic Constant Matrix: (Units=GPa)
#
#
# Indices 1 2 3 4 5 6 
#
# 1 33.0955 35.9228 5.9156 0.0026 -3.7290 0.0018
# 2 35.9228 130.9079 41.0244 -0.0003 -11.6771 -0.0007
# 3 5.9156 41.0244 91.9609 0.0011 3.8770 0.0010
# 4 0.0026 -0.0003 0.0011 33.2727 0.0020 -4.7199
# 5 -3.7290 -11.6771 3.8770 0.0020 9.9896 0.0012
# 6 0.0018 -0.0007 0.0010 -4.7199 0.0012 35.9173
#
#
#
# Elastic Compliance Matrix: (Units=1/GPa)
#
#
# Indices 1 2 3 4 5 6 
#
# 1 0.043712 -0.012910 0.002944 -0.000004 0.000083 -0.000003
# 2 -0.012910 0.014416 -0.006209 0.000001 0.014442 0.000001
# 3 0.002944 -0.006209 0.013943 0.000000 -0.011571 0.000000
# 4 -0.000004 0.000001 0.000000 0.030626 -0.000007 0.004024
# 5 0.000083 0.014442 -0.011571 -0.000007 0.121506 -0.000004
# 6 -0.000003 0.000001 0.000000 0.004024 -0.000004 0.028371
#
#
# Mechanical properties :
#
#
# Convention : Reuss Voigt Hill
#
# Bulk Modulus (GPa) = 25.17679 46.85443 36.01561
# Shear Modulus (GPa) = 16.76929 27.37604 22.07266
#
# Velocity S-wave (km/s) = 2.95215 3.77195 3.38695
# Velocity P-wave (km/s) = 4.97040 6.58187 5.83206
#
# Compressibility (1/GPa) = 0.03971913
#
# Stress axis : x y z
#
# Youngs Moduli (GPa) = 22.87699 69.36825 71.72236
#
# Poissons Ratio (x) = 0.89556 -0.21115
# Poissons Ratio (y) = 0.29535 0.44535
# Poissons Ratio (z) = -0.06735 0.43073
#
# Static dielectric constant tensor:
#      x y z
#    x 1.687330 0.000000 0.021340 
#    y 0.000000 1.705270 0.000000 
#    z 0.021340 0.000000 1.697980 
# 
# From -- ./inp_files/227658.got.cif
#   From: 2010.05.17/outbox.cif.g08.bks.cpg/sg12_114_cif.got.tgz:227658.got - 2010.06.03 13:09:07.
