data_PCOD9182142
_publ_section_title
;
Structure prediction by ZEFSAII (Michael W. Deem and Ramdas Pophale) SiO2 
 PCOD9182142
Probable space group: C 2/M
;
_chemical_formula_sum "Si O2"
_cell_formula_units_Z 58
_cell_length_a 26.091529
_cell_length_b 7.602585
_cell_length_c 23.466056
_cell_angle_alpha 90.000000
_cell_angle_beta 149.836874
_cell_angle_gamma 90.000000
_cell_volume 2338.867069
_symmetry_space_group_name_H-M "C 2/M"
_symmetry_group_IT_number 12
_symmetry_cell_setting 'monoclinic'
loop_
_space_group_symop_operation_xyz
x,y,z
-x,y,-z
-x,-y,-z
x,-y,z
1/2+x,1/2+y,z
1/2-x,1/2+y,-z
1/2-x,1/2-y,-z
1/2+x,1/2-y,z
loop_
_atom_site_type_symbol
_atom_site_label
_atom_site_fract_x
_atom_site_fract_y
_atom_site_fract_z
Si Si1 0.577092 0.801143 0.708320
Si Si2 0.355529 0.712332 0.671913
Si Si3 0.459825 0.700925 0.086649
Si Si4 0.132529 0.290303 0.883551
Si Si5 0.122682 0.792593 0.437865
Si Si6 0.844321 0.293131 0.337365
Si Si7 0.884763 0.299849 0.900796
Si Si8 0.000000 0.000000 0.500000
O O1 0.600922 0.716347 0.791878
O O2 0.455205 0.801292 0.594923
O O3 0.626356 0.726876 0.699059
O O4 0.617706 0.000000 0.749636
O O5 0.362905 0.500000 0.678528
O O6 0.427362 0.776134 0.792441
O O7 0.238861 0.762583 0.567087
O O8 0.386240 0.772128 0.637020
O O9 0.466328 0.500000 0.073515
O O10 0.416882 0.704918 0.109001
O O11 0.386980 0.795077 0.971982
O O12 0.111721 0.500000 0.865955
O O13 0.250000 0.250000 0.000000
O O14 0.102200 0.000000 0.418934
O O15 0.872502 0.500000 0.371212
O O16 0.720984 0.281401 0.223383
O O17 0.916242 0.155992 0.439178
O O18 0.885733 0.500000 0.881424
O O19 0.000000 0.226460 0.000000
#
# Coordination Sequence:
#
# PCOD9182142 Si02
#       8
#     8   8   8   8   8   8   8   2
#     4  10  22  39  61  94 134 178 225 274 346 421
#     4   9  19  35  52  82 126 175 222 276 335 408
#     4  11  22  39  62  94 133 175 228 281 348 425
#     4  11  22  36  58  90 128 170 215 267 327 410
#     4  10  19  32  56  84 124 175 223 276 340 404
#     4  11  25  49  79 110 146 190 240 303 371 441
#     4  11  25  48  75 104 139 185 242 309 379 438
#     4  12  26  52  78 110 144 188 242 302 366 430
#
# _framework density 24.798331999999998
#
# number of rings (size 3 to 8) (size 9 to 14) (size 15 to 20)
#    0.000    1.517    2.069    2.690    0.966    4.414 
#    2.483    0.000    0.000    0.000    0.000    0.000 
#    0.000    0.000    0.000    0.000    0.000    0.000 
#
# Total GULP energy -161769.691150 kJ/mol
# GULP energy per Si atom -5578.265212 kJ/mol
# Density = 2.474189 g / cm^3
# Si number density = 24.798332 Si / 1000 Ang^3
#
#
#
# Elastic Constant Matrix: (Units=GPa)
#
#
# Indices 1 2 3 4 5 6 
#
# 1 70.4035 7.7724 11.7573 0.0000 11.1591 0.0000
# 2 7.7724 124.4456 31.6500 0.0000 0.5159 0.0000
# 3 11.7573 31.6500 118.0495 0.0000 23.3368 0.0000
# 4 0.0000 0.0000 0.0000 19.2977 0.0000 14.0075
# 5 11.1591 0.5159 23.3368 0.0000 39.9564 0.0000
# 6 0.0000 0.0000 0.0000 14.0075 0.0000 9.0400
#
#
#
# Elastic Compliance Matrix: (Units=1/GPa)
#
#
# Indices 1 2 3 4 5 6 
#
# 1 0.014991 -0.000789 -0.000515 0.000000 -0.003876 0.000000
# 2 -0.000789 0.008735 -0.002583 0.000000 0.001616 0.000000
# 3 -0.000515 -0.002583 0.010378 0.000000 -0.005884 0.000000
# 4 0.000000 0.000000 0.000000 -0.415487 0.000000 0.643795
# 5 -0.003876 0.001616 -0.005884 0.000000 0.029525 0.000000
# 6 0.000000 0.000000 0.000000 0.643795 0.000000 -0.886936
#
#
# Mechanical properties :
#
#
# Convention : Reuss Voigt Hill
#
# Bulk Modulus (GPa) = 37.97983 46.13977 42.05980
# Shear Modulus (GPa) = -4.09084 31.10674 13.50795
#
# Velocity S-wave (km/s) = -1.28578 3.54558 2.33644
# Velocity P-wave (km/s) = 3.62552 5.95045 4.92708
#
# Compressibility (1/GPa) = 0.02632976
#
# Stress axis : x y z
#
# Youngs Moduli (GPa) = 66.70526 114.48047 96.35735
#
# Poissons Ratio (x) = 0.09034 0.04966
# Poissons Ratio (y) = 0.05264 0.24888
# Poissons Ratio (z) = 0.03438 0.29569
#
# Static dielectric constant tensor:
#      x y z
#    x 2.035860 0.000000 -0.048800 
#    y 0.000000 2.197940 0.000000 
#    z -0.048800 0.000000 2.021710 
# 
# From -- ./inp_files/351542.got.cif
#   From: 2010.05.17/outbox.cif.g08.bks.cpg/sg12_176_cif.got.tgz:351542.got - 2010.06.03 13:09:07.
