data_PCOD9182218
_publ_section_title
;
Structure prediction by ZEFSAII (Michael W. Deem and Ramdas Pophale) SiO2 
 PCOD9182218
Probable space group: C 2/M
;
_chemical_formula_sum "Si O2"
_cell_formula_units_Z 56
_cell_length_a 9.939221
_cell_length_b 19.608269
_cell_length_c 18.594421
_cell_angle_alpha 90.000000
_cell_angle_beta 58.999948
_cell_angle_gamma 90.000000
_cell_volume 3106.272999
_symmetry_space_group_name_H-M "C 2/M"
_symmetry_group_IT_number 12
_symmetry_cell_setting 'monoclinic'
loop_
_space_group_symop_operation_xyz
x,y,z
-x,y,-z
-x,-y,-z
x,-y,z
1/2+x,1/2+y,z
1/2-x,1/2+y,-z
1/2-x,1/2-y,-z
1/2+x,1/2-y,z
loop_
_atom_site_type_symbol
_atom_site_label
_atom_site_fract_x
_atom_site_fract_y
_atom_site_fract_z
Si Si1 0.187116 0.193187 0.188249
Si Si2 0.915987 0.309742 0.599355
Si Si3 0.586536 0.688807 0.636592
Si Si4 0.021739 0.419689 0.674691
Si Si5 0.161035 0.077035 0.499558
Si Si6 0.837081 0.683694 0.006035
Si Si7 0.984494 0.670967 0.823532
O O1 0.231439 0.156139 0.100741
O O2 0.114413 0.266875 0.185190
O O3 0.347487 0.196358 0.190759
O O4 0.049260 0.161096 0.273834
O O5 0.738807 0.285254 0.636641
O O6 0.000000 0.322754 0.500000
O O7 0.012660 0.250957 0.612663
O O8 0.915289 0.377014 0.648560
O O9 0.649900 0.631584 0.565410
O O10 0.987586 0.500000 0.685768
O O11 0.195920 0.409789 0.593894
O O12 0.010315 0.385299 0.755692
O O13 0.000000 0.080795 0.500000
O O14 0.180675 0.000000 0.522454
O O15 0.750000 0.750000 0.000000
O O16 0.888005 0.644113 0.920041
O O17 0.000000 0.703838 0.000000
#
# Coordination Sequence:
#
# PCOD9182218 Si02
#       7
#     8   8   8   8   8   8   8
#     4  10  19  32  57  87 119 142 178 230 284 334
#     4  12  25  38  56  84 113 149 189 240 285 329
#     4  12  23  36  59  83 116 144 185 233 285 331
#     4  11  24  40  57  78 111 154 196 232 277 339
#     4  10  22  38  56  79 110 150 189 227 277 334
#     4   8  16  30  51  82 116 142 173 220 277 336
#     4  10  19  35  57  85 115 145 185 228 280 334
#
# _framework density 18.028034999999999
#
# number of rings (size 3 to 8) (size 9 to 14) (size 15 to 20)
#    0.000    1.571    2.857    2.571    2.000    0.857 
#    0.000    0.000    0.000    4.714    0.000    1.000 
#    0.000    0.000    0.000    0.000    0.000    0.000 
#
# Total GULP energy -156153.157542 kJ/mol
# GULP energy per Si atom -5576.898484 kJ/mol
# Density = 1.798700 g / cm^3
# Si number density = 18.028035 Si / 1000 Ang^3
#
#
#
# Elastic Constant Matrix: (Units=GPa)
#
#
# Indices 1 2 3 4 5 6 
#
# 1 100.3425 39.0377 43.2266 0.0000 2.9612 0.0000
# 2 39.0377 71.0326 60.4671 0.0000 4.1394 0.0000
# 3 43.2266 60.4671 163.0144 0.0000 12.6788 0.0000
# 4 0.0000 0.0000 0.0000 17.8470 0.0000 0.8300
# 5 2.9612 4.1394 12.6788 0.0000 24.1612 0.0000
# 6 0.0000 0.0000 0.0000 0.8300 0.0000 13.5854
#
#
#
# Elastic Compliance Matrix: (Units=1/GPa)
#
#
# Indices 1 2 3 4 5 6 
#
# 1 0.012822 -0.006068 -0.001155 0.000000 0.000074 0.000000
# 2 -0.006068 0.023452 -0.007126 0.000000 0.000465 0.000000
# 3 -0.001155 -0.007126 0.009360 0.000000 -0.003549 0.000000
# 4 0.000000 0.000000 0.000000 0.056191 0.000000 -0.003433
# 5 0.000074 0.000465 -0.003549 0.000000 0.043162 0.000000
# 6 0.000000 0.000000 0.000000 -0.003433 0.000000 0.073818
#
#
# Mechanical properties :
#
#
# Convention : Reuss Voigt Hill
#
# Bulk Modulus (GPa) = 59.04617 68.87248 63.95933
# Shear Modulus (GPa) = 19.75122 23.89594 21.82358
#
# Velocity S-wave (km/s) = 3.31355 3.64467 3.48305
# Velocity P-wave (km/s) = 6.88934 7.48315 7.19237
#
# Compressibility (1/GPa) = 0.01693590
#
# Stress axis : x y z
#
# Youngs Moduli (GPa) = 77.99189 42.64068 106.83622
#
# Poissons Ratio (x) = 0.25873 0.12340
# Poissons Ratio (y) = 0.47322 0.76134
# Poissons Ratio (z) = 0.09009 0.30387
#
# Static dielectric constant tensor:
#      x y z
#    x 1.640270 0.000000 0.001340 
#    y 0.000000 1.588890 0.000000 
#    z 0.001340 0.000000 1.678720 
# 
# From -- ./inp_files/257994.got.cif
#   From: 2010.05.17/outbox.cif.g08.bks.cpg/sg12_129_cif.got.tgz:257994.got - 2010.06.03 13:09:07.
