data_PCOD9182560
_publ_section_title
;
Structure prediction by ZEFSAII (Michael W. Deem and Ramdas Pophale) SiO2 
 PCOD9182560
Probable space group: C 2/M
;
_chemical_formula_sum "Si O2"
_cell_formula_units_Z 64
_cell_length_a 14.943618
_cell_length_b 7.587588
_cell_length_c 28.117400
_cell_angle_alpha 90.000000
_cell_angle_beta 107.167446
_cell_angle_gamma 90.000000
_cell_volume 3046.077193
_symmetry_space_group_name_H-M "C 2/M"
_symmetry_group_IT_number 12
_symmetry_cell_setting 'monoclinic'
loop_
_space_group_symop_operation_xyz
x,y,z
-x,y,-z
-x,-y,-z
x,-y,z
1/2+x,1/2+y,z
1/2-x,1/2+y,-z
1/2-x,1/2-y,-z
1/2+x,1/2-y,z
loop_
_atom_site_type_symbol
_atom_site_label
_atom_site_fract_x
_atom_site_fract_y
_atom_site_fract_z
Si Si1 0.398427 0.209507 0.999613
Si Si2 0.294388 0.713172 0.077531
Si Si3 0.496360 0.704110 0.726449
Si Si4 0.527322 0.297593 0.554844
Si Si5 0.397458 0.797596 0.615867
Si Si6 0.678993 0.284317 0.810797
Si Si7 0.708940 0.284432 0.636840
Si Si8 0.194426 0.713441 0.252959
O O1 0.307352 0.278335 0.956723
O O2 0.400856 0.000000 0.991051
O O3 0.500000 0.280449 0.000000
O O4 0.371932 0.236565 0.050638
O O5 0.291221 0.500000 0.077657
O O6 0.315540 0.775091 0.134060
O O7 0.515289 0.500000 0.717727
O O8 0.467139 0.789785 0.672057
O O9 0.585998 0.774736 0.768413
O O10 0.405946 0.717148 0.746396
O O11 0.500000 0.216066 0.500000
O O12 0.555098 0.500000 0.548945
O O13 0.441248 0.296524 0.577699
O O14 0.614521 0.219069 0.597659
O O15 0.298856 0.728633 0.620087
O O16 0.383985 0.000000 0.600070
O O17 0.676415 0.500000 0.811212
O O18 0.767498 0.232919 0.792334
O O19 0.707286 0.500000 0.637547
O O20 0.730913 0.232506 0.694507
O O21 0.188285 0.500000 0.253118
#
# Coordination Sequence:
#
# PCOD9182560 Si02
#       8
#     8   8   8   8   8   8   8   8
#     4   9  18  33  52  73  98 129 166 209 250 285
#     4   9  18  33  51  73 100 131 168 201 240 298
#     4  10  19  33  52  74  99 127 164 204 241 285
#     4  10  20  34  53  76  99 126 163 204 246 292
#     4  10  20  35  53  72  98 132 166 199 242 294
#     4   9  18  32  51  73 102 137 162 193 247 302
#     4   8  16  32  51  70  97 131 159 190 239 294
#     4   9  17  32  52  72  97 131 165 193 236 296
#
# _framework density 21.010629999999999
#
# number of rings (size 3 to 8) (size 9 to 14) (size 15 to 20)
#    0.000    2.750    0.000    2.250    0.000    4.000 
#    0.000   10.000    0.000    0.000    0.000    0.000 
#    0.000    0.000    0.000    0.000    0.000    0.000 
#
# Total GULP energy -178574.963680 kJ/mol
# GULP energy per Si atom -5580.467615 kJ/mol
# Density = 2.096281 g / cm^3
# Si number density = 21.010630 Si / 1000 Ang^3
#
#
#
# Elastic Constant Matrix: (Units=GPa)
#
#
# Indices 1 2 3 4 5 6 
#
# 1 89.2419 -3.5820 48.6881 0.0000 -21.1428 0.0000
# 2 -3.5820 43.5305 -7.9249 0.0000 4.1421 0.0000
# 3 48.6881 -7.9249 92.5983 0.0000 -28.7790 0.0000
# 4 0.0000 0.0000 0.0000 13.1061 0.0000 -1.4468
# 5 -21.1428 4.1421 -28.7790 0.0000 19.5045 0.0000
# 6 0.0000 0.0000 0.0000 -1.4468 0.0000 -23.4564
#
#
#
# Elastic Compliance Matrix: (Units=1/GPa)
#
#
# Indices 1 2 3 4 5 6 
#
# 1 0.016621 -0.000601 -0.005821 0.000000 0.009556 0.000000
# 2 -0.000601 0.023504 0.001060 0.000000 -0.004079 0.000000
# 3 -0.005821 0.001060 0.022015 0.000000 0.025949 0.000000
# 4 0.000000 0.000000 0.000000 0.075784 0.000000 -0.004674
# 5 0.009556 -0.004079 0.025949 0.000000 0.100784 0.000000
# 6 0.000000 0.000000 0.000000 -0.004674 0.000000 -0.042344
#
#
# Mechanical properties :
#
#
# Convention : Reuss Voigt Hill
#
# Bulk Modulus (GPa) = 19.44914 33.30366 26.37640
# Shear Modulus (GPa) = 22.29876 14.37682 18.33779
#
# Velocity S-wave (km/s) = 3.26131 2.61868 2.95750
# Velocity P-wave (km/s) = 4.84339 5.00286 4.92377
#
# Compressibility (1/GPa) = 0.05141616
#
# Stress axis : x y z
#
# Youngs Moduli (GPa) = 60.16462 42.54587 45.42271
#
# Poissons Ratio (x) = 0.02558 0.26439
# Poissons Ratio (y) = 0.03618 -0.04814
# Poissons Ratio (z) = 0.35020 -0.04509
#
# Static dielectric constant tensor:
#      x y z
#    x 1.743520 0.000000 0.014680 
#    y 0.000000 1.801960 0.000000 
#    z 0.014680 0.000000 1.732430 
# 
# From -- ./inp_files/359913.got.cif
#   From: 2010.05.17/outbox.cif.g08.bks.cpg/sg12_180_cif.got.tgz:359913.got - 2010.06.03 13:09:07.
