data_PCOD9182726
_publ_section_title
;
Structure prediction by ZEFSAII (Michael W. Deem and Ramdas Pophale) SiO2 
 PCOD9182726
Probable space group: C 2/M
;
_chemical_formula_sum "Si O2"
_cell_formula_units_Z 56
_cell_length_a 16.120631
_cell_length_b 9.124126
_cell_length_c 20.166805
_cell_angle_alpha 90.000000
_cell_angle_beta 89.810251
_cell_angle_gamma 90.000000
_cell_volume 2966.251894
_symmetry_space_group_name_H-M "C 2/M"
_symmetry_group_IT_number 12
_symmetry_cell_setting 'monoclinic'
loop_
_space_group_symop_operation_xyz
x,y,z
-x,y,-z
-x,-y,-z
x,-y,z
1/2+x,1/2+y,z
1/2-x,1/2+y,-z
1/2-x,1/2-y,-z
1/2+x,1/2-y,z
loop_
_atom_site_type_symbol
_atom_site_label
_atom_site_fract_x
_atom_site_fract_y
_atom_site_fract_z
Si Si1 0.508214 0.178290 0.075897
Si Si2 0.356624 0.830649 0.440100
Si Si3 0.394545 0.175125 0.706673
Si Si4 0.343387 0.667744 0.572216
Si Si5 0.086926 0.677112 0.702614
Si Si6 0.324739 0.177088 0.848696
Si Si7 0.344670 0.177558 0.158908
O O1 0.595129 0.223296 0.108737
O O2 0.427377 0.220721 0.118497
O O3 0.509017 0.000000 0.076530
O O4 0.500000 0.226808 0.000000
O O5 0.379094 0.744579 0.506495
O O6 0.256672 0.829637 0.434186
O O7 0.390615 0.767855 0.370718
O O8 0.383692 0.000000 0.446825
O O9 0.366426 0.251077 0.639545
O O10 0.491328 0.208113 0.718408
O O11 0.344143 0.217908 0.772223
O O12 0.387131 0.000000 0.698714
O O13 0.370502 0.500000 0.575299
O O14 0.096386 0.500000 0.699468
O O15 0.142104 0.725844 0.764498
O O16 0.238762 0.251590 0.868786
O O17 0.318149 0.000000 0.852446
O O18 0.338770 0.000000 0.157364
#
# Coordination Sequence:
#
# PCOD9182726 Si02
#       7
#     8   8   8   8   8   8   8
#     4   9  18  35  59  85 115 151 188 223 266 329
#     4   9  18  33  51  69  94 133 178 221 265 320
#     4  10  19  33  53  74 100 137 180 225 269 320
#     4  10  20  33  49  73 103 133 170 222 277 325
#     4   9  17  32  54  75  97 134 187 229 259 315
#     4  10  20  35  56  84 114 145 185 232 277 322
#     4  10  19  35  59  84 111 148 190 228 271 326
#
# _framework density 18.879044
#
# number of rings (size 3 to 8) (size 9 to 14) (size 15 to 20)
#    0.000    2.429    1.429    1.286    0.000    3.429 
#    0.000    5.714    0.000    0.857    0.000    0.000 
#    0.000    0.000    0.000    0.000    0.000    0.000 
#
# Total GULP energy -156200.816963 kJ/mol
# GULP energy per Si atom -5578.600606 kJ/mol
# Density = 1.883607 g / cm^3
# Si number density = 18.879044 Si / 1000 Ang^3
#
#
#
# Elastic Constant Matrix: (Units=GPa)
#
#
# Indices 1 2 3 4 5 6 
#
# 1 77.8169 30.6287 41.8517 0.0000 23.6028 0.0000
# 2 30.6287 20.0280 27.6179 0.0000 5.6997 0.0000
# 3 41.8517 27.6179 114.3137 0.0000 22.1797 0.0000
# 4 0.0000 0.0000 0.0000 6.4990 0.0000 3.3792
# 5 23.6028 5.6997 22.1797 0.0000 19.6639 0.0000
# 6 0.0000 0.0000 0.0000 3.3792 0.0000 22.0411
#
#
#
# Elastic Compliance Matrix: (Units=1/GPa)
#
#
# Indices 1 2 3 4 5 6 
#
# 1 0.060978 -0.092160 0.011469 0.000000 -0.059416 0.000000
# 2 -0.092160 0.214204 -0.035110 0.000000 0.088134 0.000000
# 3 0.011469 -0.035110 0.017574 0.000000 -0.023411 0.000000
# 4 0.000000 0.000000 0.000000 0.167198 0.000000 -0.025633
# 5 -0.059416 0.088134 -0.023411 0.000000 0.123032 0.000000
# 6 0.000000 0.000000 0.000000 -0.025633 0.000000 0.049300
#
#
# Mechanical properties :
#
#
# Convention : Reuss Voigt Hill
#
# Bulk Modulus (GPa) = 16.35238 45.81725 31.08482
# Shear Modulus (GPa) = 5.65436 17.11149 11.38293
#
# Velocity S-wave (km/s) = 1.73250 3.01387 2.45815
# Velocity P-wave (km/s) = 3.56125 6.03596 4.95557
#
# Compressibility (1/GPa) = 0.06115317
#
# Stress axis : x y z
#
# Youngs Moduli (GPa) = 16.39933 4.66845 56.90233
#
# Poissons Ratio (x) = 0.43024 -0.65260
# Poissons Ratio (y) = 1.51136 1.99787
# Poissons Ratio (z) = -0.18808 0.16391
#
# Static dielectric constant tensor:
#      x y z
#    x 1.656940 0.000000 -0.008580 
#    y 0.000000 1.635570 0.000000 
#    z -0.008580 0.000000 1.658890 
# 
# From -- ./inp_files/308968.got.cif
#   From: 2010.05.17/outbox.cif.g08.bks.cpg/sg12_155_cif.got.tgz:308968.got - 2010.06.03 13:09:07.
