data_PCOD9182965
_publ_section_title
;
Structure prediction by ZEFSAII (Michael W. Deem and Ramdas Pophale) SiO2 
 PCOD9182965
Probable space group: C 2/M
;
_chemical_formula_sum "Si O2"
_cell_formula_units_Z 40
_cell_length_a 23.656609
_cell_length_b 10.453119
_cell_length_c 7.394194
_cell_angle_alpha 90.000000
_cell_angle_beta 87.824403
_cell_angle_gamma 90.000000
_cell_volume 1827.157834
_symmetry_space_group_name_H-M "C 2/M"
_symmetry_group_IT_number 12
_symmetry_cell_setting 'monoclinic'
loop_
_space_group_symop_operation_xyz
x,y,z
-x,y,-z
-x,-y,-z
x,-y,z
1/2+x,1/2+y,z
1/2-x,1/2+y,-z
1/2-x,1/2-y,-z
1/2+x,1/2-y,z
loop_
_atom_site_type_symbol
_atom_site_label
_atom_site_fract_x
_atom_site_fract_y
_atom_site_fract_z
Si Si1 0.267358 0.631591 0.387222
Si Si2 0.560407 0.853510 0.392213
Si Si3 0.921520 0.353505 0.030955
Si Si4 0.789822 0.367498 0.963978
Si Si5 0.601888 0.651590 0.669681
O O1 0.269825 0.500000 0.495633
O O2 0.250000 0.750000 0.500000
O O3 0.217647 0.621375 0.248460
O O4 0.330453 0.647612 0.299139
O O5 0.500000 0.853147 0.500000
O O6 0.555114 0.833667 0.175687
O O7 0.593543 0.737526 0.488476
O O8 0.583780 0.000000 0.412749
O O9 0.937541 0.500000 0.090071
O O10 0.853883 0.355609 0.012502
O O11 0.929208 0.236777 0.171158
O O12 0.766823 0.500000 0.048001
O O13 0.750000 0.250000 0.000000
O O14 0.584299 0.500000 0.658901
#
# Coordination Sequence:
#
# PCOD9182965 Si02
#       5
#     8   8   8   8   8
#     4  10  21  35  53  82 118 156 197 239 287 345
#     4  10  23  44  67  89 116 154 204 258 307 361
#     4  10  21  38  63  90 119 160 204 249 298 354
#     4  10  19  33  53  80 115 150 188 231 277 338
#     4  11  23  39  61  90 124 159 198 249 306 363
#
# _framework density 21.891922000000001
#
# number of rings (size 3 to 8) (size 9 to 14) (size 15 to 20)
#    0.000    1.800    2.000    1.800    0.000    6.000 
#    0.000    4.000    0.000    0.000    0.000    0.000 
#    0.000    0.000    0.000    0.000    0.000    0.000 
#
# Total GULP energy -111364.455962 kJ/mol
# GULP energy per Si atom -5568.222798 kJ/mol
# Density = 2.184209 g / cm^3
# Si number density = 21.891922 Si / 1000 Ang^3
#
#
#
# Elastic Constant Matrix: (Units=GPa)
#
#
# Indices 1 2 3 4 5 6 
#
# 1 50.3111 48.9714 -15.0079 0.0000 -1.8801 0.0000
# 2 48.9714 209.8065 74.0163 0.0000 -20.8667 0.0000
# 3 -15.0079 74.0163 87.7405 0.0000 -17.6709 0.0000
# 4 0.0000 0.0000 0.0000 27.4130 0.0000 -2.2081
# 5 -1.8801 -20.8667 -17.6709 0.0000 24.7397 0.0000
# 6 0.0000 0.0000 0.0000 -2.2081 0.0000 20.3672
#
#
#
# Elastic Compliance Matrix: (Units=1/GPa)
#
#
# Indices 1 2 3 4 5 6 
#
# 1 0.046102 -0.019066 0.025038 0.000000 0.005306 0.000000
# 2 -0.019066 0.014749 -0.015756 0.000000 -0.000263 0.000000
# 3 0.025038 -0.015756 0.031161 0.000000 0.010871 0.000000
# 4 0.000000 0.000000 0.000000 0.036800 0.000000 0.003990
# 5 0.005306 -0.000263 0.010871 0.000000 0.048367 0.000000
# 6 0.000000 0.000000 0.000000 0.003990 0.000000 0.049531
#
#
# Mechanical properties :
#
#
# Convention : Reuss Voigt Hill
#
# Bulk Modulus (GPa) = 13.80389 62.64642 38.22516
# Shear Modulus (GPa) = 18.48940 30.49588 24.49264
#
# Velocity S-wave (km/s) = 2.90931 3.73637 3.34847
# Velocity P-wave (km/s) = 4.19579 6.87694 5.69635
#
# Compressibility (1/GPa) = 0.07244335
#
# Stress axis : x y z
#
# Youngs Moduli (GPa) = 21.69116 67.80199 32.09160
#
# Poissons Ratio (x) = 1.29271 -0.80351
# Poissons Ratio (y) = 0.41356 0.50564
# Poissons Ratio (z) = -0.54310 1.06829
#
# Static dielectric constant tensor:
#      x y z
#    x 1.829600 0.000000 0.040320 
#    y 0.000000 0.978300 0.000000 
#    z 0.040320 0.000000 1.948830 
# 
# From -- ./inp_files/101088.got.cif
#   From: 2010.05.17/outbox.cif.g08.bks.cpg/sg12_51_cif.got.tgz:101088.got - 2010.06.03 13:09:07.
