data_PCOD9182386
_publ_section_title
;
Structure prediction by ZEFSAII (Michael W. Deem and Ramdas Pophale) SiO2 
 PCOD9182386
Probable space group: C 2/M
;
_chemical_formula_sum "Si O2"
_cell_formula_units_Z 42
_cell_length_a 22.720520
_cell_length_b 16.259960
_cell_length_c 5.338575
_cell_angle_alpha 90.000000
_cell_angle_beta 67.984261
_cell_angle_gamma 90.000000
_cell_volume 1828.440066
_symmetry_space_group_name_H-M "C 2/M"
_symmetry_group_IT_number 12
_symmetry_cell_setting 'monoclinic'
loop_
_space_group_symop_operation_xyz
x,y,z
-x,y,-z
-x,-y,-z
x,-y,z
1/2+x,1/2+y,z
1/2-x,1/2+y,-z
1/2-x,1/2-y,-z
1/2+x,1/2-y,z
loop_
_atom_site_type_symbol
_atom_site_label
_atom_site_fract_x
_atom_site_fract_y
_atom_site_fract_z
Si Si1 0.568650 0.599586 0.502373
Si Si2 0.757766 0.354026 0.719519
Si Si3 0.875771 0.907184 0.083115
Si Si4 0.535010 0.828451 0.183844
Si Si5 0.317432 0.819608 0.124702
Si Si6 0.000000 0.500000 0.000000
O O1 0.500000 0.618428 0.500000
O O2 0.572776 0.500000 0.523089
O O3 0.587601 0.633024 0.743449
O O4 0.616109 0.627704 0.208342
O O5 0.698191 0.409220 0.739471
O O6 0.723652 0.264343 0.792145
O O7 0.808909 0.356907 0.415698
O O8 0.787147 0.370895 0.944127
O O9 0.901607 0.000000 0.019107
O O10 0.500000 0.808793 0.500000
O O11 0.500000 0.788646 0.000000
O O12 0.609190 0.807030 0.057687
O O13 0.527827 0.926111 0.139722
#
# Coordination Sequence:
#
# PCOD9182386 Si02
#       6
#     8   8   8   8   8   2
#     4   9  17  30  50  71 100 139 170 207 268 323
#     4  10  21  38  57  79 108 150 190 225 274 331
#     4  10  19  33  50  76 108 132 175 233 272 313
#     4  10  20  38  60  87 118 147 185 234 291 342
#     4  10  21  39  59  77 109 152 187 222 275 343
#     4   8  22  36  62  88 122 148 176 240 300 346
#
# _framework density 22.970400000000001
#
# number of rings (size 3 to 8) (size 9 to 14) (size 15 to 20)
#    0.571    1.714    0.000    3.143    0.000    2.286 
#    3.429    2.857    0.000    0.000    0.000    0.000 
#    0.000    0.000    0.000    0.000    0.000    0.000 
#
# Total GULP energy -116903.381135 kJ/mol
# GULP energy per Si atom -5566.827673 kJ/mol
# Density = 2.291812 g / cm^3
# Si number density = 22.970400 Si / 1000 Ang^3
#
#
#
# Elastic Constant Matrix: (Units=GPa)
#
#
# Indices 1 2 3 4 5 6 
#
# 1 111.2248 -0.7213 46.8654 0.0000 11.7648 0.0000
# 2 -0.7213 61.2121 19.5047 0.0000 13.9427 0.0000
# 3 46.8654 19.5047 139.0838 0.0000 0.2859 0.0000
# 4 0.0000 0.0000 0.0000 -2.3644 0.0000 -27.3398
# 5 11.7648 13.9427 0.2859 0.0000 47.6476 0.0000
# 6 0.0000 0.0000 0.0000 -27.3398 0.0000 -38.6874
#
#
#
# Elastic Compliance Matrix: (Units=1/GPa)
#
#
# Indices 1 2 3 4 5 6 
#
# 1 0.011053 0.002173 -0.004022 0.000000 -0.003341 0.000000
# 2 0.002173 0.018803 -0.003357 0.000000 -0.006018 0.000000
# 3 -0.004022 -0.003357 0.009012 0.000000 0.001921 0.000000
# 4 0.000000 0.000000 0.000000 0.058975 0.000000 -0.041677
# 5 -0.003341 -0.006018 0.001921 0.000000 0.023562 0.000000
# 6 0.000000 0.000000 0.000000 -0.041677 0.000000 0.003604
#
#
# Mechanical properties :
#
#
# Convention : Reuss Voigt Hill
#
# Bulk Modulus (GPa) = 35.14234 49.20203 42.17219
# Shear Modulus (GPa) = 34.50498 17.71061 26.10779
#
# Velocity S-wave (km/s) = 3.87996 2.77974 3.37498
# Velocity P-wave (km/s) = 5.95015 5.63638 5.79539
#
# Compressibility (1/GPa) = 0.02845571
#
# Stress axis : x y z
#
# Youngs Moduli (GPa) = 90.47243 53.18401 110.96290
#
# Poissons Ratio (x) = -0.11556 0.44632
# Poissons Ratio (y) = -0.19658 0.37246
# Poissons Ratio (z) = 0.36391 0.17852
#
# Static dielectric constant tensor:
#      x y z
#    x 1.831050 0.000000 -0.004600 
#    y 0.000000 1.939750 0.000000 
#    z -0.004600 0.000000 1.908240 
# 
# From -- ./inp_files/20862.got.cif
#   From: 2010.05.17/outbox.cif.g08.bks.cpg/sg12_11_cif.got.tgz:20862.got - 2010.06.03 13:09:07.
