data_PCOD9182486
_publ_section_title
;
Structure prediction by ZEFSAII (Michael W. Deem and Ramdas Pophale) SiO2 
 PCOD9182486
Probable space group: C 2/M
;
_chemical_formula_sum "Si O2"
_cell_formula_units_Z 64
_cell_length_a 29.223268
_cell_length_b 18.057447
_cell_length_c 11.994354
_cell_angle_alpha 90.000000
_cell_angle_beta 147.601729
_cell_angle_gamma 90.000000
_cell_volume 3391.296548
_symmetry_space_group_name_H-M "C 2/M"
_symmetry_group_IT_number 12
_symmetry_cell_setting 'monoclinic'
loop_
_space_group_symop_operation_xyz
x,y,z
-x,y,-z
-x,-y,-z
x,-y,z
1/2+x,1/2+y,z
1/2-x,1/2+y,-z
1/2-x,1/2-y,-z
1/2+x,1/2-y,z
loop_
_atom_site_type_symbol
_atom_site_label
_atom_site_fract_x
_atom_site_fract_y
_atom_site_fract_z
Si Si1 0.962277 0.810429 0.805415
Si Si2 0.760361 0.854176 0.173388
Si Si3 0.698814 0.415600 0.510146
Si Si4 0.096934 0.083881 0.961073
Si Si5 0.097791 0.850681 0.723437
Si Si6 0.221402 0.416473 0.547653
Si Si7 0.348524 0.206430 0.432704
Si Si8 0.597444 0.173329 0.698597
O O1 0.879712 0.859863 0.665487
O O2 0.929570 0.749660 0.650624
O O3 0.028610 0.862823 0.877837
O O4 0.000000 0.781948 0.000000
O O5 0.769175 0.905703 0.298469
O O6 0.835598 0.869467 0.237947
O O7 0.779505 0.770565 0.259359
O O8 0.668832 0.860076 0.926500
O O9 0.670849 0.500000 0.432874
O O10 0.771801 0.399068 0.569469
O O11 0.122488 0.114496 0.892232
O O12 0.063277 0.000000 0.881552
O O13 0.180917 0.082069 0.209219
O O14 0.096498 0.761311 0.725488
O O15 0.000000 0.874838 0.500000
O O16 0.186355 0.500000 0.491581
O O17 0.178672 0.352705 0.531607
O O18 0.369844 0.167710 0.360484
O O19 0.500000 0.145962 0.500000
#
# Coordination Sequence:
#
# PCOD9182486 Si02
#       8
#     8   8   8   8   8   8   8   8
#     4  11  21  35  54  88 122 155 197 239 285 352
#     4  10  20  34  58  84 114 154 198 248 291 349
#     4  10  21  37  56  82 119 158 193 234 296 357
#     4  11  21  33  55  84 120 160 193 233 288 356
#     4  10  19  33  51  81 121 155 192 231 293 357
#     4  10  21  38  58  81 113 153 193 239 298 356
#     4  10  21  37  58  85 114 149 196 244 295 354
#     4  10  19  36  58  82 110 149 193 253 306 343
#
# _framework density 18.871838
#
# number of rings (size 3 to 8) (size 9 to 14) (size 15 to 20)
#    0.000    1.750    1.250    6.375    0.000    3.250 
#    4.500    0.625    0.000    1.875    0.000    0.000 
#    0.000    0.000    0.000    0.000    0.000    0.000 
#
# Total GULP energy -178620.909587 kJ/mol
# GULP energy per Si atom -5581.903425 kJ/mol
# Density = 1.882888 g / cm^3
# Si number density = 18.871838 Si / 1000 Ang^3
#
#
#
# Elastic Constant Matrix: (Units=GPa)
#
#
# Indices 1 2 3 4 5 6 
#
# 1 80.3484 27.1243 20.5388 0.0000 -14.6666 0.0000
# 2 27.1243 27.3711 0.2408 0.0000 3.5728 0.0000
# 3 20.5388 0.2408 100.2064 0.0000 -10.9884 0.0000
# 4 0.0000 0.0000 0.0000 24.3294 0.0000 6.5332
# 5 -14.6666 3.5728 -10.9884 0.0000 30.5449 0.0000
# 6 0.0000 0.0000 0.0000 6.5332 0.0000 36.5962
#
#
#
# Elastic Compliance Matrix: (Units=1/GPa)
#
#
# Indices 1 2 3 4 5 6 
#
# 1 0.024682 -0.026211 -0.003498 0.000000 0.013659 0.000000
# 2 -0.026211 0.064970 0.003126 0.000000 -0.019061 0.000000
# 3 -0.003498 0.003126 0.010894 0.000000 0.001874 0.000000
# 4 0.000000 0.000000 0.000000 0.043172 0.000000 -0.007707
# 5 0.013659 -0.019061 0.001874 0.000000 0.042201 0.000000
# 6 0.000000 0.000000 0.000000 -0.007707 0.000000 0.028701
#
#
# Mechanical properties :
#
#
# Convention : Reuss Voigt Hill
#
# Bulk Modulus (GPa) = 21.10599 33.74818 27.42709
# Shear Modulus (GPa) = 17.63167 28.96223 23.29695
#
# Velocity S-wave (km/s) = 3.05992 3.92175 3.51733
# Velocity P-wave (km/s) = 4.86747 6.19907 5.57318
#
# Compressibility (1/GPa) = 0.04737990
#
# Stress axis : x y z
#
# Youngs Moduli (GPa) = 40.51580 15.39161 91.79063
#
# Poissons Ratio (x) = 0.40343 0.32109
# Poissons Ratio (y) = 1.06197 -0.28695
# Poissons Ratio (z) = 0.14173 -0.04812
#
# Static dielectric constant tensor:
#      x y z
#    x 1.661330 0.000000 -0.007380 
#    y 0.000000 1.639580 0.000000 
#    z -0.007380 0.000000 1.667200 
# 
# From -- ./inp_files/190099.got.cif
#   From: 2010.05.17/outbox.cif.g08.bks.cpg/sg12_96_cif.got.tgz:190099.got - 2010.06.03 13:09:07.
