data_PCOD9182948
_publ_section_title
;
Structure prediction by ZEFSAII (Michael W. Deem and Ramdas Pophale) SiO2 
 PCOD9182948
Probable space group: C 2/M
;
_chemical_formula_sum "Si O2"
_cell_formula_units_Z 56
_cell_length_a 23.590080
_cell_length_b 7.511128
_cell_length_c 15.085297
_cell_angle_alpha 90.000000
_cell_angle_beta 71.109670
_cell_angle_gamma 90.000000
_cell_volume 2528.971014
_symmetry_space_group_name_H-M "C 2/M"
_symmetry_group_IT_number 12
_symmetry_cell_setting 'monoclinic'
loop_
_space_group_symop_operation_xyz
x,y,z
-x,y,-z
-x,-y,-z
x,-y,z
1/2+x,1/2+y,z
1/2-x,1/2+y,-z
1/2-x,1/2-y,-z
1/2+x,1/2-y,z
loop_
_atom_site_type_symbol
_atom_site_label
_atom_site_fract_x
_atom_site_fract_y
_atom_site_fract_z
Si Si1 0.170117 0.292412 0.949488
Si Si2 0.771835 0.211866 0.389008
Si Si3 0.949579 0.794588 0.089831
Si Si4 0.193348 0.216611 0.136949
Si Si5 0.909205 0.218376 0.298319
Si Si6 0.441567 0.282558 0.475600
Si Si7 0.657726 0.704455 0.340790
O O1 0.169048 0.500000 0.926568
O O2 0.114765 0.207667 0.926260
O O3 0.237069 0.222548 0.894701
O O4 0.165066 0.272758 0.058228
O O5 0.750000 0.250000 0.500000
O O6 0.839544 0.272996 0.338531
O O7 0.724739 0.293049 0.344770
O O8 0.770543 0.000000 0.377277
O O9 0.940184 0.717563 0.192671
O O10 0.967954 0.000000 0.094805
O O11 0.000000 0.713500 0.000000
O O12 0.159254 0.281867 0.241583
O O13 0.194525 0.000000 0.136992
O O14 0.939207 0.275707 0.375134
O O15 0.909119 0.000000 0.296349
O O16 0.500000 0.230190 0.500000
O O17 0.439744 0.500000 0.472834
O O18 0.384655 0.218937 0.561542
O O19 0.637805 0.500000 0.340140
#
# Coordination Sequence:
#
# PCOD9182948 Si02
#       7
#     8   8   8   8   8   8   8
#     4  10  20  35  54  78 109 141 176 224 277 326
#     4  11  20  32  53  79 109 141 175 219 268 321
#     4  10  21  36  56  79 106 142 186 231 270 319
#     4   9  19  34  55  81 108 140 178 222 270 324
#     4   9  18  33  52  78 108 137 175 222 270 316
#     4   9  17  30  50  75 104 137 172 212 257 310
#     4  10  19  33  53  80 108 137 177 219 262 318
#
# _framework density 22.143393
#
# number of rings (size 3 to 8) (size 9 to 14) (size 15 to 20)
#    0.000    2.286    1.429    1.714    0.000    2.571 
#    0.000    5.000    0.000    0.429    0.000    0.000 
#    0.000    0.000    0.000    0.000    0.000    0.000 
#
# Total GULP energy -156395.158258 kJ/mol
# GULP energy per Si atom -5585.541366 kJ/mol
# Density = 2.209299 g / cm^3
# Si number density = 22.143393 Si / 1000 Ang^3
#
#
#
# Elastic Constant Matrix: (Units=GPa)
#
#
# Indices 1 2 3 4 5 6 
#
# 1 95.4701 -6.5286 71.0250 0.0000 9.4760 0.0000
# 2 -6.5286 60.7966 1.0661 0.0000 -7.8221 0.0000
# 3 71.0250 1.0661 221.7029 0.0000 6.1246 0.0000
# 4 0.0000 0.0000 0.0000 1.1522 0.0000 -1.4366
# 5 9.4760 -7.8221 6.1246 0.0000 22.5722 0.0000
# 6 0.0000 0.0000 0.0000 -1.4366 0.0000 14.9316
#
#
#
# Elastic Compliance Matrix: (Units=1/GPa)
#
#
# Indices 1 2 3 4 5 6 
#
# 1 0.014309 0.001045 -0.004467 0.000000 -0.004433 0.000000
# 2 0.001045 0.017306 -0.000576 0.000000 0.005715 0.000000
# 3 -0.004467 -0.000576 0.005942 0.000000 0.000063 0.000000
# 4 0.000000 0.000000 0.000000 0.986176 0.000000 0.094880
# 5 -0.004433 0.005715 0.000063 0.000000 0.048127 0.000000
# 6 0.000000 0.000000 0.000000 0.094880 0.000000 0.076100
#
#
# Mechanical properties :
#
#
# Convention : Reuss Voigt Hill
#
# Bulk Modulus (GPa) = 33.82767 56.56606 45.19687
# Shear Modulus (GPa) = 4.28887 28.55836 16.42361
#
# Velocity S-wave (km/s) = 1.39322 3.59514 2.72636
# Velocity P-wave (km/s) = 4.23059 6.54478 5.51054
#
# Compressibility (1/GPa) = 0.02956160
#
# Stress axis : x y z
#
# Youngs Moduli (GPa) = 69.88707 57.78401 168.28025
#
# Poissons Ratio (x) = -0.06036 0.75163
# Poissons Ratio (y) = -0.07300 0.09688
# Poissons Ratio (z) = 0.31215 0.03327
#
# Static dielectric constant tensor:
#      x y z
#    x 1.754780 0.000000 -0.016660 
#    y 0.000000 1.835070 0.000000 
#    z -0.016660 0.000000 1.820860 
# 
# From -- ./inp_files/237473.got.cif
#   From: 2010.05.17/outbox.cif.g08.bks.cpg/sg12_119_cif.got.tgz:237473.got - 2010.06.03 13:09:07.
