data_PCOD9182697
_publ_section_title
;
Structure prediction by ZEFSAII (Michael W. Deem and Ramdas Pophale) SiO2 
 PCOD9182697
Probable space group: C 2/M
;
_chemical_formula_sum "Si O2"
_cell_formula_units_Z 64
_cell_length_a 28.677665
_cell_length_b 8.933662
_cell_length_c 20.684558
_cell_angle_alpha 90.000000
_cell_angle_beta 130.563614
_cell_angle_gamma 90.000000
_cell_volume 4025.805381
_symmetry_space_group_name_H-M "C 2/M"
_symmetry_group_IT_number 12
_symmetry_cell_setting 'monoclinic'
loop_
_space_group_symop_operation_xyz
x,y,z
-x,y,-z
-x,-y,-z
x,-y,z
1/2+x,1/2+y,z
1/2-x,1/2+y,-z
1/2-x,1/2-y,-z
1/2+x,1/2-y,z
loop_
_atom_site_type_symbol
_atom_site_label
_atom_site_fract_x
_atom_site_fract_y
_atom_site_fract_z
Si Si1 0.481945 0.178717 0.680707
Si Si2 0.295876 0.178840 0.988783
Si Si3 0.171724 0.677564 0.643389
Si Si4 0.842927 0.678009 0.587154
Si Si5 0.742397 0.677232 0.597988
Si Si6 0.806922 0.821903 0.199729
Si Si7 0.603694 0.321266 0.841693
Si Si8 0.545625 0.322415 0.480851
O O1 0.414965 0.210264 0.650697
O O2 0.537102 0.253281 0.769535
O O3 0.480109 0.245193 0.606683
O O4 0.490264 0.000000 0.685465
O O5 0.360980 0.249935 0.065394
O O6 0.297998 0.000000 0.999022
O O7 0.250000 0.250000 0.000000
O O8 0.261181 0.208906 0.890044
O O9 0.166462 0.500000 0.634705
O O10 0.227977 0.735607 0.650412
O O11 0.178847 0.731534 0.723212
O O12 0.110829 0.752104 0.558364
O O13 0.834979 0.500000 0.565962
O O14 0.807464 0.708387 0.622066
O O15 0.808132 0.769792 0.500140
O O16 0.736891 0.500000 0.603938
O O17 0.855308 0.788063 0.185768
O O18 0.811778 0.000000 0.217355
O O19 0.601739 0.500000 0.846439
O O20 0.500000 0.300444 0.500000
O O21 0.552115 0.500000 0.475478
#
# Coordination Sequence:
#
# PCOD9182697 Si02
#       8
#     8   8   8   8   8   8   8   8
#     4  11  21  33  50  73 100 128 164 205 245 291
#     4   9  17  31  51  73  98 128 164 206 250 291
#     4  12  23  33  48  72  99 129 167 205 244 292
#     4   9  19  34  51  73  96 123 162 208 251 295
#     4  10  19  33  53  71  94 127 162 204 253 296
#     4   9  19  34  50  70  98 132 167 203 242 289
#     4  10  20  33  50  73 102 134 169 203 241 293
#     4  11  23  36  48  65  95 134 171 202 239 289
#
# _framework density 15.89744
#
# number of rings (size 3 to 8) (size 9 to 14) (size 15 to 20)
#    0.000    1.875    1.250    4.500    0.000    8.000 
#    0.000    0.000    0.000    0.000    0.000    0.875 
#    0.000    7.000    0.000    0.000    0.000    0.000 
#
# Total GULP energy -178579.775398 kJ/mol
# GULP energy per Si atom -5580.617981 kJ/mol
# Density = 1.586126 g / cm^3
# Si number density = 15.897440 Si / 1000 Ang^3
#
#
#
# Elastic Constant Matrix: (Units=GPa)
#
#
# Indices 1 2 3 4 5 6 
#
# 1 58.0903 31.9218 13.2078 0.0000 16.0159 0.0000
# 2 31.9218 53.9240 23.2618 0.0000 12.3425 0.0000
# 3 13.2078 23.2618 60.9171 0.0000 27.5070 0.0000
# 4 0.0000 0.0000 0.0000 29.8944 0.0000 0.1934
# 5 16.0159 12.3425 27.5070 0.0000 18.8809 0.0000
# 6 0.0000 0.0000 0.0000 0.1934 0.0000 21.7259
#
#
#
# Elastic Compliance Matrix: (Units=1/GPa)
#
#
# Indices 1 2 3 4 5 6 
#
# 1 0.037553 -0.020260 0.023375 0.000000 -0.052666 0.000000
# 2 -0.020260 0.033393 -0.018302 0.000000 0.022019 0.000000
# 3 0.023375 -0.018302 0.063969 0.000000 -0.101059 0.000000
# 4 0.000000 0.000000 0.000000 0.033453 0.000000 -0.000298
# 5 -0.052666 0.022019 -0.101059 0.000000 0.230473 0.000000
# 6 0.000000 0.000000 0.000000 -0.000298 0.000000 0.046031
#
#
# Mechanical properties :
#
#
# Convention : Reuss Voigt Hill
#
# Bulk Modulus (GPa) = 9.56540 34.41270 21.98905
# Shear Modulus (GPa) = 9.80215 21.06959 15.43587
#
# Velocity S-wave (km/s) = 2.48581 3.64448 3.11941
# Velocity P-wave (km/s) = 3.77743 6.27721 5.18036
#
# Compressibility (1/GPa) = 0.10454345
#
# Stress axis : x y z
#
# Youngs Moduli (GPa) = 26.62884 29.94648 15.63250
#
# Poissons Ratio (x) = 0.60671 -0.36541
# Poissons Ratio (y) = 0.53950 0.28610
# Poissons Ratio (z) = -0.62246 0.54807
#
# Static dielectric constant tensor:
#      x y z
#    x 1.540450 0.000000 0.016770 
#    y 0.000000 1.527540 0.000000 
#    z 0.016770 0.000000 1.533140 
# 
# From -- ./inp_files/326950.got.cif
#   From: 2010.05.17/outbox.cif.g08.bks.cpg/sg12_164_cif.got.tgz:326950.got - 2010.06.03 13:09:07.
