data_PCOD9182645
_publ_section_title
;
Structure prediction by ZEFSAII (Michael W. Deem and Ramdas Pophale) SiO2 
 PCOD9182645
Probable space group: C 2/M
;
_chemical_formula_sum "Si O2"
_cell_formula_units_Z 48
_cell_length_a 18.819587
_cell_length_b 21.625981
_cell_length_c 16.585445
_cell_angle_alpha 90.000000
_cell_angle_beta 157.773777
_cell_angle_gamma 90.000000
_cell_volume 2553.339807
_symmetry_space_group_name_H-M "C 2/M"
_symmetry_group_IT_number 12
_symmetry_cell_setting 'monoclinic'
loop_
_space_group_symop_operation_xyz
x,y,z
-x,y,-z
-x,-y,-z
x,-y,z
1/2+x,1/2+y,z
1/2-x,1/2+y,-z
1/2-x,1/2-y,-z
1/2+x,1/2-y,z
loop_
_atom_site_type_symbol
_atom_site_label
_atom_site_fract_x
_atom_site_fract_y
_atom_site_fract_z
Si Si1 0.369907 0.677671 0.561681
Si Si2 0.197211 0.431299 0.478732
Si Si3 0.546030 0.736235 0.176601
Si Si4 0.064917 0.369085 0.661774
Si Si5 0.622381 0.726681 0.709008
Si Si6 0.510963 0.398787 0.923242
O O1 0.255709 0.617760 0.471554
O O2 0.442891 0.713965 0.718154
O O3 0.219685 0.717785 0.353367
O O4 0.553387 0.674411 0.698706
O O5 0.141859 0.500000 0.393485
O O6 0.387167 0.434324 0.730109
O O7 0.050876 0.403439 0.390326
O O8 0.573072 0.671350 0.159000
O O9 0.348752 0.766816 0.943178
O O10 0.063975 0.295687 0.677755
O O11 0.000000 0.378448 0.500000
O O12 0.278960 0.391294 0.886710
O O13 0.500000 0.717488 0.500000
O O14 0.500000 0.426421 0.000000
#
# Coordination Sequence:
#
# PCOD9182645 Si02
#       6
#     8   8   8   8   8   8
#     4  10  20  35  53  77 110 146 185 223 271 325
#     4  11  24  38  51  71 105 155 197 221 251 304
#     4   9  19  31  56  80 112 142 171 217 283 339
#     4  10  19  33  52  78 110 137 171 219 267 324
#     4  10  20  32  57  88 112 134 169 224 295 342
#     4  10  19  33  53  80 112 139 171 218 273 325
#
# _framework density 18.798907
#
# number of rings (size 3 to 8) (size 9 to 14) (size 15 to 20)
#    0.000    2.000    1.667    3.500    4.667    4.000 
#    0.000    0.000    0.000    0.500    0.000    1.167 
#    0.000    0.000    0.000    0.000    0.000    0.000 
#
# Total GULP energy -133793.913173 kJ/mol
# GULP energy per Si atom -5574.746382 kJ/mol
# Density = 1.875612 g / cm^3
# Si number density = 18.798907 Si / 1000 Ang^3
#
#
#
# Elastic Constant Matrix: (Units=GPa)
#
#
# Indices 1 2 3 4 5 6 
#
# 1 53.2010 31.7205 1.7142 0.0000 9.6675 0.0000
# 2 31.7205 53.2858 16.5811 0.0000 14.7901 0.0000
# 3 1.7142 16.5811 77.3694 -0.0001 1.1265 -0.0001
# 4 0.0000 0.0000 -0.0001 3.8441 0.0000 9.4315
# 5 9.6675 14.7901 1.1265 0.0000 22.6885 -0.0001
# 6 0.0000 0.0000 -0.0001 9.4315 -0.0001 10.6213
#
#
#
# Elastic Compliance Matrix: (Units=1/GPa)
#
#
# Indices 1 2 3 4 5 6 
#
# 1 0.029954 -0.018660 0.003347 0.000000 -0.000765 0.000000
# 2 -0.018660 0.036379 -0.007159 0.000000 -0.015408 0.000000
# 3 0.003347 -0.007159 0.014348 0.000000 0.002528 0.000000
# 4 0.000000 0.000000 0.000000 -0.220705 0.000000 0.195982
# 5 -0.000765 -0.015408 0.002528 0.000000 0.054320 0.000000
# 6 0.000000 0.000000 0.000000 0.195982 0.000000 -0.079878
#
#
# Mechanical properties :
#
#
# Convention : Reuss Voigt Hill
#
# Bulk Modulus (GPa) = 27.98241 31.54307 29.76274
# Shear Modulus (GPa) = -45.98766 16.35347 -14.81709
#
# Velocity S-wave (km/s) = -4.95137 2.95263 -2.81052
# Velocity P-wave (km/s) = 4.21552 5.33289 2.30966
#
# Compressibility (1/GPa) = 0.03573674
#
# Stress axis : x y z
#
# Youngs Moduli (GPa) = 33.38483 27.48820 69.69493
#
# Poissons Ratio (x) = 0.51293 -0.23324
# Poissons Ratio (y) = 0.62296 0.49893
# Poissons Ratio (z) = -0.11172 0.19678
#
# Static dielectric constant tensor:
#      x y z
#    x 1.680470 0.000000 0.006450 
#    y 0.000000 1.688980 0.000000 
#    z 0.006450 0.000000 1.679270 
# 
# From -- ./inp_files/285844.got.cif
#   From: 2010.05.17/outbox.cif.g08.bks.cpg/sg12_143_cif.got.tgz:285844.got - 2010.06.03 13:09:07.
