data_PCOD9182248
_publ_section_title
;
Structure prediction by ZEFSAII (Michael W. Deem and Ramdas Pophale) SiO2 
 PCOD9182248
Probable space group: C 2/M
;
_chemical_formula_sum "Si O2"
_cell_formula_units_Z 60
_cell_length_a 20.629745
_cell_length_b 16.198405
_cell_length_c 9.559722
_cell_angle_alpha 90.000000
_cell_angle_beta 98.210083
_cell_angle_gamma 90.000000
_cell_volume 3161.821701
_symmetry_space_group_name_H-M "C 2/M"
_symmetry_group_IT_number 12
_symmetry_cell_setting 'monoclinic'
loop_
_space_group_symop_operation_xyz
x,y,z
-x,y,-z
-x,-y,-z
x,-y,z
1/2+x,1/2+y,z
1/2-x,1/2+y,-z
1/2-x,1/2-y,-z
1/2+x,1/2-y,z
loop_
_atom_site_type_symbol
_atom_site_label
_atom_site_fract_x
_atom_site_fract_y
_atom_site_fract_z
Si Si1 0.726594 0.838431 0.054167
Si Si2 0.107121 0.346023 0.224468
Si Si3 0.000000 0.622354 0.000000
Si Si4 0.575803 0.099205 0.514884
Si Si5 0.867171 0.902846 0.105449
Si Si6 0.611792 0.901442 0.835692
Si Si7 0.939144 0.832814 0.874871
Si Si8 0.018352 0.097633 0.658186
O O1 0.676783 0.839973 0.169747
O O2 0.792147 0.886157 0.115288
O O3 0.750000 0.750000 0.000000
O O4 0.682201 0.882088 0.922109
O O5 0.055466 0.407536 0.130118
O O6 0.109341 0.365228 0.387711
O O7 0.074217 0.257523 0.186750
O O8 0.056000 0.649448 0.903531
O O9 0.500000 0.125986 0.500000
O O10 0.608595 0.120274 0.672316
O O11 0.576230 0.000000 0.502104
O O12 0.916885 0.869661 0.240640
O O13 0.880731 0.000000 0.096105
O O14 0.881780 0.863520 0.958205
O O15 0.596255 0.000000 0.846741
O O16 0.959779 0.888810 0.750786
O O17 0.000000 0.830626 0.000000
O O18 0.000000 0.132958 0.500000
O O19 0.029360 0.000000 0.642109
#
# Coordination Sequence:
#
# PCOD9182248 Si02
#       8
#     8   8   4   8   8   8   8   8
#     4  11  23  40  58  83 120 157 200 247 286 345
#     4  11  21  35  57  85 119 157 193 238 298 349
#     4  10  19  32  58  88 117 148 194 248 289 342
#     4  10  21  38  57  85 125 157 190 242 298 354
#     4  10  20  38  63  83 111 154 196 240 293 348
#     4  10  21  37  60  87 117 156 201 244 290 348
#     4  10  19  34  58  85 113 146 190 246 297 347
#     4   9  19  36  58  89 116 139 184 244 299 351
#
# _framework density 18.976403000000001
#
# number of rings (size 3 to 8) (size 9 to 14) (size 15 to 20)
#    0.000    1.867    3.333    1.000    0.000    4.800 
#    2.400    2.000    0.000    3.200    0.000    0.000 
#    0.000    0.000    0.000    0.000    0.000    0.000 
#
# Total GULP energy -167021.064602 kJ/mol
# GULP energy per Si atom -5567.368820 kJ/mol
# Density = 1.893321 g / cm^3
# Si number density = 18.976403 Si / 1000 Ang^3
#
#
#
# Elastic Constant Matrix: (Units=GPa)
#
#
# Indices 1 2 3 4 5 6 
#
# 1 102.2285 -2.1790 44.8293 0.0000 -7.1544 0.0000
# 2 -2.1790 30.5480 14.5211 0.0000 1.0502 0.0000
# 3 44.8293 14.5211 166.0321 0.0000 -12.6574 0.0000
# 4 0.0000 0.0000 0.0000 -18.4478 0.0000 10.5187
# 5 -7.1544 1.0502 -12.6574 0.0000 19.8122 0.0000
# 6 0.0000 0.0000 0.0000 10.5187 0.0000 15.5648
#
#
#
# Elastic Compliance Matrix: (Units=1/GPa)
#
#
# Indices 1 2 3 4 5 6 
#
# 1 0.011328 0.002213 -0.003100 0.000000 0.001993 0.000000
# 2 0.002213 0.034878 -0.003919 0.000000 -0.003553 0.000000
# 3 -0.003100 -0.003919 0.007498 0.000000 0.003879 0.000000
# 4 0.000000 0.000000 0.000000 -0.039129 0.000000 0.026444
# 5 0.001993 -0.003553 0.003879 0.000000 0.053860 0.000000
# 6 0.000000 0.000000 0.000000 0.026444 0.000000 0.046377
#
#
# Mechanical properties :
#
#
# Convention : Reuss Voigt Hill
#
# Bulk Modulus (GPa) = 22.67933 45.90573 34.29253
# Shear Modulus (GPa) = 35.93965 19.49499 27.71732
#
# Velocity S-wave (km/s) = 4.35663 3.20867 3.82595
# Velocity P-wave (km/s) = 6.10608 6.16205 6.13413
#
# Compressibility (1/GPa) = 0.04409301
#
# Stress axis : x y z
#
# Youngs Moduli (GPa) = 88.27532 28.67116 133.36054
#
# Poissons Ratio (x) = -0.06346 0.41346
# Poissons Ratio (y) = -0.19538 0.52263
# Poissons Ratio (z) = 0.27368 0.11236
#
# Static dielectric constant tensor:
#      x y z
#    x 1.643530 0.000000 0.003980 
#    y 0.000000 1.757670 0.000000 
#    z 0.003980 0.000000 1.672700 
# 
# From -- ./inp_files/88014.got.cif
#   From: 2010.05.17/outbox.cif.g08.bks.cpg/sg12_45_cif.got.tgz:88014.got - 2010.06.03 13:09:07.
