data_PCOD9182713
_publ_section_title
;
Structure prediction by ZEFSAII (Michael W. Deem and Ramdas Pophale) SiO2 
 PCOD9182713
Probable space group: C 2/M
;
_chemical_formula_sum "Si O2"
_cell_formula_units_Z 56
_cell_length_a 20.277468
_cell_length_b 29.806353
_cell_length_c 5.267647
_cell_angle_alpha 90.000000
_cell_angle_beta 114.269772
_cell_angle_gamma 90.000000
_cell_volume 2902.372802
_symmetry_space_group_name_H-M "C 2/M"
_symmetry_group_IT_number 12
_symmetry_cell_setting 'monoclinic'
loop_
_space_group_symop_operation_xyz
x,y,z
-x,y,-z
-x,-y,-z
x,-y,z
1/2+x,1/2+y,z
1/2-x,1/2+y,-z
1/2-x,1/2-y,-z
1/2+x,1/2-y,z
loop_
_atom_site_type_symbol
_atom_site_label
_atom_site_fract_x
_atom_site_fract_y
_atom_site_fract_z
Si Si1 0.085726 0.252208 0.638241
Si Si2 0.727135 0.851738 0.467353
Si Si3 0.413997 0.807753 0.860944
Si Si4 0.218496 0.199676 0.941928
Si Si5 0.086891 0.950632 0.873118
Si Si6 0.339594 0.419804 0.516833
Si Si7 0.522452 0.635623 0.280922
O O1 0.103587 0.270168 0.382863
O O2 0.132946 0.209257 0.790064
O O3 0.000000 0.248446 0.500000
O O4 0.102644 0.289055 0.884356
O O5 0.640478 0.847497 0.305398
O O6 0.756200 0.821895 0.280371
O O7 0.761551 0.900355 0.462198
O O8 0.756644 0.830734 0.779536
O O9 0.500000 0.817909 0.000000
O O10 0.250000 0.250000 0.000000
O O11 0.141071 0.941686 0.723077
O O12 0.027155 0.910666 0.792740
O O13 0.053437 0.000000 0.796279
O O14 0.131109 0.948643 0.203391
O O15 0.394707 0.377432 0.604404
O O16 0.500000 0.658061 0.500000
O O17 0.500000 0.662624 0.000000
#
# Coordination Sequence:
#
# PCOD9182713 Si02
#       7
#     8   8   8   8   8   8   8
#     4  10  20  34  50  74  98 123 172 223 252 295
#     4  12  22  35  53  77 105 137 166 217 273 317
#     4  10  19  33  53  73  96 125 163 217 266 297
#     4  12  21  35  56  75  98 138 183 213 255 324
#     4  10  19  34  55  75 100 140 180 211 244 295
#     4  10  21  33  47  76 105 130 167 214 261 301
#     4   8  16  29  46  67  95 130 167 205 242 283
#
# _framework density 19.294559
#
# number of rings (size 3 to 8) (size 9 to 14) (size 15 to 20)
#    0.000    1.714    2.857    2.571    0.000    5.143 
#    0.000    6.429    0.000    0.000    0.000    0.000 
#    0.000    3.429    0.000    0.000    0.000    0.000 
#
# Total GULP energy -156236.525563 kJ/mol
# GULP energy per Si atom -5579.875913 kJ/mol
# Density = 1.925064 g / cm^3
# Si number density = 19.294559 Si / 1000 Ang^3
#
#
#
# Elastic Constant Matrix: (Units=GPa)
#
#
# Indices 1 2 3 4 5 6 
#
# 1 70.7009 8.7129 42.5371 0.0000 10.6413 0.0000
# 2 8.7129 48.6310 12.9013 0.0000 5.2862 0.0000
# 3 42.5371 12.9013 116.1088 0.0000 -16.5469 0.0000
# 4 0.0000 0.0000 0.0000 11.5437 0.0000 3.2914
# 5 10.6413 5.2862 -16.5469 0.0000 51.9743 0.0000
# 6 0.0000 0.0000 0.0000 3.2914 0.0000 20.3230
#
#
#
# Elastic Compliance Matrix: (Units=1/GPa)
#
#
# Indices 1 2 3 4 5 6 
#
# 1 0.020227 -0.000696 -0.008289 0.000000 -0.006709 0.000000
# 2 -0.000696 0.021681 -0.002565 0.000000 -0.002879 0.000000
# 3 -0.008289 -0.002565 0.012794 0.000000 0.006031 0.000000
# 4 0.000000 0.000000 0.000000 0.090822 0.000000 -0.014709
# 5 -0.006709 -0.002879 0.006031 0.000000 0.022827 0.000000
# 6 0.000000 0.000000 0.000000 -0.014709 0.000000 0.051587
#
#
# Mechanical properties :
#
#
# Convention : Reuss Voigt Hill
#
# Bulk Modulus (GPa) = 31.64242 40.41593 36.02918
# Shear Modulus (GPa) = 19.71840 28.18749 23.95295
#
# Velocity S-wave (km/s) = 3.20029 3.82632 3.52722
# Velocity P-wave (km/s) = 5.48553 6.36500 5.94156
#
# Compressibility (1/GPa) = 0.03160314
#
# Stress axis : x y z
#
# Youngs Moduli (GPa) = 49.43941 46.12344 78.16266
#
# Poissons Ratio (x) = 0.03208 0.64790
# Poissons Ratio (y) = 0.03439 0.20045
# Poissons Ratio (z) = 0.40981 0.11829
#
# Static dielectric constant tensor:
#      x y z
#    x 1.685660 0.000000 0.088020 
#    y 0.000000 1.693700 0.000000 
#    z 0.088020 0.000000 1.663890 
# 
# From -- ./inp_files/22374.got.cif
#   From: 2010.05.17/outbox.cif.g08.bks.cpg/sg12_12_cif.got.tgz:22374.got - 2010.06.03 13:09:07.
