data_PCOD9182134
_publ_section_title
;
Structure prediction by ZEFSAII (Michael W. Deem and Ramdas Pophale) SiO2 
 PCOD9182134
Probable space group: C 2/M
;
_chemical_formula_sum "Si O2"
_cell_formula_units_Z 64
_cell_length_a 23.257387
_cell_length_b 9.472332
_cell_length_c 21.587285
_cell_angle_alpha 90.000000
_cell_angle_beta 51.415562
_cell_angle_gamma 90.000000
_cell_volume 3717.494662
_symmetry_space_group_name_H-M "C 2/M"
_symmetry_group_IT_number 12
_symmetry_cell_setting 'monoclinic'
loop_
_space_group_symop_operation_xyz
x,y,z
-x,y,-z
-x,-y,-z
x,-y,z
1/2+x,1/2+y,z
1/2-x,1/2+y,-z
1/2-x,1/2-y,-z
1/2+x,1/2-y,z
loop_
_atom_site_type_symbol
_atom_site_label
_atom_site_fract_x
_atom_site_fract_y
_atom_site_fract_z
Si Si1 0.412292 0.838607 0.557787
Si Si2 0.660830 0.665780 0.499440
Si Si3 0.189695 0.164090 0.612920
Si Si4 0.695198 0.830711 0.258534
Si Si5 0.008427 0.669284 0.922434
Si Si6 0.705726 0.331489 0.121987
Si Si7 0.351710 0.335253 0.218977
Si Si8 0.859654 0.668258 0.949554
O O1 0.500000 0.837295 0.500000
O O2 0.388526 0.742342 0.517166
O O3 0.370934 0.796132 0.649119
O O4 0.387110 0.000000 0.563097
O O5 0.662105 0.500000 0.487031
O O6 0.741560 0.731986 0.437135
O O7 0.640470 0.689622 0.585216
O O8 0.153223 0.180951 0.703727
O O9 0.215206 0.000000 0.591391
O O10 0.692717 0.743836 0.196526
O O11 0.772465 0.800871 0.241844
O O12 0.692338 0.000000 0.247954
O O13 0.015075 0.500000 0.914125
O O14 0.082357 0.740867 0.849235
O O15 0.935780 0.708464 0.931920
O O16 0.000000 0.707688 0.000000
O O17 0.692458 0.500000 0.134256
O O18 0.657354 0.258121 0.100538
O O19 0.790567 0.310757 0.042611
O O20 0.365959 0.500000 0.195520
O O21 0.861661 0.500000 0.933604
#
# Coordination Sequence:
#
# PCOD9182134 Si02
#       8
#     8   8   8   8   8   8   8   8
#     4  10  21  39  59  77 106 148 186 224 273 332
#     4  10  19  32  56  83 108 139 177 226 274 320
#     4   9  18  35  55  78 110 144 177 219 272 326
#     4  10  20  36  57  80 108 142 181 225 274 326
#     4  10  21  37  56  81 115 148 178 222 273 320
#     4  10  20  35  59  85 107 142 186 229 269 314
#     4  10  20  35  56  80 110 145 181 226 272 322
#     4   9  19  37  57  79 113 149 181 219 268 324
#
# _framework density 17.215895
#
# number of rings (size 3 to 8) (size 9 to 14) (size 15 to 20)
#    0.000    2.250    1.250    1.500    0.000    4.500 
#    2.250    0.000    0.000    0.000    0.000    0.000 
#    0.000    0.000    0.000    0.000    0.000    0.000 
#
# Total GULP energy -178444.153542 kJ/mol
# GULP energy per Si atom -5576.379798 kJ/mol
# Density = 1.717671 g / cm^3
# Si number density = 17.215895 Si / 1000 Ang^3
#
#
#
# Elastic Constant Matrix: (Units=GPa)
#
#
# Indices 1 2 3 4 5 6 
#
# 1 101.5646 60.7882 84.5705 0.0000 12.1902 0.0001
# 2 60.7882 65.0209 63.8994 0.0002 18.0196 0.0000
# 3 84.5705 63.8994 109.9234 -0.0001 20.2618 0.0000
# 4 0.0000 0.0002 -0.0001 28.0986 0.0000 1.8645
# 5 12.1902 18.0196 20.2618 0.0000 28.6440 0.0000
# 6 0.0001 0.0000 0.0000 1.8645 0.0000 26.4851
#
#
#
# Elastic Compliance Matrix: (Units=1/GPa)
#
#
# Indices 1 2 3 4 5 6 
#
# 1 0.033203 -0.015746 -0.017954 0.000000 0.008475 0.000000
# 2 -0.015746 0.045473 -0.011823 0.000000 -0.013542 0.000000
# 3 -0.017954 -0.011823 0.031052 0.000000 -0.006887 0.000000
# 4 0.000000 0.000000 0.000000 0.035756 0.000000 -0.002517
# 5 0.008475 -0.013542 -0.006887 0.000000 0.044695 0.000000
# 6 0.000000 0.000000 0.000000 -0.002517 0.000000 0.037934
#
#
# Mechanical properties :
#
#
# Convention : Reuss Voigt Hill
#
# Bulk Modulus (GPa) = 53.52722 77.22504 65.37613
# Shear Modulus (GPa) = 15.36634 21.12894 18.24764
#
# Velocity S-wave (km/s) = 2.99083 3.50707 3.25919
# Velocity P-wave (km/s) = 6.56399 7.83286 7.22633
#
# Compressibility (1/GPa) = 0.01868208
#
# Stress axis : x y z
#
# Youngs Moduli (GPa) = 30.11821 21.99106 32.20357
#
# Poissons Ratio (x) = 0.34627 0.57817
# Poissons Ratio (y) = 0.47424 0.38076
# Poissons Ratio (z) = 0.54073 0.26001
#
# Static dielectric constant tensor:
#      x y z
#    x 1.579940 0.000000 0.012950 
#    y 0.000000 1.577650 0.000000 
#    z 0.012950 0.000000 1.580300 
# 
# From -- ./inp_files/319757.got.cif
#   From: 2010.05.17/outbox.cif.g08.bks.cpg/sg12_160_cif.got.tgz:319757.got - 2010.06.03 13:09:07.
