data_PCOD9182009
_publ_section_title
;
Structure prediction by ZEFSAII (Michael W. Deem and Ramdas Pophale) SiO2 
 PCOD9182009
Probable space group: C 2/M
;
_chemical_formula_sum "Si O2"
_cell_formula_units_Z 56
_cell_length_a 29.289373
_cell_length_b 7.340723
_cell_length_c 15.238784
_cell_angle_alpha 90.000000
_cell_angle_beta 48.399065
_cell_angle_gamma 90.000000
_cell_volume 2450.063181
_symmetry_space_group_name_H-M "C 2/M"
_symmetry_group_IT_number 12
_symmetry_cell_setting 'monoclinic'
loop_
_space_group_symop_operation_xyz
x,y,z
-x,y,-z
-x,-y,-z
x,-y,z
1/2+x,1/2+y,z
1/2-x,1/2+y,-z
1/2-x,1/2-y,-z
1/2+x,1/2-y,z
loop_
_atom_site_type_symbol
_atom_site_label
_atom_site_fract_x
_atom_site_fract_y
_atom_site_fract_z
Si Si1 0.122230 0.720948 0.566803
Si Si2 0.193075 0.284843 0.636005
Si Si3 0.437857 0.222154 0.630540
Si Si4 0.048316 0.790241 0.009538
Si Si5 0.185006 0.723061 0.312508
Si Si6 0.513719 0.219691 0.250662
Si Si7 0.816426 0.203471 0.155318
O O1 0.125968 0.500000 0.562388
O O2 0.137401 0.778920 0.645987
O O3 0.168497 0.782963 0.432800
O O4 0.053812 0.771276 0.631138
O O5 0.187721 0.500000 0.659395
O O6 0.250000 0.250000 0.500000
O O7 0.197106 0.191583 0.723633
O O8 0.500000 0.278912 0.500000
O O9 0.373854 0.278415 0.669006
O O10 0.441903 0.276716 0.727462
O O11 0.438639 0.000000 0.626001
O O12 0.023156 0.787419 0.140369
O O13 0.058341 0.000000 0.967974
O O14 0.116519 0.707903 0.931683
O O15 0.000000 0.712902 0.000000
O O16 0.187047 0.500000 0.309243
O O17 0.253103 0.784656 0.199217
O O18 0.516036 0.000000 0.242158
O O19 0.822823 0.000000 0.108513
#
# Coordination Sequence:
#
# PCOD9182009 Si02
#       7
#     8   8   8   8   8   8   8
#     4   9  16  27  46  74 104 130 161 206 255 305
#     4  11  20  30  47  74 106 135 167 208 258 312
#     4   9  15  26  49  81 109 130 161 211 262 308
#     4  10  22  39  55  72 101 143 183 214 253 311
#     4   9  15  27  48  74 103 129 162 207 255 306
#     4  10  19  32  55  83 104 130 172 219 262 300
#     4  10  20  35  53  71  98 139 179 214 256 304
#
# _framework density 22.856555
#
# number of rings (size 3 to 8) (size 9 to 14) (size 15 to 20)
#    0.000    2.286    2.857    1.286    0.000    0.857 
#    0.000    1.429    0.000    1.286    0.000    0.000 
#    0.000    0.000    0.000    0.000    0.000    0.000 
#
# Total GULP energy -156232.923361 kJ/mol
# GULP energy per Si atom -5579.747263 kJ/mol
# Density = 2.280453 g / cm^3
# Si number density = 22.856555 Si / 1000 Ang^3
#
#
#
# Elastic Constant Matrix: (Units=GPa)
#
#
# Indices 1 2 3 4 5 6 
#
# 1 187.0558 6.4542 46.3951 0.0002 -20.0641 -0.0004
# 2 6.4542 92.0566 -4.5081 0.0005 -3.4738 -0.0015
# 3 46.3951 -4.5081 82.5313 0.0005 -17.8522 0.0001
# 4 0.0002 0.0005 0.0005 -10.8449 0.0001 -1.5174
# 5 -20.0641 -3.4738 -17.8522 0.0001 45.6130 0.0001
# 6 -0.0004 -0.0015 0.0001 -1.5174 0.0001 -7.5596
#
#
#
# Elastic Compliance Matrix: (Units=1/GPa)
#
#
# Indices 1 2 3 4 5 6 
#
# 1 0.006334 -0.000549 -0.003274 0.000000 0.001463 0.000000
# 2 -0.000549 0.010996 0.001134 0.000001 0.001040 -0.000002
# 3 -0.003274 0.001134 0.014996 0.000001 0.004515 0.000000
# 4 0.000000 0.000001 0.000001 -0.094874 0.000001 0.019044
# 5 0.001463 0.001040 0.004515 0.000001 0.024413 0.000000
# 6 0.000000 -0.000002 0.000000 0.019044 0.000000 -0.136105
#
#
# Mechanical properties :
#
#
# Convention : Reuss Voigt Hill
#
# Bulk Modulus (GPa) = 37.10887 50.92515 44.01701
# Shear Modulus (GPa) = -31.27358 26.32855 -2.47252
#
# Velocity S-wave (km/s) = -3.70301 3.39765 -1.04120
# Velocity P-wave (km/s) = 1.41852 6.14172 4.22543
#
# Compressibility (1/GPa) = 0.02694774
#
# Stress axis : x y z
#
# Youngs Moduli (GPa) = 157.87919 90.94068 66.68504
#
# Poissons Ratio (x) = 0.04995 0.21834
# Poissons Ratio (y) = 0.08671 -0.07564
# Poissons Ratio (z) = 0.51693 -0.10315
#
# Static dielectric constant tensor:
#      x y z
#    x 1.907830 0.000000 -0.051580 
#    y 0.000000 1.892090 0.000000 
#    z -0.051580 0.000000 1.812180 
# 
# From -- ./inp_files/237370.got.cif
#   From: 2010.05.17/outbox.cif.g08.bks.cpg/sg12_119_cif.got.tgz:237370.got - 2010.06.03 13:09:07.
