data_PCOD9182045
_publ_section_title
;
Structure prediction by ZEFSAII (Michael W. Deem and Ramdas Pophale) SiO2 
 PCOD9182045
Probable space group: C 2/M
;
_chemical_formula_sum "Si O2"
_cell_formula_units_Z 64
_cell_length_a 14.826890
_cell_length_b 9.231147
_cell_length_c 22.276332
_cell_angle_alpha 90.000000
_cell_angle_beta 79.577549
_cell_angle_gamma 90.000000
_cell_volume 2998.638205
_symmetry_space_group_name_H-M "C 2/M"
_symmetry_group_IT_number 12
_symmetry_cell_setting 'monoclinic'
loop_
_space_group_symop_operation_xyz
x,y,z
-x,y,-z
-x,-y,-z
x,-y,z
1/2+x,1/2+y,z
1/2-x,1/2+y,-z
1/2-x,1/2-y,-z
1/2+x,1/2-y,z
loop_
_atom_site_type_symbol
_atom_site_label
_atom_site_fract_x
_atom_site_fract_y
_atom_site_fract_z
Si Si1 0.380817 0.669645 0.663885
Si Si2 0.856998 0.165901 0.429107
Si Si3 0.864541 0.667471 0.545655
Si Si4 0.448329 0.328844 0.287686
Si Si5 0.194781 0.325997 0.141054
Si Si6 0.205114 0.329709 0.761470
Si Si7 0.866554 0.825404 0.047593
Si Si8 0.045072 0.174941 0.090566
O O1 0.400061 0.500000 0.652061
O O2 0.399803 0.751696 0.600244
O O3 0.447615 0.715981 0.710166
O O4 0.276103 0.684321 0.697181
O O5 0.892106 0.266499 0.478437
O O6 0.746795 0.181741 0.438232
O O7 0.899825 0.189791 0.358646
O O8 0.876043 0.000000 0.444215
O O9 0.888512 0.500000 0.545706
O O10 0.445048 0.500000 0.271841
O O11 0.391335 0.237362 0.246919
O O12 0.187923 0.500000 0.145565
O O13 0.245721 0.260601 0.192345
O O14 0.264999 0.283624 0.078575
O O15 0.097917 0.253217 0.137530
O O16 0.198616 0.500000 0.777496
O O17 0.940404 0.780930 0.089488
O O18 0.869774 0.000000 0.046966
O O19 0.903233 0.783072 0.977946
O O20 0.049457 0.000000 0.097583
#
# Coordination Sequence:
#
# PCOD9182045 Si02
#       8
#     8   8   8   8   8   8   8   8
#     4  10  22  39  60  81 107 143 184 228 279 333
#     4   9  18  33  55  81 110 143 177 217 273 334
#     4  10  19  32  55  84 113 143 177 220 271 328
#     4  10  21  40  62  82 105 142 186 229 277 330
#     4  11  22  36  56  83 114 149 186 227 275 327
#     4  11  24  41  58  80 109 145 188 235 279 322
#     4   8  17  34  58  85 115 151 185 221 272 327
#     4   9  17  35  60  85 114 148 187 227 267 321
#
# _framework density 21.343021
#
# number of rings (size 3 to 8) (size 9 to 14) (size 15 to 20)
#    0.000    2.250    1.250    2.250    0.000    3.500 
#    0.000   10.625    0.000    0.000    0.000    0.000 
#    0.000    0.000    0.000    0.000    0.000    0.000 
#
# Total GULP energy -178767.525735 kJ/mol
# GULP energy per Si atom -5586.485179 kJ/mol
# Density = 2.129444 g / cm^3
# Si number density = 21.343021 Si / 1000 Ang^3
#
#
#
# Elastic Constant Matrix: (Units=GPa)
#
#
# Indices 1 2 3 4 5 6 
#
# 1 94.6253 36.2813 13.8700 0.0000 29.3976 0.0000
# 2 36.2813 62.7172 34.3472 0.0000 28.5668 0.0000
# 3 13.8700 34.3472 57.4457 0.0000 26.4737 0.0000
# 4 0.0000 0.0000 0.0000 28.2842 0.0000 11.4954
# 5 29.3976 28.5668 26.4737 0.0000 42.6575 0.0000
# 6 0.0000 0.0000 0.0000 11.4954 0.0000 24.6530
#
#
#
# Elastic Compliance Matrix: (Units=1/GPa)
#
#
# Indices 1 2 3 4 5 6 
#
# 1 0.015445 -0.007697 0.004766 0.000000 -0.008447 0.000000
# 2 -0.007697 0.030971 -0.013369 0.000000 -0.007139 0.000000
# 3 0.004766 -0.013369 0.030306 0.000000 -0.013140 0.000000
# 4 0.000000 0.000000 0.000000 0.043622 0.000000 -0.020341
# 5 -0.008447 -0.007139 -0.013140 0.000000 0.042199 0.000000
# 6 0.000000 0.000000 0.000000 -0.020341 0.000000 0.050048
#
#
# Mechanical properties :
#
#
# Convention : Reuss Voigt Hill
#
# Bulk Modulus (GPa) = 22.66530 42.64281 32.65405
# Shear Modulus (GPa) = 19.23824 27.80492 23.52158
#
# Velocity S-wave (km/s) = 3.00556 3.61330 3.32335
# Velocity P-wave (km/s) = 4.76310 6.11809 5.48262
#
# Compressibility (1/GPa) = 0.04412031
#
# Stress axis : x y z
#
# Youngs Moduli (GPa) = 64.74580 32.28857 32.99677
#
# Poissons Ratio (x) = 0.24854 -0.15726
# Poissons Ratio (y) = 0.49837 0.44114
# Poissons Ratio (z) = -0.30858 0.43168
#
# Static dielectric constant tensor:
#      x y z
#    x 1.805440 0.000000 -0.029050 
#    y 0.000000 1.709580 0.000000 
#    z -0.029050 0.000000 1.786460 
# 
# From -- ./inp_files/338768.got.cif
#   From: 2010.05.17/outbox.cif.g08.bks.cpg/sg12_170_cif.got.tgz:338768.got - 2010.06.03 13:09:07.
