data_PCOD9182652
_publ_section_title
;
Structure prediction by ZEFSAII (Michael W. Deem and Ramdas Pophale) SiO2 
 PCOD9182652
Probable space group: C 2/M
;
_chemical_formula_sum "Si O2"
_cell_formula_units_Z 56
_cell_length_a 14.692956
_cell_length_b 18.668558
_cell_length_c 14.093842
_cell_angle_alpha 90.000000
_cell_angle_beta 136.375867
_cell_angle_gamma 90.000000
_cell_volume 2667.171365
_symmetry_space_group_name_H-M "C 2/M"
_symmetry_group_IT_number 12
_symmetry_cell_setting 'monoclinic'
loop_
_space_group_symop_operation_xyz
x,y,z
-x,y,-z
-x,-y,-z
x,-y,z
1/2+x,1/2+y,z
1/2-x,1/2+y,-z
1/2-x,1/2-y,-z
1/2+x,1/2-y,z
loop_
_atom_site_type_symbol
_atom_site_label
_atom_site_fract_x
_atom_site_fract_y
_atom_site_fract_z
Si Si1 0.274026 0.782659 0.876392
Si Si2 0.530389 0.421745 0.911390
Si Si3 0.789011 0.377932 0.189853
Si Si4 0.636101 0.082011 0.559059
Si Si5 0.975596 0.775584 0.175130
Si Si6 0.364062 0.080280 0.836875
Si Si7 0.082954 0.638289 0.330320
O O1 0.247032 0.704313 0.812422
O O2 0.149465 0.791361 0.851884
O O3 0.285724 0.851281 0.818818
O O4 0.408670 0.769273 0.037900
O O5 0.499099 0.500000 0.847736
O O6 0.471675 0.351799 0.818334
O O7 0.500000 0.420488 0.000000
O O8 0.688320 0.407820 0.035717
O O9 0.776790 0.418271 0.280653
O O10 0.933998 0.380950 0.253291
O O11 0.500000 0.114105 0.500000
O O12 0.671404 0.121579 0.488975
O O13 0.609745 0.000000 0.511138
O O14 0.077091 0.722070 0.300195
O O15 0.386220 0.094899 0.741792
O O16 0.306289 0.000000 0.805721
O O17 0.500000 0.080381 0.000000
#
# Coordination Sequence:
#
# PCOD9182652 Si02
#       7
#     8   8   8   8   8   8   8
#     4   9  18  33  47  71  99 135 175 204 248 310
#     4  10  21  32  49  76 100 130 171 216 263 300
#     4   9  19  34  56  76 103 138 173 213 260 309
#     4   9  17  31  52  79 108 136 168 214 264 309
#     4   9  18  32  50  68  96 137 171 209 250 299
#     4  11  22  31  47  76 109 139 169 213 264 312
#     4  10  19  33  52  79 106 136 172 203 260 317
#
# _framework density 20.996027000000002
#
# number of rings (size 3 to 8) (size 9 to 14) (size 15 to 20)
#    0.000    2.429    1.429    1.714    4.000    2.286 
#    0.000    0.714    0.000    0.000    0.000    0.000 
#    0.000    5.714    0.000    0.000    0.000    0.000 
#
# Total GULP energy -156165.441748 kJ/mol
# GULP energy per Si atom -5577.337205 kJ/mol
# Density = 2.094824 g / cm^3
# Si number density = 20.996027 Si / 1000 Ang^3
#
#
#
# Elastic Constant Matrix: (Units=GPa)
#
#
# Indices 1 2 3 4 5 6 
#
# 1 53.4345 46.1284 14.1418 0.0000 -19.9120 0.0000
# 2 46.1284 167.8806 18.6968 0.0000 -29.6478 0.0000
# 3 14.1418 18.6968 55.1011 0.0000 -25.4267 0.0000
# 4 0.0000 0.0000 0.0000 24.5621 0.0000 -8.5525
# 5 -19.9120 -29.6478 -25.4267 0.0000 32.2149 0.0000
# 6 0.0000 0.0000 0.0000 -8.5525 0.0000 18.5463
#
#
#
# Elastic Compliance Matrix: (Units=1/GPa)
#
#
# Indices 1 2 3 4 5 6 
#
# 1 0.028077 -0.005535 0.000519 0.000000 0.012670 0.000000
# 2 -0.005535 0.008236 0.000857 0.000000 0.004835 0.000000
# 3 0.000519 0.000857 0.028684 0.000000 0.023749 0.000000
# 4 0.000000 0.000000 0.000000 0.048501 0.000000 0.022366
# 5 0.012670 0.004835 0.023749 0.000000 0.062067 0.000000
# 6 0.000000 0.000000 0.000000 0.022366 0.000000 0.064233
#
#
# Mechanical properties :
#
#
# Convention : Reuss Voigt Hill
#
# Bulk Modulus (GPa) = 17.64363 48.26111 32.95237
# Shear Modulus (GPa) = 18.72610 28.22797 23.47703
#
# Velocity S-wave (km/s) = 2.98969 3.67064 3.34753
# Velocity P-wave (km/s) = 4.50990 6.40317 5.53804
#
# Compressibility (1/GPa) = 0.05667767
#
# Stress axis : x y z
#
# Youngs Moduli (GPa) = 35.61688 121.42086 34.86322
#
# Poissons Ratio (x) = 0.67205 -0.01808
# Poissons Ratio (y) = 0.19713 -0.02988
# Poissons Ratio (z) = -0.01847 -0.10407
#
# Static dielectric constant tensor:
#      x y z
#    x 1.795600 0.000000 0.036440 
#    y 0.000000 1.775220 0.000000 
#    z 0.036440 0.000000 1.828150 
# 
# From -- ./inp_files/216448.got.cif
#   From: 2010.05.17/outbox.cif.g08.bks.cpg/sg12_109_cif.got.tgz:216448.got - 2010.06.03 13:09:07.
