data_PCOD9182515
_publ_section_title
;
Structure prediction by ZEFSAII (Michael W. Deem and Ramdas Pophale) SiO2 
 PCOD9182515
Probable space group: C 2/M
;
_chemical_formula_sum "Si O2"
_cell_formula_units_Z 56
_cell_length_a 15.618743
_cell_length_b 7.579481
_cell_length_c 24.219197
_cell_angle_alpha 90.000000
_cell_angle_beta 115.791761
_cell_angle_gamma 90.000000
_cell_volume 2581.497903
_symmetry_space_group_name_H-M "C 2/M"
_symmetry_group_IT_number 12
_symmetry_cell_setting 'monoclinic'
loop_
_space_group_symop_operation_xyz
x,y,z
-x,y,-z
-x,-y,-z
x,-y,z
1/2+x,1/2+y,z
1/2-x,1/2+y,-z
1/2-x,1/2-y,-z
1/2+x,1/2-y,z
loop_
_atom_site_type_symbol
_atom_site_label
_atom_site_fract_x
_atom_site_fract_y
_atom_site_fract_z
Si Si1 0.659337 0.282597 0.803215
Si Si2 0.341891 0.796814 0.801468
Si Si3 0.948991 0.202161 0.725355
Si Si4 0.824865 0.789028 0.069027
Si Si5 0.314436 0.713443 0.591775
Si Si6 0.103323 0.710515 0.505577
Si Si7 0.481854 0.286170 0.932258
O O1 0.659950 0.500000 0.804145
O O2 0.736178 0.226609 0.779902
O O3 0.553874 0.219363 0.759815
O O4 0.690617 0.222997 0.873327
O O5 0.404215 0.701085 0.773608
O O6 0.390638 0.784862 0.875188
O O7 0.338895 0.000000 0.783470
O O8 0.874268 0.279109 0.661029
O O9 0.963686 0.000000 0.711495
O O10 0.927476 0.727314 0.077460
O O11 0.829252 0.000000 0.073818
O O12 0.750000 0.750000 0.000000
O O13 0.307863 0.500000 0.591697
O O14 0.204290 0.777980 0.559690
O O15 0.374169 0.758881 0.553164
O O16 0.101081 0.500000 0.514116
O O17 0.000000 0.776717 0.500000
O O18 0.476088 0.500000 0.930357
O O19 0.500000 0.230127 0.000000
#
# Coordination Sequence:
#
# PCOD9182515 Si02
#       7
#     8   8   8   8   8   8   8
#     4   9  19  36  54  72 102 141 172 215 276 325
#     4  11  22  35  54  80 106 135 178 226 276 327
#     4  10  20  39  59  75 108 149 186 223 268 329
#     4  10  19  33  52  73 100 134 170 213 271 324
#     4   9  19  34  56  83 107 147 193 223 261 320
#     4   9  18  34  55  82 119 151 178 223 276 316
#     4  10  20  35  55  77 103 138 178 220 273 333
#
# _framework density 21.692831000000002
#
# number of rings (size 3 to 8) (size 9 to 14) (size 15 to 20)
#    0.000    2.286    1.429    1.286    0.000    2.857 
#    0.000    2.143    0.000    0.000    0.000    0.000 
#    0.000    0.000    0.000    0.000    0.000    0.000 
#
# Total GULP energy -156208.470514 kJ/mol
# GULP energy per Si atom -5578.873947 kJ/mol
# Density = 2.164346 g / cm^3
# Si number density = 21.692831 Si / 1000 Ang^3
#
#
#
# Elastic Constant Matrix: (Units=GPa)
#
#
# Indices 1 2 3 4 5 6 
#
# 1 165.1289 3.1015 47.4355 0.0000 31.3637 0.0000
# 2 3.1015 46.7030 -6.2160 0.0000 3.6536 0.0000
# 3 47.4355 -6.2160 120.3308 0.0000 26.0862 0.0000
# 4 0.0000 0.0000 0.0000 12.5446 0.0000 -9.8749
# 5 31.3637 3.6536 26.0862 0.0000 23.5075 0.0000
# 6 0.0000 0.0000 0.0000 -9.8749 0.0000 4.6399
#
#
#
# Elastic Compliance Matrix: (Units=1/GPa)
#
#
# Indices 1 2 3 4 5 6 
#
# 1 0.008228 0.000065 -0.001130 0.000000 -0.009734 0.000000
# 2 0.000065 0.022232 0.002490 0.000000 -0.006304 0.000000
# 3 -0.001130 0.002490 0.011379 0.000000 -0.011506 0.000000
# 4 0.000000 0.000000 0.000000 -0.118038 0.000000 -0.251216
# 5 -0.009734 -0.006304 -0.011506 0.000000 0.069275 0.000000
# 6 0.000000 0.000000 0.000000 -0.251216 0.000000 -0.319131
#
#
# Mechanical properties :
#
#
# Convention : Reuss Voigt Hill
#
# Bulk Modulus (GPa) = 22.37743 46.75608 34.56675
# Shear Modulus (GPa) = -15.92323 27.32784 5.70230
#
# Velocity S-wave (km/s) = -2.71224 3.55317 1.62307
# Velocity P-wave (km/s) = 0.72777 6.19950 4.41381
#
# Compressibility (1/GPa) = 0.04468788
#
# Stress axis : x y z
#
# Youngs Moduli (GPa) = 121.53477 44.97989 87.88135
#
# Poissons Ratio (x) = -0.00291 0.09931
# Poissons Ratio (y) = -0.00786 -0.21880
# Poissons Ratio (z) = 0.13734 -0.11199
#
# Static dielectric constant tensor:
#      x y z
#    x 1.792780 0.000000 0.029580 
#    y 0.000000 1.904380 0.000000 
#    z 0.029580 0.000000 1.800530 
# 
# From -- ./inp_files/338190.got.cif
#   From: 2010.05.17/outbox.cif.g08.bks.cpg/sg12_170_cif.got.tgz:338190.got - 2010.06.03 13:09:07.
