data_PCOD9182742
_publ_section_title
;
Structure prediction by ZEFSAII (Michael W. Deem and Ramdas Pophale) SiO2 
 PCOD9182742
Probable space group: C 2/M
;
_chemical_formula_sum "Si O2"
_cell_formula_units_Z 56
_cell_length_a 12.498953
_cell_length_b 13.756732
_cell_length_c 19.373786
_cell_angle_alpha 90.000000
_cell_angle_beta 122.962819
_cell_angle_gamma 90.000000
_cell_volume 2794.973554
_symmetry_space_group_name_H-M "C 2/M"
_symmetry_group_IT_number 12
_symmetry_cell_setting 'monoclinic'
loop_
_space_group_symop_operation_xyz
x,y,z
-x,y,-z
-x,-y,-z
x,-y,z
1/2+x,1/2+y,z
1/2-x,1/2+y,-z
1/2-x,1/2-y,-z
1/2+x,1/2-y,z
loop_
_atom_site_type_symbol
_atom_site_label
_atom_site_fract_x
_atom_site_fract_y
_atom_site_fract_z
Si Si1 0.494139 0.615030 0.644683
Si Si2 0.893584 0.722613 0.530324
Si Si3 0.740350 0.881132 0.192643
Si Si4 0.469077 0.880709 0.159993
Si Si5 0.764075 0.384331 0.365119
Si Si6 0.571989 0.116320 0.699038
Si Si7 0.356941 0.887840 0.982417
O O1 0.494016 0.500000 0.631621
O O2 0.468760 0.676772 0.567252
O O3 0.628388 0.644545 0.724610
O O4 0.377916 0.636360 0.657310
O O5 0.750000 0.750000 0.500000
O O6 0.868325 0.670860 0.448623
O O7 0.956551 0.654866 0.611076
O O8 0.613926 0.852785 0.190726
O O9 0.737696 0.000000 0.188469
O O10 0.727381 0.845248 0.109048
O O11 0.434327 0.848883 0.224657
O O12 0.376513 0.845604 0.065642
O O13 0.465316 0.000000 0.156707
O O14 0.783062 0.500000 0.381627
O O15 0.799166 0.361021 0.298581
O O16 0.561292 0.000000 0.697959
O O17 0.315347 0.000000 0.977116
O O18 0.500000 0.890314 0.000000
#
# Coordination Sequence:
#
# PCOD9182742 Si02
#       7
#     8   8   8   8   8   8   8
#     4   9  18  33  52  73  98 129 167 205 248 296
#     4  10  20  34  50  73  96 123 167 210 251 290
#     4   8  13  25  46  72 101 131 160 195 243 297
#     4   8  14  25  44  74 104 126 156 200 247 292
#     4   9  18  34  55  72  92 130 174 210 242 290
#     4  10  19  33  53  74  98 128 165 208 248 287
#     4   7  10  19  40  69  99 129 159 191 233 289
#
# _framework density 20.035969000000001
#
# number of rings (size 3 to 8) (size 9 to 14) (size 15 to 20)
#    0.000    3.286    0.000    2.571    0.000    1.714 
#    7.714    0.000    0.000    3.429    0.000    6.000 
#    0.000    0.000    0.000    0.000    0.000    1.286 
#
# Total GULP energy -155974.604865 kJ/mol
# GULP energy per Si atom -5570.521602 kJ/mol
# Density = 1.999037 g / cm^3
# Si number density = 20.035969 Si / 1000 Ang^3
#
#
#
# Elastic Constant Matrix: (Units=GPa)
#
#
# Indices 1 2 3 4 5 6 
#
# 1 89.2292 26.4826 74.5476 0.0000 -19.7245 0.0000
# 2 26.4826 53.1864 29.0411 0.0000 -4.3743 0.0000
# 3 74.5476 29.0411 149.0211 0.0000 -20.6026 0.0000
# 4 0.0000 0.0000 0.0000 10.3767 0.0000 0.7222
# 5 -19.7245 -4.3743 -20.6026 0.0000 40.5299 0.0000
# 6 0.0000 0.0000 0.0000 0.7222 0.0000 17.1464
#
#
#
# Elastic Compliance Matrix: (Units=1/GPa)
#
#
# Indices 1 2 3 4 5 6 
#
# 1 0.021450 -0.005355 -0.008952 0.000000 0.005310 0.000000
# 2 -0.005355 0.022379 -0.001838 0.000000 -0.001125 0.000000
# 3 -0.008952 -0.001838 0.011743 0.000000 0.001414 0.000000
# 4 0.000000 0.000000 0.000000 0.096653 0.000000 -0.004071
# 5 0.005310 -0.001125 0.001414 0.000000 0.027855 0.000000
# 6 0.000000 0.000000 0.000000 -0.004071 0.000000 0.058493
#
#
# Mechanical properties :
#
#
# Convention : Reuss Voigt Hill
#
# Bulk Modulus (GPa) = 42.95453 61.28661 52.12057
# Shear Modulus (GPa) = 17.94538 24.36830 21.15684
#
# Velocity S-wave (km/s) = 2.99600 3.49123 3.25305
# Velocity P-wave (km/s) = 5.78388 6.84882 6.33875
#
# Compressibility (1/GPa) = 0.02328043
#
# Stress axis : x y z
#
# Youngs Moduli (GPa) = 46.62061 44.68422 85.16048
#
# Poissons Ratio (x) = 0.23930 0.76239
# Poissons Ratio (y) = 0.24967 0.15651
# Poissons Ratio (z) = 0.41737 0.08212
#
# Static dielectric constant tensor:
#      x y z
#    x 1.756630 0.000000 -0.030350 
#    y 0.000000 1.727210 0.000000 
#    z -0.030350 0.000000 1.717540 
# 
# From -- ./inp_files/270389.got.cif
#   From: 2010.05.17/outbox.cif.g08.bks.cpg/sg12_136_cif.got.tgz:270389.got - 2010.06.03 13:09:07.
