data_PCOD9182498
_publ_section_title
;
Structure prediction by ZEFSAII (Michael W. Deem and Ramdas Pophale) SiO2 
 PCOD9182498
Probable space group: C 2/M
;
_chemical_formula_sum "Si O2"
_cell_formula_units_Z 64
_cell_length_a 20.895298
_cell_length_b 7.730406
_cell_length_c 22.339215
_cell_angle_alpha 90.000000
_cell_angle_beta 117.686897
_cell_angle_gamma 90.000000
_cell_volume 3195.268080
_symmetry_space_group_name_H-M "C 2/M"
_symmetry_group_IT_number 12
_symmetry_cell_setting 'monoclinic'
loop_
_space_group_symop_operation_xyz
x,y,z
-x,y,-z
-x,-y,-z
x,-y,z
1/2+x,1/2+y,z
1/2-x,1/2+y,-z
1/2-x,1/2-y,-z
1/2+x,1/2-y,z
loop_
_atom_site_type_symbol
_atom_site_label
_atom_site_fract_x
_atom_site_fract_y
_atom_site_fract_z
Si Si1 0.052816 0.291043 0.201621
Si Si2 0.891468 0.711423 0.571923
Si Si3 0.469708 0.702148 0.048892
Si Si4 0.327621 0.798607 0.059459
Si Si5 0.683310 0.209373 0.338143
Si Si6 0.847041 0.294653 0.422317
Si Si7 0.559308 0.211810 0.647191
Si Si8 0.592014 0.788872 0.791238
O O1 0.053479 0.500000 0.198400
O O2 0.128203 0.232153 0.262468
O O3 0.029342 0.224470 0.126706
O O4 0.987686 0.244229 0.218490
O O5 0.889335 0.500000 0.571949
O O6 0.847287 0.769448 0.610837
O O7 0.859490 0.773419 0.494834
O O8 0.975359 0.761541 0.612528
O O9 0.456225 0.500000 0.033143
O O10 0.394260 0.771980 0.042578
O O11 0.500000 0.777935 0.000000
O O12 0.352301 0.720922 0.134384
O O13 0.322932 0.000000 0.068745
O O14 0.250000 0.750000 0.000000
O O15 0.765155 0.266727 0.366618
O O16 0.681779 0.000000 0.337588
O O17 0.860800 0.500000 0.432054
O O18 0.901348 0.225675 0.395548
O O19 0.597974 0.268737 0.725399
O O20 0.560779 0.000000 0.647163
O O21 0.595005 0.000000 0.791559
#
# Coordination Sequence:
#
# PCOD9182498 Si02
#       8
#     8   8   8   8   8   8   8   8
#     4   9  17  32  55  77  97 133 181 216 248 304
#     4   9  16  29  51  74  96 130 176 215 250 300
#     4  10  21  37  57  82 110 138 172 218 270 321
#     4  10  20  35  57  82 110 143 180 218 259 313
#     4  10  19  33  52  71 100 139 173 208 254 310
#     4  10  20  30  46  77 107 129 163 216 265 303
#     4   9  15  28  50  74  99 127 167 215 255 295
#     4   8  14  28  51  75  96 128 172 210 247 297
#
# _framework density 20.029616999999998
#
# number of rings (size 3 to 8) (size 9 to 14) (size 15 to 20)
#    0.000    2.625    1.250    2.250    0.000    3.000 
#    2.250    0.000    0.000    5.250    0.000    0.000 
#    0.000    0.000    0.000    0.000    0.000    0.000 
#
# Total GULP energy -178501.683427 kJ/mol
# GULP energy per Si atom -5578.177607 kJ/mol
# Density = 1.998403 g / cm^3
# Si number density = 20.029617 Si / 1000 Ang^3
#
#
#
# Elastic Constant Matrix: (Units=GPa)
#
#
# Indices 1 2 3 4 5 6 
#
# 1 28.3571 -12.3633 2.2941 0.0000 -0.8337 0.0000
# 2 -12.3633 22.3628 -8.1506 0.0000 0.6812 0.0000
# 3 2.2941 -8.1506 88.2029 0.0000 5.2568 0.0000
# 4 0.0000 0.0000 0.0000 3.0096 0.0000 14.4706
# 5 -0.8337 0.6812 5.2568 0.0000 31.3848 0.0000
# 6 0.0000 0.0000 0.0000 14.4706 0.0000 12.5942
#
#
#
# Elastic Compliance Matrix: (Units=1/GPa)
#
#
# Indices 1 2 3 4 5 6 
#
# 1 0.046595 0.026175 0.001179 0.000000 0.000472 0.000000
# 2 0.026175 0.061074 0.005051 0.000000 -0.001476 0.000000
# 3 0.001179 0.005051 0.011897 0.000000 -0.002071 0.000000
# 4 0.000000 0.000000 0.000000 -0.073438 0.000000 0.084379
# 5 0.000472 -0.001476 -0.002071 0.000000 0.032254 0.000000
# 6 0.000000 0.000000 0.000000 0.084379 0.000000 -0.017549
#
#
# Mechanical properties :
#
#
# Convention : Reuss Voigt Hill
#
# Bulk Modulus (GPa) = 5.42368 11.38701 8.40535
# Shear Modulus (GPa) = 86.98400 19.87389 53.42895
#
# Velocity S-wave (km/s) = 6.59712 3.15338 5.17038
# Velocity P-wave (km/s) = 7.79378 4.35383 6.31264
#
# Compressibility (1/GPa) = 0.18437665
#
# Stress axis : x y z
#
# Youngs Moduli (GPa) = 21.46144 16.37353 84.05469
#
# Poissons Ratio (x) = -0.42859 -0.09908
# Poissons Ratio (y) = -0.56176 -0.42455
# Poissons Ratio (z) = -0.02530 -0.08270
#
# Static dielectric constant tensor:
#      x y z
#    x 1.712060 0.000000 0.017610 
#    y 0.000000 1.756660 0.000000 
#    z 0.017610 0.000000 1.759800 
# 
# From -- ./inp_files/320001.got.cif
#   From: 2010.05.17/outbox.cif.g08.bks.cpg/sg12_161_cif.got.tgz:320001.got - 2010.06.03 13:09:07.
