data_PCOD9182868
_publ_section_title
;
Structure prediction by ZEFSAII (Michael W. Deem and Ramdas Pophale) SiO2 
 PCOD9182868
Probable space group: C 2/M
;
_chemical_formula_sum "Si O2"
_cell_formula_units_Z 56
_cell_length_a 24.177932
_cell_length_b 14.855652
_cell_length_c 12.063489
_cell_angle_alpha 90.000000
_cell_angle_beta 40.991594
_cell_angle_gamma 90.000000
_cell_volume 2842.191985
_symmetry_space_group_name_H-M "C 2/M"
_symmetry_group_IT_number 12
_symmetry_cell_setting 'monoclinic'
loop_
_space_group_symop_operation_xyz
x,y,z
-x,y,-z
-x,-y,-z
x,-y,z
1/2+x,1/2+y,z
1/2-x,1/2+y,-z
1/2-x,1/2-y,-z
1/2+x,1/2-y,z
loop_
_atom_site_type_symbol
_atom_site_label
_atom_site_fract_x
_atom_site_fract_y
_atom_site_fract_z
Si Si1 0.826888 0.662632 0.674759
Si Si2 0.230586 0.599959 0.461323
Si Si3 0.433694 0.856570 0.189342
Si Si4 0.083781 0.220981 0.305705
Si Si5 0.003210 0.602009 0.329220
Si Si6 0.408934 0.345736 0.144117
Si Si7 0.350001 0.604396 0.993937
O O1 0.797206 0.670279 0.591716
O O2 0.845603 0.754912 0.710217
O O3 0.916746 0.612307 0.531028
O O4 0.751327 0.613014 0.851068
O O5 0.218774 0.500000 0.429515
O O6 0.162805 0.608524 0.661390
O O7 0.329881 0.611539 0.328953
O O8 0.473159 0.879266 0.248930
O O9 0.424690 0.750707 0.176676
O O10 0.500000 0.893189 0.000000
O O11 0.111840 0.149884 0.172272
O O12 0.000000 0.194248 0.500000
O O13 0.062693 0.315895 0.275824
O O14 0.035436 0.500000 0.290512
O O15 0.500000 0.392606 0.000000
O O16 0.380251 0.343389 0.058958
O O17 0.373583 0.500000 0.969147
#
# Coordination Sequence:
#
# PCOD9182868 Si02
#       7
#     8   8   8   8   8   8   8
#     4   9  18  34  56  80 106 136 176 222 266 312
#     4  10  20  33  52  81 110 140 181 222 267 325
#     4  10  19  33  53  77 109 145 178 216 269 323
#     4  10  21  35  54  82 111 140 173 215 269 324
#     4  10  20  34  55  83 111 139 176 220 265 319
#     4  10  20  35  56  78 103 139 185 234 271 307
#     4  11  22  37  57  79 105 140 183 225 266 318
#
# _framework density 19.703102000000001
#
# number of rings (size 3 to 8) (size 9 to 14) (size 15 to 20)
#    0.000    2.000    0.000    6.429    0.000    6.286 
#    0.000    0.000    0.000    0.000    0.000   16.000 
#    0.000    0.000    0.000    0.000    0.000    0.000 
#
# Total GULP energy -156033.339445 kJ/mol
# GULP energy per Si atom -5572.619266 kJ/mol
# Density = 1.965826 g / cm^3
# Si number density = 19.703102 Si / 1000 Ang^3
#
#
#
# Elastic Constant Matrix: (Units=GPa)
#
#
# Indices 1 2 3 4 5 6 
#
# 1 41.6400 6.4501 29.4855 0.0000 -9.3501 0.0000
# 2 6.4501 63.2862 31.8074 0.0000 4.9746 0.0000
# 3 29.4855 31.8074 155.0391 0.0000 -6.5841 0.0000
# 4 0.0000 0.0000 0.0000 3.1949 0.0000 -1.2894
# 5 -9.3501 4.9746 -6.5841 0.0000 33.6459 0.0000
# 6 0.0000 0.0000 0.0000 -1.2894 0.0000 13.9896
#
#
#
# Elastic Compliance Matrix: (Units=1/GPa)
#
#
# Indices 1 2 3 4 5 6 
#
# 1 0.029412 -0.001025 -0.005072 0.000000 0.007333 0.000000
# 2 -0.001025 0.018034 -0.003661 0.000000 -0.003667 0.000000
# 3 -0.005072 -0.003661 0.008197 0.000000 0.000736 0.000000
# 4 0.000000 0.000000 0.000000 0.325093 0.000000 0.029962
# 5 0.007333 -0.003667 0.000736 0.000000 0.032445 0.000000
# 6 0.000000 0.000000 0.000000 0.029962 0.000000 0.074243
#
#
# Mechanical properties :
#
#
# Convention : Reuss Voigt Hill
#
# Bulk Modulus (GPa) = 27.67955 43.93905 35.80930
# Shear Modulus (GPa) = 9.63426 22.98090 16.30758
#
# Velocity S-wave (km/s) = 2.21367 3.41891 2.88004
# Velocity P-wave (km/s) = 4.54011 6.15908 5.41049
#
# Compressibility (1/GPa) = 0.03612776
#
# Stress axis : x y z
#
# Youngs Moduli (GPa) = 33.99960 55.45156 121.99861
#
# Poissons Ratio (x) = 0.05683 0.61877
# Poissons Ratio (y) = 0.03485 0.44659
# Poissons Ratio (z) = 0.17244 0.20298
#
# Static dielectric constant tensor:
#      x y z
#    x 1.737880 0.000000 -0.021320 
#    y 0.000000 1.706130 0.000000 
#    z -0.021320 0.000000 1.728130 
# 
# From -- ./inp_files/183442.got.cif
#   From: 2010.05.17/outbox.cif.g08.bks.cpg/sg12_92_cif.got.tgz:183442.got - 2010.06.03 13:09:07.
