data_PCOD9182494
_publ_section_title
;
Structure prediction by ZEFSAII (Michael W. Deem and Ramdas Pophale) SiO2 
 PCOD9182494
Probable space group: C 2/M
;
_chemical_formula_sum "Si O2"
_cell_formula_units_Z 64
_cell_length_a 15.522867
_cell_length_b 7.703560
_cell_length_c 29.889120
_cell_angle_alpha 90.000000
_cell_angle_beta 122.073202
_cell_angle_gamma 90.000000
_cell_volume 3028.655029
_symmetry_space_group_name_H-M "C 2/M"
_symmetry_group_IT_number 12
_symmetry_cell_setting 'monoclinic'
loop_
_space_group_symop_operation_xyz
x,y,z
-x,y,-z
-x,-y,-z
x,-y,z
1/2+x,1/2+y,z
1/2-x,1/2+y,-z
1/2-x,1/2-y,-z
1/2+x,1/2-y,z
loop_
_atom_site_type_symbol
_atom_site_label
_atom_site_fract_x
_atom_site_fract_y
_atom_site_fract_z
Si Si1 0.328614 0.789646 0.579262
Si Si2 0.633562 0.790935 0.227636
Si Si3 0.097447 0.293094 0.497552
Si Si4 0.740842 0.203324 0.886249
Si Si5 0.104015 0.806821 0.000930
Si Si6 0.320364 0.207952 0.225579
Si Si7 0.465635 0.801967 0.116192
Si Si8 0.449518 0.212829 0.700292
O O1 0.209837 0.737071 0.549372
O O2 0.383256 0.727422 0.548261
O O3 0.390306 0.730749 0.639773
O O4 0.329611 0.000000 0.578115
O O5 0.747496 0.747157 0.246366
O O6 0.560142 0.717283 0.168081
O O7 0.602144 0.729456 0.267840
O O8 0.620861 0.000000 0.224748
O O9 0.081812 0.500000 0.489637
O O10 0.000000 0.227047 0.500000
O O11 0.731740 0.279577 0.834217
O O12 0.628369 0.205651 0.875636
O O13 0.773516 0.000000 0.889745
O O14 0.815215 0.284739 0.944017
O O15 0.074931 0.753496 0.943153
O O16 0.147062 0.000000 0.006435
O O17 0.000000 0.809803 0.000000
O O18 0.433838 0.271306 0.265049
O O19 0.327892 0.000000 0.221316
O O20 0.495588 0.000000 0.116921
O O21 0.449163 0.000000 0.699467
#
# Coordination Sequence:
#
# PCOD9182494 Si02
#       8
#     8   8   8   8   8   8   8   8
#     4   9  18  33  54  79 106 142 183 215 250 306
#     4  10  20  35  53  75 103 134 170 217 265 305
#     4   9  18  33  53  79 113 145 173 215 265 302
#     4   9  17  32  52  71  95 130 168 204 254 316
#     4  10  20  32  47  71  99 124 159 212 261 306
#     4  10  19  35  58  78  99 136 179 213 256 318
#     4  10  19  33  52  70  93 130 169 205 254 316
#     4   9  18  35  56  76 104 142 180 212 252 313
#
# _framework density 21.131494
#
# number of rings (size 3 to 8) (size 9 to 14) (size 15 to 20)
#    0.000    2.500    1.250    1.125    0.000    3.000 
#    0.000    4.375    0.000    0.000    0.000    0.000 
#    0.000    0.000    0.000    0.000    0.000    0.000 
#
# Total GULP energy -178392.151054 kJ/mol
# GULP energy per Si atom -5574.754720 kJ/mol
# Density = 2.108340 g / cm^3
# Si number density = 21.131494 Si / 1000 Ang^3
#
#
#
# Elastic Constant Matrix: (Units=GPa)
#
#
# Indices 1 2 3 4 5 6 
#
# 1 144.3217 -0.2500 103.4201 0.0000 -7.3358 0.0000
# 2 -0.2500 29.0838 8.9608 0.0000 -1.2260 0.0000
# 3 103.4201 8.9608 175.3983 0.0000 -28.6068 0.0000
# 4 0.0000 0.0000 0.0000 17.5541 0.0000 13.3611
# 5 -7.3358 -1.2260 -28.6068 0.0000 -74.5578 0.0000
# 6 0.0000 0.0000 0.0000 13.3611 0.0000 16.3604
#
#
#
# Elastic Compliance Matrix: (Units=1/GPa)
#
#
# Indices 1 2 3 4 5 6 
#
# 1 0.011986 0.002305 -0.006949 0.000000 0.001449 0.000000
# 2 0.002305 0.035376 -0.003104 0.000000 0.000382 0.000000
# 3 -0.006949 -0.003104 0.009483 0.000000 -0.002904 0.000000
# 4 0.000000 0.000000 0.000000 0.150547 0.000000 -0.122947
# 5 0.001449 0.000382 -0.002904 0.000000 -0.012447 0.000000
# 6 0.000000 0.000000 0.000000 -0.122947 0.000000 0.161531
#
#
# Mechanical properties :
#
#
# Convention : Reuss Voigt Hill
#
# Bulk Modulus (GPa) = 24.18393 63.67393 43.92893
# Shear Modulus (GPa) = 12.96160 7.64954 10.30557
#
# Velocity S-wave (km/s) = 2.47933 1.90469 2.21076
# Velocity P-wave (km/s) = 4.43458 5.91902 5.22973
#
# Compressibility (1/GPa) = 0.04134978
#
# Stress axis : x y z
#
# Youngs Moduli (GPa) = 83.43019 28.26795 105.44652
#
# Poissons Ratio (x) = -0.06516 0.73273
# Poissons Ratio (y) = -0.19231 0.32731
# Poissons Ratio (z) = 0.57974 0.08774
#
# Static dielectric constant tensor:
#      x y z
#    x 1.731790 0.000000 0.001040 
#    y 0.000000 1.946890 0.000000 
#    z 0.001040 0.000000 1.796390 
# 
# From -- ./inp_files/335659.got.cif
#   From: 2010.05.17/outbox.cif.g08.bks.cpg/sg12_168_cif.got.tgz:335659.got - 2010.06.03 13:09:07.
