data_PCOD9182080
_publ_section_title
;
Structure prediction by ZEFSAII (Michael W. Deem and Ramdas Pophale) SiO2 
 PCOD9182080
Probable space group: C 2/M
;
_chemical_formula_sum "Si O2"
_cell_formula_units_Z 48
_cell_length_a 15.496359
_cell_length_b 14.341005
_cell_length_c 19.889481
_cell_angle_alpha 90.000000
_cell_angle_beta 28.358030
_cell_angle_gamma 90.000000
_cell_volume 2099.460846
_symmetry_space_group_name_H-M "C 2/M"
_symmetry_group_IT_number 12
_symmetry_cell_setting 'monoclinic'
loop_
_space_group_symop_operation_xyz
x,y,z
-x,y,-z
-x,-y,-z
x,-y,z
1/2+x,1/2+y,z
1/2-x,1/2+y,-z
1/2-x,1/2-y,-z
1/2+x,1/2-y,z
loop_
_atom_site_type_symbol
_atom_site_label
_atom_site_fract_x
_atom_site_fract_y
_atom_site_fract_z
Si Si1 0.242525 0.892351 0.641292
Si Si2 0.026458 0.191858 0.906017
Si Si3 0.580705 0.602503 0.247234
Si Si4 0.985709 0.397614 0.908821
Si Si5 0.651347 0.107690 0.144443
Si Si6 0.557723 0.779811 0.599652
O O1 0.393435 0.827217 0.503969
O O2 0.065090 0.884799 0.713489
O O3 0.298221 0.000000 0.602866
O O4 0.175072 0.860687 0.760345
O O5 0.069369 0.301612 0.876679
O O6 0.828259 0.171057 0.010522
O O7 0.000000 0.157882 0.000000
O O8 0.544841 0.500000 0.300831
O O9 0.780417 0.603313 0.078366
O O10 0.555025 0.684716 0.317967
O O11 0.064176 0.500000 0.872920
O O12 0.971499 0.389965 0.837993
O O13 0.542327 0.147481 0.282491
O O14 0.708060 0.000000 0.115248
O O15 0.750000 0.750000 0.500000
#
# Coordination Sequence:
#
# PCOD9182080 Si02
#       6
#     8   8   8   8   8   8
#     4  10  20  35  53  81 117 149 182 231 291 340
#     4  12  24  38  58  84 117 159 197 238 285 344
#     4   9  16  30  56  85 111 140 182 236 288 335
#     4  10  19  35  61  87 111 144 191 246 290 334
#     4  11  21  36  61  89 115 149 198 242 286 345
#     4  10  19  32  55  86 119 147 183 239 295 347
#
# _framework density 22.863012999999999
#
# number of rings (size 3 to 8) (size 9 to 14) (size 15 to 20)
#    0.000    1.667    3.333    3.500    0.000    2.333 
#    0.000    1.667    0.000    2.000    0.000    2.333 
#    0.000    0.000    0.000    0.000    0.000    0.000 
#
# Total GULP energy -134257.593303 kJ/mol
# GULP energy per Si atom -5594.066388 kJ/mol
# Density = 2.281098 g / cm^3
# Si number density = 22.863013 Si / 1000 Ang^3
#
#
#
# Elastic Constant Matrix: (Units=GPa)
#
#
# Indices 1 2 3 4 5 6 
#
# 1 63.6818 24.7998 28.6876 0.0002 3.3311 -0.0002
# 2 24.7998 154.2060 62.5829 -0.0003 25.9623 -0.0014
# 3 28.6876 62.5829 141.9928 0.0035 36.7418 -0.0058
# 4 0.0002 -0.0003 0.0035 39.5651 -0.0006 -0.9849
# 5 3.3311 25.9623 36.7418 -0.0006 40.0850 0.0019
# 6 -0.0002 -0.0014 -0.0058 -0.9849 0.0019 -15.4916
#
#
#
# Elastic Compliance Matrix: (Units=1/GPa)
#
#
# Indices 1 2 3 4 5 6 
#
# 1 0.017898 -0.001951 -0.003537 0.000000 0.003019 0.000002
# 2 -0.001951 0.008310 -0.002514 0.000000 -0.002916 0.000000
# 3 -0.003537 -0.002514 0.010970 -0.000001 -0.008133 -0.000005
# 4 0.000000 0.000000 -0.000001 0.025235 0.000001 -0.001604
# 5 0.003019 -0.002916 -0.008133 0.000001 0.034039 0.000007
# 6 0.000002 0.000000 -0.000005 -0.001604 0.000007 -0.064449
#
#
# Mechanical properties :
#
#
# Convention : Reuss Voigt Hill
#
# Bulk Modulus (GPa) = 47.22906 65.78013 56.50460
# Shear Modulus (GPa) = 90.80202 29.08571 59.94386
#
# Velocity S-wave (km/s) = 6.30887 3.57062 5.12598
# Velocity P-wave (km/s) = 8.58903 6.77001 7.73319
#
# Compressibility (1/GPa) = 0.02117340
#
# Stress axis : x y z
#
# Youngs Moduli (GPa) = 55.87065 120.34097 91.16103
#
# Poissons Ratio (x) = 0.23480 0.32246
# Poissons Ratio (y) = 0.10901 0.22916
# Poissons Ratio (z) = 0.19763 0.30251
#
# Static dielectric constant tensor:
#      x y z
#    x 1.936360 0.000000 -0.005930 
#    y 0.000000 1.857840 0.000000 
#    z -0.005930 0.000000 1.787800 
# 
# From -- ./inp_files/73599.got.cif
#   From: 2010.05.17/outbox.cif.g08.bks.cpg/sg12_37_cif.got.tgz:73599.got - 2010.06.03 13:09:07.
