data_PCOD9182917
_publ_section_title
;
Structure prediction by ZEFSAII (Michael W. Deem and Ramdas Pophale) SiO2 
 PCOD9182917
Probable space group: C 2/M
;
_chemical_formula_sum "Si O2"
_cell_formula_units_Z 48
_cell_length_a 28.544305
_cell_length_b 8.093548
_cell_length_c 7.881096
_cell_angle_alpha 90.000000
_cell_angle_beta 89.186274
_cell_angle_gamma 90.000000
_cell_volume 1820.544240
_symmetry_space_group_name_H-M "C 2/M"
_symmetry_group_IT_number 12
_symmetry_cell_setting 'monoclinic'
loop_
_space_group_symop_operation_xyz
x,y,z
-x,y,-z
-x,-y,-z
x,-y,z
1/2+x,1/2+y,z
1/2-x,1/2+y,-z
1/2-x,1/2-y,-z
1/2+x,1/2-y,z
loop_
_atom_site_type_symbol
_atom_site_label
_atom_site_fract_x
_atom_site_fract_y
_atom_site_fract_z
Si Si1 0.033081 0.193797 0.165389
Si Si2 0.109942 0.685344 0.933904
Si Si3 0.304027 0.692164 0.883793
Si Si4 0.278054 0.198000 0.329469
Si Si5 0.946219 0.190637 0.372059
Si Si6 0.140829 0.305506 0.443648
O O1 0.078834 0.293489 0.106452
O O2 0.997507 0.254030 0.313837
O O3 0.045190 0.000000 0.191401
O O4 0.000000 0.200118 0.000000
O O5 0.104847 0.500000 0.867676
O O6 0.163731 0.716641 0.980430
O O7 0.084930 0.800457 0.798794
O O8 0.300659 0.500000 0.929542
O O9 0.253861 0.764316 0.823782
O O10 0.335743 0.705795 0.710297
O O11 0.250000 0.250000 0.500000
O O12 0.330331 0.241631 0.385891
O O13 0.276227 0.000000 0.311444
O O14 0.913267 0.273665 0.513390
O O15 0.951666 0.000000 0.416539
O O16 0.148988 0.500000 0.410769
#
# Coordination Sequence:
#
# PCOD9182917 Si02
#       6
#     8   8   8   8   8   8
#     4   8  16  32  52  72  97 131 169 204 243 301
#     4  11  21  33  52  78 104 131 167 212 256 294
#     4  10  19  34  54  75 102 137 172 204 247 303
#     4   8  16  30  50  73  98 131 168 204 244 296
#     4  10  20  35  54  76 102 135 171 204 247 304
#     4  10  19  33  53  79 106 130 165 212 255 294
#
# _framework density 26.365741
#
# number of rings (size 3 to 8) (size 9 to 14) (size 15 to 20)
#    0.000    2.500    0.000    4.000    0.000    5.000 
#    0.000    1.667    0.000    5.000    0.000    0.000 
#    0.000    0.000    0.000    0.000    0.000    0.000 
#
# Total GULP energy -134284.406312 kJ/mol
# GULP energy per Si atom -5595.183596 kJ/mol
# Density = 2.630573 g / cm^3
# Si number density = 26.365741 Si / 1000 Ang^3
#
#
#
# Elastic Constant Matrix: (Units=GPa)
#
#
# Indices 1 2 3 4 5 6 
#
# 1 186.4460 18.6765 5.2248 0.0000 3.7671 0.0000
# 2 18.6765 68.0036 3.7107 0.0000 -0.0441 0.0000
# 3 5.2248 3.7107 102.3713 0.0000 12.6369 0.0000
# 4 0.0000 0.0000 0.0000 22.9524 0.0000 -6.7358
# 5 3.7671 -0.0441 12.6369 0.0000 58.9193 0.0000
# 6 0.0000 0.0000 0.0000 -6.7358 0.0000 26.5921
#
#
#
# Elastic Compliance Matrix: (Units=1/GPa)
#
#
# Indices 1 2 3 4 5 6 
#
# 1 0.005526 -0.001508 -0.000189 0.000000 -0.000314 0.000000
# 2 -0.001508 0.015146 -0.000499 0.000000 0.000215 0.000000
# 3 -0.000189 -0.000499 0.010061 0.000000 -0.002146 0.000000
# 4 0.000000 0.000000 0.000000 0.047067 0.000000 0.011922
# 5 -0.000314 0.000215 -0.002146 0.000000 0.017453 0.000000
# 6 0.000000 0.000000 0.000000 0.011922 0.000000 0.040625
#
#
# Mechanical properties :
#
#
# Convention : Reuss Voigt Hill
#
# Bulk Modulus (GPa) = 37.95934 45.78277 41.87105
# Shear Modulus (GPa) = 33.54583 43.64002 38.59293
#
# Velocity S-wave (km/s) = 3.57084 4.07280 3.83005
# Velocity P-wave (km/s) = 5.60622 6.28643 5.95604
#
# Compressibility (1/GPa) = 0.02634398
#
# Stress axis : x y z
#
# Youngs Moduli (GPa) = 180.95842 66.02188 99.39380
#
# Poissons Ratio (x) = 0.09953 0.01875
# Poissons Ratio (y) = 0.27281 0.04956
# Poissons Ratio (z) = 0.03413 0.03292
#
# Static dielectric constant tensor:
#      x y z
#    x 2.102730 0.000000 0.017400 
#    y 0.000000 1.896910 0.000000 
#    z 0.017400 0.000000 2.324000 
# 
# From -- ./inp_files/108593.got.cif
#   From: 2010.05.17/outbox.cif.g08.bks.cpg/sg12_55_cif.got.tgz:108593.got - 2010.06.03 13:09:07.
