data_PCOD9182359
_publ_section_title
;
Structure prediction by ZEFSAII (Michael W. Deem and Ramdas Pophale) SiO2 
 PCOD9182359
Probable space group: C 2/M
;
_chemical_formula_sum "Si O2"
_cell_formula_units_Z 56
_cell_length_a 14.704433
_cell_length_b 7.777851
_cell_length_c 28.530738
_cell_angle_alpha 90.000000
_cell_angle_beta 127.455826
_cell_angle_gamma 90.000000
_cell_volume 2590.265515
_symmetry_space_group_name_H-M "C 2/M"
_symmetry_group_IT_number 12
_symmetry_cell_setting 'monoclinic'
loop_
_space_group_symop_operation_xyz
x,y,z
-x,y,-z
-x,-y,-z
x,-y,z
1/2+x,1/2+y,z
1/2-x,1/2+y,-z
1/2-x,1/2-y,-z
1/2+x,1/2-y,z
loop_
_atom_site_type_symbol
_atom_site_label
_atom_site_fract_x
_atom_site_fract_y
_atom_site_fract_z
Si Si1 0.474201 0.292006 0.250307
Si Si2 0.831826 0.698163 0.966494
Si Si3 0.766094 0.796090 0.654803
Si Si4 0.310514 0.795043 0.567366
Si Si5 0.069656 0.705314 0.661462
Si Si6 0.917271 0.789105 0.128977
Si Si7 0.555171 0.695877 0.088540
O O1 0.474982 0.500000 0.250306
O O2 0.605699 0.228100 0.295738
O O3 0.408987 0.236989 0.276833
O O4 0.426183 0.233839 0.185388
O O5 0.839145 0.500000 0.983919
O O6 0.703682 0.766726 0.930835
O O7 0.862647 0.703931 0.920704
O O8 0.931041 0.801016 0.023713
O O9 0.744922 0.770587 0.592959
O O10 0.667742 0.725029 0.657865
O O11 0.772284 0.000000 0.665777
O O12 0.250000 0.750000 0.500000
O O13 0.441571 0.726612 0.610468
O O14 0.315451 0.000000 0.573015
O O15 0.065088 0.500000 0.652833
O O16 0.024109 0.735506 0.130206
O O17 0.916047 0.000000 0.127521
O O18 0.596172 0.500000 0.104673
#
# Coordination Sequence:
#
# PCOD9182359 Si02
#       7
#     8   8   8   8   8   8   8
#     4   9  18  34  53  73  97 128 166 205 242 290
#     4  10  19  33  50  70  98 129 160 198 247 299
#     4   9  18  34  55  74  98 133 168 200 244 292
#     4  10  20  34  52  76 107 134 165 205 244 287
#     4   9  19  35  53  75 102 133 165 204 248 288
#     4   9  19  33  50  72  99 129 161 200 247 294
#     4  10  19  33  51  72  97 126 163 204 245 294
#
# _framework density 21.619403999999999
#
# number of rings (size 3 to 8) (size 9 to 14) (size 15 to 20)
#    0.000    2.571    0.000    2.571    0.000    2.857 
#    0.000    9.286    0.000    0.000    0.000    0.000 
#    0.000    0.000    0.000    0.000    0.000    0.000 
#
# Total GULP energy -156286.147287 kJ/mol
# GULP energy per Si atom -5581.648117 kJ/mol
# Density = 2.157020 g / cm^3
# Si number density = 21.619404 Si / 1000 Ang^3
#
#
#
# Elastic Constant Matrix: (Units=GPa)
#
#
# Indices 1 2 3 4 5 6 
#
# 1 147.1770 4.0107 17.3528 0.0000 -24.8622 0.0000
# 2 4.0107 35.0655 -9.9147 0.0000 6.8990 0.0000
# 3 17.3528 -9.9147 49.8700 0.0000 -20.0385 0.0000
# 4 0.0000 0.0000 0.0000 19.0148 0.0000 -7.4511
# 5 -24.8622 6.8990 -20.0385 0.0000 20.4789 0.0000
# 6 0.0000 0.0000 0.0000 -7.4511 0.0000 18.3704
#
#
#
# Elastic Compliance Matrix: (Units=1/GPa)
#
#
# Indices 1 2 3 4 5 6 
#
# 1 0.008993 -0.003235 0.001735 0.000000 0.013705 0.000000
# 2 -0.003235 0.032018 0.002602 0.000000 -0.012167 0.000000
# 3 0.001735 0.002602 0.033716 0.000000 0.034220 0.000000
# 4 0.000000 0.000000 0.000000 0.062529 0.000000 0.025362
# 5 0.013705 -0.012167 0.034220 0.000000 0.103053 0.000000
# 6 0.000000 0.000000 0.000000 0.025362 0.000000 0.064722
#
#
# Mechanical properties :
#
#
# Convention : Reuss Voigt Hill
#
# Bulk Modulus (GPa) = 12.99866 28.33446 20.66656
# Shear Modulus (GPa) = 15.22204 26.28372 20.75288
#
# Velocity S-wave (km/s) = 2.65635 3.49054 3.10162
# Velocity P-wave (km/s) = 3.92859 5.42030 4.73357
#
# Compressibility (1/GPa) = 0.07693100
#
# Stress axis : x y z
#
# Youngs Moduli (GPa) = 111.19314 31.23282 29.65939
#
# Poissons Ratio (x) = 0.10103 -0.05145
# Poissons Ratio (y) = 0.35967 -0.07718
# Poissons Ratio (z) = -0.19287 -0.08127
#
# Static dielectric constant tensor:
#      x y z
#    x 1.815990 0.000000 -0.013270 
#    y 0.000000 1.769720 0.000000 
#    z -0.013270 0.000000 1.789670 
# 
# From -- ./inp_files/375129.got.cif
#   From: 2010.05.17/outbox.cif.g08.bks.cpg/sg12_188_cif.got.tgz:375129.got - 2010.06.03 13:09:07.
