data_PCOD9182122
_publ_section_title
;
Structure prediction by ZEFSAII (Michael W. Deem and Ramdas Pophale) SiO2 
 PCOD9182122
Probable space group: C 2/M
;
_chemical_formula_sum "Si O2"
_cell_formula_units_Z 50
_cell_length_a 19.713978
_cell_length_b 13.216205
_cell_length_c 12.804743
_cell_angle_alpha 90.000000
_cell_angle_beta 52.751593
_cell_angle_gamma 90.000000
_cell_volume 2655.676938
_symmetry_space_group_name_H-M "C 2/M"
_symmetry_group_IT_number 12
_symmetry_cell_setting 'monoclinic'
loop_
_space_group_symop_operation_xyz
x,y,z
-x,y,-z
-x,-y,-z
x,-y,z
1/2+x,1/2+y,z
1/2-x,1/2+y,-z
1/2-x,1/2-y,-z
1/2+x,1/2-y,z
loop_
_atom_site_type_symbol
_atom_site_label
_atom_site_fract_x
_atom_site_fract_y
_atom_site_fract_z
Si Si1 0.350632 0.162877 0.129206
Si Si2 0.900319 0.888101 0.120572
Si Si3 0.500000 0.000000 0.000000
Si Si4 0.211417 0.610784 0.045141
Si Si5 0.940676 0.119164 0.320309
Si Si6 0.669127 0.620774 0.379273
Si Si7 0.621988 0.693159 0.197460
O O1 0.368099 0.282738 0.103580
O O2 0.428059 0.090681 0.091170
O O3 0.267498 0.152575 0.279106
O O4 0.325290 0.122411 0.037990
O O5 0.895626 0.875755 0.250371
O O6 0.863823 0.000000 0.126141
O O7 0.000000 0.892936 0.000000
O O8 0.193714 0.500000 0.102461
O O9 0.164915 0.696678 0.153993
O O10 0.311853 0.628343 0.933999
O O11 0.880273 0.153655 0.470988
O O12 0.027755 0.182629 0.240575
O O13 0.963732 0.000000 0.315381
O O14 0.667853 0.500000 0.379648
O O15 0.623711 0.656323 0.315130
#
# Coordination Sequence:
#
# PCOD9182122 Si02
#       7
#     8   8   2   8   8   8   8
#     4  11  20  35  56  82 110 142 183 226 276 314
#     4  10  21  35  53  80 111 141 176 225 271 323
#     4  12  20  32  62  84 102 146 182 234 270 324
#     4  10  20  35  53  81 112 134 176 231 274 321
#     4  10  20  34  56  80 107 141 180 217 271 328
#     4  10  20  36  54  79 109 139 179 229 265 323
#     4  10  19  32  56  81 104 140 174 221 275 322
#
# _framework density 18.827591999999999
#
# number of rings (size 3 to 8) (size 9 to 14) (size 15 to 20)
#    0.000    1.760    2.400    3.840    0.000    1.920 
#    0.000    9.600    0.000    2.880    0.000    0.000 
#    0.000    0.000    0.000    0.000    0.000    0.000 
#
# Total GULP energy -139245.706227 kJ/mol
# GULP energy per Si atom -5569.828249 kJ/mol
# Density = 1.878474 g / cm^3
# Si number density = 18.827592 Si / 1000 Ang^3
#
#
#
# Elastic Constant Matrix: (Units=GPa)
#
#
# Indices 1 2 3 4 5 6 
#
# 1 30.0866 13.8716 15.6661 0.0000 -5.1299 0.0000
# 2 13.8716 110.5019 11.3731 0.0000 -6.9171 0.0000
# 3 15.6661 11.3731 61.3150 0.0000 -1.4189 0.0000
# 4 0.0000 0.0000 0.0000 -13.5809 0.0000 -34.7735
# 5 -5.1299 -6.9171 -1.4189 0.0000 20.0816 0.0000
# 6 0.0000 0.0000 0.0000 -34.7735 0.0000 -16.2291
#
#
#
# Elastic Compliance Matrix: (Units=1/GPa)
#
#
# Indices 1 2 3 4 5 6 
#
# 1 0.041458 -0.003664 -0.009713 0.000000 0.008642 0.000000
# 2 -0.003664 0.009741 -0.000816 0.000000 0.002362 0.000000
# 3 -0.009713 -0.000816 0.018909 0.000000 -0.001426 0.000000
# 4 0.000000 0.000000 0.000000 0.016413 0.000000 -0.035168
# 5 0.008642 0.002362 -0.001426 0.000000 0.052717 0.000000
# 6 0.000000 0.000000 0.000000 -0.035168 0.000000 0.013735
#
#
# Mechanical properties :
#
#
# Convention : Reuss Voigt Hill
#
# Bulk Modulus (GPa) = 23.96774 31.52503 27.74638
# Shear Modulus (GPa) = 25.60601 8.78716 17.19659
#
# Velocity S-wave (km/s) = 3.69185 2.16271 3.02548
# Velocity P-wave (km/s) = 5.56155 4.79758 5.19363
#
# Compressibility (1/GPa) = 0.04172275
#
# Stress axis : x y z
#
# Youngs Moduli (GPa) = 24.12105 102.65499 52.88409
#
# Poissons Ratio (x) = 0.37609 0.51366
# Poissons Ratio (y) = 0.08837 0.04316
# Poissons Ratio (z) = 0.23429 0.08379
#
# Static dielectric constant tensor:
#      x y z
#    x 1.694390 0.000000 0.011510 
#    y 0.000000 1.680910 0.000000 
#    z 0.011510 0.000000 1.637000 
# 
# From -- ./inp_files/239918.got.cif
#   From: 2010.05.17/outbox.cif.g08.bks.cpg/sg12_120_cif.got.tgz:239918.got - 2010.06.03 13:09:07.
