data_PCOD9182949
_publ_section_title
;
Structure prediction by ZEFSAII (Michael W. Deem and Ramdas Pophale) SiO2 
 PCOD9182949
Probable space group: C 2/M
;
_chemical_formula_sum "Si O2"
_cell_formula_units_Z 56
_cell_length_a 20.167711
_cell_length_b 16.545279
_cell_length_c 13.829852
_cell_angle_alpha 90.000000
_cell_angle_beta 143.567801
_cell_angle_gamma 90.000000
_cell_volume 2740.567147
_symmetry_space_group_name_H-M "C 2/M"
_symmetry_group_IT_number 12
_symmetry_cell_setting 'monoclinic'
loop_
_space_group_symop_operation_xyz
x,y,z
-x,y,-z
-x,-y,-z
x,-y,z
1/2+x,1/2+y,z
1/2-x,1/2+y,-z
1/2-x,1/2-y,-z
1/2+x,1/2-y,z
loop_
_atom_site_type_symbol
_atom_site_label
_atom_site_fract_x
_atom_site_fract_y
_atom_site_fract_z
Si Si1 0.867229 0.596012 0.364875
Si Si2 0.627889 0.402761 0.443552
Si Si3 0.841694 0.697702 0.164790
Si Si4 0.225387 0.405692 0.205000
Si Si5 0.800578 0.597988 0.499923
Si Si6 0.573001 0.361476 0.677046
Si Si7 0.466678 0.097897 0.147122
O O1 0.847654 0.500000 0.337453
O O2 0.799681 0.640814 0.201442
O O3 0.832849 0.626540 0.430832
O O4 0.000000 0.606904 0.500000
O O5 0.635576 0.500000 0.453972
O O6 0.704590 0.370538 0.623107
O O7 0.685556 0.373411 0.412915
O O8 0.499176 0.384083 0.314301
O O9 0.915367 0.765659 0.304134
O O10 0.910960 0.642688 0.172547
O O11 0.750000 0.750000 0.000000
O O12 0.210632 0.500000 0.210153
O O13 0.305555 0.397012 0.204510
O O14 0.104326 0.375494 0.029806
O O15 0.796362 0.500000 0.488277
O O16 0.902355 0.616074 0.692817
O O17 0.500000 0.389806 0.500000
O O18 0.454939 0.000000 0.143011
#
# Coordination Sequence:
#
# PCOD9182949 Si02
#       7
#     8   8   8   8   8   8   8
#     4  10  19  35  60  85 107 140 189 240 277 317
#     4   9  18  34  55  81 112 144 182 223 270 331
#     4  12  22  34  53  81 110 143 178 231 283 329
#     4   9  17  31  52  78 109 144 180 221 265 322
#     4   9  18  33  58  85 106 138 184 234 279 318
#     4  10  20  33  52  79 109 142 180 219 273 326
#     4  10  19  33  53  80 108 139 185 228 274 324
#
# _framework density 20.433726
#
# number of rings (size 3 to 8) (size 9 to 14) (size 15 to 20)
#    0.000    2.143    2.857    1.286    0.000    2.286 
#    0.000    3.571    0.000    0.857    0.000    3.000 
#    0.000    0.000    0.000    0.000    0.000    0.000 
#
# Total GULP energy -156002.682389 kJ/mol
# GULP energy per Si atom -5571.524371 kJ/mol
# Density = 2.038722 g / cm^3
# Si number density = 20.433726 Si / 1000 Ang^3
#
#
#
# Elastic Constant Matrix: (Units=GPa)
#
#
# Indices 1 2 3 4 5 6 
#
# 1 107.0585 1.1062 13.1954 0.0000 11.2503 0.0000
# 2 1.1062 25.6804 4.8028 0.0000 -3.1859 0.0000
# 3 13.1954 4.8028 39.9051 0.0000 -1.6108 0.0000
# 4 0.0000 0.0000 0.0000 9.6900 0.0000 -4.5140
# 5 11.2503 -3.1859 -1.6108 0.0000 19.6742 0.0000
# 6 0.0000 0.0000 0.0000 -4.5140 0.0000 3.2129
#
#
#
# Elastic Compliance Matrix: (Units=1/GPa)
#
#
# Indices 1 2 3 4 5 6 
#
# 1 0.010466 -0.000559 -0.003651 0.000000 -0.006374 0.000000
# 2 -0.000559 0.040605 -0.004439 0.000000 0.006531 0.000000
# 3 -0.003651 -0.004439 0.026945 0.000000 0.003575 0.000000
# 4 0.000000 0.000000 0.000000 0.298700 0.000000 0.419668
# 5 -0.006374 0.006531 0.003575 0.000000 0.055823 0.000000
# 6 0.000000 0.000000 0.000000 0.419668 0.000000 0.900873
#
#
# Mechanical properties :
#
#
# Convention : Reuss Voigt Hill
#
# Bulk Modulus (GPa) = 16.46917 23.42809 19.94863
# Shear Modulus (GPa) = 3.64711 16.75138 10.19925
#
# Velocity S-wave (km/s) = 1.33743 2.86631 2.23656
# Velocity P-wave (km/s) = 3.23454 4.73757 4.05628
#
# Compressibility (1/GPa) = 0.06071951
#
# Stress axis : x y z
#
# Youngs Moduli (GPa) = 95.54474 24.62774 37.11231
#
# Poissons Ratio (x) = 0.01376 0.13549
# Poissons Ratio (y) = 0.05339 0.16473
# Poissons Ratio (z) = 0.34883 0.10931
#
# Static dielectric constant tensor:
#      x y z
#    x 1.785510 0.000000 -0.001950 
#    y 0.000000 1.728860 0.000000 
#    z -0.001950 0.000000 1.788360 
# 
# From -- ./inp_files/234746.got.cif
#   From: 2010.05.17/outbox.cif.g08.bks.cpg/sg12_118_cif.got.tgz:234746.got - 2010.06.03 13:09:07.
