data_PCOD9182683
_publ_section_title
;
Structure prediction by ZEFSAII (Michael W. Deem and Ramdas Pophale) SiO2 
 PCOD9182683
Probable space group: C 2/M
;
_chemical_formula_sum "Si O2"
_cell_formula_units_Z 58
_cell_length_a 27.061995
_cell_length_b 7.517101
_cell_length_c 22.934476
_cell_angle_alpha 90.000000
_cell_angle_beta 143.402389
_cell_angle_gamma 90.000000
_cell_volume 2781.536250
_symmetry_space_group_name_H-M "C 2/M"
_symmetry_group_IT_number 12
_symmetry_cell_setting 'monoclinic'
loop_
_space_group_symop_operation_xyz
x,y,z
-x,y,-z
-x,-y,-z
x,-y,z
1/2+x,1/2+y,z
1/2-x,1/2+y,-z
1/2-x,1/2-y,-z
1/2+x,1/2-y,z
loop_
_atom_site_type_symbol
_atom_site_label
_atom_site_fract_x
_atom_site_fract_y
_atom_site_fract_z
Si Si1 0.155404 0.695510 0.406604
Si Si2 0.500000 0.000000 0.500000
Si Si3 0.092476 0.284601 0.905583
Si Si4 0.222110 0.295142 0.117460
Si Si5 0.911917 0.208628 0.779045
Si Si6 0.399215 0.291996 0.329492
Si Si7 0.404747 0.284257 0.901359
Si Si8 0.016911 0.282134 0.712218
O O1 0.154614 0.500000 0.431737
O O2 0.250000 0.750000 0.500000
O O3 0.129868 0.695973 0.314748
O O4 0.076402 0.785477 0.362474
O O5 0.441200 0.157576 0.414339
O O6 0.094287 0.500000 0.908103
O O7 0.074176 0.229122 0.821764
O O8 0.011012 0.230206 0.865362
O O9 0.174825 0.217637 0.016156
O O10 0.240967 0.500000 0.120744
O O11 0.308076 0.223180 0.223503
O O12 0.155137 0.287358 0.105930
O O13 0.882550 0.269644 0.814484
O O14 0.892821 0.000000 0.755260
O O15 0.393862 0.500000 0.344327
O O16 0.451811 0.285230 0.319575
O O17 0.402002 0.500000 0.901771
O O18 0.500000 0.230004 0.000000
O O19 0.017532 0.500000 0.711846
#
# Coordination Sequence:
#
# PCOD9182683 Si02
#       8
#     8   2   8   8   8   8   8   8
#     4  10  21  38  60  87 121 156 205 263 319 380
#     4  12  26  52  76  90 126 176 206 282 344 364
#     4   9  18  34  59  89 128 164 198 249 318 381
#     4  10  22  38  59  93 128 163 214 271 314 383
#     4  10  19  33  52  82 119 160 207 249 303 375
#     4  11  25  46  71  99 126 166 225 270 322 395
#     4  10  20  34  54  84 124 170 210 247 305 380
#     4   9  19  39  64  91 126 170 207 256 332 392
#
# _framework density 20.851787000000002
#
# number of rings (size 3 to 8) (size 9 to 14) (size 15 to 20)
#    0.000    2.069    2.069    1.862    0.966    4.690 
#    2.483    0.000    0.000    0.000    0.000    0.000 
#    0.000    0.000    0.000    0.000    0.000    0.000 
#
# Total GULP energy -161504.222713 kJ/mol
# GULP energy per Si atom -5569.111128 kJ/mol
# Density = 2.080433 g / cm^3
# Si number density = 20.851787 Si / 1000 Ang^3
#
#
#
# Elastic Constant Matrix: (Units=GPa)
#
#
# Indices 1 2 3 4 5 6 
#
# 1 23.7374 -0.9336 21.1797 0.0000 13.1338 0.0000
# 2 -0.9336 81.6901 27.1679 0.0000 2.6629 0.0000
# 3 21.1797 27.1679 173.8093 0.0000 24.2643 0.0000
# 4 0.0000 0.0000 0.0000 2.1139 0.0000 10.5694
# 5 13.1338 2.6629 24.2643 0.0000 13.3733 0.0000
# 6 0.0000 0.0000 0.0000 10.5694 0.0000 6.2253
#
#
#
# Elastic Compliance Matrix: (Units=1/GPa)
#
#
# Indices 1 2 3 4 5 6 
#
# 1 0.093799 0.003752 0.001269 0.000000 -0.095169 0.000000
# 2 0.003752 0.013084 -0.002175 0.000000 -0.002343 0.000000
# 3 0.001269 -0.002175 0.008105 0.000000 -0.015520 0.000000
# 4 0.000000 0.000000 0.000000 -0.063168 0.000000 0.107246
# 5 -0.095169 -0.002343 -0.015520 0.000000 0.196866 0.000000
# 6 0.000000 0.000000 0.000000 0.107246 0.000000 -0.021449
#
#
# Mechanical properties :
#
#
# Convention : Reuss Voigt Hill
#
# Bulk Modulus (GPa) = 8.28631 41.56276 24.92453
# Shear Modulus (GPa) = 19.10060 19.79736 19.44898
#
# Velocity S-wave (km/s) = 3.02986 3.08463 3.05737
# Velocity P-wave (km/s) = 4.02773 5.71510 4.94393
#
# Compressibility (1/GPa) = 0.12068096
#
# Stress axis : x y z
#
# Youngs Moduli (GPa) = 10.66110 76.42882 123.37517
#
# Poissons Ratio (x) = -0.28677 -0.15662
# Poissons Ratio (y) = -0.04000 0.26837
# Poissons Ratio (z) = -0.01353 0.16625
#
# Static dielectric constant tensor:
#      x y z
#    x 1.727810 0.000000 0.008090 
#    y 0.000000 1.786460 0.000000 
#    z 0.008090 0.000000 1.766110 
# 
# From -- ./inp_files/351477.got.cif
#   From: 2010.05.17/outbox.cif.g08.bks.cpg/sg12_176_cif.got.tgz:351477.got - 2010.06.03 13:09:07.
