data_PCOD9182182
_publ_section_title
;
Structure prediction by ZEFSAII (Michael W. Deem and Ramdas Pophale) SiO2 
 PCOD9182182
Probable space group: C 2/M
;
_chemical_formula_sum "Si O2"
_cell_formula_units_Z 56
_cell_length_a 20.915216
_cell_length_b 8.858788
_cell_length_c 23.494907
_cell_angle_alpha 90.000000
_cell_angle_beta 46.337313
_cell_angle_gamma 90.000000
_cell_volume 3149.191386
_symmetry_space_group_name_H-M "C 2/M"
_symmetry_group_IT_number 12
_symmetry_cell_setting 'monoclinic'
loop_
_space_group_symop_operation_xyz
x,y,z
-x,y,-z
-x,-y,-z
x,-y,z
1/2+x,1/2+y,z
1/2-x,1/2+y,-z
1/2-x,1/2-y,-z
1/2+x,1/2-y,z
loop_
_atom_site_type_symbol
_atom_site_label
_atom_site_fract_x
_atom_site_fract_y
_atom_site_fract_z
Si Si1 0.434214 0.180200 0.262509
Si Si2 0.002824 0.179855 0.337281
Si Si3 0.197186 0.680570 0.234522
Si Si4 0.926111 0.319014 0.497584
Si Si5 0.883050 0.319583 0.906179
Si Si6 0.754158 0.818558 0.327248
Si Si7 0.765722 0.320564 0.082574
O O1 0.458400 0.254586 0.307864
O O2 0.515811 0.215352 0.169894
O O3 0.342413 0.240958 0.295002
O O4 0.430594 0.000000 0.271679
O O5 0.949519 0.233813 0.425536
O O6 0.101679 0.245846 0.282267
O O7 0.006557 0.000000 0.332011
O O8 0.187174 0.500000 0.238345
O O9 0.231384 0.722379 0.276136
O O10 0.261395 0.736640 0.145135
O O11 0.929615 0.500000 0.485230
O O12 0.830586 0.280309 0.581855
O O13 0.000000 0.285346 0.500000
O O14 0.869555 0.500000 0.905582
O O15 0.819571 0.232496 0.901389
O O16 0.848763 0.284787 0.990676
O O17 0.764855 0.000000 0.322838
O O18 0.762005 0.500000 0.093721
#
# Coordination Sequence:
#
# PCOD9182182 Si02
#       7
#     8   8   8   8   8   8   8
#     4  11  23  40  61  85 119 160 195 236 294 352
#     4  12  24  37  60  91 119 150 195 246 288 343
#     4  11  21  38  60  86 118 156 195 238 295 350
#     4  10  20  40  64  86 115 155 194 238 295 346
#     4   9  19  35  55  82 118 156 192 236 293 347
#     4  10  23  41  62  85 116 155 196 240 290 350
#     4  10  19  32  56  89 116 147 195 247 289 337
#
# _framework density 17.782343000000001
#
# number of rings (size 3 to 8) (size 9 to 14) (size 15 to 20)
#    0.000    1.571    2.857    2.571    0.000    3.714 
#    0.000    0.714    0.000    4.286    0.000    0.000 
#    0.000    0.000    0.000    0.000    0.000    0.000 
#
# Total GULP energy -156432.121819 kJ/mol
# GULP energy per Si atom -5586.861494 kJ/mol
# Density = 1.774187 g / cm^3
# Si number density = 17.782343 Si / 1000 Ang^3
#
#
#
# Elastic Constant Matrix: (Units=GPa)
#
#
# Indices 1 2 3 4 5 6 
#
# 1 136.1345 65.2155 90.5653 0.0000 -1.3456 -0.0001
# 2 65.2155 65.8056 71.7804 0.0002 1.6959 -0.0004
# 3 90.5653 71.7804 167.5243 0.0000 5.1282 0.0000
# 4 0.0000 0.0002 0.0000 31.4464 -0.0001 1.1653
# 5 -1.3456 1.6959 5.1282 -0.0001 28.5276 0.0001
# 6 -0.0001 -0.0004 0.0000 1.1653 0.0001 31.5712
#
#
#
# Elastic Compliance Matrix: (Units=1/GPa)
#
#
# Indices 1 2 3 4 5 6 
#
# 1 0.014975 -0.011255 -0.003333 0.000000 0.001975 0.000000
# 2 -0.011255 0.036998 -0.009738 0.000000 -0.000980 0.000000
# 3 -0.003333 -0.009738 0.011997 0.000000 -0.001735 0.000000
# 4 0.000000 0.000000 0.000000 0.031844 0.000000 -0.001175
# 5 0.001975 -0.000980 -0.001735 0.000000 0.035517 0.000000
# 6 0.000000 0.000000 0.000000 -0.001175 0.000000 0.031718
#
#
# Mechanical properties :
#
#
# Convention : Reuss Voigt Hill
#
# Bulk Modulus (GPa) = 65.28962 91.62077 78.45520
# Shear Modulus (GPa) = 23.06194 27.76924 25.41559
#
# Velocity S-wave (km/s) = 3.60516 3.95602 3.78466
# Velocity P-wave (km/s) = 7.35699 8.51482 7.95699
#
# Compressibility (1/GPa) = 0.01531637
#
# Stress axis : x y z
#
# Youngs Moduli (GPa) = 66.78010 27.02820 83.35454
#
# Poissons Ratio (x) = 0.30421 0.27783
# Poissons Ratio (y) = 0.75163 0.81173
# Poissons Ratio (z) = 0.22259 0.26321
#
# Static dielectric constant tensor:
#      x y z
#    x 1.562510 0.000000 -0.000440 
#    y 0.000000 1.594680 0.000000 
#    z -0.000440 0.000000 1.619060 
# 
# From -- ./inp_files/275551.got.cif
#   From: 2010.05.17/outbox.cif.g08.bks.cpg/sg12_138_cif.got.tgz:275551.got - 2010.06.03 13:09:07.
