data_PCOD9182799
_publ_section_title
;
Structure prediction by ZEFSAII (Michael W. Deem and Ramdas Pophale) SiO2 
 PCOD9182799
Probable space group: C 2/M
;
_chemical_formula_sum "Si O2"
_cell_formula_units_Z 56
_cell_length_a 33.684943
_cell_length_b 7.522406
_cell_length_c 16.351814
_cell_angle_alpha 90.000000
_cell_angle_beta 141.587035
_cell_angle_gamma 90.000000
_cell_volume 2574.408278
_symmetry_space_group_name_H-M "C 2/M"
_symmetry_group_IT_number 12
_symmetry_cell_setting 'monoclinic'
loop_
_space_group_symop_operation_xyz
x,y,z
-x,y,-z
-x,-y,-z
x,-y,z
1/2+x,1/2+y,z
1/2-x,1/2+y,-z
1/2-x,1/2-y,-z
1/2+x,1/2-y,z
loop_
_atom_site_type_symbol
_atom_site_label
_atom_site_fract_x
_atom_site_fract_y
_atom_site_fract_z
Si Si1 0.450203 0.281895 0.850150
Si Si2 0.191499 0.204085 0.346083
Si Si3 0.787231 0.784965 0.367386
Si Si4 0.991353 0.217059 0.391387
Si Si5 0.347820 0.285028 0.126962
Si Si6 0.427586 0.283437 0.633838
Si Si7 0.271895 0.291567 0.162148
O O1 0.452422 0.500000 0.854930
O O2 0.378493 0.215325 0.755755
O O3 0.461594 0.229929 0.773483
O O4 0.500000 0.222954 0.000000
O O5 0.250000 0.250000 0.500000
O O6 0.222961 0.228480 0.308594
O O7 0.179718 0.000000 0.344307
O O8 0.853150 0.728841 0.516743
O O9 0.788044 0.717483 0.276217
O O10 0.787095 0.000000 0.367530
O O11 0.920987 0.269874 0.247199
O O12 0.000000 0.274887 0.500000
O O13 0.041194 0.274779 0.401772
O O14 0.994352 0.000000 0.398523
O O15 0.346701 0.500000 0.125494
O O16 0.312593 0.217684 0.152354
O O17 0.302486 0.226773 0.980097
O O18 0.428650 0.500000 0.633758
O O19 0.288108 0.500000 0.191666
#
# Coordination Sequence:
#
# PCOD9182799 Si02
#       7
#     8   8   8   8   8   8   8
#     4   9  18  32  50  75 104 133 168 212 263 312
#     4  11  21  35  56  80 106 135 171 217 264 315
#     4  10  19  33  53  76 101 135 178 214 257 312
#     4   9  16  26  45  73 100 127 165 214 259 299
#     4   9  17  30  48  73 103 131 168 214 256 302
#     4   9  16  28  47  70  98 131 165 209 259 305
#     4   9  18  31  48  70 101 138 169 206 257 313
#
# _framework density 21.752572000000001
#
# number of rings (size 3 to 8) (size 9 to 14) (size 15 to 20)
#    0.000    2.571    1.429    1.286    0.000    5.143 
#    0.000    2.857    0.000    3.000    0.000    0.000 
#    0.000    0.000    0.000    0.000    0.000    0.000 
#
# Total GULP energy -156185.542878 kJ/mol
# GULP energy per Si atom -5578.055103 kJ/mol
# Density = 2.170306 g / cm^3
# Si number density = 21.752572 Si / 1000 Ang^3
#
#
#
# Elastic Constant Matrix: (Units=GPa)
#
#
# Indices 1 2 3 4 5 6 
#
# 1 112.0080 -6.6015 63.9006 0.0000 -0.9849 0.0000
# 2 -6.6015 48.9193 -1.8945 0.0000 -0.6940 0.0000
# 3 63.9006 -1.8945 128.3244 0.0000 -14.4898 0.0000
# 4 0.0000 0.0000 0.0000 13.8582 0.0000 2.4990
# 5 -0.9849 -0.6940 -14.4898 0.0000 38.0098 0.0000
# 6 0.0000 0.0000 0.0000 2.4990 0.0000 10.9568
#
#
#
# Elastic Compliance Matrix: (Units=1/GPa)
#
#
# Indices 1 2 3 4 5 6 
#
# 1 0.012739 0.001434 -0.006565 0.000000 -0.002146 0.000000
# 2 0.001434 0.020624 -0.000379 0.000000 0.000269 0.000000
# 3 -0.006565 -0.000379 0.011532 0.000000 0.004219 0.000000
# 4 0.000000 0.000000 0.000000 0.075254 0.000000 -0.017164
# 5 -0.002146 0.000269 0.004219 0.000000 0.027867 0.000000
# 6 0.000000 0.000000 0.000000 -0.017164 0.000000 0.095182
#
#
# Mechanical properties :
#
#
# Convention : Reuss Voigt Hill
#
# Bulk Modulus (GPa) = 29.51897 44.45123 36.98510
# Shear Modulus (GPa) = 18.83168 28.15478 23.49323
#
# Velocity S-wave (km/s) = 2.94551 3.60157 3.28993
# Velocity P-wave (km/s) = 5.01675 6.14608 5.60991
#
# Compressibility (1/GPa) = 0.03387652
#
# Stress axis : x y z
#
# Youngs Moduli (GPa) = 78.50114 48.48603 86.71173
#
# Poissons Ratio (x) = -0.06955 0.56922
# Poissons Ratio (y) = -0.11260 0.03290
# Poissons Ratio (z) = 0.51532 0.01839
#
# Static dielectric constant tensor:
#      x y z
#    x 1.809740 0.000000 -0.009040 
#    y 0.000000 1.848420 0.000000 
#    z -0.009040 0.000000 1.770790 
# 
# From -- ./inp_files/250598.got.cif
#   From: 2010.05.17/outbox.cif.g08.bks.cpg/sg12_126_cif.got.tgz:250598.got - 2010.06.03 13:09:07.
