data_PCOD9182347
_publ_section_title
;
Structure prediction by ZEFSAII (Michael W. Deem and Ramdas Pophale) SiO2 
 PCOD9182347
Probable space group: C 2/M
;
_chemical_formula_sum "Si O2"
_cell_formula_units_Z 56
_cell_length_a 25.423412
_cell_length_b 25.161810
_cell_length_c 5.272690
_cell_angle_alpha 90.000000
_cell_angle_beta 80.598235
_cell_angle_gamma 90.000000
_cell_volume 3327.626653
_symmetry_space_group_name_H-M "C 2/M"
_symmetry_group_IT_number 12
_symmetry_cell_setting 'monoclinic'
loop_
_space_group_symop_operation_xyz
x,y,z
-x,y,-z
-x,-y,-z
x,-y,z
1/2+x,1/2+y,z
1/2-x,1/2+y,-z
1/2-x,1/2-y,-z
1/2+x,1/2-y,z
loop_
_atom_site_type_symbol
_atom_site_label
_atom_site_fract_x
_atom_site_fract_y
_atom_site_fract_z
Si Si1 0.176471 0.500000 0.264538
Si Si2 0.375429 0.844537 0.746193
Si Si3 0.227730 0.610132 0.087428
Si Si4 0.397198 0.000000 0.170501
Si Si5 0.944246 0.708838 0.073971
Si Si6 0.761465 0.832551 0.587505
Si Si7 0.550291 0.902024 0.637865
Si Si8 0.164778 0.741774 0.606082
O O1 0.214593 0.550623 0.181276
O O2 0.147361 0.500000 0.564828
O O3 0.131773 0.500000 0.076800
O O4 0.330474 0.868169 0.960763
O O5 0.395802 0.893420 0.565337
O O6 0.348555 0.797161 0.614833
O O7 0.426591 0.819113 0.830434
O O8 0.245916 0.639738 0.332289
O O9 0.263916 0.626149 0.819193
O O10 0.434849 0.051809 0.177900
O O11 0.955186 0.657012 0.240225
O O12 0.891084 0.740183 0.198639
O O13 0.000000 0.738800 0.000000
O O14 0.815001 0.798875 0.498213
O O15 0.716142 0.787611 0.690590
O O16 0.500000 0.915249 0.500000
#
# Coordination Sequence:
#
# PCOD9182347 Si02
#       8
#     4   8   8   4   8   8   8   8
#     4  12  24  38  55  76  98 136 173 219 271 323
#     4  10  19  33  50  69 100 132 171 217 258 307
#     4  11  21  36  55  73 101 131 170 213 266 304
#     4  12  25  36  54  68  98 136 182 236 274 296
#     4  11  20  33  53  70 100 139 173 217 262 311
#     4  10  21  35  54  78  99 131 165 218 257 310
#     4  11  22  35  45  70  94 136 185 233 266 302
#     4   9  21  31  51  76 100 126 173 209 260 312
#
# _framework density 16.828811999999999
#
# number of rings (size 3 to 8) (size 9 to 14) (size 15 to 20)
#    0.000    1.429    4.286    1.929    4.000    1.714 
#    0.000    1.071    0.000    0.000    0.000    0.000 
#    0.000    0.000    0.000    3.857    0.000    0.000 
#
# Total GULP energy -155964.166222 kJ/mol
# GULP energy per Si atom -5570.148794 kJ/mol
# Density = 1.679051 g / cm^3
# Si number density = 16.828812 Si / 1000 Ang^3
#
#
#
# Elastic Constant Matrix: (Units=GPa)
#
#
# Indices 1 2 3 4 5 6 
#
# 1 59.6392 31.0245 17.7282 0.0000 -20.3332 0.0000
# 2 31.0245 53.9924 14.3995 0.0000 -12.2492 0.0000
# 3 17.7282 14.3995 60.3361 0.0000 -3.5373 0.0000
# 4 0.0000 0.0000 0.0000 178.3463 0.0000 89.0711
# 5 -20.3332 -12.2492 -3.5373 0.0000 21.3794 0.0000
# 6 0.0000 0.0000 0.0000 89.0711 0.0000 68.5484
#
#
#
# Elastic Compliance Matrix: (Units=1/GPa)
#
#
# Indices 1 2 3 4 5 6 
#
# 1 0.032476 -0.011993 -0.005324 0.000000 0.023135 0.000000
# 2 -0.011993 0.026945 -0.002697 0.000000 0.003586 0.000000
# 3 -0.005324 -0.002697 0.018574 0.000000 -0.003535 0.000000
# 4 0.000000 0.000000 0.000000 0.015972 0.000000 -0.020754
# 5 0.023135 0.003586 -0.003535 0.000000 0.070247 0.000000
# 6 0.000000 0.000000 0.000000 -0.020754 0.000000 0.041556
#
#
# Mechanical properties :
#
#
# Convention : Reuss Voigt Hill
#
# Bulk Modulus (GPa) = 26.33698 33.36358 29.85028
# Shear Modulus (GPa) = 19.34581 61.04250 40.19415
#
# Velocity S-wave (km/s) = 3.39420 6.02921 4.89244
# Velocity P-wave (km/s) = 5.57178 8.26661 7.04917
#
# Compressibility (1/GPa) = 0.03796943
#
# Stress axis : x y z
#
# Youngs Moduli (GPa) = 30.79163 37.11274 53.83755
#
# Poissons Ratio (x) = 0.44508 0.28662
# Poissons Ratio (y) = 0.36927 0.14518
# Poissons Ratio (z) = 0.16393 0.10008
#
# Static dielectric constant tensor:
#      x y z
#    x 1.604650 0.000000 -0.012220 
#    y 0.000000 1.572940 0.000000 
#    z -0.012220 0.000000 1.685150 
# 
# From -- ./inp_files/21947.got.cif
#   From: 2010.05.17/outbox.cif.g08.bks.cpg/sg12_11_cif.got.tgz:21947.got - 2010.06.03 13:09:07.
