data_PCOD9182863
_publ_section_title
;
Structure prediction by ZEFSAII (Michael W. Deem and Ramdas Pophale) SiO2 
 PCOD9182863
Probable space group: C 2/M
;
_chemical_formula_sum "Si O2"
_cell_formula_units_Z 64
_cell_length_a 29.075732
_cell_length_b 7.663697
_cell_length_c 19.328631
_cell_angle_alpha 90.000000
_cell_angle_beta 42.036354
_cell_angle_gamma 90.000000
_cell_volume 2883.943958
_symmetry_space_group_name_H-M "C 2/M"
_symmetry_group_IT_number 12
_symmetry_cell_setting 'monoclinic'
loop_
_space_group_symop_operation_xyz
x,y,z
-x,y,-z
-x,-y,-z
x,-y,z
1/2+x,1/2+y,z
1/2-x,1/2+y,-z
1/2-x,1/2-y,-z
1/2+x,1/2-y,z
loop_
_atom_site_type_symbol
_atom_site_label
_atom_site_fract_x
_atom_site_fract_y
_atom_site_fract_z
Si Si1 0.104712 0.792996 0.603407
Si Si2 0.626083 0.289166 0.954644
Si Si3 0.541279 0.286270 0.178533
Si Si4 0.702145 0.711353 0.379912
Si Si5 0.778655 0.705027 0.801893
Si Si6 0.437014 0.200039 0.110165
Si Si7 0.325987 0.302464 0.890098
Si Si8 0.829782 0.288416 0.332142
O O1 0.134855 0.727466 0.497145
O O2 0.163280 0.765942 0.596411
O O3 0.032086 0.720968 0.712002
O O4 0.095626 0.000000 0.605681
O O5 0.626383 0.500000 0.946324
O O6 0.699834 0.237104 0.902219
O O7 0.619320 0.202537 0.887718
O O8 0.564172 0.239057 0.074894
O O9 0.537819 0.500000 0.183118
O O10 0.605464 0.221422 0.153438
O O11 0.703568 0.500000 0.378680
O O12 0.705318 0.766366 0.296649
O O13 0.766824 0.771159 0.354713
O O14 0.781725 0.500000 0.812715
O O15 0.825836 0.790893 0.807201
O O16 0.400109 0.278669 0.217321
O O17 0.456037 0.000000 0.104979
O O18 0.500000 0.289012 0.000000
O O19 0.331056 0.500000 0.908167
O O20 0.250000 0.250000 0.000000
O O21 0.830190 0.500000 0.329360
#
# Coordination Sequence:
#
# PCOD9182863 Si02
#       8
#     8   8   8   8   8   8   8   8
#     4  10  21  37  59  82 108 147 193 232 274 328
#     4  10  19  33  53  77 108 142 180 225 272 327
#     4   9  19  37  57  82 114 144 181 231 277 330
#     4  10  21  38  58  82 111 149 192 232 275 327
#     4  11  22  37  58  86 113 142 184 231 280 332
#     4  10  20  32  47  73 111 149 181 219 274 335
#     4  11  21  37  61  87 117 148 182 228 280 335
#     4  10  20  34  52  78 114 146 185 235 277 326
#
# _framework density 22.191832000000002
#
# number of rings (size 3 to 8) (size 9 to 14) (size 15 to 20)
#    0.000    1.875    2.500    1.875    0.000    2.250 
#    0.000    1.875    0.000    3.750    0.000    0.000 
#    0.000    0.000    0.000    0.000    0.000    0.000 
#
# Total GULP energy -178653.436772 kJ/mol
# GULP energy per Si atom -5582.919899 kJ/mol
# Density = 2.214132 g / cm^3
# Si number density = 22.191832 Si / 1000 Ang^3
#
#
#
# Elastic Constant Matrix: (Units=GPa)
#
#
# Indices 1 2 3 4 5 6 
#
# 1 83.4091 -6.5857 29.6479 -0.0046 6.2332 0.0057
# 2 -6.5857 41.3630 1.0881 -0.0096 -6.8584 0.0100
# 3 29.6479 1.0881 142.4812 -0.0001 8.0732 -0.0070
# 4 -0.0046 -0.0096 -0.0001 12.5266 0.0014 3.7316
# 5 6.2332 -6.8584 8.0732 0.0014 27.4553 0.0016
# 6 0.0057 0.0100 -0.0070 3.7316 0.0016 19.6399
#
#
#
# Elastic Compliance Matrix: (Units=1/GPa)
#
#
# Indices 1 2 3 4 5 6 
#
# 1 0.013216 0.001885 -0.002665 0.000009 -0.001746 -0.000007
# 2 0.001885 0.025534 -0.000940 0.000025 0.006227 -0.000019
# 3 -0.002665 -0.000940 0.007687 -0.000003 -0.001890 0.000005
# 4 0.000009 0.000025 -0.000003 0.084620 0.000002 -0.016078
# 5 -0.001746 0.006227 -0.001890 0.000002 0.038931 -0.000007
# 6 -0.000007 -0.000019 0.000005 -0.016078 -0.000007 0.053972
#
#
# Mechanical properties :
#
#
# Convention : Reuss Voigt Hill
#
# Bulk Modulus (GPa) = 23.25829 35.06155 29.15992
# Shear Modulus (GPa) = 20.68411 28.13122 24.40767
#
# Velocity S-wave (km/s) = 3.05628 3.56425 3.32000
# Velocity P-wave (km/s) = 4.79143 5.72470 5.27873
#
# Compressibility (1/GPa) = 0.04299543
#
# Stress axis : x y z
#
# Youngs Moduli (GPa) = 75.66680 39.16423 130.08324
#
# Poissons Ratio (x) = -0.07382 0.34673
# Poissons Ratio (y) = -0.14262 0.12228
# Poissons Ratio (z) = 0.20169 0.03681
#
# Static dielectric constant tensor:
#      x y z
#    x 1.858720 0.000040 -0.037040 
#    y 0.000040 2.009450 -0.000020 
#    z -0.037040 -0.000020 1.848190 
# 
# From -- ./inp_files/295521.got.cif
#   From: 2010.05.17/outbox.cif.g08.bks.cpg/sg12_148_cif.got.tgz:295521.got - 2010.06.03 13:09:07.
