data_PCOD9182073
_publ_section_title
;
Structure prediction by ZEFSAII (Michael W. Deem and Ramdas Pophale) SiO2 
 PCOD9182073
Probable space group: C 2/M
;
_chemical_formula_sum "Si O2"
_cell_formula_units_Z 50
_cell_length_a 31.754511
_cell_length_b 7.372483
_cell_length_c 12.219992
_cell_angle_alpha 90.000000
_cell_angle_beta 58.325221
_cell_angle_gamma 90.000000
_cell_volume 2434.676673
_symmetry_space_group_name_H-M "C 2/M"
_symmetry_group_IT_number 12
_symmetry_cell_setting 'monoclinic'
loop_
_space_group_symop_operation_xyz
x,y,z
-x,y,-z
-x,-y,-z
x,-y,z
1/2+x,1/2+y,z
1/2-x,1/2+y,-z
1/2-x,1/2-y,-z
1/2+x,1/2-y,z
loop_
_atom_site_type_symbol
_atom_site_label
_atom_site_fract_x
_atom_site_fract_y
_atom_site_fract_z
Si Si1 0.710513 0.212858 0.280123
Si Si2 0.879066 0.216956 0.446382
Si Si3 0.590767 0.278771 0.839960
Si Si4 0.556301 0.722260 0.437606
Si Si5 0.642483 0.291944 0.169680
Si Si6 0.678575 0.720673 0.887237
Si Si7 0.000000 0.500000 0.000000
O O1 0.674963 0.236220 0.433015
O O2 0.682525 0.292125 0.212601
O O3 0.766093 0.282869 0.217824
O O4 0.713235 0.000000 0.253124
O O5 0.892365 0.271995 0.306227
O O6 0.918792 0.281472 0.482520
O O7 0.881449 0.000000 0.444352
O O8 0.582271 0.500000 0.855927
O O9 0.635874 0.234211 0.860018
O O10 0.543327 0.160100 0.934636
O O11 0.500000 0.779395 0.500000
O O12 0.556991 0.500000 0.436131
O O13 0.592648 0.786049 0.291194
O O14 0.630184 0.500000 0.159915
O O15 0.663724 0.213845 0.028902
O O16 0.680807 0.500000 0.885611
#
# Coordination Sequence:
#
# PCOD9182073 Si02
#       7
#     8   8   8   8   8   8   2
#     4  10  19  32  55  85 121 157 195 249 311 361
#     4   9  19  36  58  83 113 156 200 242 304 366
#     4  10  23  44  65  88 123 160 205 254 303 366
#     4   8  14  26  49  79 103 137 193 244 286 349
#     4   9  17  32  53  79 116 156 198 243 302 369
#     4   9  19  36  57  84 117 160 204 246 302 372
#     4  12  26  44  64  94 118 164 210 248 314 354
#
# _framework density 20.536607
#
# number of rings (size 3 to 8) (size 9 to 14) (size 15 to 20)
#    0.000    2.720    0.000    2.160    1.120    1.920 
#    4.320    4.800    0.000    1.920    0.000    0.000 
#    0.000    0.000    0.000    0.000    0.000    0.000 
#
# Total GULP energy -139208.552487 kJ/mol
# GULP energy per Si atom -5568.342099 kJ/mol
# Density = 2.048986 g / cm^3
# Si number density = 20.536607 Si / 1000 Ang^3
#
#
#
# Elastic Constant Matrix: (Units=GPa)
#
#
# Indices 1 2 3 4 5 6 
#
# 1 167.5600 22.1774 118.1410 0.0000 -48.2108 0.0000
# 2 22.1774 84.9501 19.2120 0.0000 -6.8616 0.0000
# 3 118.1410 19.2120 85.4833 0.0000 -31.3364 0.0000
# 4 0.0000 0.0000 0.0000 22.8830 0.0000 -0.2956
# 5 -48.2108 -6.8616 -31.3364 0.0000 30.3226 0.0000
# 6 0.0000 0.0000 0.0000 -0.2956 0.0000 19.5834
#
#
#
# Elastic Compliance Matrix: (Units=1/GPa)
#
#
# Indices 1 2 3 4 5 6 
#
# 1 0.360162 0.019329 -0.467803 0.000000 0.093561 0.000000
# 2 0.019329 0.013440 -0.027936 0.000000 0.004902 0.000000
# 3 -0.467803 -0.027936 0.627094 0.000000 -0.102034 0.000000
# 4 0.000000 0.000000 0.000000 0.043709 0.000000 0.000660
# 5 0.093561 0.004902 -0.102034 0.000000 0.077398 0.000000
# 6 0.000000 0.000000 0.000000 0.000660 0.000000 0.051074
#
#
# Mechanical properties :
#
#
# Convention : Reuss Voigt Hill
#
# Bulk Modulus (GPa) = 20.88835 73.00603 46.94719
# Shear Modulus (GPa) = 2.33464 26.45533 14.39499
#
# Velocity S-wave (km/s) = 1.06737 3.59305 2.65040
# Velocity P-wave (km/s) = 3.42234 7.26909 5.68120
#
# Compressibility (1/GPa) = 0.04787358
#
# Stress axis : x y z
#
# Youngs Moduli (GPa) = 2.77653 74.40730 1.59466
#
# Poissons Ratio (x) = -1.43818 0.74599
# Poissons Ratio (y) = -0.05367 0.04455
# Poissons Ratio (z) = 1.29887 2.07866
#
# Static dielectric constant tensor:
#      x y z
#    x 1.691300 0.000000 -0.003690 
#    y 0.000000 1.809310 0.000000 
#    z -0.003690 0.000000 1.722690 
# 
# From -- ./inp_files/180188.got.cif
#   From: 2010.05.17/outbox.cif.g08.bks.cpg/sg12_91_cif.got.tgz:180188.got - 2010.06.03 13:09:07.
