data_PCOD9182601
_publ_section_title
;
Structure prediction by ZEFSAII (Michael W. Deem and Ramdas Pophale) SiO2 
 PCOD9182601
Probable space group: C 2/M
;
_chemical_formula_sum "Si O2"
_cell_formula_units_Z 64
_cell_length_a 32.567610
_cell_length_b 7.591493
_cell_length_c 18.670116
_cell_angle_alpha 90.000000
_cell_angle_beta 139.336874
_cell_angle_gamma 90.000000
_cell_volume 3007.793924
_symmetry_space_group_name_H-M "C 2/M"
_symmetry_group_IT_number 12
_symmetry_cell_setting 'monoclinic'
loop_
_space_group_symop_operation_xyz
x,y,z
-x,y,-z
-x,-y,-z
x,-y,z
1/2+x,1/2+y,z
1/2-x,1/2+y,-z
1/2-x,1/2-y,-z
1/2+x,1/2-y,z
loop_
_atom_site_type_symbol
_atom_site_label
_atom_site_fract_x
_atom_site_fract_y
_atom_site_fract_z
Si Si1 0.023928 0.707154 0.302411
Si Si2 0.341322 0.207377 0.565181
Si Si3 0.679561 0.288903 0.880573
Si Si4 0.295836 0.285599 0.660335
Si Si5 0.459868 0.287330 0.515440
Si Si6 0.607777 0.293872 0.922463
Si Si7 0.185035 0.792843 0.158182
Si Si8 0.824163 0.213838 0.287626
O O1 0.024914 0.500000 0.288984
O O2 0.092904 0.782880 0.375495
O O3 0.012376 0.734853 0.371488
O O4 0.967078 0.782358 0.180569
O O5 0.333873 0.228960 0.640588
O O6 0.276446 0.278339 0.445605
O O7 0.341910 0.000000 0.548577
O O8 0.670458 0.500000 0.863879
O O9 0.634578 0.217532 0.883487
O O10 0.670342 0.224266 0.787577
O O11 0.750000 0.250000 0.000000
O O12 0.294720 0.500000 0.658693
O O13 0.321773 0.221207 0.770584
O O14 0.500000 0.225817 0.500000
O O15 0.460251 0.500000 0.513509
O O16 0.387133 0.228741 0.412257
O O17 0.625924 0.500000 0.945522
O O18 0.641770 0.216979 0.037450
O O19 0.258194 0.775972 0.232614
O O20 0.169834 0.000000 0.143447
O O21 0.822585 0.000000 0.286207
#
# Coordination Sequence:
#
# PCOD9182601 Si02
#       8
#     8   8   8   8   8   8   8   8
#     4  11  23  38  57  81 110 145 185 228 271 320
#     4   9  19  36  56  81 111 140 171 216 275 328
#     4  10  19  33  52  76 106 142 183 223 263 312
#     4   9  18  34  58  84 107 133 173 222 269 326
#     4  10  21  38  57  78 110 148 182 222 271 323
#     4  10  21  37  55  76 108 150 187 223 272 327
#     4  10  20  35  55  80 109 141 177 225 278 320
#     4  10  20  32  52  80 108 140 181 224 269 323
#
# _framework density 21.278054000000001
#
# number of rings (size 3 to 8) (size 9 to 14) (size 15 to 20)
#    0.000    2.125    1.250    1.875    0.000    6.250 
#    0.000    4.375    0.000    3.750    0.000    0.000 
#    0.000    0.000    0.000    0.000    0.000    0.000 
#
# Total GULP energy -178727.984922 kJ/mol
# GULP energy per Si atom -5585.249529 kJ/mol
# Density = 2.122962 g / cm^3
# Si number density = 21.278054 Si / 1000 Ang^3
#
#
#
# Elastic Constant Matrix: (Units=GPa)
#
#
# Indices 1 2 3 4 5 6 
#
# 1 78.9806 -14.1925 30.7480 0.0000 -2.5482 0.0000
# 2 -14.1925 37.5738 -14.1896 -0.0001 -2.5828 0.0000
# 3 30.7480 -14.1896 109.7159 0.0000 -10.9554 0.0000
# 4 0.0000 -0.0001 0.0000 16.8831 0.0000 1.1013
# 5 -2.5482 -2.5828 -10.9554 0.0000 34.3716 0.0000
# 6 0.0000 0.0000 0.0000 1.1013 0.0000 10.7798
#
#
#
# Elastic Compliance Matrix: (Units=1/GPa)
#
#
# Indices 1 2 3 4 5 6 
#
# 1 0.014830 0.004271 -0.003576 0.000000 0.000281 0.000000
# 2 0.004271 0.029592 0.002979 0.000000 0.003490 0.000000
# 3 -0.003576 0.002979 0.010843 0.000000 0.003415 0.000000
# 4 0.000000 0.000000 0.000000 0.059628 0.000000 -0.006092
# 5 0.000281 0.003490 0.003415 0.000000 0.030465 0.000000
# 6 0.000000 0.000000 0.000000 -0.006092 0.000000 0.093389
#
#
# Mechanical properties :
#
#
# Convention : Reuss Voigt Hill
#
# Bulk Modulus (GPa) = 15.97139 25.66689 20.81914
# Shear Modulus (GPa) = 19.81998 27.33385 23.57691
#
# Velocity S-wave (km/s) = 3.05532 3.58802 3.33233
# Velocity P-wave (km/s) = 4.46866 5.40870 4.96100
#
# Compressibility (1/GPa) = 0.06261197
#
# Stress axis : x y z
#
# Youngs Moduli (GPa) = 67.43152 33.79270 92.22731
#
# Poissons Ratio (x) = -0.14431 0.32978
# Poissons Ratio (y) = -0.28797 -0.27473
# Poissons Ratio (z) = 0.24112 -0.10066
#
# Static dielectric constant tensor:
#      x y z
#    x 1.760580 0.000000 -0.005900 
#    y 0.000000 1.791820 0.000000 
#    z -0.005900 0.000000 1.755150 
# 
# From -- ./inp_files/295678.got.cif
#   From: 2010.05.17/outbox.cif.g08.bks.cpg/sg12_148_cif.got.tgz:295678.got - 2010.06.03 13:09:07.
