data_PCOD9182411
_publ_section_title
;
Structure prediction by ZEFSAII (Michael W. Deem and Ramdas Pophale) SiO2 
 PCOD9182411
Probable space group: C 2/M
;
_chemical_formula_sum "Si O2"
_cell_formula_units_Z 64
_cell_length_a 12.757950
_cell_length_b 11.782744
_cell_length_c 21.517783
_cell_angle_alpha 90.000000
_cell_angle_beta 89.887851
_cell_angle_gamma 90.000000
_cell_volume 3234.625674
_symmetry_space_group_name_H-M "C 2/M"
_symmetry_group_IT_number 12
_symmetry_cell_setting 'monoclinic'
loop_
_space_group_symop_operation_xyz
x,y,z
-x,y,-z
-x,-y,-z
x,-y,z
1/2+x,1/2+y,z
1/2-x,1/2+y,-z
1/2-x,1/2-y,-z
1/2+x,1/2-y,z
loop_
_atom_site_type_symbol
_atom_site_label
_atom_site_fract_x
_atom_site_fract_y
_atom_site_fract_z
Si Si1 0.136436 0.629244 0.314990
Si Si2 0.512293 0.708466 0.756604
Si Si3 0.347728 0.874474 0.172787
Si Si4 0.468376 0.870347 0.928088
Si Si5 0.638673 0.633038 0.644693
Si Si6 0.096064 0.663390 0.454969
Si Si7 0.610376 0.630105 0.126448
Si Si8 0.163519 0.873725 0.510585
O O1 0.145026 0.500000 0.292564
O O2 0.252233 0.677625 0.327660
O O3 0.083738 0.627607 0.383650
O O4 0.073875 0.701299 0.265401
O O5 0.612231 0.777441 0.781775
O O6 0.548011 0.645417 0.694457
O O7 0.464786 0.637077 0.813034
O O8 0.428122 0.870292 0.114911
O O9 0.230050 0.861661 0.149173
O O10 0.357727 0.000000 0.201998
O O11 0.411992 0.749267 0.910858
O O12 0.420013 0.000000 0.918059
O O13 0.500000 0.865526 0.000000
O O14 0.659044 0.500000 0.633175
O O15 0.623384 0.680582 0.575760
O O16 0.117503 0.797841 0.456580
O O17 0.209861 0.623972 0.481945
O O18 0.000000 0.632445 0.500000
O O19 0.597577 0.500000 0.098996
O O20 0.125700 0.000000 0.502575
#
# Coordination Sequence:
#
# PCOD9182411 Si02
#       8
#     8   8   8   8   8   8   8   8
#     4  10  21  34  50  73  98 128 168 212 259 310
#     4  11  19  33  54  75 100 136 179 214 254 314
#     4   9  19  35  53  76 111 146 175 219 269 306
#     4   9  19  37  60  85 113 148 187 219 253 307
#     4   9  18  33  50  69  96 127 162 210 260 308
#     4  10  19  33  51  71  95 123 159 206 258 312
#     4  10  21  36  55  83 115 145 178 220 269 309
#     4   9  19  34  50  69  94 124 159 201 255 316
#
# _framework density 19.785907000000002
#
# number of rings (size 3 to 8) (size 9 to 14) (size 15 to 20)
#    0.000    2.375    0.000    3.375    0.000    2.500 
#    0.000    4.375    0.000    4.500    0.000    0.000 
#    0.000    0.000    0.000    0.000    0.000    0.000 
#
# Total GULP energy -178214.292260 kJ/mol
# GULP energy per Si atom -5569.196633 kJ/mol
# Density = 1.974087 g / cm^3
# Si number density = 19.785907 Si / 1000 Ang^3
#
#
#
# Elastic Constant Matrix: (Units=GPa)
#
#
# Indices 1 2 3 4 5 6 
#
# 1 49.8207 24.5368 -7.6098 0.0000 10.1491 0.0000
# 2 24.5368 120.5628 23.5026 0.0000 15.9460 0.0000
# 3 -7.6098 23.5026 37.1220 0.0000 1.0974 0.0000
# 4 0.0000 0.0000 0.0000 9.0645 0.0000 3.3617
# 5 10.1491 15.9460 1.0974 0.0000 13.6913 0.0000
# 6 0.0000 0.0000 0.0000 3.3617 0.0000 12.8815
#
#
#
# Elastic Compliance Matrix: (Units=1/GPa)
#
#
# Indices 1 2 3 4 5 6 
#
# 1 0.027160 -0.005444 0.009445 0.000000 -0.014549 0.000000
# 2 -0.005444 0.012371 -0.008662 0.000000 -0.009678 0.000000
# 3 0.009445 -0.008662 0.034349 0.000000 0.000335 0.000000
# 4 0.000000 0.000000 0.000000 0.122142 0.000000 -0.031876
# 5 -0.014549 -0.009678 0.000335 0.000000 0.095070 0.000000
# 6 0.000000 0.000000 0.000000 -0.031876 0.000000 0.085950
#
#
# Mechanical properties :
#
#
# Convention : Reuss Voigt Hill
#
# Bulk Modulus (GPa) = 15.49053 32.04051 23.76552
# Shear Modulus (GPa) = 12.25840 18.26585 15.26212
#
# Velocity S-wave (km/s) = 2.49178 3.04168 2.78036
# Velocity P-wave (km/s) = 4.01556 5.34457 4.72701
#
# Compressibility (1/GPa) = 0.06455558
#
# Stress axis : x y z
#
# Youngs Moduli (GPa) = 36.81916 80.83285 29.11313
#
# Poissons Ratio (x) = 0.44008 -0.27496
# Poissons Ratio (y) = 0.20046 0.25219
# Poissons Ratio (z) = -0.34774 0.70021
#
# Static dielectric constant tensor:
#      x y z
#    x 1.704840 0.000000 -0.010820 
#    y 0.000000 1.761470 0.000000 
#    z -0.010820 0.000000 1.688620 
# 
# From -- ./inp_files/335245.got.cif
#   From: 2010.05.17/outbox.cif.g08.bks.cpg/sg12_168_cif.got.tgz:335245.got - 2010.06.03 13:09:07.
