data_PCOD9182934
_publ_section_title
;
Structure prediction by ZEFSAII (Michael W. Deem and Ramdas Pophale) SiO2 
 PCOD9182934
Probable space group: C 2/M
;
_chemical_formula_sum "Si O2"
_cell_formula_units_Z 64
_cell_length_a 27.203655
_cell_length_b 7.475020
_cell_length_c 31.818938
_cell_angle_alpha 90.000000
_cell_angle_beta 156.821900
_cell_angle_gamma 90.000000
_cell_volume 2546.654178
_symmetry_space_group_name_H-M "C 2/M"
_symmetry_group_IT_number 12
_symmetry_cell_setting 'monoclinic'
loop_
_space_group_symop_operation_xyz
x,y,z
-x,y,-z
-x,-y,-z
x,-y,z
1/2+x,1/2+y,z
1/2-x,1/2+y,-z
1/2-x,1/2-y,-z
1/2+x,1/2-y,z
loop_
_atom_site_type_symbol
_atom_site_label
_atom_site_fract_x
_atom_site_fract_y
_atom_site_fract_z
Si Si1 0.492487 0.798938 0.677015
Si Si2 0.409221 0.203530 0.333303
Si Si3 0.959348 0.784905 0.014314
Si Si4 0.380213 0.780224 0.671548
Si Si5 0.283913 0.283586 0.749571
Si Si6 0.753852 0.705433 0.907374
Si Si7 0.887518 0.712814 0.089989
Si Si8 0.666002 0.289455 0.566473
O O1 0.536527 0.713204 0.667590
O O2 0.398595 0.718576 0.637757
O O3 0.624043 0.806029 0.805714
O O4 0.448915 0.000000 0.632956
O O5 0.301276 0.280673 0.278218
O O6 0.532156 0.198398 0.458985
O O7 0.370090 0.000000 0.290941
O O8 0.073963 0.721911 0.133342
O O9 0.950800 0.000000 0.009480
O O10 0.000000 0.734494 0.000000
O O11 0.823005 0.712506 0.917548
O O12 0.498245 0.717677 0.792712
O O13 0.256688 0.727498 0.599868
O O14 0.382360 0.000000 0.671689
O O15 0.282976 0.500000 0.751452
O O16 0.230562 0.234901 0.662238
O O17 0.726374 0.500000 0.896961
O O18 0.861816 0.780254 0.022775
O O19 0.908425 0.500000 0.104348
O O20 0.750000 0.750000 0.000000
O O21 0.645327 0.500000 0.544234
#
# Coordination Sequence:
#
# PCOD9182934 Si02
#       8
#     8   8   8   8   8   8   8   8
#     4  10  20  38  62  82 110 157 199 234 283 344
#     4  10  22  40  62  86 110 143 193 246 292 340
#     4  10  21  38  60  85 114 154 199 234 274 338
#     4   9  19  36  57  82 115 152 189 230 279 336
#     4  10  21  39  61  85 114 147 191 244 285 331
#     4  11  22  34  53  86 123 153 186 235 290 340
#     4  10  19  33  53  79 111 147 186 225 270 327
#     4  11  23  39  60  86 116 150 188 235 294 352
#
# _framework density 25.131012999999999
#
# number of rings (size 3 to 8) (size 9 to 14) (size 15 to 20)
#    0.000    1.875    1.250    2.625    0.000    7.250 
#    0.000    3.750    0.000    0.000    0.000    0.000 
#    0.000    0.000    0.000    0.000    0.000    0.000 
#
# Total GULP energy -178819.956176 kJ/mol
# GULP energy per Si atom -5588.123630 kJ/mol
# Density = 2.507381 g / cm^3
# Si number density = 25.131013 Si / 1000 Ang^3
#
#
#
# Elastic Constant Matrix: (Units=GPa)
#
#
# Indices 1 2 3 4 5 6 
#
# 1 133.4689 0.2862 6.1138 -0.0027 10.0875 -0.0022
# 2 0.2862 83.1301 -2.5090 -0.0058 -3.0582 0.0013
# 3 6.1138 -2.5090 77.6174 -0.0019 8.2586 -0.0013
# 4 -0.0027 -0.0058 -0.0019 8.6262 -0.0019 -1.7492
# 5 10.0875 -3.0582 8.2586 -0.0019 38.0471 -0.0013
# 6 -0.0022 0.0013 -0.0013 -1.7492 -0.0013 12.0429
#
#
#
# Elastic Compliance Matrix: (Units=1/GPa)
#
#
# Indices 1 2 3 4 5 6 
#
# 1 0.007658 -0.000110 -0.000399 0.000002 -0.001953 0.000001
# 2 -0.000110 0.012073 0.000300 0.000008 0.000935 0.000000
# 3 -0.000399 0.000300 0.013216 0.000003 -0.002739 0.000001
# 4 0.000002 0.000008 0.000003 0.119444 0.000006 0.017349
# 5 -0.001953 0.000935 -0.002739 0.000006 0.027471 0.000003
# 6 0.000001 0.000000 0.000001 0.017349 0.000003 0.085557
#
#
# Mechanical properties :
#
#
# Convention : Reuss Voigt Hill
#
# Bulk Modulus (GPa) = 30.74244 33.55537 32.14890
# Shear Modulus (GPa) = 18.07130 31.09825 24.58478
#
# Velocity S-wave (km/s) = 2.68448 3.52155 3.13112
# Velocity P-wave (km/s) = 4.67633 5.46957 5.08843
#
# Compressibility (1/GPa) = 0.03252833
#
# Stress axis : x y z
#
# Youngs Moduli (GPa) = 130.57410 82.82851 75.66443
#
# Poissons Ratio (x) = 0.00913 0.03019
# Poissons Ratio (y) = 0.01440 -0.02266
# Poissons Ratio (z) = 0.05210 -0.02481
#
# Static dielectric constant tensor:
#      x y z
#    x 2.092920 0.000000 -0.076040 
#    y 0.000000 2.026570 0.000000 
#    z -0.076040 0.000000 1.955010 
# 
# From -- ./inp_files/382425.got.cif
#   From: 2010.05.17/outbox.cif.g08.bks.cpg/sg12_192_cif.got.tgz:382425.got - 2010.06.03 13:09:07.
