data_PCOD9182885
_publ_section_title
;
Structure prediction by ZEFSAII (Michael W. Deem and Ramdas Pophale) SiO2 
 PCOD9182885
Probable space group: C 2/M
;
_chemical_formula_sum "Si O2"
_cell_formula_units_Z 56
_cell_length_a 32.540313
_cell_length_b 7.674417
_cell_length_c 24.259939
_cell_angle_alpha 90.000000
_cell_angle_beta 24.838264
_cell_angle_gamma 90.000000
_cell_volume 2544.874234
_symmetry_space_group_name_H-M "C 2/M"
_symmetry_group_IT_number 12
_symmetry_cell_setting 'monoclinic'
loop_
_space_group_symop_operation_xyz
x,y,z
-x,y,-z
-x,-y,-z
x,-y,z
1/2+x,1/2+y,z
1/2-x,1/2+y,-z
1/2-x,1/2-y,-z
1/2+x,1/2-y,z
loop_
_atom_site_type_symbol
_atom_site_label
_atom_site_fract_x
_atom_site_fract_y
_atom_site_fract_z
Si Si1 0.728381 0.298629 0.150745
Si Si2 0.071680 0.287335 0.141584
Si Si3 0.683049 0.299502 0.841166
Si Si4 0.513988 0.205063 0.870423
Si Si5 0.511796 0.199602 0.425381
Si Si6 0.217911 0.210445 0.675386
Si Si7 0.066390 0.286259 0.593275
O O1 0.710100 0.500000 0.159085
O O2 0.768244 0.289388 0.165091
O O3 0.626211 0.201377 0.271419
O O4 0.817068 0.229762 0.004961
O O5 0.074484 0.500000 0.139188
O O6 0.009591 0.236057 0.163052
O O7 0.016473 0.227615 0.263322
O O8 0.716092 0.500000 0.803002
O O9 0.708099 0.227460 0.750644
O O10 0.566203 0.292327 0.992466
O O11 0.624326 0.233351 0.754658
O O12 0.492345 0.000000 0.899229
O O13 0.500000 0.282798 0.500000
O O14 0.454943 0.276145 0.442691
O O15 0.476016 0.000000 0.474183
O O16 0.323749 0.263631 0.523822
O O17 0.215588 0.000000 0.680032
O O18 0.062508 0.500000 0.597259
#
# Coordination Sequence:
#
# PCOD9182885 Si02
#       7
#     8   8   8   8   8   8   8
#     4  10  20  34  54  79 107 137 168 209 261 311
#     4   8  17  34  52  73 102 136 173 210 253 305
#     4  10  19  33  53  78 106 135 174 217 253 302
#     4  10  20  33  51  76 106 138 171 211 260 311
#     4  10  20  35  56  81 105 133 173 214 254 305
#     4  10  20  33  52  77 102 134 176 217 257 302
#     4   9  18  34  54  73 100 138 175 214 256 300
#
# _framework density 22.005015
#
# number of rings (size 3 to 8) (size 9 to 14) (size 15 to 20)
#    0.000    2.429    0.000    3.429    0.000    6.571 
#    0.000    0.714    0.000    8.571    0.000    0.000 
#    0.000    0.000    0.000    0.000    0.000    0.000 
#
# Total GULP energy -156393.509595 kJ/mol
# GULP energy per Si atom -5585.482486 kJ/mol
# Density = 2.195493 g / cm^3
# Si number density = 22.005015 Si / 1000 Ang^3
#
#
#
# Elastic Constant Matrix: (Units=GPa)
#
#
# Indices 1 2 3 4 5 6 
#
# 1 43.5531 -4.3396 33.0959 -0.0107 -10.1417 -0.0031
# 2 -4.3396 46.3502 -1.7392 0.0053 3.7783 -0.0099
# 3 33.0959 -1.7392 97.6995 -0.0059 -1.8389 -0.0100
# 4 -0.0107 0.0053 -0.0059 14.2985 -0.0083 -5.0132
# 5 -10.1417 3.7783 -1.8389 -0.0083 39.8526 0.0054
# 6 -0.0031 -0.0099 -0.0100 -5.0132 0.0054 12.4577
#
#
#
# Elastic Compliance Matrix: (Units=1/GPa)
#
#
# Indices 1 2 3 4 5 6 
#
# 1 0.033457 0.002078 -0.011150 0.000027 0.007803 0.000008
# 2 0.002078 0.021884 -0.000344 -0.000001 -0.001562 0.000018
# 3 -0.011150 -0.000344 0.013966 -0.000001 -0.002160 0.000009
# 4 0.000027 -0.000001 -0.000001 0.081426 0.000019 0.032767
# 5 0.007803 -0.001562 -0.002160 0.000019 0.027126 -0.000005
# 6 0.000008 0.000018 0.000009 0.032767 -0.000005 0.093458
#
#
# Mechanical properties :
#
#
# Convention : Reuss Voigt Hill
#
# Bulk Modulus (GPa) = 19.81152 26.84857 23.33005
# Shear Modulus (GPa) = 16.28806 24.02747 20.15777
#
# Velocity S-wave (km/s) = 2.72361 3.30799 3.02992
# Velocity P-wave (km/s) = 4.34896 5.17861 4.78181
#
# Compressibility (1/GPa) = 0.05047567
#
# Stress axis : x y z
#
# Youngs Moduli (GPa) = 29.88896 45.69577 71.60394
#
# Poissons Ratio (x) = -0.09496 0.79837
# Poissons Ratio (y) = -0.06211 0.02462
# Poissons Ratio (z) = 0.33326 0.01571
#
# Static dielectric constant tensor:
#      x y z
#    x 1.782450 0.000000 0.010440 
#    y 0.000000 1.859310 0.000010 
#    z 0.010440 0.000010 1.795000 
# 
# From -- ./inp_files/237321.got.cif
#   From: 2010.05.17/outbox.cif.g08.bks.cpg/sg12_119_cif.got.tgz:237321.got - 2010.06.03 13:09:07.
