data_PCOD9182298
_publ_section_title
;
Structure prediction by ZEFSAII (Michael W. Deem and Ramdas Pophale) SiO2 
 PCOD9182298
Probable space group: C 2/M
;
_chemical_formula_sum "Si O2"
_cell_formula_units_Z 56
_cell_length_a 9.515740
_cell_length_b 23.879309
_cell_length_c 15.225109
_cell_angle_alpha 90.000000
_cell_angle_beta 73.871541
_cell_angle_gamma 90.000000
_cell_volume 3323.425775
_symmetry_space_group_name_H-M "C 2/M"
_symmetry_group_IT_number 12
_symmetry_cell_setting 'monoclinic'
loop_
_space_group_symop_operation_xyz
x,y,z
-x,y,-z
-x,-y,-z
x,-y,z
1/2+x,1/2+y,z
1/2-x,1/2+y,-z
1/2-x,1/2-y,-z
1/2+x,1/2-y,z
loop_
_atom_site_type_symbol
_atom_site_label
_atom_site_fract_x
_atom_site_fract_y
_atom_site_fract_z
Si Si1 0.575332 0.433094 0.893499
Si Si2 0.677723 0.714247 0.694416
Si Si3 0.163142 0.327239 0.498106
Si Si4 0.151711 0.617728 0.235932
Si Si5 0.040691 0.882272 0.262610
Si Si6 0.167869 0.658743 0.706323
Si Si7 0.743362 0.436921 0.612298
O O1 0.593767 0.500000 0.877979
O O2 0.732105 0.401967 0.857075
O O3 0.476387 0.408711 0.831143
O O4 0.500000 0.423442 0.000000
O O5 0.728356 0.708949 0.583109
O O6 0.790297 0.675215 0.728924
O O7 0.526455 0.680478 0.727495
O O8 0.670360 0.776063 0.734058
O O9 0.181513 0.332519 0.598743
O O10 0.186391 0.390907 0.461918
O O11 0.000000 0.308607 0.500000
O O12 0.174613 0.571882 0.308909
O O13 0.984321 0.628773 0.243667
O O14 0.924380 0.918042 0.340407
O O15 0.198918 0.876355 0.276851
O O16 0.752716 0.500000 0.579880
#
# Coordination Sequence:
#
# PCOD9182298 Si02
#       7
#     8   8   8   8   8   8   8
#     4   9  18  39  65  79  97 132 166 203 260 329
#     4   9  19  33  51  70 107 150 179 205 249 307
#     4  10  19  33  47  76  99 138 195 220 240 298
#     4   9  18  33  53  79 101 132 175 205 251 320
#     4   9  20  32  52  80 101 130 171 215 258 309
#     4  12  19  32  50  76 110 137 171 224 263 276
#     4   9  18  36  49  61  99 142 178 210 254 313
#
# _framework density 16.850083999999999
#
# number of rings (size 3 to 8) (size 9 to 14) (size 15 to 20)
#    0.000    3.000    2.857    3.000    0.000    2.571 
#    0.000    5.714    0.000   15.429    0.000    0.000 
#    0.000    0.000    0.000    0.000    0.000    0.000 
#
# Total GULP energy -155900.456962 kJ/mol
# GULP energy per Si atom -5567.873463 kJ/mol
# Density = 1.681173 g / cm^3
# Si number density = 16.850084 Si / 1000 Ang^3
#
#
#
# Elastic Constant Matrix: (Units=GPa)
#
#
# Indices 1 2 3 4 5 6 
#
# 1 129.1608 16.4475 29.0238 0.0000 -5.0627 0.0000
# 2 16.4475 64.8063 20.3849 0.0000 -9.9357 0.0000
# 3 29.0238 20.3849 79.4186 0.0000 -6.9661 0.0000
# 4 0.0000 0.0000 0.0000 18.1889 0.0000 -2.0755
# 5 -5.0627 -9.9357 -6.9661 0.0000 10.0663 0.0000
# 6 0.0000 0.0000 0.0000 -2.0755 0.0000 3.3511
#
#
#
# Elastic Compliance Matrix: (Units=1/GPa)
#
#
# Indices 1 2 3 4 5 6 
#
# 1 0.008547 -0.001111 -0.002723 0.000000 0.001318 0.000000
# 2 -0.001111 0.019173 -0.003092 0.000000 0.016226 0.000000
# 3 -0.002723 -0.003092 0.014897 0.000000 0.005887 0.000000
# 4 0.000000 0.000000 0.000000 0.059160 0.000000 0.036641
# 5 0.001318 0.016226 0.005887 0.000000 0.120094 0.000000
# 6 0.000000 0.000000 0.000000 0.036641 0.000000 0.321102
#
#
# Mechanical properties :
#
#
# Convention : Reuss Voigt Hill
#
# Bulk Modulus (GPa) = 34.76409 45.01091 39.88750
# Shear Modulus (GPa) = 8.82749 20.15654 14.49202
#
# Velocity S-wave (km/s) = 2.29133 3.46241 2.93585
# Velocity P-wave (km/s) = 5.26084 6.53872 5.93428
#
# Compressibility (1/GPa) = 0.02876532
#
# Stress axis : x y z
#
# Youngs Moduli (GPa) = 116.99653 52.15749 67.12901
#
# Poissons Ratio (x) = 0.05793 0.18279
# Poissons Ratio (y) = 0.12994 0.20757
# Poissons Ratio (z) = 0.31857 0.16127
#
# Static dielectric constant tensor:
#      x y z
#    x 1.610640 0.000000 -0.012350 
#    y 0.000000 1.581750 0.000000 
#    z -0.012350 0.000000 1.576470 
# 
# From -- ./inp_files/199325.got.cif
#   From: 2010.05.17/outbox.cif.g08.bks.cpg/sg12_100_cif.got.tgz:199325.got - 2010.06.03 13:09:07.
