data_PCOD9182542
_publ_section_title
;
Structure prediction by ZEFSAII (Michael W. Deem and Ramdas Pophale) SiO2 
 PCOD9182542
Probable space group: C 2/M
;
_chemical_formula_sum "Si O2"
_cell_formula_units_Z 56
_cell_length_a 15.626596
_cell_length_b 7.596204
_cell_length_c 29.902649
_cell_angle_alpha 90.000000
_cell_angle_beta 46.721547
_cell_angle_gamma 90.000000
_cell_volume 2584.165427
_symmetry_space_group_name_H-M "C 2/M"
_symmetry_group_IT_number 12
_symmetry_cell_setting 'monoclinic'
loop_
_space_group_symop_operation_xyz
x,y,z
-x,y,-z
-x,-y,-z
x,-y,z
1/2+x,1/2+y,z
1/2-x,1/2+y,-z
1/2-x,1/2-y,-z
1/2+x,1/2-y,z
loop_
_atom_site_type_symbol
_atom_site_label
_atom_site_fract_x
_atom_site_fract_y
_atom_site_fract_z
Si Si1 0.883426 0.713371 0.067894
Si Si2 0.505093 0.298368 0.274994
Si Si3 0.312289 0.289448 0.930914
Si Si4 0.449493 0.716970 0.197086
Si Si5 0.398753 0.792417 0.501517
Si Si6 0.236603 0.202821 0.801172
Si Si7 0.871843 0.214020 0.409603
O O1 0.885369 0.500000 0.069938
O O2 0.773507 0.771863 0.077564
O O3 0.861152 0.784966 0.124987
O O4 0.000000 0.769044 0.000000
O O5 0.462808 0.500000 0.288761
O O6 0.468702 0.219857 0.240527
O O7 0.645762 0.298691 0.226747
O O8 0.451280 0.223976 0.339748
O O9 0.317389 0.500000 0.926226
O O10 0.442371 0.223550 0.873141
O O11 0.250000 0.250000 0.000000
O O12 0.450791 0.500000 0.196156
O O13 0.326338 0.772485 0.220383
O O14 0.500000 0.723593 0.500000
O O15 0.262890 0.724480 0.551820
O O16 0.422556 0.771460 0.439732
O O17 0.390611 0.000000 0.514466
O O18 0.269515 0.000000 0.783149
O O19 0.870113 0.000000 0.412149
#
# Coordination Sequence:
#
# PCOD9182542 Si02
#       7
#     8   8   8   8   8   8   8
#     4  10  20  35  55  77 104 140 178 219 277 343
#     4  10  20  39  59  75 109 153 188 220 270 339
#     4  10  19  33  52  74 101 135 172 215 272 329
#     4   9  19  36  55  74 103 142 177 219 276 333
#     4   9  18  34  57  86 118 149 183 224 269 319
#     4  11  22  35  55  82 107 136 182 235 279 319
#     4   9  19  34  56  84 111 149 189 224 269 319
#
# _framework density 21.670438000000001
#
# number of rings (size 3 to 8) (size 9 to 14) (size 15 to 20)
#    0.000    2.286    1.429    1.286    0.000    2.857 
#    0.000    5.000    0.000    0.000    0.000    0.000 
#    0.000    0.000    0.000    0.000    0.000    0.000 
#
# Total GULP energy -156206.594192 kJ/mol
# GULP energy per Si atom -5578.806935 kJ/mol
# Density = 2.162112 g / cm^3
# Si number density = 21.670438 Si / 1000 Ang^3
#
#
#
# Elastic Constant Matrix: (Units=GPa)
#
#
# Indices 1 2 3 4 5 6 
#
# 1 164.8711 -0.2593 39.0328 -0.0008 25.4376 0.0033
# 2 -0.2593 43.3171 -10.7867 0.0004 -2.1055 0.0058
# 3 39.0328 -10.7867 106.9959 0.0002 24.3283 0.0035
# 4 -0.0008 0.0004 0.0002 17.8459 0.0007 2.5398
# 5 25.4376 -2.1055 24.3283 0.0007 22.9052 0.0005
# 6 0.0033 0.0058 0.0035 2.5398 0.0005 -2.8913
#
#
#
# Elastic Compliance Matrix: (Units=1/GPa)
#
#
# Indices 1 2 3 4 5 6 
#
# 1 0.007431 -0.000589 -0.001162 0.000000 -0.007072 0.000005
# 2 -0.000589 0.023731 0.002587 -0.000007 0.000087 0.000044
# 3 -0.001162 0.002587 0.012767 -0.000002 -0.012031 0.000016
# 4 0.000000 -0.000007 -0.000002 0.049809 -0.000001 0.043752
# 5 -0.007072 0.000087 -0.012031 -0.000001 0.064299 -0.000013
# 6 0.000005 0.000044 0.000016 0.043752 -0.000013 -0.307427
#
#
# Mechanical properties :
#
#
# Convention : Reuss Voigt Hill
#
# Bulk Modulus (GPa) = 21.92935 41.23973 31.58454
# Shear Modulus (GPa) = -36.80137 26.71844 -5.04147
#
# Velocity S-wave (km/s) = -4.12543 3.51514 -1.52692
# Velocity P-wave (km/s) = 3.54271 5.96210 3.39086
#
# Compressibility (1/GPa) = 0.04560098
#
# Stress axis : x y z
#
# Youngs Moduli (GPa) = 134.57751 42.13970 78.32961
#
# Poissons Ratio (x) = 0.02481 0.09103
# Poissons Ratio (y) = 0.07922 -0.20266
# Poissons Ratio (z) = 0.15639 -0.10903
#
# Static dielectric constant tensor:
#      x y z
#    x 1.791450 0.000000 0.008470 
#    y 0.000000 1.882390 0.000000 
#    z 0.008470 0.000000 1.795470 
# 
# From -- ./inp_files/308894.got.cif
#   From: 2010.05.17/outbox.cif.g08.bks.cpg/sg12_155_cif.got.tgz:308894.got - 2010.06.03 13:09:07.
