data_PCOD9182023
_publ_section_title
;
Structure prediction by ZEFSAII (Michael W. Deem and Ramdas Pophale) SiO2 
 PCOD9182023
Probable space group: C 2/M
;
_chemical_formula_sum "Si O2"
_cell_formula_units_Z 56
_cell_length_a 29.302207
_cell_length_b 10.088510
_cell_length_c 18.831642
_cell_angle_alpha 90.000000
_cell_angle_beta 30.695269
_cell_angle_gamma 90.000000
_cell_volume 2841.760053
_symmetry_space_group_name_H-M "C 2/M"
_symmetry_group_IT_number 12
_symmetry_cell_setting 'monoclinic'
loop_
_space_group_symop_operation_xyz
x,y,z
-x,y,-z
-x,-y,-z
x,-y,z
1/2+x,1/2+y,z
1/2-x,1/2+y,-z
1/2-x,1/2-y,-z
1/2+x,1/2-y,z
loop_
_atom_site_type_symbol
_atom_site_label
_atom_site_fract_x
_atom_site_fract_y
_atom_site_fract_z
Si Si1 0.319205 0.841936 0.864366
Si Si2 0.154806 0.354259 0.551791
Si Si3 0.500942 0.640036 0.084169
Si Si4 0.144312 0.348001 0.882023
Si Si5 0.022720 0.658583 0.609529
Si Si6 0.305186 0.843263 0.713363
Si Si7 0.836595 0.712317 0.303714
O O1 0.421464 0.792901 0.739594
O O2 0.304713 0.832802 0.799014
O O3 0.311324 0.000000 0.894222
O O4 0.250000 0.750000 0.000000
O O5 0.179669 0.500000 0.489816
O O6 0.067012 0.312388 0.626632
O O7 0.147162 0.365688 0.646168
O O8 0.234144 0.251958 0.432706
O O9 0.536809 0.500000 0.063733
O O10 0.397205 0.659323 0.239169
O O11 0.500000 0.634832 0.000000
O O12 0.559969 0.766513 0.025760
O O13 0.151440 0.500000 0.897200
O O14 0.229736 0.255458 0.784319
O O15 0.133283 0.349022 0.810953
O O16 0.013990 0.500000 0.613550
O O17 0.098318 0.695045 0.449941
O O18 0.288671 0.000000 0.718124
#
# Coordination Sequence:
#
# PCOD9182023 Si02
#       7
#     8   8   8   8   8   8   8
#     4  10  22  40  64  93 122 150 186 239 303 363
#     4  10  19  32  55  83 111 149 194 239 286 341
#     4   9  19  34  53  75 106 152 200 240 283 343
#     4  11  22  35  54  83 119 155 194 243 295 343
#     4   9  18  36  63  88 112 148 198 246 287 344
#     4  10  20  38  64  89 115 152 201 246 289 353
#     4  10  20  33  51  79 117 156 194 238 290 340
#
# _framework density 19.706098000000001
#
# number of rings (size 3 to 8) (size 9 to 14) (size 15 to 20)
#    0.000    2.143    1.429    1.714    0.000    7.714 
#    0.000    2.143    0.000    1.714    0.000    0.000 
#    0.000    0.000    0.000    0.000    0.000    0.000 
#
# Total GULP energy -155947.662410 kJ/mol
# GULP energy per Si atom -5569.559372 kJ/mol
# Density = 1.966125 g / cm^3
# Si number density = 19.706098 Si / 1000 Ang^3
#
#
#
# Elastic Constant Matrix: (Units=GPa)
#
#
# Indices 1 2 3 4 5 6 
#
# 1 93.3840 37.6992 42.3876 0.0001 -4.3108 0.0000
# 2 37.6992 111.2762 43.6442 0.0013 -13.0743 -0.0004
# 3 42.3876 43.6442 88.2493 0.0007 -26.1219 -0.0002
# 4 0.0001 0.0013 0.0007 9.8555 -0.0004 -8.4951
# 5 -4.3108 -13.0743 -26.1219 -0.0004 20.2751 0.0001
# 6 0.0000 -0.0004 -0.0002 -8.4951 0.0001 20.7701
#
#
#
# Elastic Compliance Matrix: (Units=1/GPa)
#
#
# Indices 1 2 3 4 5 6 
#
# 1 0.015515 -0.002913 -0.009038 0.000001 -0.010223 0.000000
# 2 -0.002913 0.011696 -0.003776 -0.000002 0.002058 0.000000
# 3 -0.009038 -0.003776 0.026268 0.000000 0.029486 0.000000
# 4 0.000001 -0.000002 0.000000 0.156716 0.000001 0.064098
# 5 -0.010223 0.002058 0.029486 0.000001 0.086464 0.000000
# 6 0.000000 0.000000 0.000000 0.064098 0.000000 0.074363
#
#
# Mechanical properties :
#
#
# Convention : Reuss Voigt Hill
#
# Bulk Modulus (GPa) = 45.40157 60.04130 52.72143
# Shear Modulus (GPa) = 12.20057 21.45871 16.82964
#
# Velocity S-wave (km/s) = 2.49092 3.30349 2.92555
# Velocity P-wave (km/s) = 5.60021 6.71455 6.18254
#
# Compressibility (1/GPa) = 0.02202567
#
# Stress axis : x y z
#
# Youngs Moduli (GPa) = 64.45536 85.49661 38.06900
#
# Poissons Ratio (x) = 0.24903 0.34405
# Poissons Ratio (y) = 0.18774 0.14376
# Poissons Ratio (z) = 0.58252 0.32287
#
# Static dielectric constant tensor:
#      x y z
#    x 1.700500 0.000000 0.011630 
#    y 0.000000 1.742110 0.000000 
#    z 0.011630 0.000000 1.726420 
# 
# From -- ./inp_files/329527.got.cif
#   From: 2010.05.17/outbox.cif.g08.bks.cpg/sg12_165_cif.got.tgz:329527.got - 2010.06.03 13:09:07.
