data_PCOD9182962
_publ_section_title
;
Structure prediction by ZEFSAII (Michael W. Deem and Ramdas Pophale) SiO2 
 PCOD9182962
Probable space group: C 2/M
;
_chemical_formula_sum "Si O2"
_cell_formula_units_Z 40
_cell_length_a 16.306706
_cell_length_b 7.634040
_cell_length_c 32.225316
_cell_angle_alpha 90.000000
_cell_angle_beta 152.607025
_cell_angle_gamma 90.000000
_cell_volume 1845.701759
_symmetry_space_group_name_H-M "C 2/M"
_symmetry_group_IT_number 12
_symmetry_cell_setting 'monoclinic'
loop_
_space_group_symop_operation_xyz
x,y,z
-x,y,-z
-x,-y,-z
x,-y,z
1/2+x,1/2+y,z
1/2-x,1/2+y,-z
1/2-x,1/2-y,-z
1/2+x,1/2-y,z
loop_
_atom_site_type_symbol
_atom_site_label
_atom_site_fract_x
_atom_site_fract_y
_atom_site_fract_z
Si Si1 0.565377 0.289424 0.394591
Si Si2 0.716004 0.210534 0.286212
Si Si3 0.139310 0.714270 0.097311
Si Si4 0.465374 0.290390 0.713447
Si Si5 0.043884 0.709779 0.900240
O O1 0.547189 0.500000 0.384253
O O2 0.750000 0.250000 0.500000
O O3 0.396913 0.224469 0.345778
O O4 0.563853 0.223387 0.346406
O O5 0.684838 0.253096 0.320141
O O6 0.548528 0.275993 0.183309
O O7 0.718782 0.000000 0.284893
O O8 0.138342 0.500000 0.095828
O O9 0.342588 0.773534 0.183477
O O10 0.069234 0.769955 0.110891
O O11 0.000000 0.773920 0.000000
O O12 0.478668 0.500000 0.716353
O O13 0.029630 0.500000 0.893089
O O14 0.250000 0.750000 0.000000
#
# Coordination Sequence:
#
# PCOD9182962 Si02
#       5
#     8   8   8   8   8
#     4  10  22  41  62  84 114 151 192 238 289 341
#     4  10  21  38  58  83 118 152 184 235 295 340
#     4   9  16  29  52  79 108 145 187 226 269 327
#     4  10  20  37  60  85 112 148 195 237 276 339
#     4  10  19  33  53  80 114 151 189 231 279 335
#
# _framework density 21.671973000000001
#
# number of rings (size 3 to 8) (size 9 to 14) (size 15 to 20)
#    0.000    2.200    2.000    1.200    0.000    4.800 
#    0.000    5.000    0.000    3.600    0.000    0.000 
#    0.000    0.000    0.000    0.000    0.000    0.000 
#
# Total GULP energy -111707.165527 kJ/mol
# GULP energy per Si atom -5585.358276 kJ/mol
# Density = 2.162265 g / cm^3
# Si number density = 21.671973 Si / 1000 Ang^3
#
#
#
# Elastic Constant Matrix: (Units=GPa)
#
#
# Indices 1 2 3 4 5 6 
#
# 1 198.5268 4.9719 89.3559 0.0000 -2.3982 0.0001
# 2 4.9719 40.6605 3.8854 0.0000 -1.8872 0.0003
# 3 89.3559 3.8854 152.0321 0.0003 -2.2947 0.0001
# 4 0.0000 0.0000 0.0003 21.8803 0.0000 1.7069
# 5 -2.3982 -1.8872 -2.2947 0.0000 30.1869 0.0000
# 6 0.0001 0.0003 0.0001 1.7069 0.0000 16.4917
#
#
#
# Elastic Compliance Matrix: (Units=1/GPa)
#
#
# Indices 1 2 3 4 5 6 
#
# 1 0.006859 -0.000445 -0.004017 0.000000 0.000212 0.000000
# 2 -0.000445 0.024751 -0.000349 0.000000 0.001486 0.000000
# 3 -0.004017 -0.000349 0.008952 0.000000 0.000340 0.000000
# 4 0.000000 0.000000 0.000000 0.046075 0.000000 -0.004769
# 5 0.000212 0.001486 0.000340 0.000000 0.033262 0.000000
# 6 0.000000 0.000000 0.000000 -0.004769 0.000000 0.061130
#
#
# Mechanical properties :
#
#
# Convention : Reuss Voigt Hill
#
# Bulk Modulus (GPa) = 32.31933 65.29397 48.80665
# Shear Modulus (GPa) = 24.88016 33.24552 29.06284
#
# Velocity S-wave (km/s) = 3.39194 3.92092 3.66598
# Velocity P-wave (km/s) = 5.50324 7.11982 6.36308
#
# Compressibility (1/GPa) = 0.03094123
#
# Stress axis : x y z
#
# Youngs Moduli (GPa) = 145.80158 40.40312 111.70317
#
# Poissons Ratio (x) = 0.01798 0.44866
# Poissons Ratio (y) = 0.06488 0.03894
# Poissons Ratio (z) = 0.58562 0.01408
#
# Static dielectric constant tensor:
#      x y z
#    x 1.783220 0.000000 -0.005450 
#    y 0.000000 1.826750 0.000000 
#    z -0.005450 0.000000 1.772830 
# 
# From -- ./inp_files/202875.got.cif
#   From: 2010.05.17/outbox.cif.g08.bks.cpg/sg12_102_cif.got.tgz:202875.got - 2010.06.03 13:09:07.
