data_PCOD9182018
_publ_section_title
;
Structure prediction by ZEFSAII (Michael W. Deem and Ramdas Pophale) SiO2 
 PCOD9182018
Probable space group: C 2/M
;
_chemical_formula_sum "Si O2"
_cell_formula_units_Z 56
_cell_length_a 21.113062
_cell_length_b 8.497741
_cell_length_c 17.859127
_cell_angle_alpha 90.000000
_cell_angle_beta 74.337334
_cell_angle_gamma 90.000000
_cell_volume 3085.187989
_symmetry_space_group_name_H-M "C 2/M"
_symmetry_group_IT_number 12
_symmetry_cell_setting 'monoclinic'
loop_
_space_group_symop_operation_xyz
x,y,z
-x,y,-z
-x,-y,-z
x,-y,z
1/2+x,1/2+y,z
1/2-x,1/2+y,-z
1/2-x,1/2-y,-z
1/2+x,1/2-y,z
loop_
_atom_site_type_symbol
_atom_site_label
_atom_site_fract_x
_atom_site_fract_y
_atom_site_fract_z
Si Si1 0.923261 0.309369 0.827193
Si Si2 0.792791 0.690270 0.591873
Si Si3 0.838389 0.311217 0.163054
Si Si4 0.652141 0.812340 0.582259
Si Si5 0.806472 0.310049 0.756345
Si Si6 0.434001 0.686370 0.262759
Si Si7 0.572793 0.191768 0.003032
O O1 0.923605 0.500000 0.826967
O O2 0.864233 0.254611 0.792660
O O3 0.993754 0.253092 0.775530
O O4 0.914385 0.257125 0.916145
O O5 0.785394 0.500000 0.592781
O O6 0.721393 0.763470 0.598102
O O7 0.839778 0.733513 0.507469
O O8 0.816463 0.737842 0.666543
O O9 0.836451 0.500000 0.164114
O O10 0.765122 0.247028 0.195479
O O11 0.883889 0.256691 0.217330
O O12 0.873632 0.257616 0.075052
O O13 0.594226 0.732919 0.647187
O O14 0.644765 0.000000 0.589310
O O15 0.806404 0.500000 0.757992
O O16 0.434380 0.500000 0.254546
O O17 0.572617 0.000000 0.002816
O O18 0.500000 0.241889 0.000000
#
# Coordination Sequence:
#
# PCOD9182018 Si02
#       7
#     8   8   8   8   8   8   8
#     4  10  21  39  60  80 110 153 188 221 278 339
#     4   9  18  33  53  82 116 144 179 229 275 322
#     4  11  21  35  59  84 110 148 189 227 275 334
#     4  10  19  32  55  83 109 145 187 226 275 331
#     4  10  21  37  57  84 117 148 180 226 279 330
#     4  12  23  36  55  83 114 143 186 240 282 323
#     4   9  17  33  57  83 110 141 187 233 269 323
#
# _framework density 18.151244999999999
#
# number of rings (size 3 to 8) (size 9 to 14) (size 15 to 20)
#    0.000    1.857    2.857    2.143    0.000    1.714 
#    0.000    2.857    0.000    4.286    0.000    0.000 
#    0.000    0.000    0.000    0.000    0.000    0.000 
#
# Total GULP energy -156325.836257 kJ/mol
# GULP energy per Si atom -5583.065581 kJ/mol
# Density = 1.810993 g / cm^3
# Si number density = 18.151245 Si / 1000 Ang^3
#
#
#
# Elastic Constant Matrix: (Units=GPa)
#
#
# Indices 1 2 3 4 5 6 
#
# 1 141.6839 16.1529 92.0071 0.0000 7.0729 0.0000
# 2 16.1529 10.9553 21.5605 0.0000 4.6484 0.0000
# 3 92.0071 21.5605 181.0563 0.0000 3.3139 0.0000
# 4 0.0000 0.0000 0.0000 17.9425 0.0000 -7.9226
# 5 7.0729 4.6484 3.3139 0.0000 29.2401 0.0000
# 6 0.0000 0.0000 0.0000 -7.9226 0.0000 23.9543
#
#
#
# Elastic Compliance Matrix: (Units=1/GPa)
#
#
# Indices 1 2 3 4 5 6 
#
# 1 0.010937 -0.006211 -0.004798 0.000000 -0.001114 0.000000
# 2 -0.006211 0.132265 -0.012262 0.000000 -0.018135 0.000000
# 3 -0.004798 -0.012262 0.009384 0.000000 0.002046 0.000000
# 4 0.000000 0.000000 0.000000 0.065265 0.000000 0.021585
# 5 -0.001114 -0.018135 0.002046 0.000000 0.037120 0.000000
# 6 0.000000 0.000000 0.000000 0.021585 0.000000 0.048885
#
#
# Mechanical properties :
#
#
# Convention : Reuss Voigt Hill
#
# Bulk Modulus (GPa) = 9.43003 65.90406 37.66704
# Shear Modulus (GPa) = 12.96186 27.82573 20.39379
#
# Velocity S-wave (km/s) = 2.67517 3.91959 3.35557
# Velocity P-wave (km/s) = 3.84039 7.54131 5.98414
#
# Compressibility (1/GPa) = 0.10604419
#
# Stress axis : x y z
#
# Youngs Moduli (GPa) = 91.42880 7.56058 106.56278
#
# Poissons Ratio (x) = 0.04696 0.51130
# Poissons Ratio (y) = 0.56785 1.30670
# Poissons Ratio (z) = 0.43868 0.09271
#
# Static dielectric constant tensor:
#      x y z
#    x 1.583110 0.000000 0.011860 
#    y 0.000000 1.618540 0.000000 
#    z 0.011860 0.000000 1.640440 
# 
# From -- ./inp_files/275237.got.cif
#   From: 2010.05.17/outbox.cif.g08.bks.cpg/sg12_138_cif.got.tgz:275237.got - 2010.06.03 13:09:07.
