data_PCOD9182597
_publ_section_title
;
Structure prediction by ZEFSAII (Michael W. Deem and Ramdas Pophale) SiO2 
 PCOD9182597
Probable space group: C 2/M
;
_chemical_formula_sum "Si O2"
_cell_formula_units_Z 56
_cell_length_a 9.632350
_cell_length_b 18.912381
_cell_length_c 28.795838
_cell_angle_alpha 90.000000
_cell_angle_beta 142.872000
_cell_angle_gamma 90.000000
_cell_volume 3166.326917
_symmetry_space_group_name_H-M "C 2/M"
_symmetry_group_IT_number 12
_symmetry_cell_setting 'monoclinic'
loop_
_space_group_symop_operation_xyz
x,y,z
-x,y,-z
-x,-y,-z
x,-y,z
1/2+x,1/2+y,z
1/2-x,1/2+y,-z
1/2-x,1/2-y,-z
1/2+x,1/2-y,z
loop_
_atom_site_type_symbol
_atom_site_label
_atom_site_fract_x
_atom_site_fract_y
_atom_site_fract_z
Si Si1 0.767393 0.819668 0.911065
Si Si2 0.770344 0.081113 0.582053
Si Si3 0.563766 0.731528 0.411518
Si Si4 0.565546 0.797884 0.314189
Si Si5 0.518435 0.917742 0.229448
Si Si6 0.300423 0.209347 0.839751
Si Si7 0.911426 0.079588 0.254884
O O1 0.685991 0.881134 0.854190
O O2 0.555853 0.805259 0.889424
O O3 0.800633 0.750692 0.887865
O O4 0.000000 0.836521 0.000000
O O5 0.500000 0.084604 0.500000
O O6 0.882984 0.149999 0.588663
O O7 0.840606 0.088004 0.655016
O O8 0.847009 0.000000 0.589165
O O9 0.750000 0.750000 0.500000
O O10 0.581134 0.785286 0.373013
O O11 0.302255 0.735245 0.358572
O O12 0.553113 0.874238 0.286169
O O13 0.343406 0.755796 0.235903
O O14 0.736479 0.910564 0.252300
O O15 0.481229 0.000000 0.227930
O O16 0.160003 0.136203 0.802082
O O17 0.884245 0.000000 0.230649
#
# Coordination Sequence:
#
# PCOD9182597 Si02
#       7
#     8   8   8   8   8   8   8
#     4  10  20  34  56  83 111 140 171 217 271 324
#     4  10  19  33  52  76 105 140 183 226 266 305
#     4  12  23  35  53  81 111 144 182 230 273 316
#     4  11  20  36  55  77 107 144 183 223 270 316
#     4   9  18  33  55  79 105 138 177 220 267 322
#     4  10  19  34  54  81 107 139 179 219 265 320
#     4   9  16  31  54  76 101 138 185 224 255 308
#
# _framework density 17.686108000000001
#
# number of rings (size 3 to 8) (size 9 to 14) (size 15 to 20)
#    0.000    1.857    2.857    3.429    0.000    0.286 
#    0.000    0.714    0.000   10.714    0.000    0.000 
#    0.000    0.000    0.000    0.000    0.000    0.000 
#
# Total GULP energy -156077.368002 kJ/mol
# GULP energy per Si atom -5574.191714 kJ/mol
# Density = 1.764585 g / cm^3
# Si number density = 17.686108 Si / 1000 Ang^3
#
#
#
# Elastic Constant Matrix: (Units=GPa)
#
#
# Indices 1 2 3 4 5 6 
#
# 1 32.7487 9.0189 31.4989 0.0000 2.7644 0.0001
# 2 9.0189 99.8187 44.7413 0.0001 -5.5128 0.0000
# 3 31.4989 44.7413 116.5084 0.0000 1.3947 0.0000
# 4 0.0000 0.0001 0.0000 18.4755 0.0000 -4.9078
# 5 2.7644 -5.5128 1.3947 0.0000 27.2233 0.0000
# 6 0.0001 0.0000 0.0000 -4.9078 0.0000 18.4474
#
#
#
# Elastic Compliance Matrix: (Units=1/GPa)
#
#
# Indices 1 2 3 4 5 6 
#
# 1 0.041765 0.001308 -0.011754 0.000000 -0.003374 0.000000
# 2 0.001308 0.012342 -0.005125 0.000000 0.002629 0.000000
# 3 -0.011754 -0.005125 0.013735 0.000000 -0.000548 0.000000
# 4 0.000000 0.000000 0.000000 0.058242 0.000000 0.015495
# 5 -0.003374 0.002629 -0.000548 0.000000 0.037636 0.000000
# 6 0.000000 0.000000 0.000000 0.015495 0.000000 0.058330
#
#
# Mechanical properties :
#
#
# Convention : Reuss Voigt Hill
#
# Bulk Modulus (GPa) = 27.24611 46.62156 36.93384
# Shear Modulus (GPa) = 18.83768 23.75036 21.29402
#
# Velocity S-wave (km/s) = 3.26715 3.66851 3.47363
# Velocity P-wave (km/s) = 5.44712 6.66046 6.08411
#
# Compressibility (1/GPa) = 0.03670248
#
# Stress axis : x y z
#
# Youngs Moduli (GPa) = 23.94351 81.02264 72.80503
#
# Poissons Ratio (x) = -0.10600 0.85571
# Poissons Ratio (y) = -0.03133 0.37311
# Poissons Ratio (z) = 0.28142 0.41523
#
# Static dielectric constant tensor:
#      x y z
#    x 1.610160 0.000000 0.010080 
#    y 0.000000 1.630020 0.000000 
#    z 0.010080 0.000000 1.604250 
# 
# From -- ./inp_files/356737.got.cif
#   From: 2010.05.17/outbox.cif.g08.bks.cpg/sg12_179_cif.got.tgz:356737.got - 2010.06.03 13:09:07.
