data_PCOD9182156
_publ_section_title
;
Structure prediction by ZEFSAII (Michael W. Deem and Ramdas Pophale) SiO2 
 PCOD9182156
Probable space group: C 2/M
;
_chemical_formula_sum "Si O2"
_cell_formula_units_Z 58
_cell_length_a 18.157554
_cell_length_b 7.686107
_cell_length_c 22.211650
_cell_angle_alpha 90.000000
_cell_angle_beta 58.877513
_cell_angle_gamma 90.000000
_cell_volume 2653.694810
_symmetry_space_group_name_H-M "C 2/M"
_symmetry_group_IT_number 12
_symmetry_cell_setting 'monoclinic'
loop_
_space_group_symop_operation_xyz
x,y,z
-x,y,-z
-x,-y,-z
x,-y,z
1/2+x,1/2+y,z
1/2-x,1/2+y,-z
1/2-x,1/2-y,-z
1/2+x,1/2-y,z
loop_
_atom_site_type_symbol
_atom_site_label
_atom_site_fract_x
_atom_site_fract_y
_atom_site_fract_z
Si Si1 0.453159 0.703276 0.287898
Si Si2 0.693494 0.703933 0.887600
Si Si3 0.637853 0.290878 0.249300
Si Si4 0.578684 0.299721 0.827470
Si Si5 0.784945 0.295098 0.419736
Si Si6 0.633739 0.287273 0.389786
Si Si7 0.558986 0.202953 0.031136
Si Si8 0.000000 0.500000 0.500000
O O1 0.470010 0.500000 0.268019
O O2 0.542833 0.776741 0.273392
O O3 0.420239 0.782014 0.238859
O O4 0.377043 0.712466 0.367845
O O5 0.675083 0.500000 0.899145
O O6 0.791660 0.729427 0.828152
O O7 0.638977 0.780343 0.853875
O O8 0.655417 0.776796 0.965930
O O9 0.637859 0.500000 0.246891
O O10 0.657715 0.247344 0.310332
O O11 0.607711 0.500000 0.809997
O O12 0.480940 0.294254 0.893970
O O13 0.798546 0.500000 0.410761
O O14 0.750000 0.250000 0.500000
O O15 0.714261 0.249061 0.399532
O O16 0.614583 0.500000 0.402093
O O17 0.558525 0.156458 0.442259
O O18 0.542040 0.000000 0.047045
O O19 0.500000 0.267248 0.000000
#
# Coordination Sequence:
#
# PCOD9182156 Si02
#       8
#     8   8   8   8   8   8   8   2
#     4  10  22  39  61  85 115 157 197 243 300 361
#     4  10  19  32  56  85 115 149 193 244 290 354
#     4  10  22  40  59  83 121 157 196 248 301 355
#     4   9  18  34  56  84 114 145 190 241 290 348
#     4  11  25  42  64  91 124 157 201 254 303 362
#     4  10  25  44  64  97 127 160 207 255 304 367
#     4   9  17  30  52  82 113 149 189 233 291 349
#     4  12  26  40  76  90 124 168 202 252 314 374
#
# _framework density 21.856318000000002
#
# number of rings (size 3 to 8) (size 9 to 14) (size 15 to 20)
#    0.000    2.069    0.000    2.276    4.828    3.310 
#    0.000    0.690    0.000    0.000    0.000    0.000 
#    0.000    0.000    0.000    0.000    0.000    0.000 
#
# Total GULP energy -161559.494769 kJ/mol
# GULP energy per Si atom -5571.017061 kJ/mol
# Density = 2.180657 g / cm^3
# Si number density = 21.856318 Si / 1000 Ang^3
#
#
#
# Elastic Constant Matrix: (Units=GPa)
#
#
# Indices 1 2 3 4 5 6 
#
# 1 21.5221 -2.0862 24.3976 -0.0001 -7.5981 0.0002
# 2 -2.0862 57.1090 -11.6739 0.0000 -5.0350 0.0007
# 3 24.3976 -11.6739 86.3714 -0.0001 -28.8308 -0.0002
# 4 -0.0001 0.0000 -0.0001 27.6804 -0.0001 -9.7002
# 5 -7.5981 -5.0350 -28.8308 -0.0001 29.1188 -0.0001
# 6 0.0002 0.0007 -0.0002 -9.7002 -0.0001 11.9543
#
#
#
# Elastic Compliance Matrix: (Units=1/GPa)
#
#
# Indices 1 2 3 4 5 6 
#
# 1 0.068617 -0.001950 -0.020585 0.000000 -0.002814 -0.000002
# 2 -0.001950 0.019496 0.006185 0.000000 0.008987 -0.000001
# 3 -0.020585 0.006185 0.025082 0.000000 0.020533 0.000001
# 4 0.000000 0.000000 0.000000 0.050481 0.000000 0.040963
# 5 -0.002814 0.008987 0.020533 0.000000 0.055491 0.000001
# 6 -0.000002 -0.000001 0.000001 0.040963 0.000001 0.116890
#
#
# Mechanical properties :
#
#
# Convention : Reuss Voigt Hill
#
# Bulk Modulus (GPa) = 12.42290 20.69750 16.56020
# Shear Modulus (GPa) = 12.63938 24.04170 18.34054
#
# Velocity S-wave (km/s) = 2.40738 3.32021 2.89994
# Velocity P-wave (km/s) = 3.66382 4.91820 4.33660
#
# Compressibility (1/GPa) = 0.08049652
#
# Stress axis : x y z
#
# Youngs Moduli (GPa) = 14.57367 51.29289 39.86848
#
# Poissons Ratio (x) = 0.10000 0.82071
# Poissons Ratio (y) = 0.02841 -0.24661
# Poissons Ratio (z) = 0.30000 -0.31727
#
# Static dielectric constant tensor:
#      x y z
#    x 1.836450 0.000000 0.001520 
#    y 0.000000 1.829610 0.000000 
#    z 0.001520 0.000000 1.792360 
# 
# From -- ./inp_files/314816.got.cif
#   From: 2010.05.17/outbox.cif.g08.bks.cpg/sg12_158_cif.got.tgz:314816.got - 2010.06.03 13:09:07.
