data_PCOD9182778
_publ_section_title
;
Structure prediction by ZEFSAII (Michael W. Deem and Ramdas Pophale) SiO2 
 PCOD9182778
Probable space group: C 2/M
;
_chemical_formula_sum "Si O2"
_cell_formula_units_Z 56
_cell_length_a 28.864582
_cell_length_b 13.913353
_cell_length_c 23.756272
_cell_angle_alpha 90.000000
_cell_angle_beta 161.770623
_cell_angle_gamma 90.000000
_cell_volume 2984.506903
_symmetry_space_group_name_H-M "C 2/M"
_symmetry_group_IT_number 12
_symmetry_cell_setting 'monoclinic'
loop_
_space_group_symop_operation_xyz
x,y,z
-x,y,-z
-x,-y,-z
x,-y,z
1/2+x,1/2+y,z
1/2-x,1/2+y,-z
1/2-x,1/2-y,-z
1/2+x,1/2-y,z
loop_
_atom_site_type_symbol
_atom_site_label
_atom_site_fract_x
_atom_site_fract_y
_atom_site_fract_z
Si Si1 0.784947 0.613689 0.480774
Si Si2 0.955803 0.385561 0.129511
Si Si3 0.586896 0.737398 0.449245
Si Si4 0.742115 0.769591 0.924573
Si Si5 0.965968 0.610824 0.021049
Si Si6 0.020460 0.886527 0.260606
Si Si7 0.628714 0.389077 0.605792
O O1 0.778709 0.500000 0.460217
O O2 0.806007 0.680354 0.450986
O O3 0.644414 0.638058 0.357308
O O4 0.929158 0.629550 0.687095
O O5 0.926564 0.500000 0.092103
O O6 0.809680 0.324541 0.973021
O O7 0.023046 0.353003 0.146935
O O8 0.429504 0.784017 0.286083
O O9 0.555137 0.667976 0.358992
O O10 0.639762 0.674927 0.562818
O O11 0.750000 0.750000 0.000000
O O12 0.860722 0.853925 0.052746
O O13 0.021323 0.500000 0.081172
O O14 0.788118 0.610973 0.819769
O O15 0.000000 0.657219 0.000000
O O16 0.025305 0.000000 0.276210
O O17 0.500000 0.357322 0.500000
O O18 0.596001 0.500000 0.552011
#
# Coordination Sequence:
#
# PCOD9182778 Si02
#       7
#     8   8   8   8   8   8   8
#     4  10  21  35  54  80 109 143 178 220 276 321
#     4  10  19  33  53  75 111 145 175 219 266 317
#     4  11  21  35  54  80 109 142 183 225 266 325
#     4  10  20  32  47  75 102 139 178 218 259 320
#     4   9  19  32  49  75 104 139 181 215 254 312
#     4  10  21  34  50  77 110 144 176 216 268 327
#     4  10  21  36  53  78 112 149 182 217 262 318
#
# _framework density 18.763567999999999
#
# number of rings (size 3 to 8) (size 9 to 14) (size 15 to 20)
#    0.000    2.000    2.857    1.714    2.000    4.571 
#    0.000    0.000    0.000    0.429    0.000    1.000 
#    0.000   10.286    0.000    0.000    0.000    0.000 
#
# Total GULP energy -156204.832203 kJ/mol
# GULP energy per Si atom -5578.744007 kJ/mol
# Density = 1.872086 g / cm^3
# Si number density = 18.763568 Si / 1000 Ang^3
#
#
#
# Elastic Constant Matrix: (Units=GPa)
#
#
# Indices 1 2 3 4 5 6 
#
# 1 109.6974 47.8534 8.7800 0.0005 7.1391 0.0004
# 2 47.8534 71.2671 13.7617 0.0002 5.9807 0.0003
# 3 8.7800 13.7617 40.5955 0.0003 16.5818 0.0002
# 4 0.0005 0.0002 0.0003 11.9197 0.0001 6.2177
# 5 7.1391 5.9807 16.5818 0.0001 32.0703 0.0003
# 6 0.0004 0.0003 0.0002 6.2177 0.0003 35.6448
#
#
#
# Elastic Compliance Matrix: (Units=1/GPa)
#
#
# Indices 1 2 3 4 5 6 
#
# 1 0.012966 -0.008727 0.000847 0.000000 -0.001697 0.000000
# 2 -0.008727 0.020890 -0.005573 0.000000 0.000929 0.000000
# 3 0.000847 -0.005573 0.032951 -0.000001 -0.016186 0.000000
# 4 0.000000 0.000000 -0.000001 0.092293 0.000000 -0.016099
# 5 -0.001697 0.000929 -0.016186 0.000000 0.039755 0.000000
# 6 0.000000 0.000000 0.000000 -0.016099 0.000000 0.030863
#
#
# Mechanical properties :
#
#
# Convention : Reuss Voigt Hill
#
# Bulk Modulus (GPa) = 25.06264 40.26115 32.66190
# Shear Modulus (GPa) = 18.52372 26.00461 22.26417
#
# Velocity S-wave (km/s) = 3.14541 3.72682 3.44839
# Velocity P-wave (km/s) = 5.15534 6.32634 5.77062
#
# Compressibility (1/GPa) = 0.03990003
#
# Stress axis : x y z
#
# Youngs Moduli (GPa) = 77.12659 47.86960 30.34814
#
# Poissons Ratio (x) = 0.41777 -0.02572
# Poissons Ratio (y) = 0.67310 0.16914
# Poissons Ratio (z) = -0.06536 0.26680
#
# Static dielectric constant tensor:
#      x y z
#    x 1.655970 0.000000 0.014920 
#    y 0.000000 1.651430 0.000000 
#    z 0.014920 0.000000 1.676090 
# 
# From -- ./inp_files/352083.got.cif
#   From: 2010.05.17/outbox.cif.g08.bks.cpg/sg12_177_cif.got.tgz:352083.got - 2010.06.03 13:09:07.
