data_PCOD9182651
_publ_section_title
;
Structure prediction by ZEFSAII (Michael W. Deem and Ramdas Pophale) SiO2 
 PCOD9182651
Probable space group: C 2/M
;
_chemical_formula_sum "Si O2"
_cell_formula_units_Z 56
_cell_length_a 13.209134
_cell_length_b 18.345204
_cell_length_c 17.159747
_cell_angle_alpha 90.000000
_cell_angle_beta 146.507649
_cell_angle_gamma 90.000000
_cell_volume 2294.614113
_symmetry_space_group_name_H-M "C 2/M"
_symmetry_group_IT_number 12
_symmetry_cell_setting 'monoclinic'
loop_
_space_group_symop_operation_xyz
x,y,z
-x,y,-z
-x,-y,-z
x,-y,z
1/2+x,1/2+y,z
1/2-x,1/2+y,-z
1/2-x,1/2-y,-z
1/2+x,1/2-y,z
loop_
_atom_site_type_symbol
_atom_site_label
_atom_site_fract_x
_atom_site_fract_y
_atom_site_fract_z
Si Si1 0.645823 0.586132 0.493062
Si Si2 0.550713 0.087197 0.771633
Si Si3 0.443558 0.294929 0.880150
Si Si4 0.633340 0.854174 0.980537
Si Si5 0.042966 0.715225 0.659532
Si Si6 0.258404 0.412454 0.216208
Si Si7 0.662172 0.321420 0.354732
O O1 0.642143 0.500000 0.500563
O O2 0.837498 0.608459 0.654178
O O3 0.440315 0.612356 0.379523
O O4 0.670085 0.610449 0.418573
O O5 0.674505 0.117724 0.920829
O O6 0.586788 0.132992 0.717160
O O7 0.564473 0.000000 0.773259
O O8 0.591591 0.231244 0.959593
O O9 0.242474 0.257357 0.762769
O O10 0.411875 0.336636 0.778831
O O11 0.500000 0.328630 0.000000
O O12 0.438377 0.890860 0.877813
O O13 0.766636 0.881966 0.133419
O O14 0.870971 0.710605 0.490243
O O15 0.961029 0.760814 0.679743
O O16 0.263156 0.500000 0.216509
#
# Coordination Sequence:
#
# PCOD9182651 Si02
#       7
#     8   8   8   8   8   8   8
#     4   9  20  37  59  85 112 149 193 241 293 349
#     4  10  20  38  61  86 115 149 196 243 291 350
#     4  12  24  38  57  87 120 154 201 245 292 351
#     4  11  20  34  50  84 114 155 188 232 293 346
#     4  10  22  40  61  87 117 157 199 243 300 346
#     4  10  19  33  52  78 117 154 186 227 289 356
#     4  10  21  40  61  85 116 156 196 248 296 348
#
# _framework density 24.404976000000001
#
# number of rings (size 3 to 8) (size 9 to 14) (size 15 to 20)
#    0.000    1.714    2.857    3.000    0.000    2.286 
#    2.571    2.857    0.000    4.286    0.000    0.000 
#    0.000    0.000    0.000    0.000    0.000    0.000 
#
# Total GULP energy -156484.392695 kJ/mol
# GULP energy per Si atom -5588.728311 kJ/mol
# Density = 2.434943 g / cm^3
# Si number density = 24.404976 Si / 1000 Ang^3
#
#
#
# Elastic Constant Matrix: (Units=GPa)
#
#
# Indices 1 2 3 4 5 6 
#
# 1 54.8894 -2.8492 30.3388 0.0008 -5.8988 0.0001
# 2 -2.8492 49.6885 10.2986 -0.0003 0.2229 -0.0002
# 3 30.3388 10.2986 168.3313 0.0016 -20.4186 0.0008
# 4 0.0008 -0.0003 0.0016 27.3548 0.0007 6.3027
# 5 -5.8988 0.2229 -20.4186 0.0007 60.4985 0.0001
# 6 0.0001 -0.0002 0.0008 6.3027 0.0001 17.6380
#
#
#
# Elastic Compliance Matrix: (Units=1/GPa)
#
#
# Indices 1 2 3 4 5 6 
#
# 1 0.020452 0.001940 -0.003716 0.000000 0.000733 0.000000
# 2 0.001940 0.020583 -0.001663 0.000000 -0.000448 0.000000
# 3 -0.003716 -0.001663 0.006954 0.000000 0.001991 0.000000
# 4 0.000000 0.000000 0.000000 0.039836 -0.000001 -0.014235
# 5 0.000733 -0.000448 0.001991 -0.000001 0.017274 0.000000
# 6 0.000000 0.000000 0.000000 -0.014235 0.000000 0.061783
#
#
# Mechanical properties :
#
#
# Convention : Reuss Voigt Hill
#
# Bulk Modulus (GPa) = 24.32512 38.72062 31.52287
# Shear Modulus (GPa) = 26.67175 36.77299 31.72237
#
# Velocity S-wave (km/s) = 3.30946 3.88594 3.60923
# Velocity P-wave (km/s) = 4.95906 6.00286 5.50575
#
# Compressibility (1/GPa) = 0.04110976
#
# Stress axis : x y z
#
# Youngs Moduli (GPa) = 48.89562 48.58294 143.81018
#
# Poissons Ratio (x) = -0.09423 0.53438
# Poissons Ratio (y) = -0.09484 0.23919
# Poissons Ratio (z) = 0.18169 0.08080
#
# Static dielectric constant tensor:
#      x y z
#    x 2.061910 0.000000 0.019130 
#    y 0.000000 1.905440 0.000000 
#    z 0.019130 0.000000 1.959630 
# 
# From -- ./inp_files/64046.got.cif
#   From: 2010.05.17/outbox.cif.g08.bks.cpg/sg12_33_cif.got.tgz:64046.got - 2010.06.03 13:09:07.
