data_PCOD9182081
_publ_section_title
;
Structure prediction by ZEFSAII (Michael W. Deem and Ramdas Pophale) SiO2 
 PCOD9182081
Probable space group: C 2/M
;
_chemical_formula_sum "Si O2"
_cell_formula_units_Z 52
_cell_length_a 15.960000
_cell_length_b 14.902602
_cell_length_c 16.785896
_cell_angle_alpha 90.000000
_cell_angle_beta 139.503708
_cell_angle_gamma 90.000000
_cell_volume 2592.692575
_symmetry_space_group_name_H-M "C 2/M"
_symmetry_group_IT_number 12
_symmetry_cell_setting 'monoclinic'
loop_
_space_group_symop_operation_xyz
x,y,z
-x,y,-z
-x,-y,-z
x,-y,z
1/2+x,1/2+y,z
1/2-x,1/2+y,-z
1/2-x,1/2-y,-z
1/2+x,1/2-y,z
loop_
_atom_site_type_symbol
_atom_site_label
_atom_site_fract_x
_atom_site_fract_y
_atom_site_fract_z
Si Si1 0.715704 0.394809 0.124442
Si Si2 0.000000 0.239517 0.000000
Si Si3 0.368563 0.652734 0.441955
Si Si4 0.349022 0.138596 0.390520
Si Si5 0.237421 0.394677 0.497718
Si Si6 0.027224 0.396004 0.766846
Si Si7 0.111941 0.598468 0.173378
O O1 0.685750 0.500000 0.086062
O O2 0.772074 0.388912 0.255646
O O3 0.835233 0.359466 0.158103
O O4 0.594488 0.329796 0.023613
O O5 0.093737 0.310950 0.110949
O O6 0.500000 0.615452 0.500000
O O7 0.358404 0.754298 0.403843
O O8 0.348062 0.649374 0.522867
O O9 0.245732 0.602774 0.317136
O O10 0.500000 0.105775 0.500000
O O11 0.270070 0.111853 0.412679
O O12 0.243581 0.500000 0.482079
O O13 0.098795 0.356432 0.367347
O O14 0.031765 0.500000 0.742716
O O15 0.999058 0.396230 0.839773
O O16 0.107168 0.500000 0.130367
#
# Coordination Sequence:
#
# PCOD9182081 Si02
#       7
#     8   4   8   8   8   8   8
#     4  11  22  38  60  84 119 155 189 235 289 345
#     4  12  24  40  56  86 112 152 200 244 288 330
#     4  10  21  37  58  88 120 153 185 233 292 351
#     4  11  20  34  58  90 118 148 190 236 286 348
#     4  10  19  32  55  86 120 153 186 227 284 351
#     4   8  17  34  58  86 111 148 191 231 284 343
#     4  10  21  40  64  85 111 150 198 242 284 338
#
# _framework density 20.056369
#
# number of rings (size 3 to 8) (size 9 to 14) (size 15 to 20)
#    0.000    1.846    3.077    2.769    0.000    2.462 
#    0.000    0.000    3.385    0.000    0.000    0.000 
#    0.000    0.000    0.000    0.000    0.000    0.000 
#
# Total GULP energy -144847.952551 kJ/mol
# GULP energy per Si atom -5571.075098 kJ/mol
# Density = 2.001072 g / cm^3
# Si number density = 20.056369 Si / 1000 Ang^3
#
#
#
# Elastic Constant Matrix: (Units=GPa)
#
#
# Indices 1 2 3 4 5 6 
#
# 1 99.4436 16.7426 10.1477 0.0000 35.5677 0.0000
# 2 16.7426 100.1582 11.4471 0.0000 7.4840 0.0000
# 3 10.1477 11.4471 22.2915 0.0000 10.9076 0.0000
# 4 0.0000 0.0000 0.0000 13.7764 0.0000 1.1010
# 5 35.5677 7.4840 10.9076 0.0000 26.1572 0.0000
# 6 0.0000 0.0000 0.0000 1.1010 0.0000 16.5365
#
#
#
# Elastic Compliance Matrix: (Units=1/GPa)
#
#
# Indices 1 2 3 4 5 6 
#
# 1 0.020397 -0.001900 0.006276 0.000000 -0.029809 0.000000
# 2 -0.001900 0.010803 -0.005571 0.000000 0.001815 0.000000
# 3 0.006276 -0.005571 0.060631 0.000000 -0.032224 0.000000
# 4 0.000000 0.000000 0.000000 0.072976 0.000000 -0.004859
# 5 -0.029809 0.001815 -0.032224 0.000000 0.091681 0.000000
# 6 0.000000 0.000000 0.000000 -0.004859 0.000000 0.060796
#
#
# Mechanical properties :
#
#
# Convention : Reuss Voigt Hill
#
# Bulk Modulus (GPa) = 11.18036 33.17423 22.17730
# Shear Modulus (GPa) = 14.30667 23.53108 18.91888
#
# Velocity S-wave (km/s) = 2.67371 3.42899 3.07463
# Velocity P-wave (km/s) = 3.88821 5.67923 4.86682
#
# Compressibility (1/GPa) = 0.08944257
#
# Stress axis : x y z
#
# Youngs Moduli (GPa) = 49.02703 92.56854 16.49310
#
# Poissons Ratio (x) = 0.17584 -0.10351
# Poissons Ratio (y) = 0.09313 0.09188
# Poissons Ratio (z) = -0.30770 0.51569
#
# Static dielectric constant tensor:
#      x y z
#    x 1.752230 0.000000 -0.004250 
#    y 0.000000 1.735940 0.000000 
#    z -0.004250 0.000000 1.733960 
# 
# From -- ./inp_files/270770.got.cif
#   From: 2010.05.17/outbox.cif.g08.bks.cpg/sg12_136_cif.got.tgz:270770.got - 2010.06.03 13:09:07.
