data_PCOD9182638
_publ_section_title
;
Structure prediction by ZEFSAII (Michael W. Deem and Ramdas Pophale) SiO2 
 PCOD9182638
Probable space group: C 2/M
;
_chemical_formula_sum "Si O2"
_cell_formula_units_Z 64
_cell_length_a 15.952101
_cell_length_b 7.730190
_cell_length_c 28.882097
_cell_angle_alpha 90.000000
_cell_angle_beta 57.966651
_cell_angle_gamma 90.000000
_cell_volume 3019.250922
_symmetry_space_group_name_H-M "C 2/M"
_symmetry_group_IT_number 12
_symmetry_cell_setting 'monoclinic'
loop_
_space_group_symop_operation_xyz
x,y,z
-x,y,-z
-x,-y,-z
x,-y,z
1/2+x,1/2+y,z
1/2-x,1/2+y,-z
1/2-x,1/2-y,-z
1/2+x,1/2-y,z
loop_
_atom_site_type_symbol
_atom_site_label
_atom_site_fract_x
_atom_site_fract_y
_atom_site_fract_z
Si Si1 0.900458 0.798543 0.242274
Si Si2 0.161655 0.792710 0.060532
Si Si3 0.031295 0.293253 0.440021
Si Si4 0.470972 0.290182 0.060250
Si Si5 0.696557 0.200843 0.823695
Si Si6 0.623888 0.286971 0.173896
Si Si7 0.244405 0.787226 0.635765
Si Si8 0.661512 0.705407 0.561126
O O1 0.857669 0.789164 0.203109
O O2 0.821910 0.726476 0.301815
O O3 0.011305 0.725704 0.211180
O O4 0.912153 0.000000 0.251027
O O5 0.167307 0.729418 0.111483
O O6 0.059237 0.732768 0.068007
O O7 0.156556 0.000000 0.064192
O O8 0.250000 0.750000 0.000000
O O9 0.040139 0.500000 0.442051
O O10 0.141208 0.229456 0.395232
O O11 0.000000 0.224886 0.500000
O O12 0.943443 0.262519 0.429239
O O13 0.464603 0.500000 0.062660
O O14 0.370436 0.218605 0.110789
O O15 0.500000 0.237044 0.000000
O O16 0.804156 0.269255 0.806060
O O17 0.704575 0.000000 0.808926
O O18 0.625020 0.500000 0.173441
O O19 0.193559 0.730241 0.602531
O O20 0.246038 0.000000 0.635602
O O21 0.656520 0.500000 0.566065
O O22 0.750000 0.750000 0.500000
#
# Coordination Sequence:
#
# PCOD9182638 Si02
#       8
#     8   8   8   8   8   8   8   8
#     4  10  20  41  64  79 108 156 199 231 275 348
#     4  10  19  33  52  78 108 142 180 222 277 336
#     4  10  19  36  58  84 121 158 192 240 292 344
#     4  10  20  35  56  82 112 147 189 232 278 343
#     4  11  22  36  57  85 114 145 186 240 295 336
#     4   9  19  36  57  78 108 148 184 224 283 340
#     4   9  20  37  60  85 112 154 198 232 284 347
#     4  11  21  36  58  89 120 156 198 239 290 348
#
# _framework density 21.197309000000001
#
# number of rings (size 3 to 8) (size 9 to 14) (size 15 to 20)
#    0.000    2.000    2.500    1.500    0.000    2.000 
#    0.000    5.000    0.000    0.000    0.000    0.000 
#    0.000    0.000    0.000    0.000    0.000    0.000 
#
# Total GULP energy -178701.304152 kJ/mol
# GULP energy per Si atom -5584.415755 kJ/mol
# Density = 2.114906 g / cm^3
# Si number density = 21.197309 Si / 1000 Ang^3
#
#
#
# Elastic Constant Matrix: (Units=GPa)
#
#
# Indices 1 2 3 4 5 6 
#
# 1 172.1088 -4.7377 64.0937 0.0000 -25.1570 0.0000
# 2 -4.7377 26.6213 -3.8953 -0.0001 -3.7106 -0.0001
# 3 64.0937 -3.8953 133.6211 0.0000 -20.7908 0.0000
# 4 0.0000 -0.0001 0.0000 9.6064 0.0000 2.9097
# 5 -25.1570 -3.7106 -20.7908 0.0000 30.2140 0.0000
# 6 0.0000 -0.0001 0.0000 2.9097 0.0000 18.3873
#
#
#
# Elastic Compliance Matrix: (Units=1/GPa)
#
#
# Indices 1 2 3 4 5 6 
#
# 1 0.007591 0.001558 -0.002892 0.000000 0.004522 0.000000
# 2 0.001558 0.039054 0.001500 0.000000 0.007126 0.000000
# 3 -0.002892 0.001500 0.009596 0.000000 0.004379 0.000000
# 4 0.000000 0.000000 0.000000 0.109338 0.000000 -0.017302
# 5 0.004522 0.007126 0.004379 0.000000 0.040751 0.000000
# 6 0.000000 0.000000 0.000000 -0.017302 0.000000 0.057123
#
#
# Mechanical properties :
#
#
# Convention : Reuss Voigt Hill
#
# Bulk Modulus (GPa) = 17.67640 49.25252 33.46446
# Shear Modulus (GPa) = 17.73177 30.10090 23.91634
#
# Velocity S-wave (km/s) = 2.89539 3.77242 3.36262
# Velocity P-wave (km/s) = 4.41982 6.50082 5.55857
#
# Compressibility (1/GPa) = 0.05657259
#
# Stress axis : x y z
#
# Youngs Moduli (GPa) = 131.73169 25.60567 104.20670
#
# Poissons Ratio (x) = -0.03989 0.30139
# Poissons Ratio (y) = -0.20524 -0.15629
# Poissons Ratio (z) = 0.38100 -0.03840
#
# Static dielectric constant tensor:
#      x y z
#    x 1.750920 0.000000 -0.008410 
#    y 0.000000 1.819180 0.000000 
#    z -0.008410 0.000000 1.745340 
# 
# From -- ./inp_files/374981.got.cif
#   From: 2010.05.17/outbox.cif.g08.bks.cpg/sg12_188_cif.got.tgz:374981.got - 2010.06.03 13:09:07.
