data_PCOD9182476
_publ_section_title
;
Structure prediction by ZEFSAII (Michael W. Deem and Ramdas Pophale) SiO2 
 PCOD9182476
Probable space group: C 2/M
;
_chemical_formula_sum "Si O2"
_cell_formula_units_Z 56
_cell_length_a 27.387278
_cell_length_b 12.547669
_cell_length_c 13.506225
_cell_angle_alpha 90.000000
_cell_angle_beta 149.314416
_cell_angle_gamma 90.000000
_cell_volume 2368.612810
_symmetry_space_group_name_H-M "C 2/M"
_symmetry_group_IT_number 12
_symmetry_cell_setting 'monoclinic'
loop_
_space_group_symop_operation_xyz
x,y,z
-x,y,-z
-x,-y,-z
x,-y,z
1/2+x,1/2+y,z
1/2-x,1/2+y,-z
1/2-x,1/2-y,-z
1/2+x,1/2-y,z
loop_
_atom_site_type_symbol
_atom_site_label
_atom_site_fract_x
_atom_site_fract_y
_atom_site_fract_z
Si Si1 0.313387 0.882657 0.233647
Si Si2 0.364559 0.123581 0.112368
Si Si3 0.030142 0.787109 0.451958
Si Si4 0.675552 0.714214 0.133535
Si Si5 0.239780 0.882129 0.572273
Si Si6 0.967348 0.170865 0.759913
Si Si7 0.429849 0.117589 0.783282
O O1 0.290805 0.873734 0.076973
O O2 0.372133 0.777265 0.364717
O O3 0.227895 0.876184 0.162133
O O4 0.361368 0.000000 0.327074
O O5 0.454391 0.190116 0.309895
O O6 0.383320 0.000000 0.123589
O O7 0.338471 0.190267 0.970543
O O8 0.030455 0.855968 0.352615
O O9 0.000000 0.845841 0.500000
O O10 0.733120 0.777435 0.317699
O O11 0.573678 0.664781 0.989458
O O12 0.126538 0.876553 0.351778
O O13 0.319922 0.879963 0.626671
O O14 0.254830 0.000000 0.647011
O O15 0.948383 0.297405 0.732307
O O16 0.454175 0.000000 0.791240
O O17 0.500000 0.139734 0.000000
#
# Coordination Sequence:
#
# PCOD9182476 Si02
#       7
#     8   8   8   8   8   8   8
#     4  10  19  33  51  77 116 152 193 245 292 341
#     4   9  18  31  52  80 109 149 197 247 292 340
#     4   9  18  33  55  86 116 146 189 241 292 342
#     4  11  21  35  57  84 113 159 200 240 288 358
#     4  11  23  41  62  88 122 156 195 246 297 350
#     4  11  22  38  63  88 118 159 193 240 297 355
#     4  10  21  39  65  93 117 145 195 254 298 347
#
# _framework density 23.642530000000001
#
# number of rings (size 3 to 8) (size 9 to 14) (size 15 to 20)
#    0.000    1.857    2.857    1.714    0.000    5.143 
#    0.000    0.000    0.000    0.857    0.000    0.000 
#    0.000    0.000    0.000    0.000    0.000    0.000 
#
# Total GULP energy -156149.208122 kJ/mol
# GULP energy per Si atom -5576.757433 kJ/mol
# Density = 2.358872 g / cm^3
# Si number density = 23.642530 Si / 1000 Ang^3
#
#
#
# Elastic Constant Matrix: (Units=GPa)
#
#
# Indices 1 2 3 4 5 6 
#
# 1 56.8749 15.6249 14.2926 0.0000 22.2979 0.0000
# 2 15.6249 45.1797 8.9125 0.0000 -3.1510 0.0000
# 3 14.2926 8.9125 77.4029 0.0000 22.7893 0.0000
# 4 0.0000 0.0000 0.0000 4.6161 0.0000 -10.0893
# 5 22.2979 -3.1510 22.7893 0.0000 36.6092 0.0000
# 6 0.0000 0.0000 0.0000 -10.0893 0.0000 -0.8668
#
#
#
# Elastic Compliance Matrix: (Units=1/GPa)
#
#
# Indices 1 2 3 4 5 6 
#
# 1 0.027627 -0.011216 0.001749 0.000000 -0.018881 0.000000
# 2 -0.011216 0.027789 -0.004707 0.000000 0.012153 0.000000
# 3 0.001749 -0.004707 0.016617 0.000000 -0.011815 0.000000
# 4 0.000000 0.000000 0.000000 0.008193 0.000000 -0.095366
# 5 -0.018881 0.012153 -0.011815 0.000000 0.047216 0.000000
# 6 0.000000 0.000000 0.000000 -0.095366 0.000000 -0.043632
#
#
# Mechanical properties :
#
#
# Convention : Reuss Voigt Hill
#
# Bulk Modulus (GPa) = 22.89135 28.56861 25.72998
# Shear Modulus (GPa) = 39.45756 17.44688 28.45222
#
# Velocity S-wave (km/s) = 4.08968 2.71946 3.47282
# Velocity P-wave (km/s) = 5.65720 4.68726 5.19492
#
# Compressibility (1/GPa) = 0.04368463
#
# Stress axis : x y z
#
# Youngs Moduli (GPa) = 36.19704 35.98545 60.17966
#
# Poissons Ratio (x) = 0.40362 -0.10527
# Poissons Ratio (y) = 0.40599 0.28326
# Poissons Ratio (z) = -0.06332 0.16938
#
# Static dielectric constant tensor:
#      x y z
#    x 1.960170 0.000000 0.009040 
#    y 0.000000 1.868520 0.000000 
#    z 0.009040 0.000000 1.976060 
# 
# From -- ./inp_files/246587.got.cif
#   From: 2010.05.17/outbox.cif.g08.bks.cpg/sg12_124_cif.got.tgz:246587.got - 2010.06.03 13:09:07.
