data_PCOD9182879
_publ_section_title
;
Structure prediction by ZEFSAII (Michael W. Deem and Ramdas Pophale) SiO2 
 PCOD9182879
Probable space group: C 2/M
;
_chemical_formula_sum "Si O2"
_cell_formula_units_Z 40
_cell_length_a 16.140343
_cell_length_b 7.553587
_cell_length_c 32.430983
_cell_angle_alpha 90.000000
_cell_angle_beta 153.483662
_cell_angle_gamma 90.000000
_cell_volume 1765.232201
_symmetry_space_group_name_H-M "C 2/M"
_symmetry_group_IT_number 12
_symmetry_cell_setting 'monoclinic'
loop_
_space_group_symop_operation_xyz
x,y,z
-x,y,-z
-x,-y,-z
x,-y,z
1/2+x,1/2+y,z
1/2-x,1/2+y,-z
1/2-x,1/2-y,-z
1/2+x,1/2-y,z
loop_
_atom_site_type_symbol
_atom_site_label
_atom_site_fract_x
_atom_site_fract_y
_atom_site_fract_z
Si Si1 0.903807 0.711706 0.102798
Si Si2 0.320702 0.717739 0.293689
Si Si3 0.493930 0.703907 0.703695
Si Si4 0.860834 0.795821 0.404612
Si Si5 0.211895 0.785260 0.100951
O O1 0.916035 0.500000 0.111244
O O2 0.829792 0.775369 0.113973
O O3 0.112725 0.776051 0.188348
O O4 0.750000 0.750000 0.000000
O O5 0.321793 0.500000 0.293553
O O6 0.469451 0.775714 0.325796
O O7 0.356142 0.778193 0.356279
O O8 0.436169 0.500000 0.674849
O O9 0.341636 0.794245 0.664694
O O10 0.689997 0.715061 0.814622
O O11 0.000000 0.713645 0.500000
O O12 0.919952 0.000000 0.425396
O O13 0.215922 0.000000 0.104688
O O14 0.000000 0.730839 0.000000
#
# Coordination Sequence:
#
# PCOD9182879 Si02
#       5
#     8   8   8   8   8
#     4  10  19  33  53  77 113 152 188 233 279 335
#     4   9  19  37  57  81 116 153 186 233 293 341
#     4  11  22  36  58  86 119 152 187 241 295 343
#     4  10  21  41  66  85 110 154 199 236 287 354
#     4  10  20  35  56  82 115 155 198 241 280 335
#
# _framework density 22.659908000000001
#
# number of rings (size 3 to 8) (size 9 to 14) (size 15 to 20)
#    0.000    2.000    2.000    1.800    0.000    2.400 
#    0.000    3.000    0.000    0.000    0.000    0.000 
#    0.000    0.000    0.000    0.000    0.000    0.000 
#
# Total GULP energy -111743.926011 kJ/mol
# GULP energy per Si atom -5587.196301 kJ/mol
# Density = 2.260833 g / cm^3
# Si number density = 22.659908 Si / 1000 Ang^3
#
#
#
# Elastic Constant Matrix: (Units=GPa)
#
#
# Indices 1 2 3 4 5 6 
#
# 1 148.8000 -3.1826 27.6614 -0.0033 -33.7736 -0.0020
# 2 -3.1826 52.0514 -10.4587 -0.0019 -1.3219 -0.0018
# 3 27.6614 -10.4587 96.3942 -0.0028 -28.5796 -0.0003
# 4 -0.0033 -0.0019 -0.0028 65.0778 0.0010 55.6611
# 5 -33.7736 -1.3219 -28.5796 0.0010 32.5281 0.0000
# 6 -0.0020 -0.0018 -0.0003 55.6611 0.0000 51.9884
#
#
#
# Elastic Compliance Matrix: (Units=1/GPa)
#
#
# Indices 1 2 3 4 5 6 
#
# 1 0.008834 0.000861 0.000390 0.000000 0.009550 0.000000
# 2 0.000861 0.020043 0.003292 0.000001 0.004600 0.000000
# 3 0.000390 0.003292 0.014576 0.000004 0.013345 -0.000005
# 4 0.000000 0.000001 0.000004 0.182330 -0.000001 -0.195210
# 5 0.009550 0.004600 0.013345 -0.000001 0.052570 0.000001
# 6 0.000000 0.000000 -0.000005 -0.195210 0.000001 0.228236
#
#
# Mechanical properties :
#
#
# Convention : Reuss Voigt Hill
#
# Bulk Modulus (GPa) = 19.03424 36.14287 27.58856
# Shear Modulus (GPa) = 9.70845 48.80056 29.25450
#
# Velocity S-wave (km/s) = 2.07213 4.64573 3.59698
# Velocity P-wave (km/s) = 3.76074 6.69043 5.42702
#
# Compressibility (1/GPa) = 0.05253690
#
# Stress axis : x y z
#
# Youngs Moduli (GPa) = 113.20056 49.89371 68.60593
#
# Poissons Ratio (x) = -0.04296 -0.02674
# Poissons Ratio (y) = -0.09746 -0.22582
# Poissons Ratio (z) = -0.04412 -0.16423
#
# Static dielectric constant tensor:
#      x y z
#    x 1.838070 0.000000 -0.008440 
#    y 0.000000 1.895530 0.000000 
#    z -0.008440 0.000000 1.831600 
# 
# From -- ./inp_files/211165.got.cif
#   From: 2010.05.17/outbox.cif.g08.bks.cpg/sg12_106_cif.got.tgz:211165.got - 2010.06.03 13:09:07.
