data_PCOD9182958
_publ_section_title
;
Structure prediction by ZEFSAII (Michael W. Deem and Ramdas Pophale) SiO2 
 PCOD9182958
Probable space group: C 2/M
;
_chemical_formula_sum "Si O2"
_cell_formula_units_Z 64
_cell_length_a 23.688470
_cell_length_b 14.945215
_cell_length_c 13.152271
_cell_angle_alpha 90.000000
_cell_angle_beta 38.321499
_cell_angle_gamma 90.000000
_cell_volume 2887.241221
_symmetry_space_group_name_H-M "C 2/M"
_symmetry_group_IT_number 12
_symmetry_cell_setting 'monoclinic'
loop_
_space_group_symop_operation_xyz
x,y,z
-x,y,-z
-x,-y,-z
x,-y,z
1/2+x,1/2+y,z
1/2-x,1/2+y,-z
1/2-x,1/2-y,-z
1/2+x,1/2-y,z
loop_
_atom_site_type_symbol
_atom_site_label
_atom_site_fract_x
_atom_site_fract_y
_atom_site_fract_z
Si Si1 0.528771 0.157598 0.847970
Si Si2 0.015733 0.856895 0.084674
Si Si3 0.337926 0.891382 0.037290
Si Si4 0.730096 0.145793 0.509641
Si Si5 0.286862 0.606602 0.201720
Si Si6 0.985121 0.899311 0.686410
Si Si7 0.181583 0.103546 0.409079
Si Si8 0.721076 0.608860 0.012429
O O1 0.539763 0.265074 0.836593
O O2 0.626056 0.120061 0.680653
O O3 0.500000 0.124992 0.000000
O O4 0.441767 0.139240 0.900973
O O5 0.002927 0.905462 0.208315
O O6 0.122099 0.835080 0.929702
O O7 0.000000 0.904399 0.000000
O O8 0.269823 0.860497 0.224370
O O9 0.340497 0.000000 0.036205
O O10 0.289869 0.860515 0.001623
O O11 0.750000 0.250000 0.500000
O O12 0.743803 0.123294 0.372028
O O13 0.795345 0.103966 0.503559
O O14 0.310082 0.500000 0.165181
O O15 0.244641 0.627561 0.150835
O O16 0.082555 0.855326 0.519430
O O17 0.981141 0.000000 0.649205
O O18 0.883494 0.859478 0.818324
O O19 0.173247 0.000000 0.389989
O O20 0.715683 0.500000 0.026810
#
# Coordination Sequence:
#
# PCOD9182958 Si02
#       8
#     8   8   8   8   8   8   8   8
#     4  11  22  38  55  81 115 153 196 233 292 351
#     4  10  19  33  53  80 112 148 188 231 292 352
#     4  10  21  37  58  82 113 154 198 242 281 341
#     4  12  23  37  59  85 119 154 186 241 294 354
#     4  10  21  37  60  87 116 150 194 245 295 346
#     4   9  17  31  53  82 114 144 182 235 286 343
#     4  10  20  33  54  85 115 147 193 237 286 341
#     4   8  17  36  58  83 114 150 193 238 291 342
#
# _framework density 22.166488999999999
#
# number of rings (size 3 to 8) (size 9 to 14) (size 15 to 20)
#    0.000    2.000    1.250    4.500    0.000    3.750 
#    0.000    5.625    0.000    2.250    0.000    0.000 
#    0.000    0.000    0.000    0.000    0.000    0.000 
#
# Total GULP energy -178411.295016 kJ/mol
# GULP energy per Si atom -5575.352969 kJ/mol
# Density = 2.211604 g / cm^3
# Si number density = 22.166489 Si / 1000 Ang^3
#
#
#
# Elastic Constant Matrix: (Units=GPa)
#
#
# Indices 1 2 3 4 5 6 
#
# 1 151.8815 0.0906 51.0292 0.0000 -11.1279 0.0000
# 2 0.0906 36.4119 -1.5912 0.0000 -0.1237 0.0000
# 3 51.0292 -1.5912 124.1293 0.0000 -14.1659 0.0000
# 4 0.0000 0.0000 0.0000 29.1125 0.0000 2.9849
# 5 -11.1279 -0.1237 -14.1659 0.0000 38.8150 0.0000
# 6 0.0000 0.0000 0.0000 2.9849 0.0000 20.2249
#
#
#
# Elastic Compliance Matrix: (Units=1/GPa)
#
#
# Indices 1 2 3 4 5 6 
#
# 1 0.007684 -0.000148 -0.003036 0.000000 0.001095 0.000000
# 2 -0.000148 0.027484 0.000437 0.000000 0.000204 0.000000
# 3 -0.003036 0.000437 0.009611 0.000000 0.002639 0.000000
# 4 0.000000 0.000000 0.000000 0.034877 0.000000 -0.005147
# 5 0.001095 0.000204 0.002639 0.000000 0.027041 0.000000
# 6 0.000000 0.000000 0.000000 -0.005147 0.000000 0.050204
#
#
# Mechanical properties :
#
#
# Convention : Reuss Voigt Hill
#
# Bulk Modulus (GPa) = 25.45576 45.72001 35.58788
# Shear Modulus (GPa) = 28.49159 35.15676 31.82418
#
# Velocity S-wave (km/s) = 3.58906 3.98682 3.79316
# Velocity P-wave (km/s) = 5.35574 6.47020 5.93917
#
# Compressibility (1/GPa) = 0.03928384
#
# Stress axis : x y z
#
# Youngs Moduli (GPa) = 130.13363 36.38522 104.04817
#
# Poissons Ratio (x) = 0.00539 0.31589
# Poissons Ratio (y) = 0.01927 -0.04542
# Poissons Ratio (z) = 0.39509 -0.01588
#
# Static dielectric constant tensor:
#      x y z
#    x 1.856750 0.000000 0.003580 
#    y 0.000000 1.858340 0.000000 
#    z 0.003580 0.000000 1.850740 
# 
# From -- ./inp_files/169666.got.cif
#   From: 2010.05.17/outbox.cif.g08.bks.cpg/sg12_85_cif.got.tgz:169666.got - 2010.06.03 13:09:07.
