data_PCOD9182979
_publ_section_title
;
Structure prediction by ZEFSAII (Michael W. Deem and Ramdas Pophale) SiO2 
 PCOD9182979
Probable space group: C 2/M
;
_chemical_formula_sum "Si O2"
_cell_formula_units_Z 56
_cell_length_a 31.705066
_cell_length_b 8.657425
_cell_length_c 19.391976
_cell_angle_alpha 90.000000
_cell_angle_beta 142.370463
_cell_angle_gamma 90.000000
_cell_volume 3249.849172
_symmetry_space_group_name_H-M "C 2/M"
_symmetry_group_IT_number 12
_symmetry_cell_setting 'monoclinic'
loop_
_space_group_symop_operation_xyz
x,y,z
-x,y,-z
-x,-y,-z
x,-y,z
1/2+x,1/2+y,z
1/2-x,1/2+y,-z
1/2-x,1/2-y,-z
1/2+x,1/2-y,z
loop_
_atom_site_type_symbol
_atom_site_label
_atom_site_fract_x
_atom_site_fract_y
_atom_site_fract_z
Si Si1 0.704745 0.684690 0.259265
Si Si2 0.194328 0.685686 0.873300
Si Si3 0.591018 0.187538 0.850736
Si Si4 0.446293 0.815844 0.721589
Si Si5 0.203950 0.816253 0.503176
Si Si6 0.210880 0.314672 0.113509
Si Si7 0.055475 0.815388 0.130750
O O1 0.711952 0.500000 0.266564
O O2 0.763646 0.755925 0.383736
O O3 0.705024 0.749697 0.182498
O O4 0.631536 0.720809 0.200706
O O5 0.198213 0.500000 0.875137
O O6 0.122135 0.730123 0.816271
O O7 0.219530 0.755604 0.834029
O O8 0.250000 0.750000 0.000000
O O9 0.513820 0.239777 0.767369
O O10 0.590609 0.000000 0.852687
O O11 0.645661 0.236449 0.981084
O O12 0.374675 0.738260 0.607204
O O13 0.458510 0.775094 0.817389
O O14 0.439728 0.000000 0.704951
O O15 0.250000 0.750000 0.500000
O O16 0.207443 0.000000 0.504531
O O17 0.210973 0.500000 0.114695
O O18 0.052374 0.000000 0.140724
O O19 0.000000 0.779606 0.000000
#
# Coordination Sequence:
#
# PCOD9182979 Si02
#       7
#     8   8   8   8   8   8   8
#     4  11  22  36  55  78 107 142 180 221 268 319
#     4   9  16  30  51  77 110 145 181 219 263 319
#     4   8  17  32  52  80 112 144 178 216 263 322
#     4  11  21  35  56  79 105 141 181 222 267 318
#     4  12  24  40  58  77 102 138 183 229 270 315
#     4  10  19  33  53  81 114 145 180 220 266 321
#     4  10  21  35  51  76 110 142 174 217 266 317
#
# _framework density 17.231569
#
# number of rings (size 3 to 8) (size 9 to 14) (size 15 to 20)
#    0.000    1.857    1.429    4.714    0.000    0.857 
#    0.000    7.857    0.000    0.857    0.000    6.000 
#    0.000    0.000    0.000    0.000    0.000    0.000 
#
# Total GULP energy -156263.666993 kJ/mol
# GULP energy per Si atom -5580.845250 kJ/mol
# Density = 1.719235 g / cm^3
# Si number density = 17.231569 Si / 1000 Ang^3
#
#
#
# Elastic Constant Matrix: (Units=GPa)
#
#
# Indices 1 2 3 4 5 6 
#
# 1 111.9350 33.5905 22.4655 0.0000 32.3485 0.0000
# 2 33.5905 57.0702 15.9549 0.0000 11.4560 0.0000
# 3 22.4655 15.9549 63.7814 0.0000 25.8168 0.0000
# 4 0.0000 0.0000 0.0000 25.3011 0.0000 -5.1940
# 5 32.3485 11.4560 25.8168 0.0000 19.2114 0.0000
# 6 0.0000 0.0000 0.0000 -5.1940 0.0000 27.4278
#
#
#
# Elastic Compliance Matrix: (Units=1/GPa)
#
#
# Indices 1 2 3 4 5 6 
#
# 1 0.026321 -0.007706 0.019155 0.000000 -0.065466 0.000000
# 2 -0.007706 0.022165 -0.005991 0.000000 0.007809 0.000000
# 3 0.019155 -0.005991 0.048326 0.000000 -0.093623 0.000000
# 4 0.000000 0.000000 0.000000 0.041123 0.000000 0.007787
# 5 -0.065466 0.007809 -0.093623 0.000000 0.283440 0.000000
# 6 0.000000 0.000000 0.000000 0.007787 0.000000 0.037934
#
#
# Mechanical properties :
#
#
# Convention : Reuss Voigt Hill
#
# Bulk Modulus (GPa) = 9.28265 41.86759 25.57512
# Shear Modulus (GPa) = 10.32414 25.10646 17.71530
#
# Velocity S-wave (km/s) = 2.45039 3.82121 3.20983
# Velocity P-wave (km/s) = 3.66123 6.61957 5.34898
#
# Compressibility (1/GPa) = 0.10772787
#
# Stress axis : x y z
#
# Youngs Moduli (GPa) = 37.99260 45.11568 20.69283
#
# Poissons Ratio (x) = 0.34766 -0.39638
# Poissons Ratio (y) = 0.29277 0.12398
# Poissons Ratio (z) = -0.72776 0.27031
#
# Static dielectric constant tensor:
#      x y z
#    x 1.597330 0.000000 0.018310 
#    y 0.000000 1.582680 0.000000 
#    z 0.018310 0.000000 1.557380 
# 
# From -- ./inp_files/288477.got.cif
#   From: 2010.05.17/outbox.cif.g08.bks.cpg/sg12_145_cif.got.tgz:288477.got - 2010.06.03 13:09:07.
