data_PCOD9182458
_publ_section_title
;
Structure prediction by ZEFSAII (Michael W. Deem and Ramdas Pophale) SiO2 
 PCOD9182458
Probable space group: C 2/M
;
_chemical_formula_sum "Si O2"
_cell_formula_units_Z 56
_cell_length_a 19.952807
_cell_length_b 12.769930
_cell_length_c 14.194355
_cell_angle_alpha 90.000000
_cell_angle_beta 67.666791
_cell_angle_gamma 90.000000
_cell_volume 3345.376824
_symmetry_space_group_name_H-M "C 2/M"
_symmetry_group_IT_number 12
_symmetry_cell_setting 'monoclinic'
loop_
_space_group_symop_operation_xyz
x,y,z
-x,y,-z
-x,-y,-z
x,-y,z
1/2+x,1/2+y,z
1/2-x,1/2+y,-z
1/2-x,1/2-y,-z
1/2+x,1/2-y,z
loop_
_atom_site_type_symbol
_atom_site_label
_atom_site_fract_x
_atom_site_fract_y
_atom_site_fract_z
Si Si1 0.682279 0.624499 0.869329
Si Si2 0.913443 0.621421 0.553705
Si Si3 0.612872 0.624598 0.108344
Si Si4 0.174717 0.243356 0.255794
Si Si5 0.641286 0.260734 0.589235
Si Si6 0.236133 0.878874 0.394965
Si Si7 0.444976 0.375952 0.213021
O O1 0.698191 0.500000 0.853428
O O2 0.752681 0.691117 0.805378
O O3 0.614722 0.645783 0.835537
O O4 0.656274 0.646931 0.989396
O O5 0.891054 0.500000 0.566473
O O6 0.882215 0.680494 0.661541
O O7 0.882356 0.680741 0.479299
O O8 0.000000 0.626726 0.500000
O O9 0.620159 0.500000 0.124164
O O10 0.642573 0.691139 0.179620
O O11 0.527332 0.645620 0.139003
O O12 0.195270 0.155037 0.321839
O O13 0.559759 0.500000 0.763186
O O14 0.685229 0.351951 0.511705
O O15 0.576979 0.309639 0.683881
O O16 0.304258 0.802153 0.372271
O O17 0.256270 0.000000 0.383212
#
# Coordination Sequence:
#
# PCOD9182458 Si02
#       7
#     8   8   8   8   8   8   8
#     4  10  20  35  55  80 105 135 180 224 262 307
#     4  10  21  35  52  76 106 139 175 214 257 311
#     4  10  21  35  54  79 108 139 172 219 270 314
#     4  11  20  35  54  78 105 139 176 217 261 312
#     4  10  19  33  51  76 103 136 172 208 256 311
#     4  10  20  32  49  75 105 134 168 212 257 307
#     4  10  19  34  55  80 108 138 174 215 264 316
#
# _framework density 16.739519999999999
#
# number of rings (size 3 to 8) (size 9 to 14) (size 15 to 20)
#    0.000    1.857    1.429    3.429    0.000    1.714 
#    0.000    0.000    0.000    6.857    0.000    1.000 
#    0.000    0.000    0.000    0.000    0.000    0.000 
#
# Total GULP energy -156262.129860 kJ/mol
# GULP energy per Si atom -5580.790352 kJ/mol
# Density = 1.670142 g / cm^3
# Si number density = 16.739520 Si / 1000 Ang^3
#
#
#
# Elastic Constant Matrix: (Units=GPa)
#
#
# Indices 1 2 3 4 5 6 
#
# 1 72.4341 35.2849 34.8075 0.0000 0.6463 0.0000
# 2 35.2849 64.3419 57.6630 0.0000 5.1022 0.0000
# 3 34.8075 57.6630 105.2936 0.0000 -5.2326 0.0000
# 4 0.0000 0.0000 0.0000 18.1538 0.0000 -0.7071
# 5 0.6463 5.1022 -5.2326 0.0000 28.1983 0.0000
# 6 0.0000 0.0000 0.0000 -0.7071 0.0000 24.5253
#
#
#
# Elastic Compliance Matrix: (Units=1/GPa)
#
#
# Indices 1 2 3 4 5 6 
#
# 1 0.018939 -0.009656 -0.000916 0.000000 0.001143 0.000000
# 2 -0.009656 0.037719 -0.017958 0.000000 -0.009936 0.000000
# 3 -0.000916 -0.017958 0.019982 0.000000 0.006978 0.000000
# 4 0.000000 0.000000 0.000000 0.055147 0.000000 0.001590
# 5 0.001143 -0.009936 0.006978 0.000000 0.038530 0.000000
# 6 0.000000 0.000000 0.000000 0.001590 0.000000 0.040820
#
#
# Mechanical properties :
#
#
# Convention : Reuss Voigt Hill
#
# Bulk Modulus (GPa) = 51.07377 55.28671 53.18024
# Shear Modulus (GPa) = 18.20005 21.79642 19.99823
#
# Velocity S-wave (km/s) = 3.30092 3.61237 3.46015
# Velocity P-wave (km/s) = 6.71605 7.10621 6.91388
#
# Compressibility (1/GPa) = 0.01957952
#
# Stress axis : x y z
#
# Youngs Moduli (GPa) = 52.80008 26.51151 50.04579
#
# Poissons Ratio (x) = 0.25599 0.04585
# Poissons Ratio (y) = 0.50983 0.89875
# Poissons Ratio (z) = 0.04837 0.47611
#
# Static dielectric constant tensor:
#      x y z
#    x 1.563700 0.000000 0.000410 
#    y 0.000000 1.536710 0.000000 
#    z 0.000410 0.000000 1.540920 
# 
# From -- ./inp_files/223717.got.cif
#   From: 2010.05.17/outbox.cif.g08.bks.cpg/sg12_112_cif.got.tgz:223717.got - 2010.06.03 13:09:07.
