data_PCOD9182082
_publ_section_title
;
Structure prediction by ZEFSAII (Michael W. Deem and Ramdas Pophale) SiO2 
 PCOD9182082
Probable space group: C 2/M
;
_chemical_formula_sum "Si O2"
_cell_formula_units_Z 64
_cell_length_a 23.610128
_cell_length_b 13.861355
_cell_length_c 10.868510
_cell_angle_alpha 90.000000
_cell_angle_beta 113.377362
_cell_angle_gamma 90.000000
_cell_volume 3264.937214
_symmetry_space_group_name_H-M "C 2/M"
_symmetry_group_IT_number 12
_symmetry_cell_setting 'monoclinic'
loop_
_space_group_symop_operation_xyz
x,y,z
-x,y,-z
-x,-y,-z
x,-y,z
1/2+x,1/2+y,z
1/2-x,1/2+y,-z
1/2-x,1/2-y,-z
1/2+x,1/2-y,z
loop_
_atom_site_type_symbol
_atom_site_label
_atom_site_fract_x
_atom_site_fract_y
_atom_site_fract_z
Si Si1 0.861631 0.106589 0.969593
Si Si2 0.997659 0.684464 0.848652
Si Si3 0.633207 0.193231 0.923562
Si Si4 0.292479 0.235096 0.418699
Si Si5 0.780467 0.607434 0.194197
Si Si6 0.046051 0.892895 0.156431
Si Si7 0.876889 0.392419 0.629257
Si Si8 0.716938 0.888947 0.220149
O O1 0.883206 0.195451 0.067578
O O2 0.883399 0.000000 0.024622
O O3 0.788141 0.109300 0.918497
O O4 0.887306 0.122434 0.852760
O O5 0.976512 0.795303 0.797947
O O6 0.943943 0.620739 0.745041
O O7 0.065034 0.648974 0.864356
O O8 0.000000 0.680896 0.000000
O O9 0.672567 0.175508 0.836406
O O10 0.677575 0.156956 0.073574
O O11 0.250000 0.250000 0.500000
O O12 0.271298 0.141879 0.324372
O O13 0.358484 0.197796 0.525576
O O14 0.275665 0.324614 0.313884
O O15 0.805027 0.500000 0.204981
O O16 0.046167 0.000000 0.216359
O O17 0.000000 0.899521 0.000000
O O18 0.871402 0.500000 0.567728
O O19 0.829116 0.389285 0.702676
O O20 0.732978 0.000000 0.203987
#
# Coordination Sequence:
#
# PCOD9182082 Si02
#       8
#     8   8   8   8   8   8   8   8
#     4  10  19  32  55  86 122 161 198 246 310 368
#     4  11  20  34  59  86 124 164 203 255 311 364
#     4  12  21  37  57  90 132 164 196 254 314 375
#     4  10  22  40  62  80 113 158 205 255 304 358
#     4  11  24  39  59  89 123 162 204 252 314 375
#     4   9  16  29  51  81 118 153 194 246 298 357
#     4  10  21  37  57  83 114 154 208 258 298 355
#     4  10  20  35  57  87 121 152 192 252 312 367
#
# _framework density 19.602214
#
# number of rings (size 3 to 8) (size 9 to 14) (size 15 to 20)
#    0.000    1.625    5.000    1.125    1.750    1.750 
#    0.000    1.250    0.000    1.500    0.000    0.000 
#    0.000    3.000    0.000    0.000    0.000    0.000 
#
# Total GULP energy -178173.208453 kJ/mol
# GULP energy per Si atom -5567.912764 kJ/mol
# Density = 1.955760 g / cm^3
# Si number density = 19.602214 Si / 1000 Ang^3
#
#
#
# Elastic Constant Matrix: (Units=GPa)
#
#
# Indices 1 2 3 4 5 6 
#
# 1 89.8997 28.4546 28.1832 0.0000 11.9359 0.0000
# 2 28.4546 95.9738 34.4478 0.0000 11.3787 0.0000
# 3 28.1832 34.4478 45.8330 0.0000 20.4372 0.0000
# 4 0.0000 0.0000 0.0000 10.2539 0.0000 3.4436
# 5 11.9359 11.3787 20.4372 0.0000 23.4257 0.0000
# 6 0.0000 0.0000 0.0000 3.4436 0.0000 22.6217
#
#
#
# Elastic Compliance Matrix: (Units=1/GPa)
#
#
# Indices 1 2 3 4 5 6 
#
# 1 0.013925 -0.001433 -0.007582 0.000000 0.000216 0.000000
# 2 -0.001433 0.014645 -0.011915 0.000000 0.004011 0.000000
# 3 -0.007582 -0.011915 0.050955 0.000000 -0.034804 0.000000
# 4 0.000000 0.000000 0.000000 0.102779 0.000000 -0.015646
# 5 0.000216 0.004011 -0.034804 0.000000 0.070994 0.000000
# 6 0.000000 0.000000 0.000000 -0.015646 0.000000 0.046587
#
#
# Mechanical properties :
#
#
# Convention : Reuss Voigt Hill
#
# Bulk Modulus (GPa) = 26.54894 45.98643 36.26769
# Shear Modulus (GPa) = 14.11230 20.63497 17.37363
#
# Velocity S-wave (km/s) = 2.68607 3.24803 2.98033
# Velocity P-wave (km/s) = 4.81593 6.13001 5.51227
#
# Compressibility (1/GPa) = 0.03766628
#
# Stress axis : x y z
#
# Youngs Moduli (GPa) = 71.81153 68.28090 19.62502
#
# Poissons Ratio (x) = 0.09783 0.14880
# Poissons Ratio (y) = 0.10289 0.23383
# Poissons Ratio (z) = 0.54448 0.81357
#
# Static dielectric constant tensor:
#      x y z
#    x 1.664270 0.000000 -0.031560 
#    y 0.000000 1.758970 0.000000 
#    z -0.031560 0.000000 1.628670 
# 
# From -- ./inp_files/167318.got.cif
#   From: 2010.05.17/outbox.cif.g08.bks.cpg/sg12_84_cif.got.tgz:167318.got - 2010.06.03 13:09:07.
