data_PCOD9182807
_publ_section_title
;
Structure prediction by ZEFSAII (Michael W. Deem and Ramdas Pophale) SiO2 
 PCOD9182807
Probable space group: C 2/M
;
_chemical_formula_sum "Si O2"
_cell_formula_units_Z 44
_cell_length_a 23.812407
_cell_length_b 21.092172
_cell_length_c 5.068648
_cell_angle_alpha 90.000000
_cell_angle_beta 64.235892
_cell_angle_gamma 90.000000
_cell_volume 2292.685321
_symmetry_space_group_name_H-M "C 2/M"
_symmetry_group_IT_number 12
_symmetry_cell_setting 'monoclinic'
loop_
_space_group_symop_operation_xyz
x,y,z
-x,y,-z
-x,-y,-z
x,-y,z
1/2+x,1/2+y,z
1/2-x,1/2+y,-z
1/2-x,1/2-y,-z
1/2+x,1/2-y,z
loop_
_atom_site_type_symbol
_atom_site_label
_atom_site_fract_x
_atom_site_fract_y
_atom_site_fract_z
Si Si1 0.702054 0.190098 0.821096
Si Si2 0.953887 0.858486 0.343695
Si Si3 0.338314 0.737312 0.577154
Si Si4 0.045152 0.000000 0.657508
Si Si5 0.943506 0.572525 0.269969
Si Si6 0.863902 0.428610 0.913863
O O1 0.663071 0.206032 0.635918
O O2 0.775323 0.199753 0.625134
O O3 0.676019 0.236729 0.101419
O O4 0.691526 0.120310 0.954944
O O5 0.899586 0.805951 0.446561
O O6 0.923968 0.930067 0.407258
O O7 0.000000 0.851759 0.500000
O O8 0.000000 0.853355 0.000000
O O9 0.000000 0.000000 0.500000
O O10 0.000000 0.000000 0.000000
O O11 0.964826 0.500000 0.291518
O O12 0.915419 0.596903 0.600228
O O13 0.891672 0.568379 0.150264
O O14 0.000000 0.605759 0.000000
O O15 0.847956 0.500000 0.860615
#
# Coordination Sequence:
#
# PCOD9182807 Si02
#       6
#     8   8   8   4   8   8
#     4  10  21  38  56  76 106 146 188 216 273 321
#     4  10  19  35  58  85 114 141 178 224 278 328
#     4  10  21  38  58  76 106 150 181 217 265 336
#     4   8  16  30  52  80 112 142 164 208 276 332
#     4   9  17  30  49  72 101 137 169 205 267 323
#     4  10  19  33  53  76 103 133 176 231 268 307
#
# _framework density 19.191468
#
# number of rings (size 3 to 8) (size 9 to 14) (size 15 to 20)
#    0.000    2.364    0.000    2.727    0.000    2.182 
#    1.636    9.091    0.000    0.000    0.000    0.000 
#    0.000    0.000    0.000    0.000    0.000    0.000 
#
# Total GULP energy -122504.479040 kJ/mol
# GULP energy per Si atom -5568.385411 kJ/mol
# Density = 1.914779 g / cm^3
# Si number density = 19.191468 Si / 1000 Ang^3
#
#
#
# Elastic Constant Matrix: (Units=GPa)
#
#
# Indices 1 2 3 4 5 6 
#
# 1 60.6678 32.1036 33.3494 0.0000 0.6265 0.0000
# 2 32.1036 72.4852 29.3234 0.0000 -23.3856 0.0000
# 3 33.3494 29.3234 98.8765 0.0000 12.6565 0.0000
# 4 0.0000 0.0000 0.0000 24.6134 0.0000 -2.3058
# 5 0.6265 -23.3856 12.6565 0.0000 35.1624 0.0000
# 6 0.0000 0.0000 0.0000 -2.3058 0.0000 18.5773
#
#
#
# Elastic Compliance Matrix: (Units=1/GPa)
#
#
# Indices 1 2 3 4 5 6 
#
# 1 0.024906 -0.011471 -0.004157 0.000000 -0.006577 0.000000
# 2 -0.011471 0.029189 -0.007651 0.000000 0.022371 0.000000
# 3 -0.004157 -0.007651 0.015123 0.000000 -0.010458 0.000000
# 4 0.000000 0.000000 0.000000 0.041106 0.000000 0.005102
# 5 -0.006577 0.022371 -0.010458 0.000000 0.047200 0.000000
# 6 0.000000 0.000000 0.000000 0.005102 0.000000 0.054462
#
#
# Mechanical properties :
#
#
# Convention : Reuss Voigt Hill
#
# Bulk Modulus (GPa) = 44.12889 46.84248 45.48569
# Shear Modulus (GPa) = 18.79002 24.82084 21.80543
#
# Velocity S-wave (km/s) = 3.13242 3.60019 3.37442
# Velocity P-wave (km/s) = 6.01055 6.46086 6.23977
#
# Compressibility (1/GPa) = 0.02266089
#
# Stress axis : x y z
#
# Youngs Moduli (GPa) = 40.15048 34.25911 66.12315
#
# Poissons Ratio (x) = 0.39300 0.27485
# Poissons Ratio (y) = 0.46058 0.50591
# Poissons Ratio (z) = 0.16689 0.26212
#
# Static dielectric constant tensor:
#      x y z
#    x 1.658110 0.000000 0.014790 
#    y 0.000000 1.732620 0.000000 
#    z 0.014790 0.000000 1.700720 
# 
# From -- ./inp_files/24931.got.cif
#   From: 2010.05.17/outbox.cif.g08.bks.cpg/sg12_13_cif.got.tgz:24931.got - 2010.06.03 13:09:07.
