data_PCOD9182784
_publ_section_title
;
Structure prediction by ZEFSAII (Michael W. Deem and Ramdas Pophale) SiO2 
 PCOD9182784
Probable space group: C 2/M
;
_chemical_formula_sum "Si O2"
_cell_formula_units_Z 56
_cell_length_a 13.638658
_cell_length_b 7.892693
_cell_length_c 26.036658
_cell_angle_alpha 90.000000
_cell_angle_beta 48.635220
_cell_angle_gamma 90.000000
_cell_volume 2103.501745
_symmetry_space_group_name_H-M "C 2/M"
_symmetry_group_IT_number 12
_symmetry_cell_setting 'monoclinic'
loop_
_space_group_symop_operation_xyz
x,y,z
-x,y,-z
-x,-y,-z
x,-y,z
1/2+x,1/2+y,z
1/2-x,1/2+y,-z
1/2-x,1/2-y,-z
1/2+x,1/2-y,z
loop_
_atom_site_type_symbol
_atom_site_label
_atom_site_fract_x
_atom_site_fract_y
_atom_site_fract_z
Si Si1 0.124342 0.312840 0.663281
Si Si2 0.253583 0.706509 0.764684
Si Si3 0.481032 0.314291 0.622711
Si Si4 0.522218 0.795722 0.909255
Si Si5 0.564568 0.296918 0.197482
Si Si6 0.141433 0.312932 0.476270
Si Si7 0.206127 0.704166 0.946478
O O1 0.079720 0.500000 0.663503
O O2 0.047817 0.179940 0.655077
O O3 0.271147 0.295340 0.592507
O O4 0.073869 0.283857 0.738260
O O5 0.248496 0.500000 0.761059
O O6 0.341579 0.770132 0.685795
O O7 0.110273 0.771452 0.831505
O O8 0.340901 0.739473 0.785862
O O9 0.454616 0.500000 0.610490
O O10 0.598010 0.239606 0.548128
O O11 0.614081 0.771235 0.927980
O O12 0.511651 0.000000 0.906758
O O13 0.380787 0.726789 0.976242
O O14 0.551432 0.500000 0.198030
O O15 0.651072 0.229979 0.119829
O O16 0.198926 0.500000 0.459001
O O17 0.000000 0.320901 0.500000
O O18 0.216854 0.500000 0.948570
#
# Coordination Sequence:
#
# PCOD9182784 Si02
#       7
#     8   8   8   8   8   8   8
#     4  11  21  33  51  73  97 126 160 195 232 277
#     4   7  11  19  34  58  87 117 148 185 223 261
#     4  10  19  33  53  75  99 126 158 194 232 276
#     4   7   8  12  24  48  81 113 146 181 219 258
#     4   8  13  23  38  59  87 118 154 192 229 266
#     4  11  24  40  55  71  93 120 151 191 239 288
#     4   7   9  13  26  49  79 114 148 184 221 259
#
# _framework density 26.622273
#
# number of rings (size 3 to 8) (size 9 to 14) (size 15 to 20)
#    0.000    3.286    0.000    6.000    0.000    1.143 
#    0.000    0.000    0.000    0.000    0.000   19.000 
#    0.000    1.143    0.000    2.286    0.000    7.000 
#
# Total GULP energy -156169.474710 kJ/mol
# GULP energy per Si atom -5577.481240 kJ/mol
# Density = 2.656168 g / cm^3
# Si number density = 26.622273 Si / 1000 Ang^3
#
#
#
# Elastic Constant Matrix: (Units=GPa)
#
#
# Indices 1 2 3 4 5 6 
#
# 1 52.5903 3.6580 52.2639 0.0000 -14.1862 0.0000
# 2 3.6580 65.4732 33.2644 0.0000 -4.8194 0.0001
# 3 52.2639 33.2644 311.2404 0.0000 -34.7523 0.0000
# 4 0.0000 0.0000 0.0000 26.7350 0.0000 -0.3319
# 5 -14.1862 -4.8194 -34.7523 0.0000 66.5968 0.0000
# 6 0.0000 0.0001 0.0000 -0.3319 0.0000 11.2598
#
#
#
# Elastic Compliance Matrix: (Units=1/GPa)
#
#
# Indices 1 2 3 4 5 6 
#
# 1 0.023456 0.000786 -0.003673 0.000000 0.003137 0.000000
# 2 0.000786 0.016182 -0.001818 0.000000 0.000390 0.000000
# 3 -0.003673 -0.001818 0.004165 0.000000 0.001259 0.000000
# 4 0.000000 0.000000 0.000000 0.037418 0.000000 0.001103
# 5 0.003137 0.000390 0.001259 0.000000 0.016369 0.000000
# 6 0.000000 0.000000 0.000000 0.001103 0.000000 0.088844
#
#
# Mechanical properties :
#
#
# Convention : Reuss Voigt Hill
#
# Bulk Modulus (GPa) = 29.07470 67.51958 48.29714
# Shear Modulus (GPa) = 24.11880 43.59282 33.85581
#
# Velocity S-wave (km/s) = 3.01319 4.05094 3.56997
# Velocity P-wave (km/s) = 4.80111 6.87730 5.93076
#
# Compressibility (1/GPa) = 0.03439416
#
# Stress axis : x y z
#
# Youngs Moduli (GPa) = 42.63263 61.79767 240.12111
#
# Poissons Ratio (x) = -0.04859 0.88186
# Poissons Ratio (y) = -0.03352 0.43653
# Poissons Ratio (z) = 0.15657 0.11235
#
# Static dielectric constant tensor:
#      x y z
#    x 2.389040 0.000000 0.221270 
#    y 0.000000 1.965870 0.000000 
#    z 0.221270 0.000000 2.496120 
# 
# From -- ./inp_files/377634.got.cif
#   From: 2010.05.17/outbox.cif.g08.bks.cpg/sg12_189_cif.got.tgz:377634.got - 2010.06.03 13:09:07.
