data_PCOD9182963
_publ_section_title
;
Structure prediction by ZEFSAII (Michael W. Deem and Ramdas Pophale) SiO2 
 PCOD9182963
Probable space group: C 2/M
;
_chemical_formula_sum "Si O2"
_cell_formula_units_Z 44
_cell_length_a 18.239157
_cell_length_b 8.175416
_cell_length_c 13.870697
_cell_angle_alpha 90.000000
_cell_angle_beta 61.916596
_cell_angle_gamma 90.000000
_cell_volume 1824.782475
_symmetry_space_group_name_H-M "C 2/M"
_symmetry_group_IT_number 12
_symmetry_cell_setting 'monoclinic'
loop_
_space_group_symop_operation_xyz
x,y,z
-x,y,-z
-x,-y,-z
x,-y,z
1/2+x,1/2+y,z
1/2-x,1/2+y,-z
1/2-x,1/2-y,-z
1/2+x,1/2-y,z
loop_
_atom_site_type_symbol
_atom_site_label
_atom_site_fract_x
_atom_site_fract_y
_atom_site_fract_z
Si Si1 0.082710 0.692824 0.741193
Si Si2 0.636973 0.822287 0.012986
Si Si3 0.675540 0.314069 0.180364
Si Si4 0.560135 0.304068 0.549998
Si Si5 0.000000 0.774714 0.000000
Si Si6 0.272784 0.699847 0.641228
O O1 0.087972 0.500000 0.721910
O O2 0.038164 0.764449 0.673874
O O3 0.178207 0.758744 0.689114
O O4 0.037596 0.717098 0.871703
O O5 0.632211 0.800148 0.129639
O O6 0.600886 0.000000 0.004374
O O7 0.730737 0.825003 0.919231
O O8 0.588323 0.678173 0.990523
O O9 0.641360 0.500000 0.202502
O O10 0.687021 0.253654 0.280939
O O11 0.500000 0.243784 0.500000
O O12 0.561009 0.500000 0.539799
O O13 0.656052 0.246280 0.477128
O O14 0.268519 0.500000 0.644497
#
# Coordination Sequence:
#
# PCOD9182963 Si02
#       6
#     8   8   8   8   4   8
#     4  11  22  39  63  88 117 155 198 240 287 348
#     4  10  19  33  53  80 114 151 189 232 283 340
#     4   9  18  34  56  80 110 150 192 231 283 346
#     4  10  23  42  62  86 118 155 195 243 296 345
#     4  12  23  38  61  90 123 156 191 240 297 348
#     4   9  18  37  62  84 112 154 194 233 290 350
#
# _framework density 24.112463000000002
#
# number of rings (size 3 to 8) (size 9 to 14) (size 15 to 20)
#    0.000    2.000    1.818    2.182    2.545    0.364 
#    0.000    3.636    0.000    0.000    0.000    0.000 
#    0.000    0.000    0.000    0.000    0.000    0.000 
#
# Total GULP energy -122488.056441 kJ/mol
# GULP energy per Si atom -5567.638929 kJ/mol
# Density = 2.405758 g / cm^3
# Si number density = 24.112463 Si / 1000 Ang^3
#
#
#
# Elastic Constant Matrix: (Units=GPa)
#
#
# Indices 1 2 3 4 5 6 
#
# 1 94.1888 19.0613 55.2930 0.0000 6.1294 0.0000
# 2 19.0613 39.3541 13.2552 0.0000 4.1135 0.0000
# 3 55.2930 13.2552 153.3309 0.0000 10.2216 0.0000
# 4 0.0000 0.0000 0.0000 79.2333 0.0000 -110.4919
# 5 6.1294 4.1135 10.2216 0.0000 53.9937 0.0000
# 6 0.0000 0.0000 0.0000 -110.4919 0.0000 202.2292
#
#
#
# Elastic Compliance Matrix: (Units=1/GPa)
#
#
# Indices 1 2 3 4 5 6 
#
# 1 0.014517 -0.005398 -0.004746 0.000000 -0.000338 0.000000
# 2 -0.005398 0.028314 -0.000403 0.000000 -0.001468 0.000000
# 3 -0.004746 -0.000403 0.008335 0.000000 -0.001008 0.000000
# 4 0.000000 0.000000 0.000000 0.053011 0.000000 0.028964
# 5 -0.000338 -0.001468 -0.001008 0.000000 0.018862 0.000000
# 6 0.000000 0.000000 0.000000 0.028964 0.000000 0.020770
#
#
# Mechanical properties :
#
#
# Convention : Reuss Voigt Hill
#
# Bulk Modulus (GPa) = 33.25267 51.34364 42.29816
# Shear Modulus (GPa) = 28.58321 80.37553 54.47937
#
# Velocity S-wave (km/s) = 3.44672 5.77979 4.75846
# Velocity P-wave (km/s) = 5.44614 8.11671 6.91163
#
# Compressibility (1/GPa) = 0.03007277
#
# Stress axis : x y z
#
# Youngs Moduli (GPa) = 68.88262 35.31823 119.97015
#
# Poissons Ratio (x) = 0.19064 0.56938
# Poissons Ratio (y) = 0.37181 0.04839
# Poissons Ratio (z) = 0.32692 0.01425
#
# Static dielectric constant tensor:
#      x y z
#    x 1.959680 0.000000 -0.026300 
#    y 0.000000 2.204170 0.000000 
#    z -0.026300 0.000000 1.902040 
# 
# From -- ./inp_files/153437.got.cif
#   From: 2010.05.17/outbox.cif.g08.bks.cpg/sg12_77_cif.got.tgz:153437.got - 2010.06.03 13:09:07.
