data_PCOD9182236
_publ_section_title
;
Structure prediction by ZEFSAII (Michael W. Deem and Ramdas Pophale) SiO2 
 PCOD9182236
Probable space group: C 2/M
;
_chemical_formula_sum "Si O2"
_cell_formula_units_Z 48
_cell_length_a 8.700365
_cell_length_b 17.127655
_cell_length_c 17.617728
_cell_angle_alpha 90.000000
_cell_angle_beta 54.129675
_cell_angle_gamma 90.000000
_cell_volume 2127.430394
_symmetry_space_group_name_H-M "C 2/M"
_symmetry_group_IT_number 12
_symmetry_cell_setting 'monoclinic'
loop_
_space_group_symop_operation_xyz
x,y,z
-x,y,-z
-x,-y,-z
x,-y,z
1/2+x,1/2+y,z
1/2-x,1/2+y,-z
1/2-x,1/2-y,-z
1/2+x,1/2-y,z
loop_
_atom_site_type_symbol
_atom_site_label
_atom_site_fract_x
_atom_site_fract_y
_atom_site_fract_z
Si Si1 0.801136 0.887736 0.209859
Si Si2 0.771013 0.912271 0.891413
Si Si3 0.627814 0.795842 0.804127
Si Si4 0.703776 0.699837 0.406930
Si Si5 0.782151 0.847469 0.057675
Si Si6 0.958969 0.636411 0.589579
O O1 0.801339 0.792642 0.207699
O O2 0.776261 0.908792 0.129093
O O3 0.641134 0.910310 0.314869
O O4 0.002260 0.913046 0.183072
O O5 0.688442 0.852556 0.854362
O O6 0.697031 0.000000 0.902470
O O7 0.748406 0.883620 0.984778
O O8 0.716435 0.827093 0.698818
O O9 0.398584 0.792620 0.874361
O O10 0.500000 0.672493 0.500000
O O11 0.676240 0.792547 0.400572
O O12 0.861876 0.677608 0.422322
O O13 0.000000 0.815280 0.000000
O O14 0.000000 0.592218 0.500000
#
# Coordination Sequence:
#
# PCOD9182236 Si02
#       6
#     8   8   8   8   8   8
#     4  10  22  38  63  95 128 167 214 265 318 377
#     4  11  26  42  64  92 129 171 214 265 326 386
#     4  11  22  38  64  95 130 166 217 264 316 380
#     4  10  20  32  57  95 131 166 203 264 323 376
#     4  10  22  39  57  85 121 162 212 260 311 371
#     4  10  19  32  57  93 132 165 205 262 321 380
#
# _framework density 22.562429000000002
#
# number of rings (size 3 to 8) (size 9 to 14) (size 15 to 20)
#    0.000    1.667    1.667    3.500    9.333   11.667 
#    0.000    0.000    0.000    1.000    0.000    0.000 
#    0.000    0.000    0.000    0.000    0.000    0.000 
#
# Total GULP energy -133986.560115 kJ/mol
# GULP energy per Si atom -5582.773338 kJ/mol
# Density = 2.251108 g / cm^3
# Si number density = 22.562429 Si / 1000 Ang^3
#
#
#
# Elastic Constant Matrix: (Units=GPa)
#
#
# Indices 1 2 3 4 5 6 
#
# 1 86.9708 49.2267 72.7473 0.0002 30.4455 -0.0002
# 2 49.2267 100.9335 33.7644 0.0000 9.9615 0.0000
# 3 72.7473 33.7644 203.8766 0.0000 10.7987 0.0000
# 4 0.0002 0.0000 0.0000 -49.2480 -0.0001 24.2036
# 5 30.4455 9.9615 10.7987 -0.0001 37.5869 0.0001
# 6 -0.0002 0.0000 0.0000 24.2036 0.0001 -18.4395
#
#
#
# Elastic Compliance Matrix: (Units=1/GPa)
#
#
# Indices 1 2 3 4 5 6 
#
# 1 0.031817 -0.010649 -0.008503 0.000000 -0.020506 -0.000001
# 2 -0.010649 0.014255 0.001201 0.000000 0.004503 0.000000
# 3 -0.008503 0.001201 0.007506 0.000000 0.004413 0.000000
# 4 0.000000 0.000000 0.000000 -0.057213 0.000000 -0.075097
# 5 -0.020506 0.004503 0.004413 0.000000 0.040754 0.000001
# 6 -0.000001 0.000000 0.000000 -0.075097 0.000001 -0.152804
#
#
# Mechanical properties :
#
#
# Convention : Reuss Voigt Hill
#
# Bulk Modulus (GPa) = 56.57726 78.13976 67.35851
# Shear Modulus (GPa) = -67.66914 9.71605 -28.97655
#
# Velocity S-wave (km/s) = -5.48243 2.07741 -3.58758
# Velocity P-wave (km/s) = 3.86598 6.36098 3.57185
#
# Compressibility (1/GPa) = 0.01767495
#
# Stress axis : x y z
#
# Youngs Moduli (GPa) = 31.42996 70.14950 133.21863
#
# Poissons Ratio (x) = 0.74704 1.13277
# Poissons Ratio (y) = 0.33470 -0.15993
# Poissons Ratio (z) = 0.26725 -0.08421
#
# Static dielectric constant tensor:
#      x y z
#    x 1.830430 0.000000 -0.009430 
#    y 0.000000 1.849800 0.000000 
#    z -0.009430 0.000000 1.961820 
# 
# From -- ./inp_files/256465.got.cif
#   From: 2010.05.17/outbox.cif.g08.bks.cpg/sg12_129_cif.got.tgz:256465.got - 2010.06.03 13:09:07.
