data_PCOD9182358
_publ_section_title
;
Structure prediction by ZEFSAII (Michael W. Deem and Ramdas Pophale) SiO2 
 PCOD9182358
Probable space group: C 2/M
;
_chemical_formula_sum "Si O2"
_cell_formula_units_Z 56
_cell_length_a 13.371911
_cell_length_b 10.819508
_cell_length_c 25.964242
_cell_angle_alpha 90.000000
_cell_angle_beta 59.187697
_cell_angle_gamma 90.000000
_cell_volume 3226.219570
_symmetry_space_group_name_H-M "C 2/M"
_symmetry_group_IT_number 12
_symmetry_cell_setting 'monoclinic'
loop_
_space_group_symop_operation_xyz
x,y,z
-x,y,-z
-x,-y,-z
x,-y,z
1/2+x,1/2+y,z
1/2-x,1/2+y,-z
1/2-x,1/2-y,-z
1/2+x,1/2-y,z
loop_
_atom_site_type_symbol
_atom_site_label
_atom_site_fract_x
_atom_site_fract_y
_atom_site_fract_z
Si Si1 0.634425 0.140224 0.479211
Si Si2 0.595013 0.139628 0.015760
Si Si3 0.573042 0.640813 0.791875
Si Si4 0.230930 0.643572 0.179270
Si Si5 0.334730 0.705906 0.903603
Si Si6 0.530734 0.857783 0.723051
Si Si7 0.303787 0.860053 0.417022
O O1 0.500000 0.154549 0.500000
O O2 0.648536 0.148932 0.537330
O O3 0.711419 0.249778 0.435036
O O4 0.671321 0.000000 0.454463
O O5 0.610428 0.216545 0.063719
O O6 0.558117 0.000000 0.038239
O O7 0.500000 0.190011 0.000000
O O8 0.722743 0.137462 0.956109
O O9 0.604008 0.500000 0.766735
O O10 0.662622 0.681300 0.812777
O O11 0.443269 0.636180 0.849698
O O12 0.574200 0.747657 0.748504
O O13 0.248389 0.500000 0.162855
O O14 0.216399 0.712368 0.129354
O O15 0.108831 0.656400 0.241889
O O16 0.594101 0.847418 0.651655
O O17 0.552323 0.000000 0.736534
O O18 0.254402 0.000000 0.424145
#
# Coordination Sequence:
#
# PCOD9182358 Si02
#       7
#     8   8   8   8   8   8   8
#     4   9  18  32  52  77 103 134 171 208 247 291
#     4  10  20  32  48  71  97 127 162 199 243 296
#     4  10  20  34  53  76  99 126 166 213 252 288
#     4   9  18  33  52  72  96 130 167 201 246 301
#     4  10  19  33  50  70  98 128 161 202 248 295
#     4   9  19  35  52  72 101 135 167 200 246 303
#     4   9  18  33  51  73 103 135 167 205 247 293
#
# _framework density 17.357776999999999
#
# number of rings (size 3 to 8) (size 9 to 14) (size 15 to 20)
#    0.000    2.571    0.000    1.714    0.000    2.571 
#    0.000    6.429    0.000    6.857    0.000    0.000 
#    0.000    0.000    0.000    0.000    0.000    0.000 
#
# Total GULP energy -155925.362012 kJ/mol
# GULP energy per Si atom -5568.762929 kJ/mol
# Density = 1.731827 g / cm^3
# Si number density = 17.357777 Si / 1000 Ang^3
#
#
#
# Elastic Constant Matrix: (Units=GPa)
#
#
# Indices 1 2 3 4 5 6 
#
# 1 82.8420 36.7168 2.7405 0.0000 3.6933 0.0000
# 2 36.7168 82.9926 36.9804 0.0000 -0.5646 0.0000
# 3 2.7405 36.9804 63.8608 0.0000 -3.6639 0.0000
# 4 0.0000 0.0000 0.0000 26.7956 0.0000 -20.6202
# 5 3.6933 -0.5646 -3.6639 0.0000 10.0666 0.0000
# 6 0.0000 0.0000 0.0000 -20.6202 0.0000 25.6460
#
#
#
# Elastic Compliance Matrix: (Units=1/GPa)
#
#
# Indices 1 2 3 4 5 6 
#
# 1 0.016184 -0.009109 0.004300 0.000000 -0.004883 0.000000
# 2 -0.009109 0.021432 -0.012010 0.000000 0.000173 0.000000
# 3 0.004300 -0.012010 0.022776 0.000000 0.006038 0.000000
# 4 0.000000 0.000000 0.000000 0.097882 0.000000 0.078700
# 5 -0.004883 0.000173 0.006038 0.000000 0.103337 0.000000
# 6 0.000000 0.000000 0.000000 0.078700 0.000000 0.102270
#
#
# Mechanical properties :
#
#
# Convention : Reuss Voigt Hill
#
# Bulk Modulus (GPa) = 37.37800 42.50786 39.94293
# Shear Modulus (GPa) = 12.30202 22.71882 17.51042
#
# Velocity S-wave (km/s) = 2.66509 3.62174 3.17960
# Velocity P-wave (km/s) = 5.57233 6.48318 6.04494
#
# Compressibility (1/GPa) = 0.02675370
#
# Stress axis : x y z
#
# Youngs Moduli (GPa) = 61.78930 46.65913 43.90648
#
# Poissons Ratio (x) = 0.42504 -0.18881
# Poissons Ratio (y) = 0.56286 0.52732
# Poissons Ratio (z) = -0.26572 0.56038
#
# Static dielectric constant tensor:
#      x y z
#    x 1.568960 0.000000 -0.004770 
#    y 0.000000 1.603300 0.000000 
#    z -0.004770 0.000000 1.571730 
# 
# From -- ./inp_files/304239.got.cif
#   From: 2010.05.17/outbox.cif.g08.bks.cpg/sg12_153_cif.got.tgz:304239.got - 2010.06.03 13:09:07.
