data_PCOD9182754
_publ_section_title
;
Structure prediction by ZEFSAII (Michael W. Deem and Ramdas Pophale) SiO2 
 PCOD9182754
Probable space group: C 2/M
;
_chemical_formula_sum "Si O2"
_cell_formula_units_Z 44
_cell_length_a 17.274808
_cell_length_b 9.645996
_cell_length_c 14.044981
_cell_angle_alpha 90.000000
_cell_angle_beta 59.056070
_cell_angle_gamma 90.000000
_cell_volume 2007.253124
_symmetry_space_group_name_H-M "C 2/M"
_symmetry_group_IT_number 12
_symmetry_cell_setting 'monoclinic'
loop_
_space_group_symop_operation_xyz
x,y,z
-x,y,-z
-x,-y,-z
x,-y,z
1/2+x,1/2+y,z
1/2-x,1/2+y,-z
1/2-x,1/2-y,-z
1/2+x,1/2-y,z
loop_
_atom_site_type_symbol
_atom_site_label
_atom_site_fract_x
_atom_site_fract_y
_atom_site_fract_z
Si Si1 0.694729 0.159128 0.866610
Si Si2 0.790627 0.167107 0.335379
Si Si3 0.500000 0.740379 0.000000
Si Si4 0.353310 0.843634 0.810813
Si Si5 0.598432 0.156523 0.443910
Si Si6 0.488816 0.652898 0.218779
O O1 0.698938 0.228167 0.759601
O O2 0.763877 0.252780 0.882393
O O3 0.723068 0.000000 0.847905
O O4 0.590627 0.173007 0.961933
O O5 0.690792 0.202930 0.438089
O O6 0.888340 0.178989 0.322907
O O7 0.786147 0.000000 0.313274
O O8 0.517309 0.655275 0.892544
O O9 0.370652 0.849627 0.685971
O O10 0.440504 0.768406 0.796835
O O11 0.341927 0.000000 0.853772
O O12 0.500000 0.228338 0.500000
O O13 0.581366 0.000000 0.492101
O O14 0.519414 0.500000 0.230166
#
# Coordination Sequence:
#
# PCOD9182754 Si02
#       6
#     8   8   4   8   8   8
#     4  10  19  33  53  75 101 132 167 208 254 300
#     4   8  16  31  51  75 102 134 169 205 249 300
#     4  10  22  36  54  76  98 130 174 212 248 300
#     4  10  21  35  52  76 105 135 168 209 254 298
#     4   8  14  29  54  78  99 130 171 207 244 298
#     4  10  20  35  54  74 101 136 172 210 252 298
#
# _framework density 21.920504000000001
#
# number of rings (size 3 to 8) (size 9 to 14) (size 15 to 20)
#    0.000    2.727    0.000    2.727    0.000    6.545 
#    0.000    0.909    0.000   13.636    0.000    0.000 
#    0.000    0.000    0.000    0.000    0.000    0.000 
#
# Total GULP energy -122492.460053 kJ/mol
# GULP energy per Si atom -5567.839093 kJ/mol
# Density = 2.187061 g / cm^3
# Si number density = 21.920504 Si / 1000 Ang^3
#
#
#
# Elastic Constant Matrix: (Units=GPa)
#
#
# Indices 1 2 3 4 5 6 
#
# 1 125.0168 71.9396 27.7100 0.0000 -59.5591 0.0000
# 2 71.9396 150.0800 32.8326 0.0000 -27.3192 0.0000
# 3 27.7100 32.8326 70.8095 0.0000 -29.6429 0.0000
# 4 0.0000 0.0000 0.0000 9.1833 0.0000 -5.2901
# 5 -59.5591 -27.3192 -29.6429 0.0000 56.5740 0.0000
# 6 0.0000 0.0000 0.0000 -5.2901 0.0000 27.7619
#
#
#
# Elastic Compliance Matrix: (Units=1/GPa)
#
#
# Indices 1 2 3 4 5 6 
#
# 1 0.021257 -0.007214 0.003762 0.000000 0.020866 0.000000
# 2 -0.007214 0.010100 -0.003840 0.000000 -0.004729 0.000000
# 3 0.003762 -0.003840 0.019615 0.000000 0.012383 0.000000
# 4 0.000000 0.000000 0.000000 0.122321 0.000000 0.023309
# 5 0.020866 -0.004729 0.012383 0.000000 0.043848 0.000000
# 6 0.000000 0.000000 0.000000 0.023309 0.000000 0.040462
#
#
# Mechanical properties :
#
#
# Convention : Reuss Voigt Hill
#
# Bulk Modulus (GPa) = 27.48213 67.87452 47.67832
# Shear Modulus (GPa) = 17.58598 32.93212 25.25905
#
# Velocity S-wave (km/s) = 2.83550 3.88021 3.39824
# Velocity P-wave (km/s) = 4.82540 7.14884 6.09878
#
# Compressibility (1/GPa) = 0.03638728
#
# Stress axis : x y z
#
# Youngs Moduli (GPa) = 47.04268 99.00690 50.98173
#
# Poissons Ratio (x) = 0.71425 -0.19177
# Poissons Ratio (y) = 0.33937 0.19577
# Poissons Ratio (z) = -0.17695 0.38019
#
# Static dielectric constant tensor:
#      x y z
#    x 1.881830 0.000000 -0.004690 
#    y 0.000000 1.766250 0.000000 
#    z -0.004690 0.000000 1.854100 
# 
# From -- ./inp_files/274849.got.cif
#   From: 2010.05.17/outbox.cif.g08.bks.cpg/sg12_138_cif.got.tgz:274849.got - 2010.06.03 13:09:07.
