data_PCOD9182541
_publ_section_title
;
Structure prediction by ZEFSAII (Michael W. Deem and Ramdas Pophale) SiO2 
 PCOD9182541
Probable space group: C 2/M
;
_chemical_formula_sum "Si O2"
_cell_formula_units_Z 64
_cell_length_a 30.675781
_cell_length_b 8.948520
_cell_length_c 15.228273
_cell_angle_alpha 90.000000
_cell_angle_beta 78.676724
_cell_angle_gamma 90.000000
_cell_volume 4098.836409
_symmetry_space_group_name_H-M "C 2/M"
_symmetry_group_IT_number 12
_symmetry_cell_setting 'monoclinic'
loop_
_space_group_symop_operation_xyz
x,y,z
-x,y,-z
-x,-y,-z
x,-y,z
1/2+x,1/2+y,z
1/2-x,1/2+y,-z
1/2-x,1/2-y,-z
1/2+x,1/2-y,z
loop_
_atom_site_type_symbol
_atom_site_label
_atom_site_fract_x
_atom_site_fract_y
_atom_site_fract_z
Si Si1 0.558538 0.178391 0.625169
Si Si2 0.291308 0.822375 0.367276
Si Si3 0.433590 0.178231 0.088621
Si Si4 0.099720 0.678306 0.416468
Si Si5 0.036962 0.822491 0.298780
Si Si6 0.966335 0.321691 0.884310
Si Si7 0.623658 0.677792 0.744144
Si Si8 0.301241 0.178553 0.570412
O O1 0.576596 0.205041 0.519935
O O2 0.509689 0.245764 0.656244
O O3 0.591777 0.251402 0.682103
O O4 0.557346 0.000000 0.640749
O O5 0.327200 0.739739 0.293433
O O6 0.303279 0.790242 0.464916
O O7 0.241220 0.764259 0.375115
O O8 0.294173 0.000000 0.353528
O O9 0.481712 0.207953 0.114188
O O10 0.396471 0.267200 0.155745
O O11 0.425841 0.000000 0.099311
O O12 0.439340 0.214624 0.983588
O O13 0.096562 0.500000 0.400658
O O14 0.074207 0.766745 0.351514
O O15 0.151613 0.718018 0.405710
O O16 0.047223 0.767707 0.196193
O O17 0.032216 0.000000 0.303634
O O18 0.962433 0.500000 0.870332
O O19 0.622697 0.500000 0.738254
O O20 0.294527 0.000000 0.581967
#
# Coordination Sequence:
#
# PCOD9182541 Si02
#       8
#     8   8   8   8   8   8   8   8
#     4  11  21  36  52  69  98 139 181 212 245 295
#     4  10  19  33  52  74 101 134 167 205 255 305
#     4   9  18  33  54  75  97 130 170 209 250 303
#     4  10  21  37  54  70  96 139 180 212 249 295
#     4  12  24  34  48  75 105 135 172 214 255 295
#     4   9  18  34  54  73  96 132 172 208 250 300
#     4  12  22  31  49  78 107 136 166 206 256 302
#     4   9  18  34  52  74  98 128 172 215 253 293
#
# _framework density 15.614186999999999
#
# number of rings (size 3 to 8) (size 9 to 14) (size 15 to 20)
#    0.000    1.750    2.500    4.125    0.000    4.000 
#    0.000    1.250    0.000    0.000    0.000    0.875 
#    0.000    0.000    0.000    0.000    0.000    0.000 
#
# Total GULP energy -178698.645276 kJ/mol
# GULP energy per Si atom -5584.332665 kJ/mol
# Density = 1.557865 g / cm^3
# Si number density = 15.614187 Si / 1000 Ang^3
#
#
#
# Elastic Constant Matrix: (Units=GPa)
#
#
# Indices 1 2 3 4 5 6 
#
# 1 96.5474 59.5016 67.9291 0.0000 -11.5262 0.0000
# 2 59.5016 84.8877 72.4303 0.0000 -11.6445 0.0000
# 3 67.9291 72.4303 101.4273 0.0000 -14.6818 0.0000
# 4 0.0000 0.0000 0.0000 9.9864 0.0000 -1.9189
# 5 -11.5262 -11.6445 -14.6818 0.0000 21.0196 0.0000
# 6 0.0000 0.0000 0.0000 -1.9189 0.0000 26.5524
#
#
#
# Elastic Compliance Matrix: (Units=1/GPa)
#
#
# Indices 1 2 3 4 5 6 
#
# 1 0.021133 -0.006954 -0.008976 0.000000 0.001467 0.000000
# 2 -0.006954 0.032506 -0.018357 0.000000 0.001373 0.000000
# 3 -0.008976 -0.018357 0.029809 0.000000 0.005730 0.000000
# 4 0.000000 0.000000 0.000000 0.101546 0.000000 0.007339
# 5 0.001467 0.001373 0.005730 0.000000 0.053142 0.000000
# 6 0.000000 0.000000 0.000000 0.007339 0.000000 0.038192
#
#
# Mechanical properties :
#
#
# Convention : Reuss Voigt Hill
#
# Bulk Modulus (GPa) = 67.22482 75.84271 71.53377
# Shear Modulus (GPa) = 14.29152 17.04511 15.66832
#
# Velocity S-wave (km/s) = 3.02866 3.30759 3.17119
# Velocity P-wave (km/s) = 7.44161 7.95394 7.70204
#
# Compressibility (1/GPa) = 0.01487546
#
# Stress axis : x y z
#
# Youngs Moduli (GPa) = 47.31859 30.76391 33.54715
#
# Poissons Ratio (x) = 0.21392 0.30111
# Poissons Ratio (y) = 0.32903 0.61582
# Poissons Ratio (z) = 0.42472 0.56473
#
# Static dielectric constant tensor:
#      x y z
#    x 1.500520 0.000000 -0.008190 
#    y 0.000000 1.515810 0.000000 
#    z -0.008190 0.000000 1.513690 
# 
# From -- ./inp_files/244001.got.cif
#   From: 2010.05.17/outbox.cif.g08.bks.cpg/sg12_123_cif.got.tgz:244001.got - 2010.06.03 13:09:07.
