data_PCOD9182237
_publ_section_title
;
Structure prediction by ZEFSAII (Michael W. Deem and Ramdas Pophale) SiO2 
 PCOD9182237
Probable space group: C 2/M
;
_chemical_formula_sum "Si O2"
_cell_formula_units_Z 56
_cell_length_a 9.197246
_cell_length_b 20.436934
_cell_length_c 14.482650
_cell_angle_alpha 90.000000
_cell_angle_beta 87.803283
_cell_angle_gamma 90.000000
_cell_volume 2720.209208
_symmetry_space_group_name_H-M "C 2/M"
_symmetry_group_IT_number 12
_symmetry_cell_setting 'monoclinic'
loop_
_space_group_symop_operation_xyz
x,y,z
-x,y,-z
-x,-y,-z
x,-y,z
1/2+x,1/2+y,z
1/2-x,1/2+y,-z
1/2-x,1/2-y,-z
1/2+x,1/2-y,z
loop_
_atom_site_type_symbol
_atom_site_label
_atom_site_fract_x
_atom_site_fract_y
_atom_site_fract_z
Si Si1 0.567429 0.077279 0.745135
Si Si2 0.048182 0.807344 0.893026
Si Si3 0.524821 0.396014 0.398692
Si Si4 0.329996 0.832012 0.424053
Si Si5 0.114214 0.928779 0.198129
Si Si6 0.755563 0.191524 0.378761
Si Si7 0.628211 0.187290 0.184057
O O1 0.597326 0.116157 0.647516
O O2 0.713071 0.083986 0.803400
O O3 0.441538 0.115579 0.802427
O O4 0.541065 0.000000 0.729798
O O5 0.222123 0.810898 0.876774
O O6 0.973327 0.869029 0.843640
O O7 0.986117 0.740276 0.850446
O O8 0.000000 0.808896 0.000000
O O9 0.500000 0.427651 0.500000
O O10 0.655046 0.344853 0.416174
O O11 0.578598 0.433363 0.307952
O O12 0.374539 0.364846 0.368958
O O13 0.347947 0.830950 0.534421
O O14 0.347453 0.756826 0.396632
O O15 0.083380 0.000000 0.156041
O O16 0.672313 0.205194 0.287269
#
# Coordination Sequence:
#
# PCOD9182237 Si02
#       7
#     8   8   8   8   8   8   8
#     4  10  23  42  64  93 134 183 222 265 324 389
#     4  12  26  45  71  99 127 164 215 277 345 401
#     4   9  17  33  55  89 126 168 210 256 307 375
#     4   9  19  33  56  87 133 171 222 257 313 377
#     4  10  21  41  65  92 129 170 212 261 322 390
#     4  10  19  32  57  94 126 171 214 269 318 375
#     4  12  24  42  67  93 129 163 215 273 331 394
#
# _framework density 20.586652000000001
#
# number of rings (size 3 to 8) (size 9 to 14) (size 15 to 20)
#    0.000    1.714    1.429    3.857    2.000    1.714 
#    0.000    3.571    0.000    2.143    0.000    0.000 
#    0.000    0.000    0.000    0.000    0.000    0.000 
#
# Total GULP energy -156246.315939 kJ/mol
# GULP energy per Si atom -5580.225569 kJ/mol
# Density = 2.053980 g / cm^3
# Si number density = 20.586652 Si / 1000 Ang^3
#
#
#
# Elastic Constant Matrix: (Units=GPa)
#
#
# Indices 1 2 3 4 5 6 
#
# 1 98.6658 41.1271 31.1493 0.0000 -34.0153 0.0000
# 2 41.1271 113.0463 24.9139 0.0000 -11.0689 0.0000
# 3 31.1493 24.9139 78.2084 0.0000 -14.7159 0.0000
# 4 0.0000 0.0000 0.0000 -12.0867 0.0000 3.4580
# 5 -34.0153 -11.0689 -14.7159 0.0000 27.7536 0.0000
# 6 0.0000 0.0000 0.0000 3.4580 0.0000 -6.9564
#
#
#
# Elastic Compliance Matrix: (Units=1/GPa)
#
#
# Indices 1 2 3 4 5 6 
#
# 1 0.020424 -0.004740 -0.002522 0.000000 0.021805 0.000000
# 2 -0.004740 0.010764 -0.002029 0.000000 -0.002592 0.000000
# 3 -0.002522 -0.002029 0.015222 0.000000 0.004171 0.000000
# 4 0.000000 0.000000 0.000000 -0.096453 0.000000 -0.047947
# 5 0.021805 -0.002592 0.004171 0.000000 0.063934 0.000000
# 6 0.000000 0.000000 0.000000 -0.047947 0.000000 -0.167587
#
#
# Mechanical properties :
#
#
# Convention : Reuss Voigt Hill
#
# Bulk Modulus (GPa) = 35.93375 53.81120 44.87248
# Shear Modulus (GPa) = -39.73326 14.59077 -12.57124
#
# Velocity S-wave (km/s) = -4.39800 2.66512 -2.47381
# Velocity P-wave (km/s) = 2.88047 5.97211 3.69926
#
# Compressibility (1/GPa) = 0.02782899
#
# Stress axis : x y z
#
# Youngs Moduli (GPa) = 48.96093 92.90569 65.69465
#
# Poissons Ratio (x) = 0.44035 0.16568
# Poissons Ratio (y) = 0.23206 0.13328
# Poissons Ratio (z) = 0.12348 0.18849
#
# Static dielectric constant tensor:
#      x y z
#    x 1.795420 0.000000 -0.012850 
#    y 0.000000 1.723160 0.000000 
#    z -0.012850 0.000000 1.744760 
# 
# From -- ./inp_files/197535.got.cif
#   From: 2010.05.17/outbox.cif.g08.bks.cpg/sg12_99_cif.got.tgz:197535.got - 2010.06.03 13:09:07.
