data_PCOD9182025
_publ_section_title
;
Structure prediction by ZEFSAII (Michael W. Deem and Ramdas Pophale) SiO2 
 PCOD9182025
Probable space group: C 2/M
;
_chemical_formula_sum "Si O2"
_cell_formula_units_Z 64
_cell_length_a 8.754856
_cell_length_b 19.134726
_cell_length_c 22.940519
_cell_angle_alpha 90.000000
_cell_angle_beta 114.053270
_cell_angle_gamma 90.000000
_cell_volume 3509.333622
_symmetry_space_group_name_H-M "C 2/M"
_symmetry_group_IT_number 12
_symmetry_cell_setting 'monoclinic'
loop_
_space_group_symop_operation_xyz
x,y,z
-x,y,-z
-x,-y,-z
x,-y,z
1/2+x,1/2+y,z
1/2-x,1/2+y,-z
1/2-x,1/2-y,-z
1/2+x,1/2-y,z
loop_
_atom_site_type_symbol
_atom_site_label
_atom_site_fract_x
_atom_site_fract_y
_atom_site_fract_z
Si Si1 0.436553 0.834490 0.321265
Si Si2 0.219107 0.775648 0.389030
Si Si3 0.495124 0.418844 0.930560
Si Si4 0.281965 0.081387 0.687354
Si Si5 0.636443 0.918755 0.065869
Si Si6 0.757253 0.317898 0.175485
Si Si7 0.477656 0.649658 0.433753
Si Si8 0.880752 0.334533 0.818743
O O1 0.321843 0.823645 0.359945
O O2 0.556805 0.764872 0.336091
O O3 0.570078 0.896674 0.334694
O O4 0.312453 0.843326 0.247903
O O5 0.349374 0.714338 0.424998
O O6 0.145223 0.818514 0.431538
O O7 0.437533 0.500000 0.915824
O O8 0.682188 0.414419 0.934986
O O9 0.379177 0.366384 0.876471
O O10 0.500000 0.402047 0.000000
O O11 0.111287 0.101676 0.628217
O O12 0.306226 0.129273 0.748796
O O13 0.290816 0.000000 0.703595
O O14 0.637862 0.883383 0.128524
O O15 0.592675 0.000000 0.067773
O O16 0.500000 0.887954 0.000000
O O17 0.700835 0.238942 0.177581
O O18 0.924836 0.321141 0.163616
O O19 0.500000 0.614841 0.500000
#
# Coordination Sequence:
#
# PCOD9182025 Si02
#       8
#     8   8   8   8   8   8   8   8
#     4   9  18  33  55  79 107 140 178 226 275 333
#     4   9  17  33  55  82 112 141 178 228 285 332
#     4  10  22  39  57  81 114 148 183 224 271 328
#     4  10  22  38  55  77 111 151 186 227 280 336
#     4  10  21  38  59  81 109 147 188 227 270 325
#     4  11  21  34  57  83 109 141 180 229 279 327
#     4  10  19  32  55  83 112 146 186 232 279 332
#     4  11  22  37  58  83 111 142 182 229 281 332
#
# _framework density 18.237081
#
# number of rings (size 3 to 8) (size 9 to 14) (size 15 to 20)
#    0.000    2.000    0.000    5.250    0.000    5.250 
#    0.000    3.125    0.000    0.750    0.000    0.000 
#    0.000    0.000    0.000    0.000    0.000    0.000 
#
# Total GULP energy -178511.752002 kJ/mol
# GULP energy per Si atom -5578.492250 kJ/mol
# Density = 1.819557 g / cm^3
# Si number density = 18.237081 Si / 1000 Ang^3
#
#
#
# Elastic Constant Matrix: (Units=GPa)
#
#
# Indices 1 2 3 4 5 6 
#
# 1 78.2814 26.5925 32.6192 0.0000 -17.7541 0.0000
# 2 26.5925 70.6176 20.7234 0.0000 -6.0659 0.0000
# 3 32.6192 20.7234 72.2153 0.0000 -9.8334 0.0000
# 4 0.0000 0.0000 0.0000 -211.3270 0.0000 69.0752
# 5 -17.7541 -6.0659 -9.8334 0.0000 22.5197 0.0000
# 6 0.0000 0.0000 0.0000 69.0752 0.0000 -0.4963
#
#
#
# Elastic Compliance Matrix: (Units=1/GPa)
#
#
# Indices 1 2 3 4 5 6 
#
# 1 0.019386 -0.004590 -0.005876 0.000000 0.011481 0.000000
# 2 -0.004590 0.016669 -0.002756 0.000000 -0.000332 0.000000
# 3 -0.005876 -0.002756 0.017607 0.000000 0.002314 0.000000
# 4 0.000000 0.000000 0.000000 0.000106 0.000000 0.014802
# 5 0.011481 -0.000332 0.002314 0.000000 0.054378 0.000000
# 6 0.000000 0.000000 0.000000 0.014802 0.000000 0.045286
#
#
# Mechanical properties :
#
#
# Convention : Reuss Voigt Hill
#
# Bulk Modulus (GPa) = 36.73735 42.33162 39.53449
# Shear Modulus (GPa) = 26.46213 -28.44877 -0.99332
#
# Velocity S-wave (km/s) = 3.81334 -3.95389 -0.73882
# Velocity P-wave (km/s) = 6.29101 1.55495 4.58228
#
# Compressibility (1/GPa) = 0.02722025
#
# Stress axis : x y z
#
# Youngs Moduli (GPa) = 51.58362 59.99072 56.79402
#
# Poissons Ratio (x) = 0.27533 0.33373
# Poissons Ratio (y) = 0.23675 0.15650
# Poissons Ratio (z) = 0.30311 0.16531
#
# Static dielectric constant tensor:
#      x y z
#    x 1.639670 0.000000 0.025480 
#    y 0.000000 1.624710 0.000000 
#    z 0.025480 0.000000 1.644310 
# 
# From -- ./inp_files/301683.got.cif
#   From: 2010.05.17/outbox.cif.g08.bks.cpg/sg12_151_cif.got.tgz:301683.got - 2010.06.03 13:09:07.
