data_PCOD9182147
_publ_section_title
;
Structure prediction by ZEFSAII (Michael W. Deem and Ramdas Pophale) SiO2 
 PCOD9182147
Probable space group: C 2/M
;
_chemical_formula_sum "Si O2"
_cell_formula_units_Z 56
_cell_length_a 19.901899
_cell_length_b 8.940733
_cell_length_c 28.630929
_cell_angle_alpha 90.000000
_cell_angle_beta 37.825815
_cell_angle_gamma 90.000000
_cell_volume 3124.279272
_symmetry_space_group_name_H-M "C 2/M"
_symmetry_group_IT_number 12
_symmetry_cell_setting 'monoclinic'
loop_
_space_group_symop_operation_xyz
x,y,z
-x,y,-z
-x,-y,-z
x,-y,z
1/2+x,1/2+y,z
1/2-x,1/2+y,-z
1/2-x,1/2-y,-z
1/2+x,1/2-y,z
loop_
_atom_site_type_symbol
_atom_site_label
_atom_site_fract_x
_atom_site_fract_y
_atom_site_fract_z
Si Si1 0.363851 0.676994 0.953480
Si Si2 0.516330 0.320001 0.639622
Si Si3 0.574272 0.318150 0.502580
Si Si4 0.619745 0.828331 0.956275
Si Si5 0.326867 0.176726 0.803660
Si Si6 0.514657 0.824374 0.194932
Si Si7 0.827173 0.680738 0.370013
O O1 0.353127 0.500000 0.959357
O O2 0.455800 0.729351 0.866355
O O3 0.250000 0.750000 0.000000
O O4 0.385632 0.736866 0.993039
O O5 0.515623 0.500000 0.643260
O O6 0.529488 0.276138 0.578283
O O7 0.406013 0.253094 0.722508
O O8 0.616219 0.256610 0.616211
O O9 0.500000 0.265090 0.500000
O O10 0.573442 0.500000 0.501290
O O11 0.701969 0.273540 0.430540
O O12 0.709994 0.754159 0.873259
O O13 0.652762 0.000000 0.947862
O O14 0.500000 0.828050 0.000000
O O15 0.389430 0.194406 0.819111
O O16 0.317447 0.000000 0.799853
O O17 0.403691 0.784499 0.283375
O O18 0.510616 0.000000 0.184593
O O19 0.831917 0.500000 0.373960
#
# Coordination Sequence:
#
# PCOD9182147 Si02
#       7
#     8   8   8   8   8   8   8
#     4  12  23  36  59  85 115 152 191 236 283 334
#     4  10  19  32  56  85 111 141 185 235 278 328
#     4   9  18  34  55  81 112 146 184 227 277 334
#     4  11  24  41  60  84 114 149 192 238 284 339
#     4  10  20  36  59  83 114 150 186 230 281 339
#     4   9  18  33  54  83 111 143 188 236 283 329
#     4   9  18  34  57  81 109 145 187 230 277 332
#
# _framework density 17.924133999999999
#
# number of rings (size 3 to 8) (size 9 to 14) (size 15 to 20)
#    0.000    2.000    1.429    3.857    0.000    3.429 
#    2.571    0.714    0.000    3.857    0.000    0.000 
#    0.000    0.000    0.000    0.000    0.000    0.000 
#
# Total GULP energy -156319.175048 kJ/mol
# GULP energy per Si atom -5582.827680 kJ/mol
# Density = 1.788334 g / cm^3
# Si number density = 17.924134 Si / 1000 Ang^3
#
#
#
# Elastic Constant Matrix: (Units=GPa)
#
#
# Indices 1 2 3 4 5 6 
#
# 1 97.4326 47.3997 80.7489 0.0000 4.2846 -0.0001
# 2 47.3997 86.1721 61.2242 -0.0002 2.7909 0.0000
# 3 80.7489 61.2242 144.2129 0.0000 -2.1264 0.0000
# 4 0.0000 -0.0002 0.0000 25.4131 0.0000 2.2889
# 5 4.2846 2.7909 -2.1264 0.0000 23.2140 0.0000
# 6 -0.0001 0.0000 0.0000 2.2889 0.0000 24.5324
#
#
#
# Elastic Compliance Matrix: (Units=1/GPa)
#
#
# Indices 1 2 3 4 5 6 
#
# 1 0.020657 -0.004245 -0.009826 0.000000 -0.004202 0.000000
# 2 -0.004245 0.017653 -0.005144 0.000000 -0.001810 0.000000
# 3 -0.009826 -0.005144 0.014676 0.000000 0.003776 0.000000
# 4 0.000000 0.000000 0.000000 0.039683 0.000000 -0.003703
# 5 -0.004202 -0.001810 0.003776 0.000000 0.044417 0.000000
# 6 0.000000 0.000000 0.000000 -0.003703 0.000000 0.041108
#
#
# Mechanical properties :
#
#
# Convention : Reuss Voigt Hill
#
# Bulk Modulus (GPa) = 68.70490 78.50701 73.60595
# Shear Modulus (GPa) = 22.57570 23.86157 23.21863
#
# Velocity S-wave (km/s) = 3.55281 3.65259 3.60305
# Velocity P-wave (km/s) = 7.43264 7.85387 7.64616
#
# Compressibility (1/GPa) = 0.01455500
#
# Stress axis : x y z
#
# Youngs Moduli (GPa) = 48.40928 56.64657 68.13918
#
# Poissons Ratio (x) = 0.24047 0.66956
# Poissons Ratio (y) = 0.20550 0.35053
# Poissons Ratio (z) = 0.47568 0.29141
#
# Static dielectric constant tensor:
#      x y z
#    x 1.589500 0.000000 -0.005450 
#    y 0.000000 1.601410 0.000000 
#    z -0.005450 0.000000 1.613500 
# 
# From -- ./inp_files/362879.got.cif
#   From: 2010.05.17/outbox.cif.g08.bks.cpg/sg12_182_cif.got.tgz:362879.got - 2010.06.03 13:09:07.
