data_PCOD9182849
_publ_section_title
;
Structure prediction by ZEFSAII (Michael W. Deem and Ramdas Pophale) SiO2 
 PCOD9182849
Probable space group: C 2/M
;
_chemical_formula_sum "Si O2"
_cell_formula_units_Z 64
_cell_length_a 21.212618
_cell_length_b 8.523103
_cell_length_c 25.233346
_cell_angle_alpha 90.000000
_cell_angle_beta 52.336884
_cell_angle_gamma 90.000000
_cell_volume 3611.453137
_symmetry_space_group_name_H-M "C 2/M"
_symmetry_group_IT_number 12
_symmetry_cell_setting 'monoclinic'
loop_
_space_group_symop_operation_xyz
x,y,z
-x,y,-z
-x,-y,-z
x,-y,z
1/2+x,1/2+y,z
1/2-x,1/2+y,-z
1/2-x,1/2-y,-z
1/2+x,1/2-y,z
loop_
_atom_site_type_symbol
_atom_site_label
_atom_site_fract_x
_atom_site_fract_y
_atom_site_fract_z
Si Si1 0.223997 0.811987 0.455786
Si Si2 0.721215 0.689823 0.957856
Si Si3 0.375095 0.188773 0.818490
Si Si4 0.039492 0.189776 0.034799
Si Si5 0.985202 0.811161 0.674985
Si Si6 0.372294 0.687894 0.318996
Si Si7 0.541995 0.691742 0.532193
Si Si8 0.516555 0.187864 0.825613
O O1 0.250000 0.750000 0.500000
O O2 0.287689 0.754298 0.380087
O O3 0.134136 0.759924 0.489071
O O4 0.224516 0.000000 0.457379
O O5 0.721391 0.500000 0.958964
O O6 0.787408 0.740621 0.881054
O O7 0.750000 0.750000 0.000000
O O8 0.631548 0.742276 0.991809
O O9 0.408785 0.250617 0.745850
O O10 0.438690 0.238714 0.831216
O O11 0.376214 0.000000 0.816478
O O12 0.993305 0.249863 0.110151
O O13 0.038710 0.000000 0.036269
O O14 0.000000 0.241110 0.000000
O O15 0.062714 0.762722 0.669650
O O16 0.996695 0.757591 0.608893
O O17 0.983498 0.000000 0.676196
O O18 0.369278 0.500000 0.320181
O O19 0.407655 0.748414 0.245491
O O20 0.500000 0.745026 0.500000
O O21 0.541268 0.500000 0.532449
O O22 0.518436 0.000000 0.824874
#
# Coordination Sequence:
#
# PCOD9182849 Si02
#       8
#     8   8   8   8   8   8   8   8
#     4  11  20  33  54  81 108 140 180 223 267 312
#     4  10  19  33  53  77 105 135 175 219 262 311
#     4   9  18  31  49  76 104 131 166 217 266 302
#     4  10  21  36  54  77 108 147 180 212 264 323
#     4   9  17  31  51  76 101 133 173 210 257 312
#     4  10  19  33  53  80 108 136 176 222 267 316
#     4   9  18  34  54  76 106 141 176 216 261 312
#     4  10  19  33  53  79 107 138 176 219 269 315
#
# _framework density 17.721399000000002
#
# number of rings (size 3 to 8) (size 9 to 14) (size 15 to 20)
#    0.000    2.250    2.500    1.125    0.000    1.750 
#    0.000    1.250    0.000    6.375    0.000    0.000 
#    0.000    0.000    0.000    0.000    0.000    0.000 
#
# Total GULP energy -178535.411268 kJ/mol
# GULP energy per Si atom -5579.231602 kJ/mol
# Density = 1.768106 g / cm^3
# Si number density = 17.721399 Si / 1000 Ang^3
#
#
#
# Elastic Constant Matrix: (Units=GPa)
#
#
# Indices 1 2 3 4 5 6 
#
# 1 116.2340 21.6910 94.6804 -0.0001 2.2251 0.0000
# 2 21.6910 15.2908 28.4761 -0.0003 -0.7400 -0.0004
# 3 94.6804 28.4761 206.9788 0.0000 -4.2159 0.0000
# 4 -0.0001 -0.0003 0.0000 32.4790 0.0000 -2.2373
# 5 2.2251 -0.7400 -4.2159 0.0000 27.4631 -0.0001
# 6 0.0000 -0.0004 0.0000 -2.2373 -0.0001 14.5067
#
#
#
# Elastic Compliance Matrix: (Units=1/GPa)
#
#
# Indices 1 2 3 4 5 6 
#
# 1 0.015231 -0.011638 -0.005415 0.000000 -0.002379 0.000000
# 2 -0.011638 0.096826 -0.007950 0.000001 0.002332 0.000003
# 3 -0.005415 -0.007950 0.008433 0.000000 0.001519 0.000000
# 4 0.000000 0.000001 0.000000 0.031120 0.000000 0.004800
# 5 -0.002379 0.002332 0.001519 0.000000 0.036901 0.000000
# 6 0.000000 0.000003 0.000000 0.004800 0.000000 0.069674
#
#
# Mechanical properties :
#
#
# Convention : Reuss Voigt Hill
#
# Bulk Modulus (GPa) = 14.18744 69.79984 41.99364
# Shear Modulus (GPa) = 15.07450 27.80016 21.43733
#
# Velocity S-wave (km/s) = 2.91973 3.96502 3.48183
# Velocity P-wave (km/s) = 4.40337 7.77397 6.31761
#
# Compressibility (1/GPa) = 0.07048490
#
# Stress axis : x y z
#
# Youngs Moduli (GPa) = 65.65404 10.32780 118.58079
#
# Poissons Ratio (x) = 0.12019 0.64209
# Poissons Ratio (y) = 0.76407 0.94274
# Poissons Ratio (z) = 0.35550 0.08211
#
# Static dielectric constant tensor:
#      x y z
#    x 1.593310 0.000000 -0.010050 
#    y 0.000000 1.606800 0.000000 
#    z -0.010050 0.000000 1.598020 
# 
# From -- ./inp_files/319761.got.cif
#   From: 2010.05.17/outbox.cif.g08.bks.cpg/sg12_160_cif.got.tgz:319761.got - 2010.06.03 13:09:07.
