data_PCOD9182620
_publ_section_title
;
Structure prediction by ZEFSAII (Michael W. Deem and Ramdas Pophale) SiO2 
 PCOD9182620
Probable space group: C 2/M
;
_chemical_formula_sum "Si O2"
_cell_formula_units_Z 64
_cell_length_a 19.179406
_cell_length_b 14.583038
_cell_length_c 12.287657
_cell_angle_alpha 90.000000
_cell_angle_beta 76.641966
_cell_angle_gamma 90.000000
_cell_volume 3343.803062
_symmetry_space_group_name_H-M "C 2/M"
_symmetry_group_IT_number 12
_symmetry_cell_setting 'monoclinic'
loop_
_space_group_symop_operation_xyz
x,y,z
-x,y,-z
-x,-y,-z
x,-y,z
1/2+x,1/2+y,z
1/2-x,1/2+y,-z
1/2-x,1/2-y,-z
1/2+x,1/2-y,z
loop_
_atom_site_type_symbol
_atom_site_label
_atom_site_fract_x
_atom_site_fract_y
_atom_site_fract_z
Si Si1 0.436992 0.389587 0.179445
Si Si2 0.435163 0.739609 0.372275
Si Si3 0.903989 0.889192 0.956606
Si Si4 0.877843 0.393617 0.814445
Si Si5 0.152583 0.611466 0.942165
Si Si6 0.046368 0.605525 0.801917
Si Si7 0.896219 0.757794 0.631297
Si Si8 0.198295 0.890073 0.201856
O O1 0.435133 0.500000 0.190396
O O2 0.413375 0.342000 0.298807
O O3 0.519261 0.360523 0.121321
O O4 0.395127 0.360579 0.084921
O O5 0.426343 0.830964 0.304553
O O6 0.520259 0.726720 0.366517
O O7 0.396036 0.748910 0.501330
O O8 0.842009 0.865276 0.896059
O O9 0.908115 0.000000 0.959334
O O10 0.858689 0.500000 0.799135
O O11 0.872214 0.331007 0.710020
O O12 0.960683 0.391927 0.824725
O O13 0.838606 0.356629 0.936779
O O14 0.152317 0.500000 0.952809
O O15 0.080232 0.636490 0.904203
O O16 0.219402 0.637123 0.842734
O O17 0.068378 0.500000 0.778370
O O18 0.845748 0.839650 0.689201
O O19 0.194383 0.000000 0.216390
#
# Coordination Sequence:
#
# PCOD9182620 Si02
#       8
#     8   8   8   8   8   8   8   8
#     4   9  16  29  49  73 102 133 168 206 245 293
#     4  10  20  33  49  74 102 137 179 210 245 294
#     4   8  15  28  47  72 100 131 164 200 245 294
#     4   9  18  34  54  76 102 130 165 218 264 297
#     4   9  18  33  55  79 102 130 166 207 263 321
#     4   9  18  34  54  76 101 128 167 218 262 300
#     4  10  21  33  48  74 105 136 176 209 243 305
#     4  10  19  33  52  77 109 137 162 203 257 309
#
# _framework density 19.139883999999999
#
# number of rings (size 3 to 8) (size 9 to 14) (size 15 to 20)
#    0.000    2.750    1.250    1.125    0.000    4.000 
#    2.250    4.375    0.000    0.000    0.000    5.250 
#    0.000    0.000    0.000    0.000    0.000    0.000 
#
# Total GULP energy -178422.627068 kJ/mol
# GULP energy per Si atom -5575.707096 kJ/mol
# Density = 1.909632 g / cm^3
# Si number density = 19.139884 Si / 1000 Ang^3
#
#
#
# Elastic Constant Matrix: (Units=GPa)
#
#
# Indices 1 2 3 4 5 6 
#
# 1 14.8340 4.1493 9.4994 0.0000 -5.7089 0.0000
# 2 4.1493 71.9965 49.8105 0.0000 -7.3812 0.0000
# 3 9.4994 49.8105 158.1663 0.0000 1.9085 0.0000
# 4 0.0000 0.0000 0.0000 40.2347 0.0000 1.2999
# 5 -5.7089 -7.3812 1.9085 0.0000 18.0260 0.0000
# 6 0.0000 0.0000 0.0000 1.2999 0.0000 10.7980
#
#
#
# Elastic Compliance Matrix: (Units=1/GPa)
#
#
# Indices 1 2 3 4 5 6 
#
# 1 0.081029 0.002187 -0.005883 0.000000 0.027181 0.000000
# 2 0.002187 0.019009 -0.006228 0.000000 0.009136 0.000000
# 3 -0.005883 -0.006228 0.008702 0.000000 -0.005335 0.000000
# 4 0.000000 0.000000 0.000000 0.024951 0.000000 -0.003004
# 5 0.027181 0.009136 -0.005335 0.000000 0.068389 0.000000
# 6 0.000000 0.000000 0.000000 -0.003004 0.000000 0.092971
#
#
# Mechanical properties :
#
#
# Convention : Reuss Voigt Hill
#
# Bulk Modulus (GPa) = 11.24972 41.32393 26.28683
# Shear Modulus (GPa) = 14.51251 25.91424 20.21337
#
# Velocity S-wave (km/s) = 2.75659 3.68358 3.25327
# Velocity P-wave (km/s) = 4.00277 6.30310 5.27973
#
# Compressibility (1/GPa) = 0.08889110
#
# Stress axis : x y z
#
# Youngs Moduli (GPa) = 12.34124 52.60695 114.92247
#
# Poissons Ratio (x) = -0.11505 0.67613
# Poissons Ratio (y) = -0.02699 0.71573
# Poissons Ratio (z) = 0.07261 0.32763
#
# Static dielectric constant tensor:
#      x y z
#    x 1.673810 0.000000 -0.001840 
#    y 0.000000 1.702090 0.000000 
#    z -0.001840 0.000000 1.652360 
# 
# From -- ./inp_files/167227.got.cif
#   From: 2010.05.17/outbox.cif.g08.bks.cpg/sg12_84_cif.got.tgz:167227.got - 2010.06.03 13:09:07.
