data_PCOD9182624
_publ_section_title
;
Structure prediction by ZEFSAII (Michael W. Deem and Ramdas Pophale) SiO2 
 PCOD9182624
Probable space group: C 2/M
;
_chemical_formula_sum "Si O2"
_cell_formula_units_Z 36
_cell_length_a 16.935247
_cell_length_b 7.287634
_cell_length_c 18.078020
_cell_angle_alpha 90.000000
_cell_angle_beta 138.257639
_cell_angle_gamma 90.000000
_cell_volume 1485.460560
_symmetry_space_group_name_H-M "C 2/M"
_symmetry_group_IT_number 12
_symmetry_cell_setting 'monoclinic'
loop_
_space_group_symop_operation_xyz
x,y,z
-x,y,-z
-x,-y,-z
x,-y,z
1/2+x,1/2+y,z
1/2-x,1/2+y,-z
1/2-x,1/2-y,-z
1/2+x,1/2-y,z
loop_
_atom_site_type_symbol
_atom_site_label
_atom_site_fract_x
_atom_site_fract_y
_atom_site_fract_z
Si Si1 0.139644 0.282032 0.976596
Si Si2 0.750000 0.750000 0.500000
Si Si3 0.754734 0.223431 0.206909
Si Si4 0.615374 0.224077 0.256483
Si Si5 0.486824 0.277189 0.576667
O O1 0.122306 0.500000 0.972668
O O2 0.017174 0.214637 0.856248
O O3 0.250000 0.250000 0.000000
O O4 0.175934 0.212685 0.083038
O O5 0.662268 0.712354 0.367778
O O6 0.633552 0.787715 0.470960
O O7 0.699080 0.276639 0.246403
O O8 0.892078 0.278892 0.297922
O O9 0.754358 0.000000 0.205581
O O10 0.620436 0.000000 0.265416
O O11 0.500000 0.225328 0.500000
O O12 0.477828 0.500000 0.572063
#
# Coordination Sequence:
#
# PCOD9182624 Si02
#       5
#     8   4   8   8   8
#     4  10  20  35  57  85 115 149 194 245 298 353
#     4  12  20  30  54  82 110 148 188 232 294 346
#     4   9  17  33  56  80 106 143 193 243 289 342
#     4  10  20  34  54  82 114 149 192 245 292 344
#     4  10  19  33  52  77 109 142 186 238 284 338
#
# _framework density 24.234908000000001
#
# number of rings (size 3 to 8) (size 9 to 14) (size 15 to 20)
#    0.000    2.000    2.222    2.667    0.000    2.667 
#    0.000    1.111    0.000    8.000    0.000    0.000 
#    0.000    0.000    0.000    0.000    0.000    0.000 
#
# Total GULP energy -100232.174966 kJ/mol
# GULP energy per Si atom -5568.454165 kJ/mol
# Density = 2.417975 g / cm^3
# Si number density = 24.234908 Si / 1000 Ang^3
#
#
#
# Elastic Constant Matrix: (Units=GPa)
#
#
# Indices 1 2 3 4 5 6 
#
# 1 186.8942 -1.8299 98.5615 0.0000 7.5192 0.0000
# 2 -1.8299 99.4502 9.3935 0.0000 -0.8098 0.0000
# 3 98.5615 9.3935 253.1845 0.0000 3.5255 0.0000
# 4 0.0000 0.0000 0.0000 -31.5543 0.0000 7.8974
# 5 7.5192 -0.8098 3.5255 0.0000 64.7809 0.0000
# 6 0.0000 0.0000 0.0000 7.8974 0.0000 -8.1399
#
#
#
# Elastic Compliance Matrix: (Units=1/GPa)
#
#
# Indices 1 2 3 4 5 6 
#
# 1 0.006773 0.000369 -0.002641 0.000000 -0.000638 0.000000
# 2 0.000369 0.010112 -0.000520 0.000000 0.000112 0.000000
# 3 -0.002641 -0.000520 0.004997 0.000000 0.000028 0.000000
# 4 0.000000 0.000000 0.000000 -0.041855 0.000000 -0.040608
# 5 -0.000638 0.000112 0.000028 0.000000 0.015511 0.000000
# 6 0.000000 0.000000 0.000000 -0.040608 0.000000 -0.162251
#
#
# Mechanical properties :
#
#
# Convention : Reuss Voigt Hill
#
# Bulk Modulus (GPa) = 61.36396 83.53104 72.44750
# Shear Modulus (GPa) = -32.11392 33.91094 0.89851
#
# Velocity S-wave (km/s) = -3.64416 3.74473 0.60955
# Velocity P-wave (km/s) = 2.76929 7.29653 5.51853
#
# Compressibility (1/GPa) = 0.01629621
#
# Stress axis : x y z
#
# Youngs Moduli (GPa) = 147.64780 98.89113 200.12543
#
# Poissons Ratio (x) = -0.03648 0.52861
# Poissons Ratio (y) = -0.05447 0.10414
# Poissons Ratio (z) = 0.39000 0.05146
#
# Static dielectric constant tensor:
#      x y z
#    x 1.829780 0.000000 -0.008950 
#    y 0.000000 2.110540 0.000000 
#    z -0.008950 0.000000 1.861010 
# 
# From -- ./inp_files/239469.got.cif
#   From: 2010.05.17/outbox.cif.g08.bks.cpg/sg12_120_cif.got.tgz:239469.got - 2010.06.03 13:09:07.
