data_PCOD9182852
_publ_section_title
;
Structure prediction by ZEFSAII (Michael W. Deem and Ramdas Pophale) SiO2 
 PCOD9182852
Probable space group: C 2/M
;
_chemical_formula_sum "Si O2"
_cell_formula_units_Z 48
_cell_length_a 17.023117
_cell_length_b 12.997634
_cell_length_c 12.164936
_cell_angle_alpha 90.000000
_cell_angle_beta 99.432100
_cell_angle_gamma 90.000000
_cell_volume 2655.227408
_symmetry_space_group_name_H-M "C 2/M"
_symmetry_group_IT_number 12
_symmetry_cell_setting 'monoclinic'
loop_
_space_group_symop_operation_xyz
x,y,z
-x,y,-z
-x,-y,-z
x,-y,z
1/2+x,1/2+y,z
1/2-x,1/2+y,-z
1/2-x,1/2-y,-z
1/2+x,1/2-y,z
loop_
_atom_site_type_symbol
_atom_site_label
_atom_site_fract_x
_atom_site_fract_y
_atom_site_fract_z
Si Si1 0.332331 0.330014 0.111278
Si Si2 0.491168 0.381797 0.867927
Si Si3 0.741477 0.618395 0.684417
Si Si4 0.759465 0.383676 0.126858
Si Si5 0.349428 0.694431 0.706261
Si Si6 0.909660 0.878567 0.487241
O O1 0.420656 0.366679 0.158713
O O2 0.272141 0.374864 0.187820
O O3 0.322436 0.206780 0.117207
O O4 0.306155 0.368028 0.984851
O O5 0.464602 0.500000 0.842240
O O6 0.428083 0.306178 0.799418
O O7 0.500000 0.366264 0.000000
O O8 0.754075 0.500000 0.654326
O O9 0.813056 0.694225 0.671253
O O10 0.659124 0.659311 0.611267
O O11 0.789436 0.500000 0.129357
O O12 0.716984 0.361853 0.233777
O O13 0.374748 0.638611 0.600604
O O14 0.000000 0.835769 0.500000
O O15 0.916358 0.000000 0.465140
#
# Coordination Sequence:
#
# PCOD9182852 Si02
#       6
#     8   8   8   8   8   8
#     4  10  20  33  52  77 107 140 176 216 265 319
#     4  11  20  32  52  78 107 135 172 225 272 309
#     4  10  21  36  54  77 110 148 179 216 267 322
#     4  10  19  33  53  77 105 139 177 219 264 314
#     4  11  21  34  55  81 109 139 180 225 269 315
#     4  10  20  35  57  83 108 136 174 223 275 319
#
# _framework density 18.077549000000001
#
# number of rings (size 3 to 8) (size 9 to 14) (size 15 to 20)
#    0.000    1.667    1.667    4.500    0.000    1.333 
#    0.000    0.833    0.000    1.500    0.000    0.000 
#    0.000    0.000    0.000    0.000    0.000    0.000 
#
# Total GULP energy -133891.967553 kJ/mol
# GULP energy per Si atom -5578.831981 kJ/mol
# Density = 1.803640 g / cm^3
# Si number density = 18.077549 Si / 1000 Ang^3
#
#
#
# Elastic Constant Matrix: (Units=GPa)
#
#
# Indices 1 2 3 4 5 6 
#
# 1 49.3167 11.4865 10.9653 0.0000 17.1753 0.0000
# 2 11.4865 72.2386 6.5077 0.0000 23.2202 0.0000
# 3 10.9653 6.5077 66.0219 0.0000 3.2772 0.0000
# 4 0.0000 0.0000 0.0000 18.6839 0.0000 2.8374
# 5 17.1753 23.2202 3.2772 0.0000 29.5993 0.0000
# 6 0.0000 0.0000 0.0000 2.8374 0.0000 19.1292
#
#
#
# Elastic Compliance Matrix: (Units=1/GPa)
#
#
# Indices 1 2 3 4 5 6 
#
# 1 0.026329 0.001239 -0.003709 0.000000 -0.015839 0.000000
# 2 0.001239 0.018650 -0.001289 0.000000 -0.015207 0.000000
# 3 -0.003709 -0.001289 0.015819 0.000000 0.001412 0.000000
# 4 0.000000 0.000000 0.000000 0.054755 0.000000 -0.008122
# 5 -0.015839 -0.015207 0.001412 0.000000 0.054749 0.000000
# 6 0.000000 0.000000 0.000000 -0.008122 0.000000 0.053481
#
#
# Mechanical properties :
#
#
# Convention : Reuss Voigt Hill
#
# Bulk Modulus (GPa) = 18.76858 27.27737 23.02297
# Shear Modulus (GPa) = 20.07528 24.05700 22.06614
#
# Velocity S-wave (km/s) = 3.33605 3.65193 3.49755
# Velocity P-wave (km/s) = 5.02431 5.73619 5.39201
#
# Compressibility (1/GPa) = 0.05328054
#
# Stress axis : x y z
#
# Youngs Moduli (GPa) = 37.98042 53.61855 63.21331
#
# Poissons Ratio (x) = -0.06642 0.23445
# Poissons Ratio (y) = -0.04705 0.08150
# Poissons Ratio (z) = 0.14086 0.06913
#
# Static dielectric constant tensor:
#      x y z
#    x 1.630510 0.000000 -0.007270 
#    y 0.000000 1.625760 0.000000 
#    z -0.007270 0.000000 1.656060 
# 
# From -- ./inp_files/153533.got.cif
#   From: 2010.05.17/outbox.cif.g08.bks.cpg/sg12_77_cif.got.tgz:153533.got - 2010.06.03 13:09:07.
