data_PCOD9182967
_publ_section_title
;
Structure prediction by ZEFSAII (Michael W. Deem and Ramdas Pophale) SiO2 
 PCOD9182967
Probable space group: C 2/M
;
_chemical_formula_sum "Si O2"
_cell_formula_units_Z 56
_cell_length_a 28.201833
_cell_length_b 11.554801
_cell_length_c 22.827446
_cell_angle_alpha 90.000000
_cell_angle_beta 21.082164
_cell_angle_gamma 90.000000
_cell_volume 2675.748273
_symmetry_space_group_name_H-M "C 2/M"
_symmetry_group_IT_number 12
_symmetry_cell_setting 'monoclinic'
loop_
_space_group_symop_operation_xyz
x,y,z
-x,y,-z
-x,-y,-z
x,-y,z
1/2+x,1/2+y,z
1/2-x,1/2+y,-z
1/2-x,1/2-y,-z
1/2+x,1/2-y,z
loop_
_atom_site_type_symbol
_atom_site_label
_atom_site_fract_x
_atom_site_fract_y
_atom_site_fract_z
Si Si1 0.265630 0.375998 0.556530
Si Si2 0.582880 0.627288 0.505272
Si Si3 0.648279 0.783136 0.206459
Si Si4 0.155301 0.124479 0.928801
Si Si5 0.083906 0.801339 0.726195
Si Si6 0.110750 0.634473 0.118957
Si Si7 0.133719 0.368014 0.884393
O O1 0.200168 0.500000 0.643018
O O2 0.389002 0.369295 0.457508
O O3 0.167334 0.270349 0.677329
O O4 0.318394 0.367101 0.429785
O O5 0.530858 0.500000 0.548901
O O6 0.475675 0.724784 0.618360
O O7 0.728622 0.637232 0.310296
O O8 0.724667 0.862775 0.164160
O O9 0.610474 0.845476 0.189318
O O10 0.752727 0.684606 0.064999
O O11 0.142219 0.249379 0.911927
O O12 0.166513 0.000000 0.883448
O O13 0.023382 0.121635 0.119462
O O14 0.005058 0.707803 0.777761
O O15 0.097124 0.500000 0.121596
O O16 0.132859 0.500000 0.912645
O O17 0.000000 0.362483 0.000000
#
# Coordination Sequence:
#
# PCOD9182967 Si02
#       7
#     8   8   8   8   8   8   8
#     4  10  19  33  56  86 119 151 193 250 304 356
#     4  10  20  37  61  87 117 155 202 255 307 355
#     4  10  21  36  54  85 118 159 203 244 299 358
#     4  11  24  41  62  88 124 162 200 247 304 364
#     4  10  20  34  56  85 118 156 200 239 302 364
#     4  10  19  33  53  80 119 161 203 246 294 357
#     4  10  23  44  69  92 117 154 205 257 304 357
#
# _framework density 20.928726000000001
#
# number of rings (size 3 to 8) (size 9 to 14) (size 15 to 20)
#    0.000    1.857    1.429    2.571    0.000    5.429 
#    0.000    3.571    0.000    0.000    0.000    0.000 
#    0.000    0.000    0.000    0.000    0.000    0.000 
#
# Total GULP energy -156167.016246 kJ/mol
# GULP energy per Si atom -5577.393437 kJ/mol
# Density = 2.088109 g / cm^3
# Si number density = 20.928726 Si / 1000 Ang^3
#
#
#
# Elastic Constant Matrix: (Units=GPa)
#
#
# Indices 1 2 3 4 5 6 
#
# 1 26.7895 33.7791 -6.3439 0.0001 -2.2048 -0.0001
# 2 33.7791 156.1006 23.7634 0.0001 -0.8940 -0.0001
# 3 -6.3439 23.7634 82.3648 0.0002 -5.7774 -0.0001
# 4 0.0001 0.0001 0.0002 -1.9186 -0.0001 14.2901
# 5 -2.2048 -0.8940 -5.7774 -0.0001 21.2019 0.0000
# 6 -0.0001 -0.0001 -0.0001 14.2901 0.0000 11.3734
#
#
#
# Elastic Compliance Matrix: (Units=1/GPa)
#
#
# Indices 1 2 3 4 5 6 
#
# 1 0.057411 -0.013739 0.008935 0.000001 0.007826 0.000000
# 2 -0.013739 0.009989 -0.004089 0.000000 -0.002122 0.000000
# 3 0.008935 -0.004089 0.014336 0.000000 0.004663 0.000000
# 4 0.000001 0.000000 0.000000 -0.050319 0.000000 0.063223
# 5 0.007826 -0.002122 0.004663 0.000000 0.049161 0.000000
# 6 0.000000 0.000000 0.000000 0.063223 0.000000 0.008488
#
#
# Mechanical properties :
#
#
# Convention : Reuss Voigt Hill
#
# Bulk Modulus (GPa) = 15.63710 40.85021 28.24365
# Shear Modulus (GPa) = 39.01072 20.40177 29.70624
#
# Velocity S-wave (km/s) = 4.32207 3.12560 3.77158
# Velocity P-wave (km/s) = 5.69165 5.70850 5.70008
#
# Compressibility (1/GPa) = 0.06395048
#
# Stress axis : x y z
#
# Youngs Moduli (GPa) = 17.41821 100.10590 69.75374
#
# Poissons Ratio (x) = 1.37532 -0.62323
# Poissons Ratio (y) = 0.23930 0.28523
# Poissons Ratio (z) = -0.15563 0.40934
#
# Static dielectric constant tensor:
#      x y z
#    x 1.764630 0.000000 0.019870 
#    y 0.000000 1.771540 0.000000 
#    z 0.019870 0.000000 1.748850 
# 
# From -- ./inp_files/353926.got.cif
#   From: 2010.05.17/outbox.cif.g08.bks.cpg/sg12_177_cif.got.tgz:353926.got - 2010.06.03 13:09:07.
