data_PCOD9182785
_publ_section_title
;
Structure prediction by ZEFSAII (Michael W. Deem and Ramdas Pophale) SiO2 
 PCOD9182785
Probable space group: C 2/M
;
_chemical_formula_sum "Si O2"
_cell_formula_units_Z 56
_cell_length_a 9.146540
_cell_length_b 15.056881
_cell_length_c 19.598991
_cell_angle_alpha 90.000000
_cell_angle_beta 76.506046
_cell_angle_gamma 90.000000
_cell_volume 2624.629978
_symmetry_space_group_name_H-M "C 2/M"
_symmetry_group_IT_number 12
_symmetry_cell_setting 'monoclinic'
loop_
_space_group_symop_operation_xyz
x,y,z
-x,y,-z
-x,-y,-z
x,-y,z
1/2+x,1/2+y,z
1/2-x,1/2+y,-z
1/2-x,1/2-y,-z
1/2+x,1/2-y,z
loop_
_atom_site_type_symbol
_atom_site_label
_atom_site_fract_x
_atom_site_fract_y
_atom_site_fract_z
Si Si1 0.599609 0.846620 0.652068
Si Si2 0.824857 0.653266 0.500000
Si Si3 0.982911 0.104451 0.207782
Si Si4 0.748326 0.346619 0.652068
Si Si5 0.309306 0.104451 0.207782
Si Si6 0.382030 0.391087 0.070855
Si Si7 0.952885 0.391086 0.929145
O O1 0.672539 0.889352 0.575588
O O2 0.675229 0.750001 0.649546
O O3 0.420545 0.842180 0.658912
O O4 0.635047 0.888516 0.720885
O O5 0.750000 0.750000 0.500000
O O6 0.751873 0.610649 0.575589
O O7 0.000000 0.665973 0.500000
O O8 0.142083 0.143378 0.215834
O O9 0.855931 0.111485 0.279115
O O10 0.930710 0.140499 0.140491
O O11 0.006040 0.000000 0.193808
O O12 0.428799 0.140499 0.140491
O O13 0.300150 0.000000 0.193807
O O14 0.379679 0.500000 0.071656
O O15 0.214631 0.361318 0.070739
O O16 0.500000 0.364572 0.000000
O O17 0.951336 0.500000 0.928344
O O18 0.000000 0.364572 0.000000
#
# Coordination Sequence:
#
# PCOD9182785 Si02
#       7
#     8   8   8   8   8   8   8
#     4  10  19  33  53  75  99 128 164 204 247 295
#     4   8  16  30  49  72  95 123 161 203 243 288
#     4  10  20  33  49  72 102 133 166 205 247 290
#     4  10  19  33  53  75  99 128 164 204 247 295
#     4  10  20  33  49  72 102 133 166 205 247 290
#     4   9  16  27  45  69  96 127 163 202 243 287
#     4   9  16  27  45  69  96 127 163 202 243 287
#
# _framework density 21.33634
#
# number of rings (size 3 to 8) (size 9 to 14) (size 15 to 20)
#    0.000    2.571    0.000    2.571    0.000    6.286 
#    0.000    0.714    0.000    5.143    0.000    6.000 
#    0.000    0.000    0.000    0.000    0.000    0.000 
#
# Total GULP energy -156159.110465 kJ/mol
# GULP energy per Si atom -5577.111088 kJ/mol
# Density = 2.128778 g / cm^3
# Si number density = 21.336340 Si / 1000 Ang^3
#
#
#
# Elastic Constant Matrix: (Units=GPa)
#
#
# Indices 1 2 3 4 5 6 
#
# 1 167.4514 8.3269 120.8690 0.0000 1.1705 0.0000
# 2 8.3269 30.9113 7.6395 0.0000 -0.0319 0.0000
# 3 120.8690 7.6395 243.8221 0.0000 2.3835 0.0000
# 4 0.0000 0.0000 0.0000 3.4292 0.0000 -0.5192
# 5 1.1705 -0.0319 2.3835 0.0000 35.9234 0.0000
# 6 0.0000 0.0000 0.0000 -0.5192 0.0000 14.5898
#
#
#
# Elastic Compliance Matrix: (Units=1/GPa)
#
#
# Indices 1 2 3 4 5 6 
#
# 1 0.009358 -0.001385 -0.004596 0.000000 -0.000001 0.000000
# 2 -0.001385 0.032808 -0.000342 0.000000 0.000097 0.000000
# 3 -0.004596 -0.000342 0.006393 0.000000 -0.000275 0.000000
# 4 0.000000 0.000000 0.000000 0.293191 0.000000 0.010433
# 5 -0.000001 0.000097 -0.000275 0.000000 0.027855 0.000000
# 6 0.000000 0.000000 0.000000 0.010433 0.000000 0.068912
#
#
# Mechanical properties :
#
#
# Convention : Reuss Voigt Hill
#
# Bulk Modulus (GPa) = 27.84475 79.53950 53.69212
# Shear Modulus (GPa) = 10.79600 31.14511 20.97055
#
# Velocity S-wave (km/s) = 2.25186 3.82477 3.13845
# Velocity P-wave (km/s) = 4.45420 7.54089 6.19294
#
# Compressibility (1/GPa) = 0.03591341
#
# Stress axis : x y z
#
# Youngs Moduli (GPa) = 106.86147 30.47996 156.42355
#
# Poissons Ratio (x) = 0.04222 0.71885
# Poissons Ratio (y) = 0.14801 0.05354
# Poissons Ratio (z) = 0.49109 0.01043
#
# Static dielectric constant tensor:
#      x y z
#    x 1.744310 0.000000 0.002320 
#    y 0.000000 1.834190 0.000000 
#    z 0.002320 0.000000 1.794230 
# 
# From -- ./inp_files/257057.got.cif
#   From: 2010.05.17/outbox.cif.g08.bks.cpg/sg12_129_cif.got.tgz:257057.got - 2010.06.03 13:09:07.
