data_PCOD9182048
_publ_section_title
;
Structure prediction by ZEFSAII (Michael W. Deem and Ramdas Pophale) SiO2 
 PCOD9182048
Probable space group: C 2/M
;
_chemical_formula_sum "Si O2"
_cell_formula_units_Z 52
_cell_length_a 28.211949
_cell_length_b 10.699479
_cell_length_c 12.986810
_cell_angle_alpha 90.000000
_cell_angle_beta 43.120756
_cell_angle_gamma 90.000000
_cell_volume 2679.544797
_symmetry_space_group_name_H-M "C 2/M"
_symmetry_group_IT_number 12
_symmetry_cell_setting 'monoclinic'
loop_
_space_group_symop_operation_xyz
x,y,z
-x,y,-z
-x,-y,-z
x,-y,z
1/2+x,1/2+y,z
1/2-x,1/2+y,-z
1/2-x,1/2-y,-z
1/2+x,1/2-y,z
loop_
_atom_site_type_symbol
_atom_site_label
_atom_site_fract_x
_atom_site_fract_y
_atom_site_fract_z
Si Si1 0.075543 0.649119 0.189955
Si Si2 0.000000 0.220621 0.500000
Si Si3 0.353156 0.212882 0.404405
Si Si4 0.211295 0.351512 0.862154
Si Si5 0.799787 0.142085 0.299128
Si Si6 0.001937 0.360021 0.886677
Si Si7 0.132512 0.139626 0.411216
O O1 0.065372 0.500000 0.209619
O O2 0.038073 0.702837 0.349015
O O3 0.038711 0.698582 0.144112
O O4 0.157135 0.672221 0.040429
O O5 0.935440 0.149521 0.550664
O O6 0.280001 0.145327 0.535625
O O7 0.342807 0.315573 0.331085
O O8 0.418106 0.131837 0.269163
O O9 0.371784 0.269959 0.485208
O O10 0.201989 0.500000 0.846575
O O11 0.195482 0.252368 0.794994
O O12 0.292632 0.335577 0.760614
O O13 0.816383 0.000000 0.238551
O O14 0.971557 0.500000 0.948480
O O15 0.000000 0.294230 0.000000
O O16 0.137372 0.000000 0.445541
#
# Coordination Sequence:
#
# PCOD9182048 Si02
#       7
#     8   4   8   8   8   8   8
#     4  10  21  38  60  87 117 152 199 249 304 356
#     4  12  22  38  60  84 120 154 196 256 302 354
#     4  10  19  34  54  80 121 157 194 243 297 357
#     4   9  20  40  63  86 119 159 200 246 300 362
#     4  10  20  33  57  90 122 155 198 247 301 359
#     4  10  19  32  55  84 113 149 195 241 292 355
#     4  10  21  38  59  82 111 159 206 243 292 357
#
# _framework density 19.406281
#
# number of rings (size 3 to 8) (size 9 to 14) (size 15 to 20)
#    0.000    2.000    1.538    2.308    0.000    6.154 
#    0.000    2.308    0.000    1.846    0.000    0.000 
#    0.000    0.000    0.000    0.000    0.000    0.000 
#
# Total GULP energy -144786.798375 kJ/mol
# GULP energy per Si atom -5568.723014 kJ/mol
# Density = 1.936211 g / cm^3
# Si number density = 19.406281 Si / 1000 Ang^3
#
#
#
# Elastic Constant Matrix: (Units=GPa)
#
#
# Indices 1 2 3 4 5 6 
#
# 1 91.2186 20.2335 34.5563 0.0000 -8.4050 0.0000
# 2 20.2335 72.7746 34.5450 0.0000 1.8973 0.0000
# 3 34.5563 34.5450 137.9611 0.0000 -6.6030 0.0000
# 4 0.0000 0.0000 0.0000 12.7488 0.0000 -8.6877
# 5 -8.4050 1.8973 -6.6030 0.0000 28.2543 0.0000
# 6 0.0000 0.0000 0.0000 -8.6877 0.0000 -4.3974
#
#
#
# Elastic Compliance Matrix: (Units=1/GPa)
#
#
# Indices 1 2 3 4 5 6 
#
# 1 0.012739 -0.002489 -0.002405 0.000000 0.003394 0.000000
# 2 -0.002489 0.016191 -0.003558 0.000000 -0.002659 0.000000
# 3 -0.002405 -0.003558 0.008818 0.000000 0.001584 0.000000
# 4 0.000000 0.000000 0.000000 0.033431 0.000000 -0.066047
# 5 0.003394 -0.002659 0.001584 0.000000 0.036951 0.000000
# 6 0.000000 0.000000 0.000000 -0.066047 0.000000 -0.096921
#
#
# Mechanical properties :
#
#
# Convention : Reuss Voigt Hill
#
# Bulk Modulus (GPa) = 47.97596 53.40265 50.68930
# Shear Modulus (GPa) = 142.61261 21.49578 82.05419
#
# Velocity S-wave (km/s) = 8.58181 3.33178 6.50954
# Velocity P-wave (km/s) = 11.08928 6.50991 9.09261
#
# Compressibility (1/GPa) = 0.02084377
#
# Stress axis : x y z
#
# Youngs Moduli (GPa) = 78.50170 61.76163 113.40915
#
# Poissons Ratio (x) = 0.15369 0.27277
# Poissons Ratio (y) = 0.19535 0.40353
# Poissons Ratio (z) = 0.18881 0.21976
#
# Static dielectric constant tensor:
#      x y z
#    x 1.702730 0.000000 -0.013170 
#    y 0.000000 1.679160 0.000000 
#    z -0.013170 0.000000 1.684390 
# 
# From -- ./inp_files/175206.got.cif
#   From: 2010.05.17/outbox.cif.g08.bks.cpg/sg12_88_cif.got.tgz:175206.got - 2010.06.03 13:09:07.
