data_PCOD9182171
_publ_section_title
;
Structure prediction by ZEFSAII (Michael W. Deem and Ramdas Pophale) SiO2 
 PCOD9182171
Probable space group: C 2/M
;
_chemical_formula_sum "Si O2"
_cell_formula_units_Z 56
_cell_length_a 9.230222
_cell_length_b 16.930640
_cell_length_c 22.122654
_cell_angle_alpha 90.000000
_cell_angle_beta 123.081425
_cell_angle_gamma 90.000000
_cell_volume 2896.761360
_symmetry_space_group_name_H-M "C 2/M"
_symmetry_group_IT_number 12
_symmetry_cell_setting 'monoclinic'
loop_
_space_group_symop_operation_xyz
x,y,z
-x,y,-z
-x,-y,-z
x,-y,z
1/2+x,1/2+y,z
1/2-x,1/2+y,-z
1/2-x,1/2-y,-z
1/2+x,1/2-y,z
loop_
_atom_site_type_symbol
_atom_site_label
_atom_site_fract_x
_atom_site_fract_y
_atom_site_fract_z
Si Si1 0.628465 0.586571 0.273617
Si Si2 0.833262 0.339182 0.428844
Si Si3 0.091801 0.589456 0.846517
Si Si4 0.919609 0.696559 0.046597
Si Si5 0.984703 0.832322 0.429040
Si Si6 0.700983 0.627225 0.729231
Si Si7 0.702554 0.710950 0.190302
O O1 0.671387 0.500000 0.259057
O O2 0.764071 0.611899 0.356246
O O3 0.444069 0.585888 0.264131
O O4 0.622198 0.652723 0.221204
O O5 0.901906 0.254424 0.420744
O O6 0.671464 0.328118 0.438124
O O7 0.000000 0.375743 0.500000
O O8 0.155493 0.500000 0.852660
O O9 0.117618 0.620210 0.920796
O O10 0.178436 0.655732 0.823985
O O11 0.888991 0.593359 0.784545
O O12 0.059885 0.747257 0.116201
O O13 0.750000 0.750000 0.000000
O O14 0.000000 0.676849 0.000000
O O15 0.858269 0.876211 0.353702
O O16 0.000000 0.867197 0.500000
O O17 0.701764 0.718837 0.751845
#
# Coordination Sequence:
#
# PCOD9182171 Si02
#       7
#     8   8   8   8   8   8   8
#     4  11  23  38  58  88 122 158 197 246 302 351
#     4  10  20  34  54  82 117 152 198 248 299 349
#     4  11  24  40  63  94 125 155 195 245 296 347
#     4  11  23  44  68  92 121 157 198 239 288 354
#     4  10  19  32  56  87 111 149 204 256 290 339
#     4  10  21  38  62  86 119 159 205 245 292 356
#     4  11  22  40  65  88 120 158 202 238 289 355
#
# _framework density 19.331935000000001
#
# number of rings (size 3 to 8) (size 9 to 14) (size 15 to 20)
#    0.000    1.429    2.857    4.286    4.000    1.714 
#    0.000    2.143    0.000   10.714    0.000    0.000 
#    0.000    0.571    0.000    0.000    0.000    0.000 
#
# Total GULP energy -156359.230684 kJ/mol
# GULP energy per Si atom -5584.258239 kJ/mol
# Density = 1.928793 g / cm^3
# Si number density = 19.331935 Si / 1000 Ang^3
#
#
#
# Elastic Constant Matrix: (Units=GPa)
#
#
# Indices 1 2 3 4 5 6 
#
# 1 54.3210 9.9844 26.6465 0.0000 -4.3316 0.0000
# 2 9.9844 79.2300 15.8335 0.0000 -17.0292 0.0000
# 3 26.6465 15.8335 104.5309 0.0000 -12.0482 0.0000
# 4 0.0000 0.0000 0.0000 -29.0957 0.0000 54.1001
# 5 -4.3316 -17.0292 -12.0482 0.0000 37.0722 0.0000
# 6 0.0000 0.0000 0.0000 54.1001 0.0000 -83.9951
#
#
#
# Elastic Compliance Matrix: (Units=1/GPa)
#
#
# Indices 1 2 3 4 5 6 
#
# 1 0.021246 -0.001634 -0.005162 0.000000 0.000054 0.000000
# 2 -0.001634 0.014340 -0.001058 0.000000 0.006052 0.000000
# 3 -0.005162 -0.001058 0.011342 0.000000 0.002597 0.000000
# 4 0.000000 0.000000 0.000000 0.173930 0.000000 0.112026
# 5 0.000054 0.006052 0.002597 0.000000 0.030605 0.000000
# 6 0.000000 0.000000 0.000000 0.112026 0.000000 0.060249
#
#
# Mechanical properties :
#
#
# Convention : Reuss Voigt Hill
#
# Bulk Modulus (GPa) = 32.03153 38.11231 35.07192
# Shear Modulus (GPa) = 14.80049 -2.82923 5.98563
#
# Velocity S-wave (km/s) = 2.76995 -1.21106 1.76152
# Velocity P-wave (km/s) = 5.18028 4.21923 4.72426
#
# Compressibility (1/GPa) = 0.03121924
#
# Stress axis : x y z
#
# Youngs Moduli (GPa) = 47.06771 69.73670 88.16762
#
# Poissons Ratio (x) = 0.11396 0.45514
# Poissons Ratio (y) = 0.07691 0.09327
# Poissons Ratio (z) = 0.24297 0.07378
#
# Static dielectric constant tensor:
#      x y z
#    x 1.673360 0.000000 -0.011510 
#    y 0.000000 1.663090 0.000000 
#    z -0.011510 0.000000 1.677120 
# 
# From -- ./inp_files/300864.got.cif
#   From: 2010.05.17/outbox.cif.g08.bks.cpg/sg12_151_cif.got.tgz:300864.got - 2010.06.03 13:09:07.
