data_PCOD9182474
_publ_section_title
;
Structure prediction by ZEFSAII (Michael W. Deem and Ramdas Pophale) SiO2 
 PCOD9182474
Probable space group: C 2/M
;
_chemical_formula_sum "Si O2"
_cell_formula_units_Z 40
_cell_length_a 23.608115
_cell_length_b 11.910415
_cell_length_c 7.149109
_cell_angle_alpha 90.000000
_cell_angle_beta 130.276193
_cell_angle_gamma 90.000000
_cell_volume 1533.659004
_symmetry_space_group_name_H-M "C 2/M"
_symmetry_group_IT_number 12
_symmetry_cell_setting 'monoclinic'
loop_
_space_group_symop_operation_xyz
x,y,z
-x,y,-z
-x,-y,-z
x,-y,z
1/2+x,1/2+y,z
1/2-x,1/2+y,-z
1/2-x,1/2-y,-z
1/2+x,1/2-y,z
loop_
_atom_site_type_symbol
_atom_site_label
_atom_site_fract_x
_atom_site_fract_y
_atom_site_fract_z
Si Si1 0.702930 0.794462 0.633678
Si Si2 0.991816 0.373547 0.208222
Si Si3 0.661743 0.619029 0.266784
Si Si4 0.329354 0.875720 0.043162
Si Si5 0.510348 0.375870 0.796483
O O1 0.653411 0.723305 0.386683
O O2 0.754480 0.878740 0.628674
O O3 0.661530 0.848843 0.717850
O O4 0.766493 0.708602 0.839192
O O5 0.020437 0.500000 0.328451
O O6 0.906102 0.373319 0.094386
O O7 0.017048 0.247006 0.327509
O O8 0.000000 0.373265 0.000000
O O9 0.649113 0.500000 0.337320
O O10 0.600506 0.625508 0.972773
O O11 0.297987 0.000000 0.958643
O O12 0.484492 0.500000 0.672120
O O13 0.500000 0.377822 0.000000
#
# Coordination Sequence:
#
# PCOD9182474 Si02
#       5
#     8   8   8   8   8
#     4  10  20  32  49  77 110 140 174 214 276 320
#     4   9  17  31  52  77 103 135 178 224 265 313
#     4  10  19  33  51  77 108 140 179 222 267 322
#     4  10  19  33  51  77 108 140 179 222 267 322
#     4   9  17  31  52  77 103 135 178 224 265 313
#
# _framework density 26.081416999999998
#
# number of rings (size 3 to 8) (size 9 to 14) (size 15 to 20)
#    0.000    2.400    2.000    1.200    0.000    0.000 
#    0.000    2.000    0.000    4.800    0.000   25.200 
#    0.000    0.000    0.000    0.000    0.000    0.000 
#
# Total GULP energy -111649.508726 kJ/mol
# GULP energy per Si atom -5582.475436 kJ/mol
# Density = 2.602205 g / cm^3
# Si number density = 26.081417 Si / 1000 Ang^3
#
#
#
# Elastic Constant Matrix: (Units=GPa)
#
#
# Indices 1 2 3 4 5 6 
#
# 1 160.7746 25.1391 36.9110 0.0000 -9.2871 0.0000
# 2 25.1391 255.0308 21.5227 0.0000 10.3027 0.0000
# 3 36.9110 21.5227 36.9289 0.0000 -4.2520 0.0000
# 4 0.0000 0.0000 0.0000 8.5675 0.0000 11.2725
# 5 -9.2871 10.3027 -4.2520 0.0000 44.9342 0.0000
# 6 0.0000 0.0000 0.0000 11.2725 0.0000 19.8313
#
#
#
# Elastic Compliance Matrix: (Units=1/GPa)
#
#
# Indices 1 2 3 4 5 6 
#
# 1 0.008117 -0.000173 -0.007901 0.000000 0.000970 0.000000
# 2 -0.000173 0.004191 -0.002411 0.000000 -0.001225 0.000000
# 3 -0.007901 -0.002411 0.036656 0.000000 0.002389 0.000000
# 4 0.000000 0.000000 0.000000 0.462953 0.000000 -0.263151
# 5 0.000970 -0.001225 0.002389 0.000000 0.022962 0.000000
# 6 0.000000 0.000000 0.000000 -0.263151 0.000000 0.200005
#
#
# Mechanical properties :
#
#
# Convention : Reuss Voigt Hill
#
# Bulk Modulus (GPa) = 35.72029 68.87553 52.29791
# Shear Modulus (GPa) = 6.53437 39.27737 22.90587
#
# Velocity S-wave (km/s) = 1.58455 3.88487 2.96673
# Velocity P-wave (km/s) = 4.13197 6.82555 5.64187
#
# Compressibility (1/GPa) = 0.02799529
#
# Stress axis : x y z
#
# Youngs Moduli (GPa) = 123.20266 238.60281 27.28054
#
# Poissons Ratio (x) = 0.04116 0.21553
# Poissons Ratio (y) = 0.02125 0.06578
# Poissons Ratio (z) = 0.97338 0.57532
#
# Static dielectric constant tensor:
#      x y z
#    x 2.058260 0.000000 0.028730 
#    y 0.000000 2.054900 0.000000 
#    z 0.028730 0.000000 2.082410 
# 
# From -- ./inp_files/83350.got.cif
#   From: 2010.05.17/outbox.cif.g08.bks.cpg/sg12_42_cif.got.tgz:83350.got - 2010.06.03 13:09:07.
