data_PCOD9182091
_publ_section_title
;
Structure prediction by ZEFSAII (Michael W. Deem and Ramdas Pophale) SiO2 
 PCOD9182091
Probable space group: C 2/M
;
_chemical_formula_sum "Si O2"
_cell_formula_units_Z 56
_cell_length_a 29.229761
_cell_length_b 9.078152
_cell_length_c 20.780594
_cell_angle_alpha 90.000000
_cell_angle_beta 30.615809
_cell_angle_gamma 90.000000
_cell_volume 2808.253752
_symmetry_space_group_name_H-M "C 2/M"
_symmetry_group_IT_number 12
_symmetry_cell_setting 'monoclinic'
loop_
_space_group_symop_operation_xyz
x,y,z
-x,y,-z
-x,-y,-z
x,-y,z
1/2+x,1/2+y,z
1/2-x,1/2+y,-z
1/2-x,1/2-y,-z
1/2+x,1/2-y,z
loop_
_atom_site_type_symbol
_atom_site_label
_atom_site_fract_x
_atom_site_fract_y
_atom_site_fract_z
Si Si1 0.879036 0.825955 0.442490
Si Si2 0.316019 0.825726 0.259097
Si Si3 0.437663 0.823690 0.735740
Si Si4 0.900492 0.174263 0.648104
Si Si5 0.123333 0.329441 0.049617
Si Si6 0.586667 0.172259 0.729298
Si Si7 0.771164 0.173820 0.187833
O O1 0.785182 0.802803 0.592117
O O2 0.961978 0.738345 0.373496
O O3 0.871580 0.768978 0.378243
O O4 0.899574 0.000000 0.418914
O O5 0.381200 0.783693 0.238841
O O6 0.326787 0.736216 0.180734
O O7 0.327824 0.000000 0.231591
O O8 0.397351 0.745945 0.722356
O O9 0.382053 0.792740 0.868302
O O10 0.441304 0.000000 0.723209
O O11 0.826343 0.250311 0.693649
O O12 0.000000 0.197992 0.500000
O O13 0.883968 0.000000 0.671042
O O14 0.152470 0.500000 0.007049
O O15 0.020484 0.319537 0.149434
O O16 0.183316 0.225411 0.933544
O O17 0.612920 0.000000 0.688309
O O18 0.763069 0.000000 0.200923
#
# Coordination Sequence:
#
# PCOD9182091 Si02
#       7
#     8   8   8   8   8   8   8
#     4  10  19  32  55  87 120 152 187 233 287 340
#     4  10  21  37  56  81 116 156 194 234 287 342
#     4  10  21  38  62  88 115 151 191 233 282 335
#     4  11  24  42  64  89 117 149 184 226 281 340
#     4   9  20  40  61  82 112 150 192 235 281 335
#     4   9  19  36  59  84 112 152 196 237 283 336
#     4  12  26  40  58  84 114 150 191 237 284 334
#
# _framework density 19.941216000000001
#
# number of rings (size 3 to 8) (size 9 to 14) (size 15 to 20)
#    0.000    1.857    0.000    4.714    0.000   10.286 
#    0.000    2.857    0.000    0.000    0.000    0.000 
#    0.000    0.000    0.000    0.000    0.000    0.000 
#
# Total GULP energy -156549.938989 kJ/mol
# GULP energy per Si atom -5591.069250 kJ/mol
# Density = 1.989583 g / cm^3
# Si number density = 19.941216 Si / 1000 Ang^3
#
#
#
# Elastic Constant Matrix: (Units=GPa)
#
#
# Indices 1 2 3 4 5 6 
#
# 1 107.3257 31.7632 12.0652 -0.0028 19.0096 0.0004
# 2 31.7632 73.9274 33.9318 -0.0013 18.6499 0.0009
# 3 12.0652 33.9318 42.2501 -0.0030 14.1595 0.0024
# 4 -0.0028 -0.0013 -0.0030 22.1778 0.0017 1.9007
# 5 19.0096 18.6499 14.1595 0.0017 14.8014 -0.0004
# 6 0.0004 0.0009 0.0024 1.9007 -0.0004 33.9561
#
#
#
# Elastic Compliance Matrix: (Units=1/GPa)
#
#
# Indices 1 2 3 4 5 6 
#
# 1 0.012730 -0.003456 0.004651 0.000003 -0.016445 -0.000001
# 2 -0.003456 0.025088 -0.014800 0.000000 -0.013014 0.000000
# 3 0.004651 -0.014800 0.044126 0.000008 -0.029538 -0.000003
# 4 0.000003 0.000000 0.000008 0.045307 -0.000017 -0.002536
# 5 -0.016445 -0.013014 -0.029538 -0.000017 0.133336 0.000005
# 6 -0.000001 0.000000 -0.000003 -0.002536 0.000005 0.029592
#
#
# Mechanical properties :
#
#
# Convention : Reuss Voigt Hill
#
# Bulk Modulus (GPa) = 18.27006 42.11372 30.19189
# Shear Modulus (GPa) = 14.89722 23.90325 19.40023
#
# Velocity S-wave (km/s) = 2.73620 3.46596 3.12247
# Velocity P-wave (km/s) = 4.37770 6.09770 5.30783
#
# Compressibility (1/GPa) = 0.05473434
#
# Stress axis : x y z
#
# Youngs Moduli (GPa) = 78.55470 39.85991 22.66251
#
# Poissons Ratio (x) = 0.13775 -0.10541
# Poissons Ratio (y) = 0.27148 0.33541
# Poissons Ratio (z) = -0.36539 0.58993
#
# Static dielectric constant tensor:
#      x y z
#    x 1.707410 0.000000 -0.002700 
#    y 0.000000 1.662390 0.000000 
#    z -0.002700 0.000000 1.698150 
# 
# From -- ./inp_files/329504.got.cif
#   From: 2010.05.17/outbox.cif.g08.bks.cpg/sg12_165_cif.got.tgz:329504.got - 2010.06.03 13:09:07.
