data_PCOD9182239
_publ_section_title
;
Structure prediction by ZEFSAII (Michael W. Deem and Ramdas Pophale) SiO2 
 PCOD9182239
Probable space group: C 2/M
;
_chemical_formula_sum "Si O2"
_cell_formula_units_Z 56
_cell_length_a 19.059287
_cell_length_b 24.375824
_cell_length_c 14.695559
_cell_angle_alpha 90.000000
_cell_angle_beta 156.521133
_cell_angle_gamma 90.000000
_cell_volume 2720.089294
_symmetry_space_group_name_H-M "C 2/M"
_symmetry_group_IT_number 12
_symmetry_cell_setting 'monoclinic'
loop_
_space_group_symop_operation_xyz
x,y,z
-x,y,-z
-x,-y,-z
x,-y,z
1/2+x,1/2+y,z
1/2-x,1/2+y,-z
1/2-x,1/2-y,-z
1/2+x,1/2-y,z
loop_
_atom_site_type_symbol
_atom_site_label
_atom_site_fract_x
_atom_site_fract_y
_atom_site_fract_z
Si Si1 0.975249 0.324901 0.253806
Si Si2 0.005760 0.213830 0.165324
Si Si3 0.692020 0.343495 0.648111
Si Si4 0.769135 0.500000 0.629898
Si Si5 0.218122 0.280021 0.675457
Si Si6 0.306067 0.386627 0.163708
Si Si7 0.692468 0.000000 0.107647
Si Si8 0.758211 0.881068 0.472944
O O1 0.988118 0.266930 0.211690
O O2 0.055934 0.315924 0.449019
O O3 0.104298 0.369682 0.361115
O O4 0.783648 0.352058 0.022668
O O5 0.149283 0.223396 0.254702
O O6 0.083916 0.160242 0.309468
O O7 0.827897 0.205148 0.895675
O O8 0.644987 0.280719 0.597341
O O9 0.513920 0.377363 0.417628
O O10 0.772352 0.358373 0.839100
O O11 0.812228 0.357709 0.706745
O O12 0.737023 0.500000 0.702359
O O13 0.701494 0.444651 0.499658
O O14 0.981351 0.500000 0.868567
O O15 0.256784 0.448717 0.124558
#
# Coordination Sequence:
#
# PCOD9182239 Si02
#       8
#     8   8   8   4   8   8   4   8
#     4  11  19  34  57  80 108 148 183 230 274 333
#     4  10  19  32  58  82 112 142 179 239 275 328
#     4  11  21  34  52  82 115 146 182 220 270 340
#     4  11  22  33  62  81 107 144 196 238 265 338
#     4  10  19  33  54  83 111 145 178 220 287 328
#     4  11  24  34  52  80 118 151 179 227 274 329
#     4  11  22  38  53  83 113 152 182 232 286 323
#     4  11  20  36  55  83 105 146 189 226 273 324
#
# _framework density 20.58756
#
# number of rings (size 3 to 8) (size 9 to 14) (size 15 to 20)
#    0.000    1.286    7.143    0.857    0.000    2.857 
#    0.000    0.000    0.000    7.714    0.000    0.000 
#    0.000    2.286    0.000    0.000    0.000    0.000 
#
# Total GULP energy -156253.211495 kJ/mol
# GULP energy per Si atom -5580.471839 kJ/mol
# Density = 2.054070 g / cm^3
# Si number density = 20.587560 Si / 1000 Ang^3
#
#
#
# Elastic Constant Matrix: (Units=GPa)
#
#
# Indices 1 2 3 4 5 6 
#
# 1 39.3020 20.7466 21.6780 0.0000 -7.0956 0.0000
# 2 20.7466 144.3817 44.4748 0.0000 -9.9310 0.0000
# 3 21.6780 44.4748 111.2762 0.0000 -8.0506 0.0000
# 4 0.0000 0.0000 0.0000 24.2985 0.0000 -5.4199
# 5 -7.0956 -9.9310 -8.0506 0.0000 31.6836 0.0000
# 6 0.0000 0.0000 0.0000 -5.4199 0.0000 9.2241
#
#
#
# Elastic Compliance Matrix: (Units=1/GPa)
#
#
# Indices 1 2 3 4 5 6 
#
# 1 0.030167 -0.002625 -0.004481 0.000000 0.004795 0.000000
# 2 -0.002625 0.008218 -0.002679 0.000000 0.001308 0.000000
# 3 -0.004481 -0.002679 0.010999 0.000000 0.000952 0.000000
# 4 0.000000 0.000000 0.000000 0.047362 0.000000 0.027829
# 5 0.004795 0.001308 0.000952 0.000000 0.033287 0.000000
# 6 0.000000 0.000000 0.000000 0.027829 0.000000 0.124764
#
#
# Mechanical properties :
#
#
# Convention : Reuss Voigt Hill
#
# Bulk Modulus (GPa) = 33.53978 52.08429 42.81204
# Shear Modulus (GPa) = 17.58675 26.91196 22.24936
#
# Velocity S-wave (km/s) = 2.92591 3.61944 3.29099
# Velocity P-wave (km/s) = 5.26700 6.54377 5.93979
#
# Compressibility (1/GPa) = 0.02981534
#
# Stress axis : x y z
#
# Youngs Moduli (GPa) = 33.14917 121.67939 90.91654
#
# Poissons Ratio (x) = 0.31936 0.40739
# Poissons Ratio (y) = 0.08700 0.24355
# Poissons Ratio (z) = 0.14854 0.32595
#
# Static dielectric constant tensor:
#      x y z
#    x 1.820200 0.000000 0.032570 
#    y 0.000000 1.814960 0.000000 
#    z 0.032570 0.000000 1.777360 
# 
# From -- ./inp_files/291056.got.cif
#   From: 2010.05.17/outbox.cif.g08.bks.cpg/sg12_146_cif.got.tgz:291056.got - 2010.06.03 13:09:07.
