data_PCOD9182674
_publ_section_title
;
Structure prediction by ZEFSAII (Michael W. Deem and Ramdas Pophale) SiO2 
 PCOD9182674
Probable space group: C 2/M
;
_chemical_formula_sum "Si O2"
_cell_formula_units_Z 58
_cell_length_a 27.858720
_cell_length_b 7.339643
_cell_length_c 13.164352
_cell_angle_alpha 90.000000
_cell_angle_beta 88.390725
_cell_angle_gamma 90.000000
_cell_volume 2690.693650
_symmetry_space_group_name_H-M "C 2/M"
_symmetry_group_IT_number 12
_symmetry_cell_setting 'monoclinic'
loop_
_space_group_symop_operation_xyz
x,y,z
-x,y,-z
-x,-y,-z
x,-y,z
1/2+x,1/2+y,z
1/2-x,1/2+y,-z
1/2-x,1/2-y,-z
1/2+x,1/2-y,z
loop_
_atom_site_type_symbol
_atom_site_label
_atom_site_fract_x
_atom_site_fract_y
_atom_site_fract_z
Si Si1 0.033359 0.721765 0.676322
Si Si2 0.757055 0.293777 0.325467
Si Si3 0.349744 0.208141 0.612527
Si Si4 0.982009 0.721484 0.891091
Si Si5 0.774781 0.284750 0.892331
Si Si6 0.639502 0.778192 0.611034
Si Si7 0.378413 0.222649 0.829280
Si Si8 0.000000 0.000000 0.500000
O O1 0.027591 0.500000 0.661263
O O2 0.011960 0.768496 0.788350
O O3 0.090450 0.765459 0.670959
O O4 0.009434 0.839220 0.587918
O O5 0.755474 0.500000 0.365122
O O6 0.708143 0.207365 0.371519
O O7 0.751336 0.295970 0.204234
O O8 0.808908 0.215057 0.350323
O O9 0.364483 0.289410 0.504650
O O10 0.371841 0.287607 0.713638
O O11 0.366442 0.000000 0.608506
O O12 0.982314 0.500000 0.894245
O O13 0.927512 0.782078 0.875610
O O14 0.000000 0.784274 0.000000
O O15 0.775183 0.500000 0.872863
O O16 0.829929 0.221966 0.889153
O O17 0.750000 0.250000 0.000000
O O18 0.642152 0.000000 0.610468
O O19 0.378941 0.000000 0.827119
#
# Coordination Sequence:
#
# PCOD9182674 Si02
#       8
#     8   8   8   8   8   8   8   2
#     4  10  23  43  65  92 128 166 207 264 320 372
#     4  10  19  33  52  81 116 149 190 237 290 360
#     4   9  17  32  52  78 113 154 197 235 290 355
#     4   9  18  35  63  91 116 156 211 257 311 375
#     4  10  20  35  54  77 108 145 187 236 292 348
#     4   9  19  35  57  84 116 158 196 234 299 364
#     4   8  16  30  52  81 108 143 191 243 292 354
#     4  12  26  44  62  98 128 160 222 258 320 378
#
# _framework density 21.555779999999999
#
# number of rings (size 3 to 8) (size 9 to 14) (size 15 to 20)
#    0.000    2.621    0.000    2.276    1.931    1.103 
#    3.724    4.483    1.517    0.000    0.000    0.000 
#    0.000    0.000    0.000    0.000    0.000    0.000 
#
# Total GULP energy -161599.904534 kJ/mol
# GULP energy per Si atom -5572.410501 kJ/mol
# Density = 2.150672 g / cm^3
# Si number density = 21.555780 Si / 1000 Ang^3
#
#
#
# Elastic Constant Matrix: (Units=GPa)
#
#
# Indices 1 2 3 4 5 6 
#
# 1 141.4035 6.4771 112.9352 0.0000 15.5350 0.0000
# 2 6.4771 99.7228 9.4448 0.0000 6.4441 0.0000
# 3 112.9352 9.4448 161.8838 0.0000 -0.2853 0.0000
# 4 0.0000 0.0000 0.0000 9.7666 0.0000 4.2154
# 5 15.5350 6.4441 -0.2853 0.0000 24.3722 0.0000
# 6 0.0000 0.0000 0.0000 4.2154 0.0000 8.2624
#
#
#
# Elastic Compliance Matrix: (Units=1/GPa)
#
#
# Indices 1 2 3 4 5 6 
#
# 1 0.019131 0.000841 -0.013418 0.000000 -0.012574 0.000000
# 2 0.000841 0.010298 -0.001193 0.000000 -0.003273 0.000000
# 3 -0.013418 -0.001193 0.015623 0.000000 0.009051 0.000000
# 4 0.000000 0.000000 0.000000 0.131304 0.000000 -0.066991
# 5 -0.012574 -0.003273 0.009051 0.000000 0.050016 0.000000
# 6 0.000000 0.000000 0.000000 -0.066991 0.000000 0.155209
#
#
# Mechanical properties :
#
#
# Convention : Reuss Voigt Hill
#
# Bulk Modulus (GPa) = 57.10320 73.41382 65.25851
# Shear Modulus (GPa) = 12.04938 26.75711 19.40324
#
# Velocity S-wave (km/s) = 2.36685 3.52703 3.00349
# Velocity P-wave (km/s) = 5.83247 7.12166 6.50906
#
# Compressibility (1/GPa) = 0.01751215
#
# Stress axis : x y z
#
# Youngs Moduli (GPa) = 52.27049 97.10939 64.00622
#
# Poissons Ratio (x) = -0.08164 0.85882
# Poissons Ratio (y) = -0.04395 0.07636
# Poissons Ratio (z) = 0.70135 0.11586
#
# Static dielectric constant tensor:
#      x y z
#    x 1.774500 0.000000 -0.010120 
#    y 0.000000 1.936880 0.000000 
#    z -0.010120 0.000000 1.774470 
# 
# From -- ./inp_files/180986.got.cif
#   From: 2010.05.17/outbox.cif.g08.bks.cpg/sg12_91_cif.got.tgz:180986.got - 2010.06.03 13:09:07.
