data_PCOD9182777
_publ_section_title
;
Structure prediction by ZEFSAII (Michael W. Deem and Ramdas Pophale) SiO2 
 PCOD9182777
Probable space group: C 2/M
;
_chemical_formula_sum "Si O2"
_cell_formula_units_Z 60
_cell_length_a 8.667202
_cell_length_b 23.024227
_cell_length_c 19.067615
_cell_angle_alpha 90.000000
_cell_angle_beta 51.323682
_cell_angle_gamma 90.000000
_cell_volume 2970.559696
_symmetry_space_group_name_H-M "C 2/M"
_symmetry_group_IT_number 12
_symmetry_cell_setting 'monoclinic'
loop_
_space_group_symop_operation_xyz
x,y,z
-x,y,-z
-x,-y,-z
x,-y,z
1/2+x,1/2+y,z
1/2-x,1/2+y,-z
1/2-x,1/2-y,-z
1/2+x,1/2-y,z
loop_
_atom_site_type_symbol
_atom_site_label
_atom_site_fract_x
_atom_site_fract_y
_atom_site_fract_z
Si Si1 0.979483 0.347618 0.225554
Si Si2 0.570149 0.791309 0.625385
Si Si3 0.463373 0.932966 0.904437
Si Si4 0.132945 0.767097 0.103250
Si Si5 0.063830 0.063703 0.201209
Si Si6 0.403572 0.322396 0.743119
Si Si7 0.000000 0.755552 0.500000
Si Si8 0.069396 0.116871 0.059461
O O1 0.013182 0.339078 0.297950
O O2 0.747750 0.339984 0.274470
O O3 0.045251 0.407339 0.171733
O O4 0.062651 0.293279 0.156676
O O5 0.528081 0.731088 0.679183
O O6 0.478914 0.783617 0.575173
O O7 0.804660 0.794136 0.547976
O O8 0.694052 0.930975 0.861279
O O9 0.399417 0.000000 0.929378
O O10 0.308639 0.891780 0.989081
O O11 0.207206 0.799933 0.153538
O O12 0.002549 0.819685 0.106810
O O13 0.250000 0.750000 0.000000
O O14 0.985776 0.119302 0.265377
O O15 0.005050 0.071885 0.136982
O O16 0.010782 0.000000 0.242264
O O17 0.000000 0.107849 0.000000
#
# Coordination Sequence:
#
# PCOD9182777 Si02
#       8
#     8   8   8   8   8   8   4   8
#     4  10  19  33  53  75 108 132 176 223 252 301
#     4  10  19  35  55  86 108 136 157 206 256 330
#     4  10  20  35  53  70  95 143 189 222 257 296
#     4  10  20  31  46  71 104 149 175 211 263 311
#     4   9  19  36  53  69  95 142 188 222 255 296
#     4   9  19  32  51  77 105 132 173 220 250 299
#     4  10  20  34  60  82 110 132 162 190 270 336
#     4  11  22  32  47  72 102 135 185 232 267 302
#
# _framework density 20.198214
#
# number of rings (size 3 to 8) (size 9 to 14) (size 15 to 20)
#    0.000    2.133    2.667    0.800    1.867    2.133 
#    2.400    0.000    0.000    0.000    0.000    5.600 
#    0.000    0.000    0.000    0.000    0.000    0.000 
#
# Total GULP energy -167046.578381 kJ/mol
# GULP energy per Si atom -5568.219279 kJ/mol
# Density = 2.015224 g / cm^3
# Si number density = 20.198214 Si / 1000 Ang^3
#
#
#
# Elastic Constant Matrix: (Units=GPa)
#
#
# Indices 1 2 3 4 5 6 
#
# 1 47.8125 2.6346 18.3504 0.0000 19.4742 0.0000
# 2 2.6346 82.6289 10.6610 0.0000 14.6687 0.0000
# 3 18.3504 10.6610 77.0485 0.0000 31.4011 0.0000
# 4 0.0000 0.0000 0.0000 16.8839 0.0000 3.4364
# 5 19.4742 14.6687 31.4011 0.0000 39.6441 0.0000
# 6 0.0000 0.0000 0.0000 3.4364 0.0000 13.2560
#
#
#
# Elastic Compliance Matrix: (Units=1/GPa)
#
#
# Indices 1 2 3 4 5 6 
#
# 1 0.026443 0.001548 -0.001454 0.000000 -0.012410 0.000000
# 2 0.001548 0.013047 0.000153 0.000000 -0.005709 0.000000
# 3 -0.001454 0.000153 0.019250 0.000000 -0.014590 0.000000
# 4 0.000000 0.000000 0.000000 0.062527 0.000000 -0.016209
# 5 -0.012410 -0.005709 -0.014590 0.000000 0.044989 0.000000
# 6 0.000000 0.000000 0.000000 -0.016209 0.000000 0.079640
#
#
# Mechanical properties :
#
#
# Convention : Reuss Voigt Hill
#
# Bulk Modulus (GPa) = 16.88291 30.08689 23.48490
# Shear Modulus (GPa) = 18.85752 25.67971 22.26861
#
# Velocity S-wave (km/s) = 3.05884 3.56952 3.32400
# Velocity P-wave (km/s) = 4.56641 5.64949 5.13658
#
# Compressibility (1/GPa) = 0.05923149
#
# Stress axis : x y z
#
# Youngs Moduli (GPa) = 37.81784 76.64790 51.94798
#
# Poissons Ratio (x) = -0.11862 0.07554
# Poissons Ratio (y) = -0.05853 -0.00793
# Poissons Ratio (z) = 0.05499 -0.01170
#
# Static dielectric constant tensor:
#      x y z
#    x 1.803470 0.000000 -0.010750 
#    y 0.000000 1.731230 0.000000 
#    z -0.010750 0.000000 1.738810 
# 
# From -- ./inp_files/259183.got.cif
#   From: 2010.05.17/outbox.cif.g08.bks.cpg/sg12_130_cif.got.tgz:259183.got - 2010.06.03 13:09:07.
