data_PCOD9182555
_publ_section_title
;
Structure prediction by ZEFSAII (Michael W. Deem and Ramdas Pophale) SiO2 
 PCOD9182555
Probable space group: C 2/M
;
_chemical_formula_sum "Si O2"
_cell_formula_units_Z 56
_cell_length_a 27.768079
_cell_length_b 10.563842
_cell_length_c 12.755312
_cell_angle_alpha 90.000000
_cell_angle_beta 131.094603
_cell_angle_gamma 90.000000
_cell_volume 2819.773958
_symmetry_space_group_name_H-M "C 2/M"
_symmetry_group_IT_number 12
_symmetry_cell_setting 'monoclinic'
loop_
_space_group_symop_operation_xyz
x,y,z
-x,y,-z
-x,-y,-z
x,-y,z
1/2+x,1/2+y,z
1/2-x,1/2+y,-z
1/2-x,1/2-y,-z
1/2+x,1/2-y,z
loop_
_atom_site_type_symbol
_atom_site_label
_atom_site_fract_x
_atom_site_fract_y
_atom_site_fract_z
Si Si1 0.554961 0.852859 0.387452
Si Si2 0.525797 0.846669 0.924665
Si Si3 0.639119 0.848541 0.943347
Si Si4 0.305319 0.364586 0.690512
Si Si5 0.757112 0.147612 0.859415
Si Si6 0.833775 0.634711 0.607949
Si Si7 0.107255 0.651664 0.671323
O O1 0.515955 0.797866 0.233820
O O2 0.626688 0.854394 0.442340
O O3 0.562600 0.795899 0.514461
O O4 0.533259 0.000000 0.367188
O O5 0.518938 0.000000 0.916417
O O6 0.500000 0.800888 0.000000
O O7 0.597868 0.822451 0.988589
O O8 0.699506 0.755349 0.025152
O O9 0.654759 0.000000 0.962612
O O10 0.596578 0.820286 0.778391
O O11 0.338816 0.500000 0.728809
O O12 0.280465 0.350017 0.772565
O O13 0.240560 0.369780 0.528291
O O14 0.344987 0.249010 0.702020
O O15 0.682167 0.179603 0.758856
O O16 0.765091 0.000000 0.907856
O O17 0.853131 0.500000 0.684643
O O18 0.101359 0.500000 0.652913
#
# Coordination Sequence:
#
# PCOD9182555 Si02
#       7
#     8   8   8   8   8   8   8
#     4   9  16  29  51  73 100 137 168 206 259 304
#     4   9  19  33  48  74 108 136 167 211 263 307
#     4  10  21  34  52  78 105 135 174 218 253 296
#     4   9  17  28  43  68 101 131 164 203 249 303
#     4  10  19  33  52  74 105 141 170 205 259 316
#     4   9  16  27  46  71  95 130 168 203 250 301
#     4   9  17  32  52  76 103 132 174 215 253 305
#
# _framework density 19.859748
#
# number of rings (size 3 to 8) (size 9 to 14) (size 15 to 20)
#    0.000    2.714    1.429    0.429    2.000    1.143 
#    0.000    2.857    0.000    2.143    0.000    1.000 
#    0.000    0.000    0.000    0.000    0.000    0.000 
#
# Total GULP energy -155903.677638 kJ/mol
# GULP energy per Si atom -5567.988487 kJ/mol
# Density = 1.981455 g / cm^3
# Si number density = 19.859748 Si / 1000 Ang^3
#
#
#
# Elastic Constant Matrix: (Units=GPa)
#
#
# Indices 1 2 3 4 5 6 
#
# 1 90.4670 28.7985 35.8053 0.0000 -18.2647 0.0000
# 2 28.7985 56.2969 23.5091 0.0000 -12.0461 0.0000
# 3 35.8053 23.5091 104.7436 0.0000 -21.1058 0.0000
# 4 0.0000 0.0000 0.0000 13.6031 0.0000 -1.8448
# 5 -18.2647 -12.0461 -21.1058 0.0000 27.2002 0.0000
# 6 0.0000 0.0000 0.0000 -1.8448 0.0000 14.1400
#
#
#
# Elastic Compliance Matrix: (Units=1/GPa)
#
#
# Indices 1 2 3 4 5 6 
#
# 1 0.014970 -0.005301 -0.002815 0.000000 0.005520 0.000000
# 2 -0.005301 0.022414 -0.002294 0.000000 0.004587 0.000000
# 3 -0.002815 -0.002294 0.012373 0.000000 0.006695 0.000000
# 4 0.000000 0.000000 0.000000 0.074837 0.000000 0.009764
# 5 0.005520 0.004587 0.006695 0.000000 0.047697 0.000000
# 6 0.000000 0.000000 0.000000 0.009764 0.000000 0.071995
#
#
# Mechanical properties :
#
#
# Convention : Reuss Voigt Hill
#
# Bulk Modulus (GPa) = 34.55885 47.52593 41.04239
# Shear Modulus (GPa) = 18.19813 21.88163 20.03988
#
# Velocity S-wave (km/s) = 3.03038 3.32295 3.18003
# Velocity P-wave (km/s) = 5.44826 6.22137 5.84760
#
# Compressibility (1/GPa) = 0.02893615
#
# Stress axis : x y z
#
# Youngs Moduli (GPa) = 66.80063 44.61442 80.81868
#
# Poissons Ratio (x) = 0.23650 0.22752
# Poissons Ratio (y) = 0.35411 0.18543
# Poissons Ratio (z) = 0.18806 0.10237
#
# Static dielectric constant tensor:
#      x y z
#    x 1.735550 0.000000 0.008940 
#    y 0.000000 1.696360 0.000000 
#    z 0.008940 0.000000 1.776540 
# 
# From -- ./inp_files/165018.got.cif
#   From: 2010.05.17/outbox.cif.g08.bks.cpg/sg12_83_cif.got.tgz:165018.got - 2010.06.03 13:09:07.
