data_PCOD9182270
_publ_section_title
;
Structure prediction by ZEFSAII (Michael W. Deem and Ramdas Pophale) SiO2 
 PCOD9182270
Probable space group: C 2/M
;
_chemical_formula_sum "Si O2"
_cell_formula_units_Z 58
_cell_length_a 31.224376
_cell_length_b 7.581950
_cell_length_c 26.679630
_cell_angle_alpha 90.000000
_cell_angle_beta 153.151460
_cell_angle_gamma 90.000000
_cell_volume 2852.598796
_symmetry_space_group_name_H-M "C 2/M"
_symmetry_group_IT_number 12
_symmetry_cell_setting 'monoclinic'
loop_
_space_group_symop_operation_xyz
x,y,z
-x,y,-z
-x,-y,-z
x,-y,z
1/2+x,1/2+y,z
1/2-x,1/2+y,-z
1/2-x,1/2-y,-z
1/2+x,1/2-y,z
loop_
_atom_site_type_symbol
_atom_site_label
_atom_site_fract_x
_atom_site_fract_y
_atom_site_fract_z
Si Si1 0.210379 0.711022 0.513563
Si Si2 0.500000 0.000000 0.500000
Si Si3 0.065299 0.207616 0.851587
Si Si4 0.196256 0.287652 0.079577
Si Si5 0.902392 0.214606 0.757309
Si Si6 0.410026 0.295852 0.330461
Si Si7 0.534705 0.204831 0.984344
Si Si8 0.997892 0.294193 0.676409
O O1 0.205226 0.500000 0.512613
O O2 0.250000 0.750000 0.500000
O O3 0.294798 0.773400 0.637644
O O4 0.105313 0.778455 0.414754
O O5 0.543336 0.843209 0.582984
O O6 0.064985 0.282314 0.795361
O O7 0.972352 0.274018 0.785241
O O8 0.053820 0.000000 0.833529
O O9 0.154260 0.237326 0.981342
O O10 0.192224 0.500000 0.076109
O O11 0.302631 0.237502 0.204299
O O12 0.123117 0.218498 0.045557
O O13 0.948117 0.284443 0.855467
O O14 0.905238 0.000000 0.760917
O O15 0.407577 0.500000 0.346783
O O16 0.464148 0.295662 0.333712
O O17 0.559236 0.000000 0.020143
O O18 0.500000 0.286516 0.000000
O O19 0.987630 0.500000 0.653025
#
# Coordination Sequence:
#
# PCOD9182270 Si02
#       8
#     8   2   8   8   8   8   8   8
#     4  10  20  34  55  83 123 167 207 251 311 375
#     4  12  26  52  76  94 126 168 218 280 330 380
#     4  10  19  32  59  90 125 164 202 254 324 385
#     4   9  20  39  62  90 123 162 207 256 321 393
#     4   9  18  33  50  80 118 158 203 247 306 379
#     4  11  25  47  72  96 127 168 217 269 327 385
#     4   9  18  35  57  84 116 150 198 257 311 369
#     4  11  22  38  60  92 130 170 218 271 318 387
#
# _framework density 20.332336999999999
#
# number of rings (size 3 to 8) (size 9 to 14) (size 15 to 20)
#    0.000    2.069    2.069    1.034    0.966    2.483 
#    2.483    0.000    0.000    0.000    0.000    0.000 
#    0.000    0.000    0.000    0.000    0.000    0.000 
#
# Total GULP energy -161541.831878 kJ/mol
# GULP energy per Si atom -5570.407996 kJ/mol
# Density = 2.028606 g / cm^3
# Si number density = 20.332337 Si / 1000 Ang^3
#
#
#
# Elastic Constant Matrix: (Units=GPa)
#
#
# Indices 1 2 3 4 5 6 
#
# 1 85.5395 13.2893 85.8490 0.0000 -2.6978 0.0000
# 2 13.2893 80.1126 26.5618 0.0000 -2.9831 0.0000
# 3 85.8490 26.5618 138.7451 0.0000 -3.9206 0.0000
# 4 0.0000 0.0000 0.0000 23.8614 0.0000 -6.9075
# 5 -2.6978 -2.9831 -3.9206 0.0000 18.7585 0.0000
# 6 0.0000 0.0000 0.0000 -6.9075 0.0000 18.3850
#
#
#
# Elastic Compliance Matrix: (Units=1/GPa)
#
#
# Indices 1 2 3 4 5 6 
#
# 1 0.030978 0.001317 -0.019403 0.000000 0.000609 0.000000
# 2 0.001317 0.013432 -0.003340 0.000000 0.001627 0.000000
# 3 -0.019403 -0.003340 0.019876 0.000000 0.000833 0.000000
# 4 0.000000 0.000000 0.000000 0.047023 0.000000 0.017667
# 5 0.000609 0.001627 0.000833 0.000000 0.053830 0.000000
# 6 0.000000 0.000000 0.000000 0.017667 0.000000 0.061030
#
#
# Mechanical properties :
#
#
# Convention : Reuss Voigt Hill
#
# Bulk Modulus (GPa) = 46.65499 61.75527 54.20513
# Shear Modulus (GPa) = 18.10511 24.11412 21.10961
#
# Velocity S-wave (km/s) = 2.98729 3.44757 3.22565
# Velocity P-wave (km/s) = 5.90716 6.80342 6.37107
#
# Compressibility (1/GPa) = 0.02143393
#
# Stress axis : x y z
#
# Youngs Moduli (GPa) = 32.28108 74.44862 50.31215
#
# Poissons Ratio (x) = -0.09805 0.97619
# Poissons Ratio (y) = -0.04252 0.16806
# Poissons Ratio (z) = 0.62634 0.24869
#
# Static dielectric constant tensor:
#      x y z
#    x 1.758800 0.000000 0.047020 
#    y 0.000000 1.746870 0.000000 
#    z 0.047020 0.000000 1.744560 
# 
# From -- ./inp_files/351478.got.cif
#   From: 2010.05.17/outbox.cif.g08.bks.cpg/sg12_176_cif.got.tgz:351478.got - 2010.06.03 13:09:07.
