data_PCOD9182278
_publ_section_title
;
Structure prediction by ZEFSAII (Michael W. Deem and Ramdas Pophale) SiO2 
 PCOD9182278
Probable space group: C 2/M
;
_chemical_formula_sum "Si O2"
_cell_formula_units_Z 56
_cell_length_a 18.058093
_cell_length_b 13.574652
_cell_length_c 18.587457
_cell_angle_alpha 90.000000
_cell_angle_beta 29.180109
_cell_angle_gamma 90.000000
_cell_volume 2221.496287
_symmetry_space_group_name_H-M "C 2/M"
_symmetry_group_IT_number 12
_symmetry_cell_setting 'monoclinic'
loop_
_space_group_symop_operation_xyz
x,y,z
-x,y,-z
-x,-y,-z
x,-y,z
1/2+x,1/2+y,z
1/2-x,1/2+y,-z
1/2-x,1/2-y,-z
1/2+x,1/2-y,z
loop_
_atom_site_type_symbol
_atom_site_label
_atom_site_fract_x
_atom_site_fract_y
_atom_site_fract_z
Si Si1 0.384069 0.614743 0.035470
Si Si2 0.644511 0.609562 0.248904
Si Si3 0.253921 0.825934 0.609120
Si Si4 0.571929 0.309339 0.161421
Si Si5 0.482570 0.109572 0.297811
Si Si6 0.666125 0.194647 0.320481
Si Si7 0.712981 0.396307 0.411569
O O1 0.414309 0.500000 0.998046
O O2 0.214232 0.631682 0.209464
O O3 0.500000 0.652820 0.000000
O O4 0.396633 0.669213 0.948431
O O5 0.707395 0.500000 0.208181
O O6 0.657680 0.635187 0.152969
O O7 0.697760 0.696589 0.256938
O O8 0.462879 0.605536 0.417346
O O9 0.402965 0.849980 0.437793
O O10 0.248401 0.874612 0.691108
O O11 0.256111 0.714549 0.640352
O O12 0.107984 0.837978 0.683461
O O13 0.577688 0.194506 0.177919
O O14 0.332347 0.099561 0.374831
O O15 0.548604 0.000000 0.245729
O O16 0.500000 0.199043 0.500000
O O17 0.733832 0.500000 0.352185
#
# Coordination Sequence:
#
# PCOD9182278 Si02
#       7
#     8   8   8   8   8   8   8
#     4  11  26  47  73 100 130 182 238 281 337 413
#     4  11  22  38  66 102 136 179 229 279 341 408
#     4  11  19  36  62  98 140 182 225 285 336 395
#     4  11  20  42  69  96 134 181 236 291 327 402
#     4  10  19  32  60 101 135 171 225 286 342 392
#     4  12  25  43  65 100 148 179 217 284 354 403
#     4   9  16  29  54  92 131 170 220 269 327 392
#
# _framework density 25.208234000000001
#
# number of rings (size 3 to 8) (size 9 to 14) (size 15 to 20)
#    0.000    1.286    5.714    1.286    0.000    2.857 
#    0.000    2.857    0.000    0.857    0.000    0.000 
#    0.000    0.000    0.000    0.000    0.000    0.000 
#
# Total GULP energy -156053.518326 kJ/mol
# GULP energy per Si atom -5573.339940 kJ/mol
# Density = 2.515086 g / cm^3
# Si number density = 25.208234 Si / 1000 Ang^3
#
#
#
# Elastic Constant Matrix: (Units=GPa)
#
#
# Indices 1 2 3 4 5 6 
#
# 1 133.0763 45.0289 39.5803 -0.0005 32.8095 0.0001
# 2 45.0289 143.0973 39.9503 -0.0014 34.2032 0.0007
# 3 39.5803 39.9503 100.0789 -0.0009 29.2123 0.0003
# 4 -0.0005 -0.0014 -0.0009 7.9209 0.0007 -16.9115
# 5 32.8095 34.2032 29.2123 0.0007 53.9063 -0.0003
# 6 0.0001 0.0007 0.0003 -16.9115 -0.0003 2.5672
#
#
#
# Elastic Compliance Matrix: (Units=1/GPa)
#
#
# Indices 1 2 3 4 5 6 
#
# 1 0.009573 -0.001541 -0.002085 0.000000 -0.003718 0.000000
# 2 -0.001541 0.008872 -0.001856 0.000000 -0.003685 -0.000001
# 3 -0.002085 -0.001856 0.012881 0.000000 -0.004533 -0.000001
# 4 0.000000 0.000000 0.000000 -0.009663 0.000000 -0.063657
# 5 -0.003718 -0.003685 -0.004533 0.000000 0.025609 0.000002
# 6 0.000000 -0.000001 -0.000001 -0.063657 0.000002 -0.029815
#
#
# Mechanical properties :
#
#
# Convention : Reuss Voigt Hill
#
# Bulk Modulus (GPa) = 49.11527 69.48572 59.30050
# Shear Modulus (GPa) = 142.00575 29.65843 85.83209
#
# Velocity S-wave (km/s) = 7.51368 3.43379 5.84150
# Velocity P-wave (km/s) = 9.73653 6.58375 8.31101
#
# Compressibility (1/GPa) = 0.02036027
#
# Stress axis : x y z
#
# Youngs Moduli (GPa) = 104.45977 112.70850 77.63273
#
# Poissons Ratio (x) = 0.17373 0.16189
# Poissons Ratio (y) = 0.16101 0.14412
# Poissons Ratio (z) = 0.21784 0.20924
#
# Static dielectric constant tensor:
#      x y z
#    x 2.273210 0.000000 0.024550 
#    y 0.000000 2.212860 0.000000 
#    z 0.024550 0.000000 2.071600 
# 
# From -- ./inp_files/284477.got.cif
#   From: 2010.05.17/outbox.cif.g08.bks.cpg/sg12_143_cif.got.tgz:284477.got - 2010.06.03 13:09:07.
