data_PCOD9182892
_publ_section_title
;
Structure prediction by ZEFSAII (Michael W. Deem and Ramdas Pophale) SiO2 
 PCOD9182892
Probable space group: C 2/M
;
_chemical_formula_sum "Si O2"
_cell_formula_units_Z 64
_cell_length_a 25.818621
_cell_length_b 7.395116
_cell_length_c 14.682159
_cell_angle_alpha 90.000000
_cell_angle_beta 82.833989
_cell_angle_gamma 90.000000
_cell_volume 2781.392698
_symmetry_space_group_name_H-M "C 2/M"
_symmetry_group_IT_number 12
_symmetry_cell_setting 'monoclinic'
loop_
_space_group_symop_operation_xyz
x,y,z
-x,y,-z
-x,-y,-z
x,-y,z
1/2+x,1/2+y,z
1/2-x,1/2+y,-z
1/2-x,1/2-y,-z
1/2+x,1/2-y,z
loop_
_atom_site_type_symbol
_atom_site_label
_atom_site_fract_x
_atom_site_fract_y
_atom_site_fract_z
Si Si1 0.047386 0.211557 0.048496
Si Si2 0.622782 0.778517 0.678612
Si Si3 0.239628 0.284822 0.607397
Si Si4 0.369829 0.218337 0.122060
Si Si5 0.471351 0.208724 0.417843
Si Si6 0.825783 0.779222 0.729695
Si Si7 0.754445 0.715072 0.105234
Si Si8 0.558981 0.719964 0.252785
O O1 0.054572 0.282896 0.148906
O O2 0.035371 0.000000 0.064390
O O3 0.097930 0.224118 0.973217
O O4 0.000000 0.292092 0.000000
O O5 0.682157 0.718628 0.647838
O O6 0.607171 0.724892 0.785103
O O7 0.582479 0.713972 0.610647
O O8 0.621881 0.000000 0.676914
O O9 0.237803 0.500000 0.623775
O O10 0.250000 0.250000 0.500000
O O11 0.288179 0.217444 0.656538
O O12 0.310083 0.283196 0.128798
O O13 0.369546 0.000000 0.121315
O O14 0.500000 0.290035 0.500000
O O15 0.511901 0.215296 0.325663
O O16 0.459680 0.000000 0.444504
O O17 0.795378 0.720358 0.827609
O O18 0.885469 0.720178 0.718214
O O19 0.827613 0.000000 0.727499
O O20 0.755697 0.500000 0.119252
O O21 0.750000 0.750000 0.000000
O O22 0.558157 0.500000 0.254002
#
# Coordination Sequence:
#
# PCOD9182892 Si02
#       8
#     8   8   8   8   8   8   8   8
#     4  10  21  36  54  79 112 146 178 219 272 319
#     4   9  18  36  58  79 108 143 178 219 268 322
#     4  10  20  36  58  81 106 140 179 221 269 320
#     4  10  19  33  56  81 104 139 185 222 258 315
#     4  10  22  38  57  81 108 140 178 225 276 315
#     4   9  18  35  56  77 108 146 179 212 262 325
#     4  10  19  33  53  78 107 142 180 217 261 316
#     4  10  21  37  56  79 109 146 182 217 263 321
#
# _framework density 23.010057
#
# number of rings (size 3 to 8) (size 9 to 14) (size 15 to 20)
#    0.000    2.250    1.250    1.500    1.750    2.500 
#    0.000    2.500    0.000    0.000    0.000    0.000 
#    0.000    0.000    0.000    0.000    0.000    0.000 
#
# Total GULP energy -178829.373215 kJ/mol
# GULP energy per Si atom -5588.417913 kJ/mol
# Density = 2.295768 g / cm^3
# Si number density = 23.010057 Si / 1000 Ang^3
#
#
#
# Elastic Constant Matrix: (Units=GPa)
#
#
# Indices 1 2 3 4 5 6 
#
# 1 119.9317 1.4111 27.2335 0.0000 25.2368 0.0000
# 2 1.4111 76.9078 -8.5942 0.0000 9.1084 0.0000
# 3 27.2335 -8.5942 120.9342 0.0000 24.6603 0.0000
# 4 0.0000 0.0000 0.0000 16.2702 0.0000 -10.6246
# 5 25.2368 9.1084 24.6603 0.0000 44.6114 0.0000
# 6 0.0000 0.0000 0.0000 -10.6246 0.0000 3.5174
#
#
#
# Elastic Compliance Matrix: (Units=1/GPa)
#
#
# Indices 1 2 3 4 5 6 
#
# 1 0.009620 0.000270 -0.001157 0.000000 -0.004858 0.000000
# 2 0.000270 0.013647 0.001700 0.000000 -0.003879 0.000000
# 3 -0.001157 0.001700 0.009679 0.000000 -0.005043 0.000000
# 4 0.000000 0.000000 0.000000 -0.063202 0.000000 -0.190906
# 5 -0.004858 -0.003879 -0.005043 0.000000 0.028743 0.000000
# 6 0.000000 0.000000 0.000000 -0.190906 0.000000 -0.292348
#
#
# Mechanical properties :
#
#
# Convention : Reuss Voigt Hill
#
# Bulk Modulus (GPa) = 28.92588 39.76385 34.34486
# Shear Modulus (GPa) = -17.60789 32.72803 7.56007
#
# Velocity S-wave (km/s) = -2.76927 3.77548 1.81458
# Velocity P-wave (km/s) = 1.54049 6.02696 4.39871
#
# Compressibility (1/GPa) = 0.03457112
#
# Stress axis : x y z
#
# Youngs Moduli (GPa) = 103.95332 73.27645 103.32129
#
# Poissons Ratio (x) = -0.01975 0.11950
# Poissons Ratio (y) = -0.02802 -0.17565
# Poissons Ratio (z) = 0.12023 -0.12457
#
# Static dielectric constant tensor:
#      x y z
#    x 1.851320 0.000000 0.030570 
#    y 0.000000 1.895010 0.000000 
#    z 0.030570 0.000000 1.821670 
# 
# From -- ./inp_files/174593.got.cif
#   From: 2010.05.17/outbox.cif.g08.bks.cpg/sg12_88_cif.got.tgz:174593.got - 2010.06.03 13:09:07.
