data_PCOD9182951
_publ_section_title
;
Structure prediction by ZEFSAII (Michael W. Deem and Ramdas Pophale) SiO2 
 PCOD9182951
Probable space group: C 2/M
;
_chemical_formula_sum "Si O2"
_cell_formula_units_Z 48
_cell_length_a 25.050842
_cell_length_b 19.695802
_cell_length_c 5.395414
_cell_angle_alpha 90.000000
_cell_angle_beta 110.569582
_cell_angle_gamma 90.000000
_cell_volume 2492.360372
_symmetry_space_group_name_H-M "C 2/M"
_symmetry_group_IT_number 12
_symmetry_cell_setting 'monoclinic'
loop_
_space_group_symop_operation_xyz
x,y,z
-x,y,-z
-x,-y,-z
x,-y,z
1/2+x,1/2+y,z
1/2-x,1/2+y,-z
1/2-x,1/2-y,-z
1/2+x,1/2-y,z
loop_
_atom_site_type_symbol
_atom_site_label
_atom_site_fract_x
_atom_site_fract_y
_atom_site_fract_z
Si Si1 0.562795 0.640893 0.637582
Si Si2 0.282207 0.925566 0.018474
Si Si3 0.823529 0.705237 0.840139
Si Si4 0.274289 0.337114 0.698566
Si Si5 0.163364 0.925752 0.537678
Si Si6 0.937037 0.771561 0.862728
O O1 0.500000 0.608375 0.500000
O O2 0.615901 0.592307 0.663679
O O3 0.565596 0.697116 0.419292
O O4 0.565025 0.673042 0.915164
O O5 0.320370 0.861007 0.005984
O O6 0.227189 0.928450 0.750721
O O7 0.309184 0.000000 0.069004
O O8 0.251741 0.903623 0.220395
O O9 0.778123 0.690445 0.548779
O O10 0.798716 0.776487 0.911270
O O11 0.885320 0.720703 0.832832
O O12 0.328790 0.362704 0.633869
O O13 0.150027 0.000000 0.407119
O O14 0.000000 0.739877 0.000000
#
# Coordination Sequence:
#
# PCOD9182951 Si02
#       6
#     8   8   8   8   8   8
#     4  10  21  37  55  80 113 149 190 239 276 321
#     4  10  21  34  51  79 114 148 180 228 286 341
#     4  10  20  32  56  82 106 141 189 230 280 331
#     4  10  19  33  53  80 109 141 187 233 277 330
#     4  10  20  33  51  76 112 154 189 226 276 331
#     4  10  21  37  59  83 112 144 187 240 286 326
#
# _framework density 19.258852999999998
#
# number of rings (size 3 to 8) (size 9 to 14) (size 15 to 20)
#    0.000    2.000    1.667    2.000    2.333    1.000 
#    0.000    0.000    0.000    3.500    0.000    1.167 
#    0.000    0.000    0.000    0.000    0.000    0.000 
#
# Total GULP energy -133632.109820 kJ/mol
# GULP energy per Si atom -5568.004576 kJ/mol
# Density = 1.921502 g / cm^3
# Si number density = 19.258853 Si / 1000 Ang^3
#
#
#
# Elastic Constant Matrix: (Units=GPa)
#
#
# Indices 1 2 3 4 5 6 
#
# 1 106.5251 28.0776 -2.7239 0.0000 5.4083 0.0000
# 2 28.0776 86.0185 -1.2688 0.0000 2.2898 0.0000
# 3 -2.7239 -1.2688 43.3508 0.0000 -2.5006 0.0000
# 4 0.0000 0.0000 0.0000 10.1413 0.0000 5.1421
# 5 5.4083 2.2898 -2.5006 0.0000 20.0512 0.0000
# 6 0.0000 0.0000 0.0000 5.1421 0.0000 -21.4250
#
#
#
# Elastic Compliance Matrix: (Units=1/GPa)
#
#
# Indices 1 2 3 4 5 6 
#
# 1 0.010395 -0.003324 0.000419 0.000000 -0.002372 0.000000
# 2 -0.003324 0.012727 0.000132 0.000000 -0.000540 0.000000
# 3 0.000419 0.000132 0.023258 0.000000 0.002772 0.000000
# 4 0.000000 0.000000 0.000000 0.087909 0.000000 0.021098
# 5 -0.002372 -0.000540 0.002772 0.000000 0.050920 0.000000
# 6 0.000000 0.000000 0.000000 0.021098 0.000000 -0.041611
#
#
# Mechanical properties :
#
#
# Convention : Reuss Voigt Hill
#
# Bulk Modulus (GPa) = 24.48894 31.56270 28.02582
# Shear Modulus (GPa) = 30.72145 15.87413 23.29779
#
# Velocity S-wave (km/s) = 3.99831 2.87409 3.48187
# Velocity P-wave (km/s) = 5.83598 5.23814 5.54512
#
# Compressibility (1/GPa) = 0.04083475
#
# Stress axis : x y z
#
# Youngs Moduli (GPa) = 96.20356 78.57541 42.99646
#
# Poissons Ratio (x) = 0.26116 -0.01802
# Poissons Ratio (y) = 0.31974 -0.00570
# Poissons Ratio (z) = -0.04031 -0.01041
#
# Static dielectric constant tensor:
#      x y z
#    x 1.678400 0.000000 -0.014070 
#    y 0.000000 1.733550 0.000000 
#    z -0.014070 0.000000 1.744790 
# 
# From -- ./inp_files/24741.got.cif
#   From: 2010.05.17/outbox.cif.g08.bks.cpg/sg12_13_cif.got.tgz:24741.got - 2010.06.03 13:09:07.
