data_PCOD9182334
_publ_section_title
;
Structure prediction by ZEFSAII (Michael W. Deem and Ramdas Pophale) SiO2 
 PCOD9182334
Probable space group: C 2/M
;
_chemical_formula_sum "Si O2"
_cell_formula_units_Z 48
_cell_length_a 9.685967
_cell_length_b 25.968346
_cell_length_c 12.312242
_cell_angle_alpha 90.000000
_cell_angle_beta 67.377572
_cell_angle_gamma 90.000000
_cell_volume 2858.605438
_symmetry_space_group_name_H-M "C 2/M"
_symmetry_group_IT_number 12
_symmetry_cell_setting 'monoclinic'
loop_
_space_group_symop_operation_xyz
x,y,z
-x,y,-z
-x,-y,-z
x,-y,z
1/2+x,1/2+y,z
1/2-x,1/2+y,-z
1/2-x,1/2-y,-z
1/2+x,1/2-y,z
loop_
_atom_site_type_symbol
_atom_site_label
_atom_site_fract_x
_atom_site_fract_y
_atom_site_fract_z
Si Si1 0.203473 0.362004 0.160981
Si Si2 0.914358 0.209793 0.224129
Si Si3 0.447803 0.558423 0.141907
Si Si4 0.311896 0.359056 0.885221
Si Si5 0.371782 0.832074 0.270823
Si Si6 0.344365 0.697881 0.485167
O O1 0.291712 0.311837 0.178254
O O2 0.293537 0.409761 0.185954
O O3 0.030756 0.358250 0.242981
O O4 0.223537 0.364378 0.024862
O O5 0.902789 0.270941 0.242134
O O6 0.882025 0.182935 0.350717
O O7 0.077222 0.190172 0.139392
O O8 0.435009 0.500000 0.185100
O O9 0.575464 0.592518 0.160345
O O10 0.500000 0.557102 0.000000
O O11 0.206465 0.352753 0.813995
O O12 0.258771 0.837013 0.406628
O O13 0.500000 0.707624 0.500000
O O14 0.250000 0.750000 0.500000
#
# Coordination Sequence:
#
# PCOD9182334 Si02
#       6
#     8   8   8   8   8   8
#     4  10  21  31  49  78 102 132 167 202 251 308
#     4  10  20  33  49  69 103 144 175 199 234 290
#     4   8  16  34  55  71  95 131 169 208 250 303
#     4  10  19  33  49  75 104 131 170 201 246 312
#     4  11  21  31  48  73 109 134 164 210 248 285
#     4  10  21  34  50  68  96 139 183 213 234 275
#
# _framework density 16.791405000000001
#
# number of rings (size 3 to 8) (size 9 to 14) (size 15 to 20)
#    0.000    2.167    1.667    3.000    7.000    4.000 
#    0.000    0.833    0.000    4.000    0.000   18.667 
#    0.000    0.000    0.000    0.000    0.000    0.000 
#
# Total GULP energy -133792.321732 kJ/mol
# GULP energy per Si atom -5574.680072 kJ/mol
# Density = 1.675319 g / cm^3
# Si number density = 16.791405 Si / 1000 Ang^3
#
#
#
# Elastic Constant Matrix: (Units=GPa)
#
#
# Indices 1 2 3 4 5 6 
#
# 1 115.6526 27.7911 24.6900 0.0000 -14.7756 0.0000
# 2 27.7911 81.1294 10.2409 0.0000 -4.3065 0.0000
# 3 24.6900 10.2409 64.5624 0.0000 -4.9649 0.0000
# 4 0.0000 0.0000 0.0000 8.0951 0.0000 0.1282
# 5 -14.7756 -4.3065 -4.9649 0.0000 27.0445 0.0000
# 6 0.0000 0.0000 0.0000 0.1282 0.0000 -2.3158
#
#
#
# Elastic Compliance Matrix: (Units=1/GPa)
#
#
# Indices 1 2 3 4 5 6 
#
# 1 0.010664 -0.002992 -0.003238 0.000000 0.004756 0.000000
# 2 -0.002992 0.013491 -0.000970 0.000000 0.000336 0.000000
# 3 -0.003238 -0.000970 0.016973 0.000000 0.001192 0.000000
# 4 0.000000 0.000000 0.000000 0.123423 0.000000 0.006834
# 5 0.004756 0.000336 0.001192 0.000000 0.039847 0.000000
# 6 0.000000 0.000000 0.000000 0.006834 0.000000 -0.431442
#
#
# Mechanical properties :
#
#
# Convention : Reuss Voigt Hill
#
# Bulk Modulus (GPa) = 37.41337 42.97648 40.19493
# Shear Modulus (GPa) = -24.54176 19.80627 -2.36774
#
# Velocity S-wave (km/s) = -3.82719 3.43818 -1.18876
# Velocity P-wave (km/s) = 1.67325 6.43517 4.70166
#
# Compressibility (1/GPa) = 0.02672841
#
# Stress axis : x y z
#
# Youngs Moduli (GPa) = 93.77025 74.12271 58.91814
#
# Poissons Ratio (x) = 0.22177 0.19078
# Poissons Ratio (y) = 0.28056 0.05715
# Poissons Ratio (z) = 0.30363 0.07190
#
# Static dielectric constant tensor:
#      x y z
#    x 1.558710 0.000000 -0.012040 
#    y 0.000000 1.560780 0.000000 
#    z -0.012040 0.000000 1.604010 
# 
# From -- ./inp_files/122550.got.cif
#   From: 2010.05.17/outbox.cif.g08.bks.cpg/sg12_62_cif.got.tgz:122550.got - 2010.06.03 13:09:07.
