data_PCOD9182346
_publ_section_title
;
Structure prediction by ZEFSAII (Michael W. Deem and Ramdas Pophale) SiO2 
 PCOD9182346
Probable space group: C 2/M
;
_chemical_formula_sum "Si O2"
_cell_formula_units_Z 64
_cell_length_a 26.400719
_cell_length_b 9.407395
_cell_length_c 17.225948
_cell_angle_alpha 90.000000
_cell_angle_beta 117.663393
_cell_angle_gamma 90.000000
_cell_volume 3789.223504
_symmetry_space_group_name_H-M "C 2/M"
_symmetry_group_IT_number 12
_symmetry_cell_setting 'monoclinic'
loop_
_space_group_symop_operation_xyz
x,y,z
-x,y,-z
-x,-y,-z
x,-y,z
1/2+x,1/2+y,z
1/2-x,1/2+y,-z
1/2-x,1/2-y,-z
1/2+x,1/2-y,z
loop_
_atom_site_type_symbol
_atom_site_label
_atom_site_fract_x
_atom_site_fract_y
_atom_site_fract_z
Si Si1 0.288298 0.171432 0.256039
Si Si2 0.663877 0.330141 0.228714
Si Si3 0.750285 0.337958 0.921402
Si Si4 0.912534 0.671985 0.402610
Si Si5 0.378195 0.159507 0.948053
Si Si6 0.476888 0.335454 0.071442
Si Si7 0.974893 0.328046 0.605703
Si Si8 0.568126 0.331022 0.272954
O O1 0.231241 0.202556 0.266527
O O2 0.281268 0.253064 0.169789
O O3 0.348001 0.215553 0.337652
O O4 0.289047 0.000000 0.244051
O O5 0.656980 0.500000 0.213594
O O6 0.631030 0.252583 0.135504
O O7 0.631153 0.292588 0.284827
O O8 0.728768 0.500000 0.915127
O O9 0.816193 0.346161 0.942360
O O10 0.750000 0.250000 0.000000
O O11 0.913007 0.500000 0.402691
O O12 0.935481 0.713399 0.503850
O O13 0.960456 0.714541 0.373347
O O14 0.396916 0.000000 0.941271
O O15 0.423018 0.232518 0.037093
O O16 0.459231 0.500000 0.066939
O O17 0.524444 0.306885 0.170120
O O18 0.500000 0.317795 0.000000
O O19 0.973479 0.500000 0.612161
O O20 0.952501 0.255585 0.667491
O O21 0.567531 0.500000 0.289435
#
# Coordination Sequence:
#
# PCOD9182346 Si02
#       8
#     8   8   8   8   8   8   8   8
#     4   9  17  32  57  78  94 128 174 212 249 299
#     4   9  17  32  51  70  98 135 167 200 247 302
#     4  10  21  35  49  71 103 135 167 208 254 300
#     4   8  16  34  57  78  99 128 169 208 252 311
#     4  10  20  32  48  71  98 127 168 214 250 288
#     4  10  19  33  50  68  98 138 172 201 242 301
#     4   9  18  34  55  76 102 133 162 205 259 305
#     4  10  20  33  49  73 104 133 169 208 247 301
#
# _framework density 16.890004000000001
#
# number of rings (size 3 to 8) (size 9 to 14) (size 15 to 20)
#    0.000    2.625    1.250    1.500    0.000    3.750 
#    0.000    6.875    0.000    0.000    0.000    0.000 
#    0.000    0.000    0.000    0.000    0.000    0.000 
#
# Total GULP energy -178273.109196 kJ/mol
# GULP energy per Si atom -5571.034662 kJ/mol
# Density = 1.685156 g / cm^3
# Si number density = 16.890004 Si / 1000 Ang^3
#
#
#
# Elastic Constant Matrix: (Units=GPa)
#
#
# Indices 1 2 3 4 5 6 
#
# 1 106.1410 47.1829 78.3826 0.0000 1.6681 0.0000
# 2 47.1829 38.7782 45.3649 0.0000 -1.9294 0.0000
# 3 78.3826 45.3649 96.6526 0.0000 -7.4512 0.0000
# 4 0.0000 0.0000 0.0000 21.1420 0.0000 -6.5090
# 5 1.6681 -1.9294 -7.4512 0.0000 35.0676 0.0000
# 6 0.0000 0.0000 0.0000 -6.5090 0.0000 23.3779
#
#
#
# Elastic Compliance Matrix: (Units=1/GPa)
#
#
# Indices 1 2 3 4 5 6 
#
# 1 0.028523 -0.016449 -0.015845 0.000000 -0.005629 0.000000
# 2 -0.016449 0.066909 -0.018016 0.000000 0.000636 0.000000
# 3 -0.015845 -0.018016 0.032161 0.000000 0.006596 0.000000
# 4 0.000000 0.000000 0.000000 0.051734 0.000000 0.014404
# 5 -0.005629 0.000636 0.006596 0.000000 0.030221 0.000000
# 6 0.000000 0.000000 0.000000 0.014404 0.000000 0.046786
#
#
# Mechanical properties :
#
#
# Convention : Reuss Voigt Hill
#
# Bulk Modulus (GPa) = 37.07340 64.82584 50.94962
# Shear Modulus (GPa) = 13.66330 20.62692 17.14511
#
# Velocity S-wave (km/s) = 2.84730 3.49843 3.18953
# Velocity P-wave (km/s) = 5.72775 7.40157 6.61779
#
# Compressibility (1/GPa) = 0.02697352
#
# Stress axis : x y z
#
# Youngs Moduli (GPa) = 35.05960 14.94557 31.09389
#
# Poissons Ratio (x) = 0.24584 0.49268
# Poissons Ratio (y) = 0.57669 0.56019
# Poissons Ratio (z) = 0.55551 0.26926
#
# Static dielectric constant tensor:
#      x y z
#    x 1.602030 0.000000 0.006120 
#    y 0.000000 1.576870 0.000000 
#    z 0.006120 0.000000 1.539890 
# 
# From -- ./inp_files/244250.got.cif
#   From: 2010.05.17/outbox.cif.g08.bks.cpg/sg12_123_cif.got.tgz:244250.got - 2010.06.03 13:09:07.
