data_PCOD9182010
_publ_section_title
;
Structure prediction by ZEFSAII (Michael W. Deem and Ramdas Pophale) SiO2 
 PCOD9182010
Probable space group: C 2/M
;
_chemical_formula_sum "Si O2"
_cell_formula_units_Z 64
_cell_length_a 21.095002
_cell_length_b 7.699691
_cell_length_c 19.735446
_cell_angle_alpha 90.000000
_cell_angle_beta 90.429041
_cell_angle_gamma 90.000000
_cell_volume 3205.439887
_symmetry_space_group_name_H-M "C 2/M"
_symmetry_group_IT_number 12
_symmetry_cell_setting 'monoclinic'
loop_
_space_group_symop_operation_xyz
x,y,z
-x,y,-z
-x,-y,-z
x,-y,z
1/2+x,1/2+y,z
1/2-x,1/2+y,-z
1/2-x,1/2-y,-z
1/2+x,1/2-y,z
loop_
_atom_site_type_symbol
_atom_site_label
_atom_site_fract_x
_atom_site_fract_y
_atom_site_fract_z
Si Si1 0.935513 0.293987 0.704976
Si Si2 0.050280 0.294316 0.446519
Si Si3 0.382720 0.707878 0.080747
Si Si4 0.745224 0.209849 0.842407
Si Si5 0.805930 0.792617 0.552107
Si Si6 0.293539 0.701296 0.703116
Si Si7 0.991460 0.790271 0.843700
Si Si8 0.132022 0.212615 0.073489
O O1 0.924027 0.500000 0.699520
O O2 0.955227 0.226751 0.630764
O O3 0.867971 0.209467 0.722920
O O4 0.984445 0.261996 0.765503
O O5 0.037721 0.500000 0.442000
O O6 0.123911 0.271311 0.467546
O O7 0.000000 0.221112 0.500000
O O8 0.390150 0.500000 0.075199
O O9 0.320965 0.743694 0.124632
O O10 0.445637 0.774671 0.118447
O O11 0.373678 0.772939 0.004026
O O12 0.755135 0.277213 0.765899
O O13 0.803398 0.270483 0.889905
O O14 0.749699 0.000000 0.839419
O O15 0.750000 0.750000 0.500000
O O16 0.790019 0.721971 0.627499
O O17 0.811379 0.000000 0.557270
O O18 0.274267 0.500000 0.696731
O O19 0.928886 0.732057 0.883648
O O20 0.991969 0.000000 0.845588
O O21 0.132528 0.000000 0.073147
#
# Coordination Sequence:
#
# PCOD9182010 Si02
#       8
#     8   8   8   8   8   8   8   8
#     4  10  19  32  55  83 105 133 175 222 261 304
#     4   9  19  37  58  80 109 142 177 217 266 321
#     4  10  21  34  51  78 107 136 172 220 265 304
#     4  10  19  34  55  76 103 138 173 214 262 315
#     4  10  20  35  57  83 111 142 179 221 263 314
#     4   9  18  35  57  78 102 141 182 212 255 315
#     4  10  19  35  55  74 104 141 177 214 257 314
#     4   9  17  33  57  77  96 135 183 214 253 316
#
# _framework density 19.966059000000001
#
# number of rings (size 3 to 8) (size 9 to 14) (size 15 to 20)
#    0.000    2.375    1.250    1.500    0.000    3.750 
#    2.250    0.625    0.000    1.500    0.000    0.000 
#    0.000    0.000    0.000    0.000    0.000    0.000 
#
# Total GULP energy -178582.146094 kJ/mol
# GULP energy per Si atom -5580.692065 kJ/mol
# Density = 1.992062 g / cm^3
# Si number density = 19.966059 Si / 1000 Ang^3
#
#
#
# Elastic Constant Matrix: (Units=GPa)
#
#
# Indices 1 2 3 4 5 6 
#
# 1 94.2638 -12.6582 55.3513 0.0000 -3.2298 0.0000
# 2 -12.6582 30.1696 -4.8285 0.0000 -4.0176 0.0000
# 3 55.3513 -4.8285 123.3485 0.0000 -5.8304 0.0000
# 4 0.0000 0.0000 0.0000 12.0169 0.0000 -0.3767
# 5 -3.2298 -4.0176 -5.8304 0.0000 34.0461 0.0000
# 6 0.0000 0.0000 0.0000 -0.3767 0.0000 21.5081
#
#
#
# Elastic Compliance Matrix: (Units=1/GPa)
#
#
# Indices 1 2 3 4 5 6 
#
# 1 0.015239 0.005469 -0.006579 0.000000 0.000964 0.000000
# 2 0.005469 0.035923 -0.000830 0.000000 0.004616 0.000000
# 3 -0.006579 -0.000830 0.011082 0.000000 0.001176 0.000000
# 4 0.000000 0.000000 0.000000 0.083262 0.000000 0.001458
# 5 0.000964 0.004616 0.001176 0.000000 0.030209 0.000000
# 6 0.000000 0.000000 0.000000 0.001458 0.000000 0.046520
#
#
# Mechanical properties :
#
#
# Convention : Reuss Voigt Hill
#
# Bulk Modulus (GPa) = 17.13348 35.94570 26.53959
# Shear Modulus (GPa) = 20.36095 27.50871 23.93483
#
# Velocity S-wave (km/s) = 3.19686 3.71586 3.46609
# Velocity P-wave (km/s) = 4.71450 6.03761 5.41660
#
# Compressibility (1/GPa) = 0.05836526
#
# Stress axis : x y z
#
# Youngs Moduli (GPa) = 65.62123 27.83770 90.23401
#
# Poissons Ratio (x) = -0.15225 0.59362
# Poissons Ratio (y) = -0.35890 0.07489
# Poissons Ratio (z) = 0.43170 0.02310
#
# Static dielectric constant tensor:
#      x y z
#    x 1.661940 0.000000 -0.003880 
#    y 0.000000 1.757100 0.000000 
#    z -0.003880 0.000000 1.728780 
# 
# From -- ./inp_files/281238.got.cif
#   From: 2010.05.17/outbox.cif.g08.bks.cpg/sg12_141_cif.got.tgz:281238.got - 2010.06.03 13:09:07.
