data_PCOD9182748
_publ_section_title
;
Structure prediction by ZEFSAII (Michael W. Deem and Ramdas Pophale) SiO2 
 PCOD9182748
Probable space group: C 2/M
;
_chemical_formula_sum "Si O2"
_cell_formula_units_Z 64
_cell_length_a 22.502211
_cell_length_b 7.956556
_cell_length_c 19.983304
_cell_angle_alpha 90.000000
_cell_angle_beta 118.631886
_cell_angle_gamma 90.000000
_cell_volume 3140.305101
_symmetry_space_group_name_H-M "C 2/M"
_symmetry_group_IT_number 12
_symmetry_cell_setting 'monoclinic'
loop_
_space_group_symop_operation_xyz
x,y,z
-x,y,-z
-x,-y,-z
x,-y,z
1/2+x,1/2+y,z
1/2-x,1/2+y,-z
1/2-x,1/2-y,-z
1/2+x,1/2-y,z
loop_
_atom_site_type_symbol
_atom_site_label
_atom_site_fract_x
_atom_site_fract_y
_atom_site_fract_z
Si Si1 0.036116 0.298991 0.420088
Si Si2 0.643733 0.696372 0.823041
Si Si3 0.012606 0.201072 0.263503
Si Si4 0.859417 0.694104 0.033598
Si Si5 0.352562 0.296689 0.883671
Si Si6 0.515589 0.704126 0.117426
Si Si7 0.773923 0.694438 0.256980
Si Si8 0.604754 0.206267 0.590353
O O1 0.034371 0.500000 0.423991
O O2 0.049565 0.254303 0.350861
O O3 0.088174 0.241157 0.505484
O O4 0.960749 0.239843 0.401326
O O5 0.646604 0.500000 0.805961
O O6 0.565861 0.758488 0.776123
O O7 0.663648 0.712224 0.911663
O O8 0.687177 0.796684 0.793018
O O9 0.039965 0.251157 0.205574
O O10 0.010385 0.000000 0.261977
O O11 0.846089 0.500000 0.037945
O O12 0.940235 0.726207 0.069794
O O13 0.830961 0.746762 0.946478
O O14 0.352714 0.500000 0.881432
O O15 0.428277 0.241127 0.905326
O O16 0.299196 0.231575 0.800000
O O17 0.509360 0.500000 0.110008
O O18 0.763064 0.500000 0.270118
O O19 0.825799 0.768208 0.339224
O O20 0.606126 0.000000 0.593332
#
# Coordination Sequence:
#
# PCOD9182748 Si02
#       8
#     8   8   8   8   8   8   8   8
#     4   9  15  26  47  72 100 130 158 196 245 289
#     4  10  20  34  51  73 103 135 163 199 252 301
#     4   9  17  29  47  72  99 126 160 202 244 290
#     4  11  22  35  54  77  99 125 163 212 253 292
#     4  10  21  36  54  73  96 133 170 204 250 297
#     4   9  19  36  54  73 100 130 164 207 253 296
#     4  10  19  33  53  74  99 132 172 207 238 292
#     4   8  15  27  45  72 102 129 159 197 240 289
#
# _framework density 20.380184
#
# number of rings (size 3 to 8) (size 9 to 14) (size 15 to 20)
#    0.000    2.500    1.250    3.375    0.000    5.000 
#    0.000    1.875    0.000    0.750    0.000    0.000 
#    0.000    0.000    0.000    0.000    0.000    0.250 
#
# Total GULP energy -178487.767985 kJ/mol
# GULP energy per Si atom -5577.742750 kJ/mol
# Density = 2.033380 g / cm^3
# Si number density = 20.380184 Si / 1000 Ang^3
#
#
#
# Elastic Constant Matrix: (Units=GPa)
#
#
# Indices 1 2 3 4 5 6 
#
# 1 19.1901 -2.3379 -0.2232 0.0000 -3.6691 0.0000
# 2 -2.3379 19.2514 -1.9256 0.0000 2.6836 0.0000
# 3 -0.2232 -1.9256 123.5754 0.0000 -6.0082 0.0000
# 4 0.0000 0.0000 0.0000 3.7297 0.0000 -17.8322
# 5 -3.6691 2.6836 -6.0082 0.0000 29.1920 0.0000
# 6 0.0000 0.0000 0.0000 -17.8322 0.0000 3.2067
#
#
#
# Elastic Compliance Matrix: (Units=1/GPa)
#
#
# Indices 1 2 3 4 5 6 
#
# 1 0.054031 0.005724 0.000496 0.000000 0.006367 0.000000
# 2 0.005724 0.053268 0.000644 0.000000 -0.004045 0.000000
# 3 0.000496 0.000644 0.008185 0.000000 0.001688 0.000000
# 4 0.000000 0.000000 0.000000 -0.010479 0.000000 -0.058270
# 5 0.006367 -0.004045 0.001688 0.000000 0.035776 0.000000
# 6 0.000000 0.000000 0.000000 -0.058270 0.000000 -0.012187
#
#
# Mechanical properties :
#
#
# Convention : Reuss Voigt Hill
#
# Bulk Modulus (GPa) = 7.73929 17.00483 12.37206
# Shear Modulus (GPa) = 31.65836 18.32591 24.99214
#
# Velocity S-wave (km/s) = 3.94558 3.00192 3.50565
# Velocity P-wave (km/s) = 4.95606 4.51412 4.74024
#
# Compressibility (1/GPa) = 0.12921074
#
# Stress axis : x y z
#
# Youngs Moduli (GPa) = 18.50797 18.77314 122.17146
#
# Poissons Ratio (x) = -0.10745 -0.06064
# Poissons Ratio (y) = -0.10593 -0.07864
# Poissons Ratio (z) = -0.00919 -0.01208
#
# Static dielectric constant tensor:
#      x y z
#    x 1.708350 0.000000 0.012710 
#    y 0.000000 1.733120 0.000000 
#    z 0.012710 0.000000 1.781830 
# 
# From -- ./inp_files/324245.got.cif
#   From: 2010.05.17/outbox.cif.g08.bks.cpg/sg12_163_cif.got.tgz:324245.got - 2010.06.03 13:09:07.
