data_PCOD9182372
_publ_section_title
;
Structure prediction by ZEFSAII (Michael W. Deem and Ramdas Pophale) SiO2 
 PCOD9182372
Probable space group: C 2/M
;
_chemical_formula_sum "Si O2"
_cell_formula_units_Z 64
_cell_length_a 28.638637
_cell_length_b 23.413312
_cell_length_c 18.273092
_cell_angle_alpha 90.000000
_cell_angle_beta 161.229494
_cell_angle_gamma 90.000000
_cell_volume 3942.612152
_symmetry_space_group_name_H-M "C 2/M"
_symmetry_group_IT_number 12
_symmetry_cell_setting 'monoclinic'
loop_
_space_group_symop_operation_xyz
x,y,z
-x,y,-z
-x,-y,-z
x,-y,z
1/2+x,1/2+y,z
1/2-x,1/2+y,-z
1/2-x,1/2-y,-z
1/2+x,1/2-y,z
loop_
_atom_site_type_symbol
_atom_site_label
_atom_site_fract_x
_atom_site_fract_y
_atom_site_fract_z
Si Si1 0.353967 0.225142 0.747339
Si Si2 0.127966 0.323050 0.815574
Si Si3 0.848161 0.110797 0.927337
Si Si4 0.666900 0.725815 0.758387
Si Si5 0.175423 0.062316 0.259477
Si Si6 0.842806 0.156075 0.651842
Si Si7 0.194841 0.274054 0.649369
Si Si8 0.845334 0.434690 0.229253
O O1 0.276652 0.178570 0.581983
O O2 0.394935 0.283838 0.765074
O O3 0.244720 0.246120 0.648305
O O4 0.500000 0.202449 0.000000
O O5 0.168108 0.287983 0.800681
O O6 0.133402 0.389280 0.803880
O O7 0.971024 0.296237 0.601197
O O8 0.238500 0.310655 0.045303
O O9 0.794201 0.070145 0.781195
O O10 0.785313 0.171068 0.807741
O O11 0.778525 0.088483 0.898901
O O12 0.022122 0.121613 0.183677
O O13 0.500000 0.707701 0.500000
O O14 0.720414 0.731297 0.755121
O O15 0.219477 0.114855 0.376711
O O16 0.224816 0.000000 0.358762
O O17 0.000000 0.063838 0.000000
O O18 0.813888 0.500000 0.161182
O O19 0.000000 0.433886 0.500000
#
# Coordination Sequence:
#
# PCOD9182372 Si02
#       8
#     8   8   8   8   8   8   8   8
#     4  11  21  34  49  76 107 134 168 206 254 301
#     4  10  19  33  50  73 102 133 168 204 249 303
#     4  11  18  32  48  75 105 132 162 201 248 309
#     4   9  19  32  51  73  99 131 169 207 247 295
#     4   9  17  32  51  73  99 129 165 204 247 297
#     4  10  21  32  52  74 103 137 166 206 252 301
#     4  11  19  30  49  73 104 138 159 201 248 305
#     4  11  21  33  51  77 107 135 164 207 256 301
#
# _framework density 16.232892
#
# number of rings (size 3 to 8) (size 9 to 14) (size 15 to 20)
#    0.000    1.750    5.000    1.125    1.750    1.500 
#    0.000    0.000    0.000    0.750    0.000    0.875 
#    0.000    0.000    0.000    0.000    0.000    0.000 
#
# Total GULP energy -178233.058922 kJ/mol
# GULP energy per Si atom -5569.783091 kJ/mol
# Density = 1.619595 g / cm^3
# Si number density = 16.232892 Si / 1000 Ang^3
#
#
#
# Elastic Constant Matrix: (Units=GPa)
#
#
# Indices 1 2 3 4 5 6 
#
# 1 58.5829 22.9450 29.1497 0.0000 -1.2357 0.0000
# 2 22.9450 91.9154 41.3706 0.0000 -10.1659 0.0000
# 3 29.1497 41.3706 91.7719 0.0000 -19.1509 0.0000
# 4 0.0000 0.0000 0.0000 17.9313 0.0000 -5.9044
# 5 -1.2357 -10.1659 -19.1509 0.0000 16.8378 0.0000
# 6 0.0000 0.0000 0.0000 -5.9044 0.0000 9.6735
#
#
#
# Elastic Compliance Matrix: (Units=1/GPa)
#
#
# Indices 1 2 3 4 5 6 
#
# 1 0.021730 -0.003087 -0.007299 0.000000 -0.008571 0.000000
# 2 -0.003087 0.014122 -0.004791 0.000000 0.002851 0.000000
# 3 -0.007299 -0.004791 0.019221 0.000000 0.018434 0.000000
# 4 0.000000 0.000000 0.000000 0.069797 0.000000 0.042602
# 5 -0.008571 0.002851 0.018434 0.000000 0.081448 0.000000
# 6 0.000000 0.000000 0.000000 0.042602 0.000000 0.129378
#
#
# Mechanical properties :
#
#
# Convention : Reuss Voigt Hill
#
# Bulk Modulus (GPa) = 40.45379 47.68897 44.07138
# Shear Modulus (GPa) = 13.35863 18.80884 16.08374
#
# Velocity S-wave (km/s) = 2.87180 3.40764 3.15113
# Velocity P-wave (km/s) = 5.99761 6.70257 6.35986
#
# Compressibility (1/GPa) = 0.02471956
#
# Stress axis : x y z
#
# Youngs Moduli (GPa) = 46.01924 70.81282 52.02557
#
# Poissons Ratio (x) = 0.21861 0.37973
# Poissons Ratio (y) = 0.14207 0.24923
# Poissons Ratio (z) = 0.33589 0.33923
#
# Static dielectric constant tensor:
#      x y z
#    x 1.601760 0.000000 0.027050 
#    y 0.000000 1.558890 0.000000 
#    z 0.027050 0.000000 1.537840 
# 
# From -- ./inp_files/297084.got.cif
#   From: 2010.05.17/outbox.cif.g08.bks.cpg/sg12_149_cif.got.tgz:297084.got - 2010.06.03 13:09:07.
