data_PCOD9182037
_publ_section_title
;
Structure prediction by ZEFSAII (Michael W. Deem and Ramdas Pophale) SiO2 
 PCOD9182037
Probable space group: C 2/M
;
_chemical_formula_sum "Si O2"
_cell_formula_units_Z 56
_cell_length_a 25.647474
_cell_length_b 7.831494
_cell_length_c 17.683915
_cell_angle_alpha 90.000000
_cell_angle_beta 42.764148
_cell_angle_gamma 90.000000
_cell_volume 2411.714697
_symmetry_space_group_name_H-M "C 2/M"
_symmetry_group_IT_number 12
_symmetry_cell_setting 'monoclinic'
loop_
_space_group_symop_operation_xyz
x,y,z
-x,y,-z
-x,-y,-z
x,-y,z
1/2+x,1/2+y,z
1/2-x,1/2+y,-z
1/2-x,1/2-y,-z
1/2+x,1/2-y,z
loop_
_atom_site_type_symbol
_atom_site_label
_atom_site_fract_x
_atom_site_fract_y
_atom_site_fract_z
Si Si1 0.822392 0.201036 0.233771
Si Si2 0.158757 0.801713 0.346740
Si Si3 0.090442 0.706361 0.170575
Si Si4 0.336830 0.705276 0.385303
Si Si5 0.225975 0.302853 0.124604
Si Si6 0.059577 0.795200 0.588397
Si Si7 0.612673 0.193328 0.988345
O O1 0.741454 0.290907 0.301154
O O2 0.852515 0.263403 0.282747
O O3 0.804978 0.000000 0.258020
O O4 0.879805 0.223354 0.101761
O O5 0.170399 0.702429 0.256966
O O6 0.094688 0.732744 0.472247
O O7 0.142968 0.000000 0.345295
O O8 0.093756 0.500000 0.163131
O O9 0.173616 0.764485 0.112159
O O10 0.070433 0.770329 0.106980
O O11 0.027318 0.757613 0.298293
O O12 0.344778 0.500000 0.376880
O O13 0.250000 0.750000 0.500000
O O14 0.391529 0.774128 0.392694
O O15 0.248627 0.500000 0.089304
O O16 0.299647 0.196970 0.072822
O O17 0.069857 0.000000 0.574569
O O18 0.586670 0.000000 0.004455
#
# Coordination Sequence:
#
# PCOD9182037 Si02
#       7
#     8   8   8   8   8   8   8
#     4  10  19  32  55  84 109 137 175 220 268 314
#     4  10  19  33  53  80 111 140 176 219 266 318
#     4  10  23  39  54  76 107 145 183 221 266 317
#     4  10  20  35  56  83 110 139 177 217 263 318
#     4  10  20  35  56  81 107 137 180 225 267 316
#     4  10  22  37  54  78 110 144 179 218 263 319
#     4  10  20  36  57  80 107 139 180 224 266 315
#
# _framework density 23.219994
#
# number of rings (size 3 to 8) (size 9 to 14) (size 15 to 20)
#    0.000    2.000    1.429    3.857    0.000    5.143 
#    0.000    3.571    0.000    4.286    0.000    0.000 
#    0.000    0.000    0.000    0.000    0.000    0.000 
#
# Total GULP energy -156396.430600 kJ/mol
# GULP energy per Si atom -5585.586807 kJ/mol
# Density = 2.316714 g / cm^3
# Si number density = 23.219994 Si / 1000 Ang^3
#
#
#
# Elastic Constant Matrix: (Units=GPa)
#
#
# Indices 1 2 3 4 5 6 
#
# 1 28.7563 -2.0692 -15.0128 0.0087 12.8352 -0.0122
# 2 -2.0692 49.0540 6.0414 0.0078 9.9182 -0.0142
# 3 -15.0128 6.0414 93.3279 0.0103 25.7222 -0.0096
# 4 0.0087 0.0078 0.0103 31.7124 -0.0021 2.7318
# 5 12.8352 9.9182 25.7222 -0.0021 40.2517 0.0018
# 6 -0.0122 -0.0142 -0.0096 2.7318 0.0018 14.8997
#
#
#
# Elastic Compliance Matrix: (Units=1/GPa)
#
#
# Indices 1 2 3 4 5 6 
#
# 1 0.058662 0.006698 0.017737 -0.000032 -0.031691 0.000076
# 2 0.006698 0.022220 0.002108 -0.000011 -0.008958 0.000031
# 3 0.017737 0.002108 0.018369 -0.000015 -0.017914 0.000033
# 4 -0.000032 -0.000011 -0.000015 0.032039 0.000025 -0.005874
# 5 -0.031691 -0.008958 -0.017914 0.000025 0.048604 -0.000056
# 6 0.000076 0.000031 0.000033 -0.005874 -0.000056 0.068192
#
#
# Mechanical properties :
#
#
# Convention : Reuss Voigt Hill
#
# Bulk Modulus (GPa) = 6.56446 16.56190 11.56318
# Shear Modulus (GPa) = 20.34344 29.51802 24.93073
#
# Velocity S-wave (km/s) = 2.96314 3.56930 3.28025
# Velocity P-wave (km/s) = 3.81315 4.91270 4.39743
#
# Compressibility (1/GPa) = 0.15233549
#
# Stress axis : x y z
#
# Youngs Moduli (GPa) = 17.04683 45.00501 54.43999
#
# Poissons Ratio (x) = -0.30142 -0.96561
# Poissons Ratio (y) = -0.11417 -0.11475
# Poissons Ratio (z) = -0.30236 -0.09486
#
# Static dielectric constant tensor:
#      x y z
#    x 1.900290 -0.000010 0.030670 
#    y -0.000010 1.844800 0.000010 
#    z 0.030670 0.000010 1.940810 
# 
# From -- ./inp_files/295071.got.cif
#   From: 2010.05.17/outbox.cif.g08.bks.cpg/sg12_148_cif.got.tgz:295071.got - 2010.06.03 13:09:07.
