data_PCOD9182970
_publ_section_title
;
Structure prediction by ZEFSAII (Michael W. Deem and Ramdas Pophale) SiO2 
 PCOD9182970
Probable space group: C 2/M
;
_chemical_formula_sum "Si O2"
_cell_formula_units_Z 56
_cell_length_a 21.153994
_cell_length_b 7.950907
_cell_length_c 23.829596
_cell_angle_alpha 90.000000
_cell_angle_beta 46.251375
_cell_angle_gamma 90.000000
_cell_volume 2895.288053
_symmetry_space_group_name_H-M "C 2/M"
_symmetry_group_IT_number 12
_symmetry_cell_setting 'monoclinic'
loop_
_space_group_symop_operation_xyz
x,y,z
-x,y,-z
-x,-y,-z
x,-y,z
1/2+x,1/2+y,z
1/2-x,1/2+y,-z
1/2-x,1/2-y,-z
1/2+x,1/2-y,z
loop_
_atom_site_type_symbol
_atom_site_label
_atom_site_fract_x
_atom_site_fract_y
_atom_site_fract_z
Si Si1 0.752162 0.794326 0.840488
Si Si2 0.046612 0.796781 0.268735
Si Si3 0.028375 0.194032 0.570639
Si Si4 0.503473 0.202803 0.825852
Si Si5 0.671693 0.797043 0.006159
Si Si6 0.809730 0.703374 0.244139
Si Si7 0.630260 0.807543 0.403888
O O1 0.852862 0.739231 0.785782
O O2 0.696638 0.738300 0.928471
O O3 0.713305 0.739644 0.804842
O O4 0.752495 0.000000 0.840343
O O5 0.988794 0.736280 0.356788
O O6 0.011082 0.747248 0.230044
O O7 0.048085 0.000000 0.271420
O O8 0.934780 0.201772 0.595911
O O9 0.096322 0.284579 0.488031
O O10 0.055694 0.000000 0.557717
O O11 0.596300 0.264402 0.792225
O O12 0.503769 0.000000 0.830094
O O13 0.420152 0.265785 0.912650
O O14 0.667407 0.000000 0.006894
O O15 0.750000 0.750000 0.000000
O O16 0.811458 0.500000 0.242402
O O17 0.729764 0.757525 0.332699
O O18 0.617151 0.000000 0.395214
#
# Coordination Sequence:
#
# PCOD9182970 Si02
#       7
#     8   8   8   8   8   8   8
#     4   9  17  32  56  79 103 141 186 223 260 317
#     4  10  19  34  57  82 106 143 185 221 264 324
#     4  10  19  34  57  82 108 144 185 221 265 323
#     4  10  22  35  54  82 112 144 179 228 277 320
#     4  10  19  33  53  81 109 139 180 226 273 315
#     4  10  20  38  56  76 110 149 186 220 269 330
#     4  11  21  33  53  84 114 140 175 228 279 317
#
# _framework density 19.341771000000001
#
# number of rings (size 3 to 8) (size 9 to 14) (size 15 to 20)
#    0.000    2.000    2.857    2.571    0.000    2.286 
#    0.000    4.286    0.000    0.000    0.000    3.000 
#    0.000    0.000    0.000    0.000    0.000    0.000 
#
# Total GULP energy -156328.821602 kJ/mol
# GULP energy per Si atom -5583.172200 kJ/mol
# Density = 1.929775 g / cm^3
# Si number density = 19.341771 Si / 1000 Ang^3
#
#
#
# Elastic Constant Matrix: (Units=GPa)
#
#
# Indices 1 2 3 4 5 6 
#
# 1 150.0831 2.3751 100.1940 0.0002 -2.3677 -0.0001
# 2 2.3751 21.9659 6.0584 0.0019 0.7256 -0.0002
# 3 100.1940 6.0584 185.1139 0.0002 2.5653 -0.0002
# 4 0.0002 0.0019 0.0002 -4.0551 -0.0004 8.0242
# 5 -2.3677 0.7256 2.5653 -0.0004 30.7797 0.0003
# 6 -0.0001 -0.0002 -0.0002 8.0242 0.0003 20.4757
#
#
#
# Elastic Compliance Matrix: (Units=1/GPa)
#
#
# Indices 1 2 3 4 5 6 
#
# 1 0.010486 0.000398 -0.005706 0.000000 0.001273 0.000000
# 2 0.000398 0.045983 -0.001708 0.000013 -0.000911 -0.000004
# 3 -0.005706 -0.001708 0.008562 0.000000 -0.001112 0.000000
# 4 0.000000 0.000013 0.000000 -0.138894 -0.000002 0.054431
# 5 0.001273 -0.000911 -0.001112 -0.000002 0.032701 0.000000
# 6 0.000000 -0.000004 0.000000 0.054431 0.000000 0.027507
#
#
# Mechanical properties :
#
#
# Convention : Reuss Voigt Hill
#
# Bulk Modulus (GPa) = 19.60813 63.82422 41.71618
# Shear Modulus (GPa) = 287.71898 26.00908 156.86403
#
# Velocity S-wave (km/s) = 12.20976 3.67101 9.01539
# Velocity P-wave (km/s) = 14.45443 7.14410 11.40107
#
# Compressibility (1/GPa) = 0.05099924
#
# Stress axis : x y z
#
# Youngs Moduli (GPa) = 95.36227 21.74704 116.79469
#
# Poissons Ratio (x) = -0.00865 0.66648
# Poissons Ratio (y) = -0.03795 0.19945
# Poissons Ratio (z) = 0.54418 0.03714
#
# Static dielectric constant tensor:
#      x y z
#    x 1.636560 0.000000 0.006510 
#    y 0.000000 1.696500 0.000000 
#    z 0.006510 0.000000 1.682040 
# 
# From -- ./inp_files/342359.got.cif
#   From: 2010.05.17/outbox.cif.g08.bks.cpg/sg12_172_cif.got.tgz:342359.got - 2010.06.03 13:09:07.
