data_PCOD9182718
_publ_section_title
;
Structure prediction by ZEFSAII (Michael W. Deem and Ramdas Pophale) SiO2 
 PCOD9182718
Probable space group: C 2/M
;
_chemical_formula_sum "Si O2"
_cell_formula_units_Z 56
_cell_length_a 19.567406
_cell_length_b 9.468384
_cell_length_c 23.281392
_cell_angle_alpha 90.000000
_cell_angle_beta 131.847045
_cell_angle_gamma 90.000000
_cell_volume 3213.162074
_symmetry_space_group_name_H-M "C 2/M"
_symmetry_group_IT_number 12
_symmetry_cell_setting 'monoclinic'
loop_
_space_group_symop_operation_xyz
x,y,z
-x,y,-z
-x,-y,-z
x,-y,z
1/2+x,1/2+y,z
1/2-x,1/2+y,-z
1/2-x,1/2-y,-z
1/2+x,1/2-y,z
loop_
_atom_site_type_symbol
_atom_site_label
_atom_site_fract_x
_atom_site_fract_y
_atom_site_fract_z
Si Si1 0.244731 0.831748 0.436264
Si Si2 0.573859 0.840913 0.093497
Si Si3 0.961429 0.836420 0.657639
Si Si4 0.693826 0.340827 0.085640
Si Si5 0.442081 0.666770 0.095026
Si Si6 0.910772 0.338803 0.192509
Si Si7 0.583302 0.667718 0.502743
O O1 0.250000 0.750000 0.500000
O O2 0.135759 0.818065 0.363014
O O3 0.322562 0.759024 0.440216
O O4 0.263214 0.000000 0.452783
O O5 0.662222 0.771644 0.114625
O O6 0.530124 0.737744 0.115258
O O7 0.587435 0.000000 0.122129
O O8 0.500000 0.845600 0.000000
O O9 0.947327 0.814435 0.581235
O O10 0.034803 0.730255 0.724541
O O11 0.989389 0.000000 0.681037
O O12 0.662220 0.500000 0.084051
O O13 0.802112 0.340419 0.141274
O O14 0.643020 0.309088 0.996759
O O15 0.452851 0.500000 0.108130
O O16 0.426645 0.743549 0.145910
O O17 0.941211 0.500000 0.199827
O O18 0.500000 0.704359 0.500000
O O19 0.603321 0.500000 0.521850
#
# Coordination Sequence:
#
# PCOD9182718 Si02
#       7
#     8   8   8   8   8   8   8
#     4   9  17  31  53  78 103 133 168 203 241 293
#     4   9  17  30  50  74  97 123 162 211 257 306
#     4   9  19  35  52  73 103 138 173 208 254 306
#     4   9  19  34  51  73 100 134 175 217 263 310
#     4  10  19  33  53  73  98 133 173 218 265 310
#     4  11  22  34  50  74 104 136 173 215 257 305
#     4   9  18  34  57  83 108 134 167 208 251 298
#
# _framework density 17.428314
#
# number of rings (size 3 to 8) (size 9 to 14) (size 15 to 20)
#    0.000    2.571    0.000    3.000    0.000    6.571 
#    0.000    1.429    0.000    6.857    0.000    0.000 
#    0.000    0.000    0.000    0.000    0.000    0.000 
#
# Total GULP energy -155977.347583 kJ/mol
# GULP energy per Si atom -5570.619557 kJ/mol
# Density = 1.738865 g / cm^3
# Si number density = 17.428314 Si / 1000 Ang^3
#
#
#
# Elastic Constant Matrix: (Units=GPa)
#
#
# Indices 1 2 3 4 5 6 
#
# 1 -121.1659 -113.7304 -142.5329 0.0000 -469.5695 0.0000
# 2 -113.7304 -14.9552 -79.2378 0.0000 -344.3563 0.0000
# 3 -142.5329 -79.2378 -81.2561 0.0000 -336.1309 0.0000
# 4 0.0000 0.0000 0.0000 24.4067 0.0000 1.6048
# 5 -469.5695 -344.3563 -336.1309 0.0000 -954.1475 0.0000
# 6 0.0000 0.0000 0.0000 1.6048 0.0000 33.5591
#
#
#
# Elastic Compliance Matrix: (Units=1/GPa)
#
#
# Indices 1 2 3 4 5 6 
#
# 1 0.012284 -0.005939 -0.000842 0.000000 -0.003605 0.000000
# 2 -0.005939 0.019083 -0.017949 0.000000 0.002359 0.000000
# 3 -0.000842 -0.017949 0.047755 0.000000 -0.009931 0.000000
# 4 0.000000 0.000000 0.000000 0.041102 0.000000 -0.001965
# 5 -0.003605 0.002359 -0.009931 0.000000 0.003373 0.000000
# 6 0.000000 0.000000 0.000000 -0.001965 0.000000 0.029892
#
#
# Mechanical properties :
#
#
# Convention : Reuss Voigt Hill
#
# Bulk Modulus (GPa) = 33.71401 -98.70883 -32.49741
# Shear Modulus (GPa) = 23.49229 -171.36142 -73.93457
#
# Velocity S-wave (km/s) = 3.67541 -9.92658 -6.52029
# Velocity P-wave (km/s) = 6.11538 13.71651 8.68173
#
# Compressibility (1/GPa) = 0.02966126
#
# Stress axis : x y z
#
# Youngs Moduli (GPa) = 81.40824 52.40383 20.94020
#
# Poissons Ratio (x) = 0.31121 0.01764
# Poissons Ratio (y) = 0.48346 0.37585
# Poissons Ratio (z) = 0.06858 0.94059
#
# Static dielectric constant tensor:
#      x y z
#    x 1.595560 0.000000 0.005690 
#    y 0.000000 1.593160 0.000000 
#    z 0.005690 0.000000 1.590220 
# 
# From -- ./inp_files/345477.got.cif
#   From: 2010.05.17/outbox.cif.g08.bks.cpg/sg12_173_cif.got.tgz:345477.got - 2010.06.03 13:09:07.
