data_PCOD9182811
_publ_section_title
;
Structure prediction by ZEFSAII (Michael W. Deem and Ramdas Pophale) SiO2 
 PCOD9182811
Probable space group: C 2/M
;
_chemical_formula_sum "Si O2"
_cell_formula_units_Z 48
_cell_length_a 25.836742
_cell_length_b 7.361581
_cell_length_c 17.876372
_cell_angle_alpha 90.000000
_cell_angle_beta 147.399666
_cell_angle_gamma 90.000000
_cell_volume 1831.876636
_symmetry_space_group_name_H-M "C 2/M"
_symmetry_group_IT_number 12
_symmetry_cell_setting 'monoclinic'
loop_
_space_group_symop_operation_xyz
x,y,z
-x,y,-z
-x,-y,-z
x,-y,z
1/2+x,1/2+y,z
1/2-x,1/2+y,-z
1/2-x,1/2-y,-z
1/2+x,1/2-y,z
loop_
_atom_site_type_symbol
_atom_site_label
_atom_site_fract_x
_atom_site_fract_y
_atom_site_fract_z
Si Si1 0.778616 0.216881 0.779579
Si Si2 0.139742 0.782884 0.389982
Si Si3 0.159044 0.204592 0.993261
Si Si4 0.579469 0.283772 0.480286
Si Si5 0.873885 0.778399 0.210623
Si Si6 0.926777 0.778977 0.845758
O O1 0.840013 0.291278 0.923887
O O2 0.666072 0.254705 0.642882
O O3 0.824343 0.275546 0.757073
O O4 0.789448 0.000000 0.796663
O O5 0.250000 0.750000 0.500000
O O6 0.112921 0.711742 0.439510
O O7 0.072702 0.717028 0.239394
O O8 0.128255 0.000000 0.379558
O O9 0.273983 0.199670 0.117168
O O10 0.119842 0.000000 0.952047
O O11 0.115882 0.278062 0.864289
O O12 0.569667 0.500000 0.461363
O O13 0.472464 0.221043 0.369544
O O14 0.862759 0.000000 0.199414
O O15 0.932948 0.000000 0.850766
O O16 0.000000 0.721591 0.000000
#
# Coordination Sequence:
#
# PCOD9182811 Si02
#       6
#     8   8   8   8   8   8
#     4  10  20  34  53  78 105 133 169 214 256 297
#     4  10  19  33  53  76 104 136 169 206 249 299
#     4   9  19  35  55  77 102 131 169 216 257 298
#     4  10  21  34  52  77 105 137 170 207 251 304
#     4   9  19  36  55  76 102 134 171 209 256 307
#     4   9  18  31  51  78 103 131 169 210 251 296
#
# _framework density 26.202639000000001
#
# number of rings (size 3 to 8) (size 9 to 14) (size 15 to 20)
#    0.000    2.500    1.667    0.000    2.333    2.000 
#    0.000    3.333    0.000    2.000    0.000    0.000 
#    0.000    0.000    0.000    0.000    0.000    0.000 
#
# Total GULP energy -134119.884772 kJ/mol
# GULP energy per Si atom -5588.328532 kJ/mol
# Density = 2.614300 g / cm^3
# Si number density = 26.202639 Si / 1000 Ang^3
#
#
#
# Elastic Constant Matrix: (Units=GPa)
#
#
# Indices 1 2 3 4 5 6 
#
# 1 56.6609 -4.6617 -1.8478 0.0000 -4.0898 0.0000
# 2 -4.6617 102.3900 -8.8541 0.0000 -2.7417 0.0000
# 3 -1.8478 -8.8541 123.4736 0.0000 5.2970 0.0000
# 4 0.0000 0.0000 0.0000 9.0604 0.0000 3.6073
# 5 -4.0898 -2.7417 5.2970 0.0000 48.3752 0.0000
# 6 0.0000 0.0000 0.0000 3.6073 0.0000 5.1384
#
#
#
# Elastic Compliance Matrix: (Units=1/GPa)
#
#
# Indices 1 2 3 4 5 6 
#
# 1 0.017840 0.000876 0.000264 0.000000 0.001529 0.000000
# 2 0.000876 0.009882 0.000698 0.000000 0.000558 0.000000
# 3 0.000264 0.000698 0.008189 0.000000 -0.000835 0.000000
# 4 0.000000 0.000000 0.000000 0.153188 0.000000 -0.107543
# 5 0.001529 0.000558 -0.000835 0.000000 0.020924 0.000000
# 6 0.000000 0.000000 0.000000 -0.107543 0.000000 0.270112
#
#
# Mechanical properties :
#
#
# Convention : Reuss Voigt Hill
#
# Bulk Modulus (GPa) = 25.26123 27.97748 26.61935
# Shear Modulus (GPa) = 10.21130 32.37400 21.29265
#
# Velocity S-wave (km/s) = 1.97624 3.51882 2.85373
# Velocity P-wave (km/s) = 3.85603 5.21632 4.58688
#
# Compressibility (1/GPa) = 0.03958636
#
# Stress axis : x y z
#
# Youngs Moduli (GPa) = 56.05407 101.19675 122.11951
#
# Poissons Ratio (x) = -0.08865 -0.03226
# Poissons Ratio (y) = -0.04910 -0.08521
# Poissons Ratio (z) = -0.01481 -0.07061
#
# Static dielectric constant tensor:
#      x y z
#    x 2.081650 0.000000 0.002570 
#    y 0.000000 2.056550 0.000000 
#    z 0.002570 0.000000 2.043380 
# 
# From -- ./inp_files/153573.got.cif
#   From: 2010.05.17/outbox.cif.g08.bks.cpg/sg12_77_cif.got.tgz:153573.got - 2010.06.03 13:09:07.
