data_PCOD9182734
_publ_section_title
;
Structure prediction by ZEFSAII (Michael W. Deem and Ramdas Pophale) SiO2 
 PCOD9182734
Probable space group: C 2/M
;
_chemical_formula_sum "Si O2"
_cell_formula_units_Z 56
_cell_length_a 27.545815
_cell_length_b 9.225434
_cell_length_c 13.630452
_cell_angle_alpha 90.000000
_cell_angle_beta 60.533227
_cell_angle_gamma 90.000000
_cell_volume 3015.725882
_symmetry_space_group_name_H-M "C 2/M"
_symmetry_group_IT_number 12
_symmetry_cell_setting 'monoclinic'
loop_
_space_group_symop_operation_xyz
x,y,z
-x,y,-z
-x,-y,-z
x,-y,z
1/2+x,1/2+y,z
1/2-x,1/2+y,-z
1/2-x,1/2-y,-z
1/2+x,1/2-y,z
loop_
_atom_site_type_symbol
_atom_site_label
_atom_site_fract_x
_atom_site_fract_y
_atom_site_fract_z
Si Si1 0.880273 0.332577 0.258348
Si Si2 0.220148 0.325244 0.120285
Si Si3 0.420233 0.328093 0.521879
Si Si4 0.821989 0.666965 0.528589
Si Si5 0.409740 0.827115 0.732849
Si Si6 0.481109 0.825952 0.280801
Si Si7 0.714152 0.670932 0.747667
O O1 0.884083 0.500000 0.225250
O O2 0.844728 0.324792 0.395547
O O3 0.942257 0.280576 0.227862
O O4 0.844016 0.248021 0.215430
O O5 0.223324 0.500000 0.109312
O O6 0.154542 0.287073 0.186535
O O7 0.252116 0.283080 0.188729
O O8 0.250000 0.250000 0.000000
O O9 0.427649 0.500000 0.514840
O O10 0.357478 0.280133 0.556126
O O11 0.431166 0.259064 0.616699
O O12 0.455844 0.252649 0.401010
O O13 0.833228 0.500000 0.551829
O O14 0.757273 0.693333 0.614328
O O15 0.452730 0.799765 0.779526
O O16 0.411712 0.000000 0.710128
O O17 0.472263 0.000000 0.299675
O O18 0.704095 0.500000 0.765136
#
# Coordination Sequence:
#
# PCOD9182734 Si02
#       7
#     8   8   8   8   8   8   8
#     4   9  18  30  48  77 107 136 173 212 250 300
#     4  10  22  39  59  81 102 129 173 224 272 317
#     4  11  20  28  45  77 112 140 173 216 260 304
#     4   9  17  32  49  69 104 144 182 212 246 308
#     4  10  19  36  57  72  98 141 179 213 260 314
#     4   9  19  34  52  73 103 145 182 208 245 308
#     4  10  19  33  53  74 102 138 173 212 262 315
#
# _framework density 18.569327000000001
#
# number of rings (size 3 to 8) (size 9 to 14) (size 15 to 20)
#    0.000    2.286    1.429    3.000    0.000    6.286 
#    0.000    0.000    0.000    0.857    0.000    6.000 
#    0.000    0.000    0.000    0.000    0.000    0.000 
#
# Total GULP energy -156071.265913 kJ/mol
# GULP energy per Si atom -5573.973783 kJ/mol
# Density = 1.852706 g / cm^3
# Si number density = 18.569327 Si / 1000 Ang^3
#
#
#
# Elastic Constant Matrix: (Units=GPa)
#
#
# Indices 1 2 3 4 5 6 
#
# 1 185.0212 46.2200 28.0443 0.0000 -11.1025 0.0000
# 2 46.2200 26.8552 11.4930 0.0000 -2.0263 0.0000
# 3 28.0443 11.4930 28.4021 0.0000 -1.2225 0.0000
# 4 0.0000 0.0000 0.0000 19.4153 0.0000 3.9213
# 5 -11.1025 -2.0263 -1.2225 0.0000 9.5758 0.0000
# 6 0.0000 0.0000 0.0000 3.9213 0.0000 24.9336
#
#
#
# Elastic Compliance Matrix: (Units=1/GPa)
#
#
# Indices 1 2 3 4 5 6 
#
# 1 0.010351 -0.015688 -0.003518 0.000000 0.008233 0.000000
# 2 -0.015688 0.069319 -0.012781 0.000000 -0.005153 0.000000
# 3 -0.003518 -0.012781 0.043803 0.000000 -0.001191 0.000000
# 4 0.000000 0.000000 0.000000 0.053195 0.000000 -0.008366
# 5 0.008233 -0.005153 -0.001191 0.000000 0.112732 0.000000
# 6 0.000000 0.000000 0.000000 -0.008366 0.000000 0.041422
#
#
# Mechanical properties :
#
#
# Convention : Reuss Voigt Hill
#
# Bulk Modulus (GPa) = 16.80732 45.75477 31.28105
# Shear Modulus (GPa) = 12.05894 21.08637 16.57265
#
# Velocity S-wave (km/s) = 2.55110 3.37345 2.99067
# Velocity P-wave (km/s) = 4.21287 6.31403 5.36727
#
# Compressibility (1/GPa) = 0.05949789
#
# Stress axis : x y z
#
# Youngs Moduli (GPa) = 96.60765 14.42612 22.82953
#
# Poissons Ratio (x) = 0.22632 0.08031
# Poissons Ratio (y) = 1.51562 0.29178
# Poissons Ratio (z) = 0.33987 0.18438
#
# Static dielectric constant tensor:
#      x y z
#    x 1.719770 0.000000 -0.008930 
#    y 0.000000 1.621990 0.000000 
#    z -0.008930 0.000000 1.610290 
# 
# From -- ./inp_files/243264.got.cif
#   From: 2010.05.17/outbox.cif.g08.bks.cpg/sg12_122_cif.got.tgz:243264.got - 2010.06.03 13:09:07.
