data_PCOD9182435
_publ_section_title
;
Structure prediction by ZEFSAII (Michael W. Deem and Ramdas Pophale) SiO2 
 PCOD9182435
Probable space group: C 2/M
;
_chemical_formula_sum "Si O2"
_cell_formula_units_Z 56
_cell_length_a 30.607966
_cell_length_b 8.316528
_cell_length_c 19.020226
_cell_angle_alpha 90.000000
_cell_angle_beta 141.361522
_cell_angle_gamma 90.000000
_cell_volume 3023.138767
_symmetry_space_group_name_H-M "C 2/M"
_symmetry_group_IT_number 12
_symmetry_cell_setting 'monoclinic'
loop_
_space_group_symop_operation_xyz
x,y,z
-x,y,-z
-x,-y,-z
x,-y,z
1/2+x,1/2+y,z
1/2-x,1/2+y,-z
1/2-x,1/2-y,-z
1/2+x,1/2-y,z
loop_
_atom_site_type_symbol
_atom_site_label
_atom_site_fract_x
_atom_site_fract_y
_atom_site_fract_z
Si Si1 0.812934 0.693773 0.030348
Si Si2 0.465089 0.188593 0.228143
Si Si3 0.621180 0.688744 0.253022
Si Si4 0.758131 0.184179 0.351875
Si Si5 0.467389 0.305473 0.071745
Si Si6 0.688382 0.691336 0.131790
Si Si7 0.614827 0.809937 0.402791
O O1 0.814626 0.500000 0.030234
O O2 0.889084 0.754637 0.153975
O O3 0.750000 0.750000 0.000000
O O4 0.804559 0.756461 0.940165
O O5 0.466754 0.217029 0.146093
O O6 0.541891 0.248622 0.346694
O O7 0.463478 0.000000 0.243037
O O8 0.630630 0.500000 0.248880
O O9 0.684727 0.782953 0.298630
O O10 0.541889 0.735015 0.130768
O O11 0.624437 0.717453 0.341219
O O12 0.743059 0.226910 0.252249
O O13 0.818889 0.286386 0.464387
O O14 0.778141 0.000000 0.385188
O O15 0.469002 0.500000 0.085012
O O16 0.391557 0.268746 0.944387
O O17 0.696143 0.500000 0.146519
O O18 0.607289 0.000000 0.376734
#
# Coordination Sequence:
#
# PCOD9182435 Si02
#       7
#     8   8   8   8   8   8   8
#     4  10  19  34  57  86 111 132 158 196 244 301
#     4   8  16  30  51  76 102 129 163 203 246 292
#     4  10  19  33  51  73  99 132 174 219 257 295
#     4  12  24  35  47  69 101 139 176 214 255 300
#     4   8  16  30  50  72  97 128 166 209 254 298
#     4  10  20  36  54  75 102 134 168 207 255 306
#     4  10  19  34  53  73  98 134 176 217 253 291
#
# _framework density 18.523793999999999
#
# number of rings (size 3 to 8) (size 9 to 14) (size 15 to 20)
#    0.000    2.286    0.000    3.429    0.000    2.857 
#    0.000    2.857    0.000    0.857    0.000    6.000 
#    0.000    0.000    0.000    0.000    0.000    0.000 
#
# Total GULP energy -156104.037301 kJ/mol
# GULP energy per Si atom -5575.144189 kJ/mol
# Density = 1.848163 g / cm^3
# Si number density = 18.523794 Si / 1000 Ang^3
#
#
#
# Elastic Constant Matrix: (Units=GPa)
#
#
# Indices 1 2 3 4 5 6 
#
# 1 94.5809 0.3471 32.3296 0.0000 19.4108 0.0000
# 2 0.3471 24.8225 -5.0968 0.0000 2.2771 0.0000
# 3 32.3296 -5.0968 80.6730 0.0000 9.4870 0.0000
# 4 0.0000 0.0000 0.0000 18.1087 0.0000 -0.1455
# 5 19.4108 2.2771 9.4870 0.0000 19.7333 0.0000
# 6 0.0000 0.0000 0.0000 -0.1455 0.0000 23.5207
#
#
#
# Elastic Compliance Matrix: (Units=1/GPa)
#
#
# Indices 1 2 3 4 5 6 
#
# 1 0.014590 0.000013 -0.004407 0.000000 -0.012234 0.000000
# 2 0.000013 0.041570 0.003378 0.000000 -0.006434 0.000000
# 3 -0.004407 0.003378 0.014745 0.000000 -0.003143 0.000000
# 4 0.000000 0.000000 0.000000 0.055225 0.000000 0.000342
# 5 -0.012234 -0.006434 -0.003143 0.000000 0.064964 0.000000
# 6 0.000000 0.000000 0.000000 0.000342 0.000000 0.042518
#
#
# Mechanical properties :
#
#
# Convention : Reuss Voigt Hill
#
# Bulk Modulus (GPa) = 14.51973 28.35956 21.43965
# Shear Modulus (GPa) = 19.33476 23.77231 21.55354
#
# Velocity S-wave (km/s) = 3.23426 3.58626 3.41480
# Velocity P-wave (km/s) = 4.66934 5.70012 5.21028
#
# Compressibility (1/GPa) = 0.06887179
#
# Stress axis : x y z
#
# Youngs Moduli (GPa) = 68.53846 24.05607 67.81948
#
# Poissons Ratio (x) = -0.00032 0.29891
# Poissons Ratio (y) = -0.00091 -0.22907
# Poissons Ratio (z) = 0.30208 -0.08125
#
# Static dielectric constant tensor:
#      x y z
#    x 1.638730 0.000000 0.037530 
#    y 0.000000 1.646450 0.000000 
#    z 0.037530 0.000000 1.662270 
# 
# From -- ./inp_files/280933.got.cif
#   From: 2010.05.17/outbox.cif.g08.bks.cpg/sg12_141_cif.got.tgz:280933.got - 2010.06.03 13:09:07.
