data_PCOD9182436
_publ_section_title
;
Structure prediction by ZEFSAII (Michael W. Deem and Ramdas Pophale) SiO2 
 PCOD9182436
Probable space group: C 2/M
;
_chemical_formula_sum "Si O2"
_cell_formula_units_Z 52
_cell_length_a 9.809362
_cell_length_b 30.679045
_cell_length_c 15.102066
_cell_angle_alpha 90.000000
_cell_angle_beta 142.792772
_cell_angle_gamma 90.000000
_cell_volume 2748.265205
_symmetry_space_group_name_H-M "C 2/M"
_symmetry_group_IT_number 12
_symmetry_cell_setting 'monoclinic'
loop_
_space_group_symop_operation_xyz
x,y,z
-x,y,-z
-x,-y,-z
x,-y,z
1/2+x,1/2+y,z
1/2-x,1/2+y,-z
1/2-x,1/2-y,-z
1/2+x,1/2-y,z
loop_
_atom_site_type_symbol
_atom_site_label
_atom_site_fract_x
_atom_site_fract_y
_atom_site_fract_z
Si Si1 0.020803 0.850919 0.708537
Si Si2 0.712844 0.789785 0.046399
Si Si3 0.726376 0.597288 0.559567
Si Si4 0.499675 0.123841 0.863437
Si Si5 0.362937 0.000000 0.641271
Si Si6 0.296742 0.000000 0.822200
Si Si7 0.373227 0.500000 0.843089
Si Si8 0.617766 0.569848 0.853011
O O1 0.076651 0.804497 0.781785
O O2 0.265097 0.865442 0.793136
O O3 0.987078 0.885834 0.767994
O O4 0.827625 0.864778 0.539853
O O5 0.500000 0.780598 0.000000
O O6 0.750000 0.750000 0.000000
O O7 0.644792 0.832640 0.954145
O O8 0.500000 0.596988 0.500000
O O9 0.761401 0.546104 0.554995
O O10 0.931452 0.611588 0.729026
O O11 0.644358 0.084251 0.979920
O O12 0.346293 0.000000 0.742264
O O13 0.613796 0.000000 0.733173
O O14 0.161935 0.957188 0.785465
O O15 0.500000 0.000000 0.000000
O O16 0.465716 0.540683 0.836362
O O17 0.500000 0.500000 0.000000
#
# Coordination Sequence:
#
# PCOD9182436 Si02
#       8
#     8   8   8   8   4   4   4   8
#     4   9  18  33  55  78 102 136 179 221 263 316
#     4   9  18  35  59  85 108 132 166 214 271 326
#     4  10  19  33  53  79 106 141 187 227 261 303
#     4   9  17  32  56  81 106 136 177 226 268 312
#     4  12  23  33  48  76 113 148 183 229 275 316
#     4  11  17  26  49  73  95 130 184 233 259 289
#     4  11  23  33  45  71 108 146 183 226 276 317
#     4  10  19  33  51  73  99 137 184 227 265 306
#
# _framework density 18.921028
#
# number of rings (size 3 to 8) (size 9 to 14) (size 15 to 20)
#    0.000    2.154    0.000    7.154    0.000    1.231 
#    0.000   10.000    0.000    0.000    0.000    0.000 
#    0.000    0.000    0.000    0.000    0.000    0.000 
#
# Total GULP energy -144794.469167 kJ/mol
# GULP energy per Si atom -5569.018045 kJ/mol
# Density = 1.887796 g / cm^3
# Si number density = 18.921028 Si / 1000 Ang^3
#
#
#
# Elastic Constant Matrix: (Units=GPa)
#
#
# Indices 1 2 3 4 5 6 
#
# 1 75.1756 45.8152 29.7787 0.0000 -4.6069 0.0000
# 2 45.8152 122.2081 43.4380 0.0000 -13.4266 0.0000
# 3 29.7787 43.4380 116.1461 0.0000 -17.0406 0.0000
# 4 0.0000 0.0000 0.0000 21.7806 0.0000 -5.7863
# 5 -4.6069 -13.4266 -17.0406 0.0000 12.9193 0.0000
# 6 0.0000 0.0000 0.0000 -5.7863 0.0000 18.6635
#
#
#
# Elastic Compliance Matrix: (Units=1/GPa)
#
#
# Indices 1 2 3 4 5 6 
#
# 1 0.017934 -0.006118 -0.002858 0.000000 -0.003732 0.000000
# 2 -0.006118 0.011969 -0.001740 0.000000 0.007963 0.000000
# 3 -0.002858 -0.001740 0.011877 0.000000 0.012839 0.000000
# 4 0.000000 0.000000 0.000000 0.050034 0.000000 0.015512
# 5 -0.003732 0.007963 0.012839 0.000000 0.101283 0.000000
# 6 0.000000 0.000000 0.000000 0.015512 0.000000 0.058390
#
#
# Mechanical properties :
#
#
# Convention : Reuss Voigt Hill
#
# Bulk Modulus (GPa) = 49.13950 61.28817 55.21383
# Shear Modulus (GPa) = 17.87633 23.63920 20.75776
#
# Velocity S-wave (km/s) = 3.07707 3.53846 3.31580
# Velocity P-wave (km/s) = 6.21705 7.01115 6.62601
#
# Compressibility (1/GPa) = 0.02035023
#
# Stress axis : x y z
#
# Youngs Moduli (GPa) = 55.76071 83.54588 84.19797
#
# Poissons Ratio (x) = 0.51110 0.24061
# Poissons Ratio (y) = 0.34112 0.14648
# Poissons Ratio (z) = 0.15934 0.14534
#
# Static dielectric constant tensor:
#      x y z
#    x 1.607190 0.000000 -0.032420 
#    y 0.000000 1.677490 0.000000 
#    z -0.032420 0.000000 1.747140 
# 
# From -- ./inp_files/201378.got.cif
#   From: 2010.05.17/outbox.cif.g08.bks.cpg/sg12_101_cif.got.tgz:201378.got - 2010.06.03 13:09:07.
