data_PCOD9182453
_publ_section_title
;
Structure prediction by ZEFSAII (Michael W. Deem and Ramdas Pophale) SiO2 
 PCOD9182453
Probable space group: C 2/M
;
_chemical_formula_sum "Si O2"
_cell_formula_units_Z 48
_cell_length_a 11.461590
_cell_length_b 21.421244
_cell_length_c 13.042218
_cell_angle_alpha 90.000000
_cell_angle_beta 143.944907
_cell_angle_gamma 90.000000
_cell_volume 1884.663809
_symmetry_space_group_name_H-M "C 2/M"
_symmetry_group_IT_number 12
_symmetry_cell_setting 'monoclinic'
loop_
_space_group_symop_operation_xyz
x,y,z
-x,y,-z
-x,-y,-z
x,-y,z
1/2+x,1/2+y,z
1/2-x,1/2+y,-z
1/2-x,1/2-y,-z
1/2+x,1/2-y,z
loop_
_atom_site_type_symbol
_atom_site_label
_atom_site_fract_x
_atom_site_fract_y
_atom_site_fract_z
Si Si1 0.743167 0.362092 0.663077
Si Si2 0.765636 0.068916 0.546406
Si Si3 0.344431 0.379565 0.812459
Si Si4 0.751715 0.930941 0.130831
Si Si5 0.145448 0.189932 0.884144
Si Si6 0.845473 0.740909 0.304595
O O1 0.500000 0.363249 0.500000
O O2 0.801113 0.382782 0.589436
O O3 0.805096 0.412836 0.793283
O O4 0.798101 0.292334 0.741771
O O5 0.733174 0.082142 0.644858
O O6 0.006234 0.066732 0.704955
O O7 0.686586 0.000000 0.465487
O O8 0.473777 0.334165 0.832968
O O9 0.226195 0.325856 0.788983
O O10 0.500000 0.412850 0.000000
O O11 0.711610 0.869245 0.035290
O O12 0.683946 0.000000 0.052561
O O13 0.062077 0.215924 0.717568
O O14 0.250000 0.250000 0.000000
O O15 0.000000 0.722319 0.500000
#
# Coordination Sequence:
#
# PCOD9182453 Si02
#       6
#     8   8   8   8   8   8
#     4   8  14  26  46  72 100 126 159 215 267 303
#     4   9  17  28  45  72 103 131 169 216 257 299
#     4  11  21  33  52  75 106 141 173 209 260 310
#     4   8  14  25  45  72 100 128 165 214 264 306
#     4  10  19  33  51  75 108 138 170 213 262 313
#     4  10  20  34  53  79 105 132 173 218 258 309
#
# _framework density 25.468734000000001
#
# number of rings (size 3 to 8) (size 9 to 14) (size 15 to 20)
#    0.000    2.667    1.667    3.500    0.000    5.000 
#    0.000    0.000    0.000    0.500    0.000   12.833 
#    0.000    0.000    0.000    0.000    0.000    0.000 
#
# Total GULP energy -133843.222361 kJ/mol
# GULP energy per Si atom -5576.800932 kJ/mol
# Density = 2.541077 g / cm^3
# Si number density = 25.468734 Si / 1000 Ang^3
#
#
#
# Elastic Constant Matrix: (Units=GPa)
#
#
# Indices 1 2 3 4 5 6 
#
# 1 51.6946 1.7652 7.0392 0.0000 -2.3113 0.0000
# 2 1.7652 121.5068 21.4189 0.0000 -2.9801 0.0000
# 3 7.0392 21.4189 56.7431 0.0000 -25.8344 0.0000
# 4 0.0000 0.0000 0.0000 25.5888 0.0000 -5.6057
# 5 -2.3113 -2.9801 -25.8344 0.0000 34.4834 0.0000
# 6 0.0000 0.0000 0.0000 -5.6057 0.0000 18.6057
#
#
#
# Elastic Compliance Matrix: (Units=1/GPa)
#
#
# Indices 1 2 3 4 5 6 
#
# 1 0.019695 0.000205 -0.002901 0.000000 -0.000836 0.000000
# 2 0.000205 0.008978 -0.004636 0.000000 -0.002684 0.000000
# 3 -0.002901 -0.004636 0.029537 0.000000 0.021534 0.000000
# 4 0.000000 0.000000 0.000000 0.041841 0.000000 0.012606
# 5 -0.000836 -0.002684 0.021534 0.000000 0.044844 0.000000
# 6 0.000000 0.000000 0.000000 0.012606 0.000000 0.057545
#
#
# Mechanical properties :
#
#
# Convention : Reuss Voigt Hill
#
# Bulk Modulus (GPa) = 22.96445 32.26567 27.61506
# Shear Modulus (GPa) = 21.58688 29.05033 25.31861
#
# Velocity S-wave (km/s) = 2.91449 3.38098 3.15636
# Velocity P-wave (km/s) = 4.51242 5.28560 4.91424
#
# Compressibility (1/GPa) = 0.04354557
#
# Stress axis : x y z
#
# Youngs Moduli (GPa) = 50.77424 111.37725 33.85542
#
# Poissons Ratio (x) = -0.02281 0.09821
# Poissons Ratio (y) = -0.01040 0.15697
# Poissons Ratio (z) = 0.14729 0.51640
#
# Static dielectric constant tensor:
#      x y z
#    x 2.130300 0.000000 0.075310 
#    y 0.000000 2.045090 0.000000 
#    z 0.075310 0.000000 2.159350 
# 
# From -- ./inp_files/77672.got.cif
#   From: 2010.05.17/outbox.cif.g08.bks.cpg/sg12_39_cif.got.tgz:77672.got - 2010.06.03 13:09:07.
