data_PCOD9182731
_publ_section_title
;
Structure prediction by ZEFSAII (Michael W. Deem and Ramdas Pophale) SiO2 
 PCOD9182731
Probable space group: C 2/M
;
_chemical_formula_sum "Si O2"
_cell_formula_units_Z 56
_cell_length_a 16.299209
_cell_length_b 7.898884
_cell_length_c 19.430985
_cell_angle_alpha 90.000000
_cell_angle_beta 119.771038
_cell_angle_gamma 90.000000
_cell_volume 2171.476276
_symmetry_space_group_name_H-M "C 2/M"
_symmetry_group_IT_number 12
_symmetry_cell_setting 'monoclinic'
loop_
_space_group_symop_operation_xyz
x,y,z
-x,y,-z
-x,-y,-z
x,-y,z
1/2+x,1/2+y,z
1/2-x,1/2+y,-z
1/2-x,1/2-y,-z
1/2+x,1/2-y,z
loop_
_atom_site_type_symbol
_atom_site_label
_atom_site_fract_x
_atom_site_fract_y
_atom_site_fract_z
Si Si1 0.507589 0.698541 0.399117
Si Si2 0.054568 0.696364 0.120301
Si Si3 0.971818 0.294780 0.741519
Si Si4 0.293301 0.806400 0.304734
Si Si5 0.362840 0.693885 0.986868
Si Si6 0.809409 0.801501 0.459015
Si Si7 0.691674 0.207144 0.838379
O O1 0.485797 0.500000 0.403199
O O2 0.554215 0.716323 0.342548
O O3 0.408388 0.794094 0.355025
O O4 0.584628 0.767963 0.484707
O O5 0.080940 0.500000 0.122950
O O6 0.096373 0.802052 0.074954
O O7 0.077073 0.755171 0.207114
O O8 0.940264 0.705356 0.062269
O O9 0.965070 0.500000 0.733514
O O10 0.082373 0.246882 0.797069
O O11 0.264555 0.734312 0.366395
O O12 0.271551 0.728465 0.220911
O O13 0.264417 0.000000 0.291009
O O14 0.360977 0.500000 0.009569
O O15 0.258016 0.764369 0.928366
O O16 0.750000 0.750000 0.500000
O O17 0.821819 0.000000 0.468101
O O18 0.695892 0.000000 0.839632
#
# Coordination Sequence:
#
# PCOD9182731 Si02
#       7
#     8   8   8   8   8   8   8
#     4  10  21  37  57  81 109 140 177 222 265 312
#     4  10  20  34  51  74 105 136 171 216 261 308
#     4   9  19  36  56  77 103 137 175 216 263 313
#     4  10  20  37  60  82 108 143 178 215 265 321
#     4  10  19  33  53  74 101 138 175 210 255 313
#     4  11  24  39  55  80 112 142 178 223 267 312
#     4   8  17  34  54  77 103 132 171 215 256 303
#
# _framework density 25.788909
#
# number of rings (size 3 to 8) (size 9 to 14) (size 15 to 20)
#    0.000    2.286    0.000    4.286    0.000    6.857 
#    0.000   11.429    0.000    0.000    0.000    0.000 
#    0.000    0.000    0.000    0.000    0.000    0.000 
#
# Total GULP energy -156634.134432 kJ/mol
# GULP energy per Si atom -5594.076230 kJ/mol
# Density = 2.573021 g / cm^3
# Si number density = 25.788909 Si / 1000 Ang^3
#
#
#
# Elastic Constant Matrix: (Units=GPa)
#
#
# Indices 1 2 3 4 5 6 
#
# 1 62.9963 5.0753 18.6079 0.0000 -17.1002 0.0000
# 2 5.0753 63.3745 0.6935 0.0000 1.5223 0.0000
# 3 18.6079 0.6935 155.9383 0.0000 -12.0612 0.0000
# 4 0.0000 0.0000 0.0000 26.2604 0.0000 -1.5644
# 5 -17.1002 1.5223 -12.0612 0.0000 57.3336 0.0000
# 6 0.0000 0.0000 0.0000 -1.5644 0.0000 23.5242
#
#
#
# Elastic Compliance Matrix: (Units=1/GPa)
#
#
# Indices 1 2 3 4 5 6 
#
# 1 0.017869 -0.001532 -0.001738 0.000000 0.005005 0.000000
# 2 -0.001532 0.015922 0.000045 0.000000 -0.000870 0.000000
# 3 -0.001738 0.000045 0.006689 0.000000 0.000887 0.000000
# 4 0.000000 0.000000 0.000000 0.038232 0.000000 0.002542
# 5 0.005005 -0.000870 0.000887 0.000000 0.019144 0.000000
# 6 0.000000 0.000000 0.000000 0.002542 0.000000 0.042679
#
#
# Mechanical properties :
#
#
# Convention : Reuss Voigt Hill
#
# Bulk Modulus (GPa) = 29.38714 36.78472 33.08593
# Shear Modulus (GPa) = 31.57969 38.61912 35.09940
#
# Velocity S-wave (km/s) = 3.50315 3.87396 3.69321
# Velocity P-wave (km/s) = 5.27093 5.85704 5.57170
#
# Compressibility (1/GPa) = 0.03402850
#
# Stress axis : x y z
#
# Youngs Moduli (GPa) = 55.96158 62.80487 149.50645
#
# Poissons Ratio (x) = 0.09623 0.25991
# Poissons Ratio (y) = 0.08575 -0.00668
# Poissons Ratio (z) = 0.09729 -0.00281
#
# Static dielectric constant tensor:
#      x y z
#    x 2.165160 0.000000 0.013060 
#    y 0.000000 1.876690 0.000000 
#    z 0.013060 0.000000 2.064820 
# 
# From -- ./inp_files/314386.got.cif
#   From: 2010.05.17/outbox.cif.g08.bks.cpg/sg12_158_cif.got.tgz:314386.got - 2010.06.03 13:09:07.
