data_PCOD9182265
_publ_section_title
;
Structure prediction by ZEFSAII (Michael W. Deem and Ramdas Pophale) SiO2 
 PCOD9182265
Probable space group: C 2/M
;
_chemical_formula_sum "Si O2"
_cell_formula_units_Z 60
_cell_length_a 8.394341
_cell_length_b 17.731520
_cell_length_c 14.948403
_cell_angle_alpha 90.000000
_cell_angle_beta 103.652065
_cell_angle_gamma 90.000000
_cell_volume 2162.123743
_symmetry_space_group_name_H-M "C 2/M"
_symmetry_group_IT_number 12
_symmetry_cell_setting 'monoclinic'
loop_
_space_group_symop_operation_xyz
x,y,z
-x,y,-z
-x,-y,-z
x,-y,z
1/2+x,1/2+y,z
1/2-x,1/2+y,-z
1/2-x,1/2-y,-z
1/2+x,1/2-y,z
loop_
_atom_site_type_symbol
_atom_site_label
_atom_site_fract_x
_atom_site_fract_y
_atom_site_fract_z
Si Si1 0.339850 0.811626 0.659717
Si Si2 0.888561 0.419885 0.297551
Si Si3 0.219350 0.417149 0.517038
Si Si4 0.452701 0.500000 0.756298
Si Si5 0.509811 0.674054 0.399247
Si Si6 0.322486 0.914089 0.026036
Si Si7 0.866320 0.780637 0.902047
Si Si8 0.136620 0.860605 0.835172
O O1 0.497569 0.852510 0.721568
O O2 0.309012 0.856396 0.562238
O O3 0.365544 0.726136 0.636822
O O4 0.159457 0.818554 0.675912
O O5 0.972949 0.500000 0.286285
O O6 0.882017 0.411009 0.405308
O O7 0.699476 0.436230 0.251105
O O8 0.200982 0.500000 0.477762
O O9 0.407329 0.406375 0.575185
O O10 0.588494 0.432148 0.768114
O O11 0.500000 0.706440 0.500000
O O12 0.266361 0.844353 0.082740
O O13 0.319050 0.000000 0.065201
O O14 0.500000 0.906595 0.000000
O O15 0.183152 0.908529 0.932010
O O16 0.780925 0.703093 0.860218
O O17 0.976137 0.811632 0.836717
O O18 0.000000 0.769063 0.000000
#
# Coordination Sequence:
#
# PCOD9182265 Si02
#       8
#     8   8   8   4   8   8   8   8
#     4  11  19  33  55  82 111 141 176 229 295 338
#     4   9  20  37  56  75 103 142 188 231 264 340
#     4  10  19  33  55  83 108 139 172 229 292 339
#     4  10  24  40  61  80 111 160 207 240 279 342
#     4  10  20  30  51  84 116 135 164 220 287 368
#     4  10  19  32  58  98 129 152 186 234 293 345
#     4  10  21  34  62  92 125 151 192 236 290 349
#     4  11  20  39  59  85 123 160 188 238 288 340
#
# _framework density 27.750492999999999
#
# number of rings (size 3 to 8) (size 9 to 14) (size 15 to 20)
#    0.400    1.467    0.667    6.800    0.933    4.800 
#    0.000    2.667    0.000    4.800    0.000    0.000 
#    0.000    0.000    0.000    0.000    0.000    0.000 
#
# Total GULP energy -167105.888594 kJ/mol
# GULP energy per Si atom -5570.196286 kJ/mol
# Density = 2.768733 g / cm^3
# Si number density = 27.750493 Si / 1000 Ang^3
#
#
#
# Elastic Constant Matrix: (Units=GPa)
#
#
# Indices 1 2 3 4 5 6 
#
# 1 109.1935 80.3555 3.7048 0.0000 22.8940 0.0000
# 2 80.3555 202.9504 37.0303 0.0000 20.2133 0.0000
# 3 3.7048 37.0303 109.3203 0.0000 21.8715 0.0000
# 4 0.0000 0.0000 0.0000 49.8737 0.0000 37.4471
# 5 22.8940 20.2133 21.8715 0.0000 28.1665 0.0000
# 6 0.0000 0.0000 0.0000 37.4471 0.0000 64.6475
#
#
#
# Elastic Compliance Matrix: (Units=1/GPa)
#
#
# Indices 1 2 3 4 5 6 
#
# 1 0.015662 -0.005733 0.003712 0.000000 -0.011498 0.000000
# 2 -0.005733 0.007548 -0.002618 0.000000 0.001276 0.000000
# 3 0.003712 -0.002618 0.012000 0.000000 -0.010457 0.000000
# 4 0.000000 0.000000 0.000000 0.035483 0.000000 -0.020554
# 5 -0.011498 0.001276 -0.010457 0.000000 0.052053 0.000000
# 6 0.000000 0.000000 0.000000 -0.020554 0.000000 0.027374
#
#
# Mechanical properties :
#
#
# Convention : Reuss Voigt Hill
#
# Bulk Modulus (GPa) = 38.56306 73.73836 56.15071
# Shear Modulus (GPa) = 29.75438 48.56245 39.15841
#
# Velocity S-wave (km/s) = 3.27802 4.18780 3.76052
# Velocity P-wave (km/s) = 5.31542 7.07200 6.25567
#
# Compressibility (1/GPa) = 0.02593155
#
# Stress axis : x y z
#
# Youngs Moduli (GPa) = 63.84941 132.48871 83.33057
#
# Poissons Ratio (x) = 0.75958 -0.30929
# Poissons Ratio (y) = 0.36606 0.21813
# Poissons Ratio (z) = -0.23698 0.34681
#
# Static dielectric constant tensor:
#      x y z
#    x 2.299110 0.000000 -0.038960 
#    y 0.000000 2.140610 0.000000 
#    z -0.038960 0.000000 2.341260 
# 
# From -- ./inp_files/333358.got.cif
#   From: 2010.05.17/outbox.cif.g08.bks.cpg/sg12_167_cif.got.tgz:333358.got - 2010.06.03 13:09:07.
