data_PCOD9182235
_publ_section_title
;
Structure prediction by ZEFSAII (Michael W. Deem and Ramdas Pophale) SiO2 
 PCOD9182235
Probable space group: C 2/M
;
_chemical_formula_sum "Si O2"
_cell_formula_units_Z 52
_cell_length_a 19.537680
_cell_length_b 13.660926
_cell_length_c 23.691736
_cell_angle_alpha 90.000000
_cell_angle_beta 156.879922
_cell_angle_gamma 90.000000
_cell_volume 2482.938940
_symmetry_space_group_name_H-M "C 2/M"
_symmetry_group_IT_number 12
_symmetry_cell_setting 'monoclinic'
loop_
_space_group_symop_operation_xyz
x,y,z
-x,y,-z
-x,-y,-z
x,-y,z
1/2+x,1/2+y,z
1/2-x,1/2+y,-z
1/2-x,1/2-y,-z
1/2+x,1/2-y,z
loop_
_atom_site_type_symbol
_atom_site_label
_atom_site_fract_x
_atom_site_fract_y
_atom_site_fract_z
Si Si1 0.373416 0.751514 0.262749
Si Si2 0.051775 0.816247 0.792862
Si Si3 0.659381 0.105436 0.919059
Si Si4 0.197630 0.614814 0.474638
Si Si5 0.383875 0.384494 0.493467
Si Si6 0.380581 0.109800 0.806493
Si Si7 0.500000 0.245441 0.000000
O O1 0.362852 0.671566 0.204150
O O2 0.522931 0.827955 0.358414
O O3 0.453805 0.687975 0.374787
O O4 0.182419 0.797969 0.123721
O O5 0.099625 0.704068 0.843463
O O6 0.851857 0.842135 0.630883
O O7 0.143254 0.879693 0.910281
O O8 0.543292 0.103656 0.887103
O O9 0.634230 0.000000 0.870714
O O10 0.179806 0.500000 0.470988
O O11 0.264798 0.626514 0.460409
O O12 0.429852 0.500000 0.525828
O O13 0.725946 0.361000 0.645876
O O14 0.436907 0.179715 0.899555
O O15 0.343423 0.000000 0.799643
#
# Coordination Sequence:
#
# PCOD9182235 Si02
#       7
#     8   8   8   8   8   8   4
#     4  11  22  38  56  83 118 158 197 235 286 341
#     4  10  19  35  59  89 122 148 190 242 302 350
#     4  10  19  32  57  92 125 153 183 234 299 360
#     4  10  20  37  62  88 113 147 194 250 303 346
#     4   9  19  36  62  90 117 145 186 237 296 358
#     4  10  20  36  55  82 117 156 193 232 284 349
#     4  12  25  38  51  78 118 164 200 236 278 342
#
# _framework density 20.942921999999999
#
# number of rings (size 3 to 8) (size 9 to 14) (size 15 to 20)
#    0.000    1.846    1.538    4.385    0.000    4.308 
#    0.000    1.923    0.000    0.000    0.000    3.231 
#    0.000    0.000    0.000    0.000    0.000    0.000 
#
# Total GULP energy -145060.124556 kJ/mol
# GULP energy per Si atom -5579.235560 kJ/mol
# Density = 2.089526 g / cm^3
# Si number density = 20.942922 Si / 1000 Ang^3
#
#
#
# Elastic Constant Matrix: (Units=GPa)
#
#
# Indices 1 2 3 4 5 6 
#
# 1 54.6832 22.5475 44.4743 -0.0010 -7.0373 -0.0006
# 2 22.5475 90.3317 47.6865 -0.0050 -15.6834 -0.0025
# 3 44.4743 47.6865 172.4289 -0.0022 6.8213 -0.0018
# 4 -0.0010 -0.0050 -0.0022 7.6455 0.0016 -3.6592
# 5 -7.0373 -15.6834 6.8213 0.0016 40.1264 0.0015
# 6 -0.0006 -0.0025 -0.0018 -3.6592 0.0015 10.6805
#
#
#
# Elastic Compliance Matrix: (Units=1/GPa)
#
#
# Indices 1 2 3 4 5 6 
#
# 1 0.024579 -0.002256 -0.005891 -0.000002 0.004430 -0.000001
# 2 -0.002256 0.014617 -0.003696 0.000009 0.005945 0.000005
# 3 -0.005891 -0.003696 0.008496 0.000001 -0.003922 0.000001
# 4 -0.000002 0.000009 0.000001 0.156450 -0.000005 0.053601
# 5 0.004430 0.005945 -0.003922 -0.000005 0.028689 -0.000005
# 6 -0.000001 0.000005 0.000001 0.053601 -0.000005 0.111993
#
#
# Mechanical properties :
#
#
# Convention : Reuss Voigt Hill
#
# Bulk Modulus (GPa) = 41.65581 60.76228 51.20904
# Shear Modulus (GPa) = 13.27985 25.20617 19.24301
#
# Velocity S-wave (km/s) = 2.52086 3.47301 3.03451
# Velocity P-wave (km/s) = 5.32976 6.72002 6.06486
#
# Compressibility (1/GPa) = 0.02400626
#
# Stress axis : x y z
#
# Youngs Moduli (GPa) = 40.68585 68.41516 117.70083
#
# Poissons Ratio (x) = 0.15435 0.69336
# Poissons Ratio (y) = 0.09179 0.43498
# Poissons Ratio (z) = 0.23967 0.25284
#
# Static dielectric constant tensor:
#      x y z
#    x 1.795170 0.000000 0.018160 
#    y 0.000000 1.764340 0.000000 
#    z 0.018160 0.000000 1.834120 
# 
# From -- ./inp_files/166584.got.cif
#   From: 2010.05.17/outbox.cif.g08.bks.cpg/sg12_84_cif.got.tgz:166584.got - 2010.06.03 13:09:07.
