data_PCOD9182874
_publ_section_title
;
Structure prediction by ZEFSAII (Michael W. Deem and Ramdas Pophale) SiO2 
 PCOD9182874
Probable space group: C 2/M
;
_chemical_formula_sum "Si O2"
_cell_formula_units_Z 40
_cell_length_a 19.737987
_cell_length_b 8.671672
_cell_length_c 13.860842
_cell_angle_alpha 90.000000
_cell_angle_beta 70.575130
_cell_angle_gamma 90.000000
_cell_volume 2237.397290
_symmetry_space_group_name_H-M "C 2/M"
_symmetry_group_IT_number 12
_symmetry_cell_setting 'monoclinic'
loop_
_space_group_symop_operation_xyz
x,y,z
-x,y,-z
-x,-y,-z
x,-y,z
1/2+x,1/2+y,z
1/2-x,1/2+y,-z
1/2-x,1/2-y,-z
1/2+x,1/2-y,z
loop_
_atom_site_type_symbol
_atom_site_label
_atom_site_fract_x
_atom_site_fract_y
_atom_site_fract_z
Si Si1 0.578815 0.314649 0.171840
Si Si2 0.280826 0.315792 0.386321
Si Si3 0.574469 0.183120 0.763166
Si Si4 0.722618 0.685322 0.216089
Si Si5 0.632591 0.314870 0.932505
O O1 0.568723 0.500000 0.180040
O O2 0.504431 0.233284 0.231838
O O3 0.645194 0.274401 0.209584
O O4 0.601597 0.274380 0.051565
O O5 0.278275 0.500000 0.387043
O O6 0.250000 0.250000 0.500000
O O7 0.362325 0.259904 0.329205
O O8 0.236424 0.250545 0.316123
O O9 0.587136 0.243428 0.866412
O O10 0.583052 0.000000 0.757102
O O11 0.729502 0.500000 0.214044
O O12 0.786523 0.753718 0.120174
O O13 0.632182 0.500000 0.922859
#
# Coordination Sequence:
#
# PCOD9182874 Si02
#       5
#     8   8   8   8   8
#     4  10  21  35  52  78 114 150 180 219 268 314
#     4  11  22  40  63  82 104 135 175 221 270 324
#     4  11  22  35  54  81 110 142 183 225 265 314
#     4  10  20  35  55  81 111 142 181 223 266 317
#     4  10  19  33  53  77 110 151 188 219 260 314
#
# _framework density 17.877915999999999
#
# number of rings (size 3 to 8) (size 9 to 14) (size 15 to 20)
#    0.000    1.600    0.000    8.400    0.000    5.600 
#    0.000    1.000    0.000    6.000    0.000    0.000 
#    0.000    0.000    0.000    0.000    0.000    0.000 
#
# Total GULP energy -111783.244834 kJ/mol
# GULP energy per Si atom -5589.162242 kJ/mol
# Density = 1.783722 g / cm^3
# Si number density = 17.877916 Si / 1000 Ang^3
#
#
#
# Elastic Constant Matrix: (Units=GPa)
#
#
# Indices 1 2 3 4 5 6 
#
# 1 99.3816 20.6431 27.0475 0.0000 -22.7767 0.0000
# 2 20.6431 67.5159 19.1126 0.0000 -7.4157 0.0000
# 3 27.0475 19.1126 94.0430 0.0000 -6.3167 0.0000
# 4 0.0000 0.0000 0.0000 27.8582 0.0000 -3.4031
# 5 -22.7767 -7.4157 -6.3167 0.0000 7.4078 0.0000
# 6 0.0000 0.0000 0.0000 -3.4031 0.0000 33.5090
#
#
#
# Elastic Compliance Matrix: (Units=1/GPa)
#
#
# Indices 1 2 3 4 5 6 
#
# 1 0.035073 0.001962 -0.003300 0.000000 0.106988 0.000000
# 2 0.001962 0.017278 -0.002661 0.000000 0.021059 0.000000
# 3 -0.003300 -0.002661 0.011947 0.000000 -0.002622 0.000000
# 4 0.000000 0.000000 0.000000 0.036347 0.000000 0.003691
# 5 0.106988 0.021059 -0.002622 0.000000 0.482794 0.000000
# 6 0.000000 0.000000 0.000000 0.003691 0.000000 0.030218
#
#
# Mechanical properties :
#
#
# Convention : Reuss Voigt Hill
#
# Bulk Modulus (GPa) = 17.76208 43.83854 30.80031
# Shear Modulus (GPa) = 7.80736 26.69749 17.25242
#
# Velocity S-wave (km/s) = 2.09201 3.86854 3.10984
# Velocity P-wave (km/s) = 3.97393 6.67297 5.49184
#
# Compressibility (1/GPa) = 0.05629970
#
# Stress axis : x y z
#
# Youngs Moduli (GPa) = 28.51216 57.87742 83.70192
#
# Poissons Ratio (x) = -0.11354 0.27619
# Poissons Ratio (y) = -0.05593 0.22274
# Poissons Ratio (z) = 0.09408 0.15402
#
# Static dielectric constant tensor:
#      x y z
#    x 1.609210 0.000000 -0.002420 
#    y 0.000000 1.599060 0.000000 
#    z -0.002420 0.000000 1.582420 
# 
# From -- ./inp_files/187013.got.cif
#   From: 2010.05.17/outbox.cif.g08.bks.cpg/sg12_94_cif.got.tgz:187013.got - 2010.06.03 13:09:07.
