data_PCOD9182711
_publ_section_title
;
Structure prediction by ZEFSAII (Michael W. Deem and Ramdas Pophale) SiO2 
 PCOD9182711
Probable space group: C 2/M
;
_chemical_formula_sum "Si O2"
_cell_formula_units_Z 48
_cell_length_a 14.151927
_cell_length_b 21.941523
_cell_length_c 14.416836
_cell_angle_alpha 90.000000
_cell_angle_beta 31.230865
_cell_angle_gamma 90.000000
_cell_volume 2321.083575
_symmetry_space_group_name_H-M "C 2/M"
_symmetry_group_IT_number 12
_symmetry_cell_setting 'monoclinic'
loop_
_space_group_symop_operation_xyz
x,y,z
-x,y,-z
-x,-y,-z
x,-y,z
1/2+x,1/2+y,z
1/2-x,1/2+y,-z
1/2-x,1/2-y,-z
1/2+x,1/2-y,z
loop_
_atom_site_type_symbol
_atom_site_label
_atom_site_fract_x
_atom_site_fract_y
_atom_site_fract_z
Si Si1 0.263939 0.568709 0.294142
Si Si2 0.542417 0.103383 0.312538
Si Si3 0.496954 0.688465 0.339897
Si Si4 0.356935 0.256348 0.043218
Si Si5 0.615414 0.202638 0.689110
Si Si6 0.136710 0.116566 0.066153
O O1 0.270414 0.500000 0.250075
O O2 0.178390 0.612093 0.286690
O O3 0.461127 0.589601 0.161760
O O4 0.123072 0.568356 0.498704
O O5 0.441204 0.158935 0.347368
O O6 0.681789 0.079973 0.115851
O O7 0.665352 0.728092 0.235387
O O8 0.405330 0.728600 0.332928
O O9 0.317181 0.683793 0.553342
O O10 0.577436 0.628750 0.222127
O O11 0.500000 0.275961 0.000000
O O12 0.465840 0.203942 0.895446
O O13 0.321472 0.315364 0.009394
#
# Coordination Sequence:
#
# PCOD9182711 Si02
#       6
#     8   8   8   8   8   8
#     4  11  25  37  51  81 114 143 194 233 257 317
#     4  11  19  35  54  72 103 151 179 221 269 310
#     4  10  19  34  51  79 105 140 187 225 264 333
#     4  11  21  33  52  83 110 141 188 226 266 331
#     4  10  19  33  53  73 109 146 179 221 270 327
#     4  11  20  35  56  74 108 153 182 220 275 319
#
# _framework density 20.679995999999999
#
# number of rings (size 3 to 8) (size 9 to 14) (size 15 to 20)
#    0.000    1.333    5.000    3.500    0.000    2.667 
#    0.000    0.000    0.000    0.000    0.000    0.000 
#    0.000    7.333    0.000    0.000    0.000    0.000 
#
# Total GULP energy -133631.325749 kJ/mol
# GULP energy per Si atom -5567.971906 kJ/mol
# Density = 2.063293 g / cm^3
# Si number density = 20.679996 Si / 1000 Ang^3
#
#
#
# Elastic Constant Matrix: (Units=GPa)
#
#
# Indices 1 2 3 4 5 6 
#
# 1 25.1460 8.1185 23.4876 -0.0104 -18.0282 0.0083
# 2 8.1185 41.1400 25.1408 -0.0042 -0.1343 0.0074
# 3 23.4876 25.1408 138.3592 0.0391 -35.4367 -0.0038
# 4 -0.0104 -0.0042 0.0391 5.5462 0.0025 4.7418
# 5 -18.0282 -0.1343 -35.4367 0.0025 36.4346 -0.0063
# 6 0.0083 0.0074 -0.0038 4.7418 -0.0063 8.4282
#
#
#
# Elastic Compliance Matrix: (Units=1/GPa)
#
#
# Indices 1 2 3 4 5 6 
#
# 1 0.068321 -0.012876 -0.000815 0.000263 0.032965 -0.000180
# 2 -0.012876 0.030902 -0.006701 0.000145 -0.012775 -0.000109
# 3 -0.000815 -0.006701 0.011285 -0.000207 0.010548 0.000136
# 4 0.000263 0.000145 -0.000207 0.347429 -0.000128 -0.195471
# 5 0.032965 -0.012775 0.010548 -0.000128 0.053970 0.000096
# 6 -0.000180 -0.000109 0.000136 -0.195471 0.000096 0.228626
#
#
# Mechanical properties :
#
#
# Convention : Reuss Voigt Hill
#
# Bulk Modulus (GPa) = 14.34266 35.34875 24.84571
# Shear Modulus (GPa) = 6.21459 19.94169 13.07814
#
# Velocity S-wave (km/s) = 1.73541 3.10868 2.51750
# Velocity P-wave (km/s) = 3.31151 5.47864 4.52668
#
# Compressibility (1/GPa) = 0.06972209
#
# Stress axis : x y z
#
# Youngs Moduli (GPa) = 14.63685 32.36077 88.61124
#
# Poissons Ratio (x) = 0.41669 0.07224
# Poissons Ratio (y) = 0.18847 0.59380
# Poissons Ratio (z) = 0.01193 0.21685
#
# Static dielectric constant tensor:
#      x y z
#    x 1.771070 0.000000 0.016560 
#    y 0.000000 1.748670 0.000010 
#    z 0.016560 0.000010 1.949550 
# 
# From -- ./inp_files/218409.got.cif
#   From: 2010.05.17/outbox.cif.g08.bks.cpg/sg12_110_cif.got.tgz:218409.got - 2010.06.03 13:09:07.
