data_PCOD9182419
_publ_section_title
;
Structure prediction by ZEFSAII (Michael W. Deem and Ramdas Pophale) SiO2 
 PCOD9182419
Probable space group: C 2/M
;
_chemical_formula_sum "Si O2"
_cell_formula_units_Z 56
_cell_length_a 22.785506
_cell_length_b 20.957647
_cell_length_c 17.945090
_cell_angle_alpha 90.000000
_cell_angle_beta 154.928308
_cell_angle_gamma 90.000000
_cell_volume 3631.270135
_symmetry_space_group_name_H-M "C 2/M"
_symmetry_group_IT_number 12
_symmetry_cell_setting 'monoclinic'
loop_
_space_group_symop_operation_xyz
x,y,z
-x,y,-z
-x,-y,-z
x,-y,z
1/2+x,1/2+y,z
1/2-x,1/2+y,-z
1/2-x,1/2-y,-z
1/2+x,1/2-y,z
loop_
_atom_site_type_symbol
_atom_site_label
_atom_site_fract_x
_atom_site_fract_y
_atom_site_fract_z
Si Si1 0.286398 0.376979 0.428978
Si Si2 0.361460 0.303467 0.652610
Si Si3 0.654842 0.000000 0.208957
Si Si4 0.650987 0.249575 0.207574
Si Si5 0.900332 0.128866 0.265557
Si Si6 0.851019 0.262566 0.298021
Si Si7 0.677301 0.696049 0.966259
Si Si8 0.650533 0.500000 0.709865
O O1 0.322064 0.364730 0.557072
O O2 0.198826 0.438741 0.307783
O O3 0.201005 0.315776 0.303240
O O4 0.433478 0.377510 0.554183
O O5 0.250000 0.250000 0.500000
O O6 0.351345 0.303241 0.730300
O O7 0.520541 0.286617 0.812526
O O8 0.744501 0.000000 0.237094
O O9 0.500000 0.000000 0.000000
O O10 0.753670 0.260657 0.257668
O O11 0.500000 0.242288 0.000000
O O12 0.868993 0.192113 0.279648
O O13 0.840370 0.065120 0.232820
O O14 0.840567 0.139329 0.113613
O O15 0.777122 0.307903 0.152256
O O16 0.000000 0.282722 0.500000
O O17 0.750000 0.750000 0.000000
O O18 0.500000 0.500000 0.500000
#
# Coordination Sequence:
#
# PCOD9182419 Si02
#       8
#     8   8   4   8   8   8   8   4
#     4  10  19  34  50  68 101 134 165 198 242 295
#     4   9  19  32  47  70  97 131 164 197 248 298
#     4  12  24  36  48  76 102 129 165 202 240 283
#     4  11  19  30  47  73  99 129 163 203 249 290
#     4  10  19  33  51  72  97 133 167 202 236 289
#     4  11  19  31  49  72 102 129 163 206 246 288
#     4   9  19  32  47  70  99 128 164 202 243 295
#     4  12  20  34  54  72  96 130 171 194 233 289
#
# _framework density 15.421601000000001
#
# number of rings (size 3 to 8) (size 9 to 14) (size 15 to 20)
#    0.000    1.714    4.286    1.714    2.000    0.000 
#    2.571    0.000    0.000    0.000    0.000    2.000 
#    0.000    0.000    0.000    0.000    0.000    0.000 
#
# Total GULP energy -155911.976718 kJ/mol
# GULP energy per Si atom -5568.284883 kJ/mol
# Density = 1.538650 g / cm^3
# Si number density = 15.421601 Si / 1000 Ang^3
#
#
#
# Elastic Constant Matrix: (Units=GPa)
#
#
# Indices 1 2 3 4 5 6 
#
# 1 103.0151 33.4684 54.6732 0.0000 -8.0813 0.0000
# 2 33.4684 55.5826 36.2361 0.0000 -9.7199 0.0000
# 3 54.6732 36.2361 135.4386 0.0000 -6.0452 0.0000
# 4 0.0000 0.0000 0.0000 20.7734 0.0000 -7.0986
# 5 -8.0813 -9.7199 -6.0452 0.0000 32.0694 0.0000
# 6 0.0000 0.0000 0.0000 -7.0986 0.0000 22.2349
#
#
#
# Elastic Compliance Matrix: (Units=1/GPa)
#
#
# Indices 1 2 3 4 5 6 
#
# 1 0.013692 -0.005438 -0.004026 0.000000 0.001043 0.000000
# 2 -0.005438 0.024978 -0.004247 0.000000 0.005400 0.000000
# 3 -0.004026 -0.004247 0.010127 0.000000 -0.000393 0.000000
# 4 0.000000 0.000000 0.000000 0.054033 0.000000 0.017250
# 5 0.001043 0.005400 -0.000393 0.000000 0.033008 0.000000
# 6 0.000000 0.000000 0.000000 0.017250 0.000000 0.050482
#
#
# Mechanical properties :
#
#
# Convention : Reuss Voigt Hill
#
# Bulk Modulus (GPa) = 46.77842 60.31019 53.54431
# Shear Modulus (GPa) = 22.63802 26.32612 24.48207
#
# Velocity S-wave (km/s) = 3.83553 4.13618 3.98869
# Velocity P-wave (km/s) = 7.07205 7.87421 7.48389
#
# Compressibility (1/GPa) = 0.02137738
#
# Stress axis : x y z
#
# Youngs Moduli (GPa) = 73.03281 40.03460 98.74330
#
# Poissons Ratio (x) = 0.21770 0.39753
# Poissons Ratio (y) = 0.39713 0.41934
# Poissons Ratio (z) = 0.29402 0.17002
#
# Static dielectric constant tensor:
#      x y z
#    x 1.524280 0.000000 -0.035640 
#    y 0.000000 1.499160 0.000000 
#    z -0.035640 0.000000 1.506040 
# 
# From -- ./inp_files/90365.got.cif
#   From: 2010.05.17/outbox.cif.g08.bks.cpg/sg12_46_cif.got.tgz:90365.got - 2010.06.03 13:09:07.
