data_PCOD9182398
_publ_section_title
;
Structure prediction by ZEFSAII (Michael W. Deem and Ramdas Pophale) SiO2 
 PCOD9182398
Probable space group: C 2/M
;
_chemical_formula_sum "Si O2"
_cell_formula_units_Z 40
_cell_length_a 5.270584
_cell_length_b 14.630105
_cell_length_c 25.882592
_cell_angle_alpha 90.000000
_cell_angle_beta 107.904659
_cell_angle_gamma 90.000000
_cell_volume 1899.128802
_symmetry_space_group_name_H-M "C 2/M"
_symmetry_group_IT_number 12
_symmetry_cell_setting 'monoclinic'
loop_
_space_group_symop_operation_xyz
x,y,z
-x,y,-z
-x,-y,-z
x,-y,z
1/2+x,1/2+y,z
1/2-x,1/2+y,-z
1/2-x,1/2-y,-z
1/2+x,1/2-y,z
loop_
_atom_site_type_symbol
_atom_site_label
_atom_site_fract_x
_atom_site_fract_y
_atom_site_fract_z
Si Si1 0.713834 0.352669 0.476016
Si Si2 0.359721 0.688590 0.942729
Si Si3 0.579519 0.388702 0.351323
Si Si4 0.985913 0.390482 0.288703
Si Si5 0.703932 0.691173 0.172108
O O1 0.500000 0.397183 0.500000
O O2 0.750000 0.250000 0.500000
O O3 0.622773 0.351954 0.411427
O O4 0.000000 0.397489 0.500000
O O5 0.575475 0.769672 0.942890
O O6 0.325284 0.640736 0.885108
O O7 0.500000 0.639317 0.000000
O O8 0.582719 0.500000 0.354759
O O9 0.813706 0.359656 0.327276
O O10 0.291997 0.359694 0.311358
O O11 0.990481 0.500000 0.290839
O O12 0.839844 0.361687 0.227319
O O13 0.415176 0.727757 0.171884
#
# Coordination Sequence:
#
# PCOD9182398 Si02
#       5
#     8   8   8   8   8
#     4  10  21  38  53  77 104 127 161 207 256 307
#     4   8  14  25  44  68 101 137 170 213 258 299
#     4  10  21  38  58  76 100 137 175 203 248 317
#     4  10  21  38  55  77 108 142 173 210 261 309
#     4  10  19  33  50  81 108 134 181 221 258 304
#
# _framework density 21.062290999999998
#
# number of rings (size 3 to 8) (size 9 to 14) (size 15 to 20)
#    0.000    2.400    0.000    2.400    0.000    0.800 
#   21.600    0.000    0.000    0.600    0.000    0.000 
#    0.000   20.800    0.000    0.000    0.000    3.200 
#
# Total GULP energy -111593.316375 kJ/mol
# GULP energy per Si atom -5579.665819 kJ/mol
# Density = 2.101435 g / cm^3
# Si number density = 21.062291 Si / 1000 Ang^3
#
#
#
# Elastic Constant Matrix: (Units=GPa)
#
#
# Indices 1 2 3 4 5 6 
#
# 1 123.8330 -4.3647 -6.7381 0.0000 -0.2077 0.0000
# 2 -4.3647 47.9464 -2.1156 0.0000 -2.0894 0.0000
# 3 -6.7381 -2.1156 126.8133 0.0000 1.2433 0.0000
# 4 0.0000 0.0000 0.0000 72.0998 0.0000 27.8775
# 5 -0.2077 -2.0894 1.2433 0.0000 38.8034 0.0000
# 6 0.0000 0.0000 0.0000 27.8775 0.0000 0.2703
#
#
#
# Elastic Compliance Matrix: (Units=1/GPa)
#
#
# Indices 1 2 3 4 5 6 
#
# 1 0.008127 0.000762 0.000444 0.000000 0.000070 0.000000
# 2 0.000762 0.020992 0.000380 0.000000 0.001122 0.000000
# 3 0.000444 0.000380 0.007918 0.000000 -0.000231 0.000000
# 4 0.000000 0.000000 0.000000 -0.000357 0.000000 0.036794
# 5 0.000070 0.001122 -0.000231 0.000000 0.025839 0.000000
# 6 0.000000 0.000000 0.000000 0.036794 0.000000 -0.095161
#
#
# Mechanical properties :
#
#
# Convention : Reuss Voigt Hill
#
# Bulk Modulus (GPa) = 24.87070 30.23955 27.55513
# Shear Modulus (GPa) = -223.09891 43.02209 -90.03841
#
# Velocity S-wave (km/s) = -10.30307 4.52443 -6.54534
# Velocity P-wave (km/s) = 11.38877 6.45618 6.63407
#
# Compressibility (1/GPa) = 0.04020795
#
# Stress axis : x y z
#
# Youngs Moduli (GPa) = 123.05372 47.63786 126.29787
#
# Poissons Ratio (x) = -0.03632 -0.05605
# Poissons Ratio (y) = -0.09382 -0.04796
# Poissons Ratio (z) = -0.05461 -0.01809
#
# Static dielectric constant tensor:
#      x y z
#    x 1.764260 0.000000 0.004640 
#    y 0.000000 1.741420 0.000000 
#    z 0.004640 0.000000 1.774330 
# 
# From -- ./inp_files/252599.got.cif
#   From: 2010.05.17/outbox.cif.g08.bks.cpg/sg12_127_cif.got.tgz:252599.got - 2010.06.03 13:09:07.
