data_PCOD9182428
_publ_section_title
;
Structure prediction by ZEFSAII (Michael W. Deem and Ramdas Pophale) SiO2 
 PCOD9182428
Probable space group: C 2/M
;
_chemical_formula_sum "Si O2"
_cell_formula_units_Z 64
_cell_length_a 26.784012
_cell_length_b 9.164787
_cell_length_c 15.746946
_cell_angle_alpha 90.000000
_cell_angle_beta 108.982187
_cell_angle_gamma 90.000000
_cell_volume 3655.197753
_symmetry_space_group_name_H-M "C 2/M"
_symmetry_group_IT_number 12
_symmetry_cell_setting 'monoclinic'
loop_
_space_group_symop_operation_xyz
x,y,z
-x,y,-z
-x,-y,-z
x,-y,z
1/2+x,1/2+y,z
1/2-x,1/2+y,-z
1/2-x,1/2-y,-z
1/2+x,1/2-y,z
loop_
_atom_site_type_symbol
_atom_site_label
_atom_site_fract_x
_atom_site_fract_y
_atom_site_fract_z
Si Si1 0.057202 0.662057 0.072066
Si Si2 0.076819 0.174604 0.606893
Si Si3 0.599952 0.829367 0.279135
Si Si4 0.036312 0.825351 0.393357
Si Si5 0.815469 0.675898 0.276531
Si Si6 0.699145 0.674752 0.248078
Si Si7 0.145367 0.168875 0.039683
Si Si8 0.300003 0.173468 0.071018
O O1 0.081706 0.500000 0.068735
O O2 0.061747 0.681130 0.175577
O O3 0.089313 0.792283 0.047978
O O4 0.000000 0.660307 0.000000
O O5 0.060848 0.201965 0.500166
O O6 0.131298 0.252473 0.659721
O O7 0.025528 0.219752 0.634432
O O8 0.082765 0.000000 0.620162
O O9 0.570891 0.752864 0.341249
O O10 0.655326 0.755636 0.280576
O O11 0.608913 0.000000 0.301980
O O12 0.037356 0.000000 0.379987
O O13 0.819448 0.500000 0.283923
O O14 0.760448 0.717811 0.292667
O O15 0.808722 0.714903 0.173405
O O16 0.694305 0.500000 0.258405
O O17 0.684691 0.701117 0.140537
O O18 0.151732 0.000000 0.020370
O O19 0.153510 0.270673 0.963490
O O20 0.293518 0.000000 0.063920
O O21 0.250000 0.250000 0.000000
#
# Coordination Sequence:
#
# PCOD9182428 Si02
#       8
#     8   8   8   8   8   8   8   8
#     4   9  19  35  51  72 107 144 177 221 272 314
#     4   9  20  38  60  84 107 139 179 220 271 329
#     4  10  20  33  55  84 105 136 186 225 263 321
#     4   9  19  39  61  80 109 142 175 220 276 329
#     4  10  21  36  54  80 113 144 179 224 276 323
#     4   9  18  35  53  73 107 146 178 214 267 320
#     4  10  19  33  51  73 102 139 184 222 262 315
#     4  11  21  34  51  75 107 143 181 219 263 313
#
# _framework density 17.509314
#
# number of rings (size 3 to 8) (size 9 to 14) (size 15 to 20)
#    0.000    2.375    1.250    1.875    0.000    4.750 
#    0.000    5.625    0.000    0.000    0.000    0.000 
#    0.000    0.000    0.000    0.000    0.000    0.000 
#
# Total GULP energy -178349.737427 kJ/mol
# GULP energy per Si atom -5573.429295 kJ/mol
# Density = 1.746946 g / cm^3
# Si number density = 17.509314 Si / 1000 Ang^3
#
#
#
# Elastic Constant Matrix: (Units=GPa)
#
#
# Indices 1 2 3 4 5 6 
#
# 1 141.3753 59.7802 75.7227 0.0000 -0.3982 0.0000
# 2 59.7802 51.4444 43.1253 0.0000 -3.2396 0.0000
# 3 75.7227 43.1253 65.0813 0.0000 -0.1047 0.0000
# 4 0.0000 0.0000 0.0000 27.2994 0.0000 -1.9116
# 5 -0.3982 -3.2396 -0.1047 0.0000 35.8117 0.0000
# 6 0.0000 0.0000 0.0000 -1.9116 0.0000 34.4107
#
#
#
# Elastic Compliance Matrix: (Units=1/GPa)
#
#
# Indices 1 2 3 4 5 6 
#
# 1 0.020322 -0.008619 -0.017935 0.000000 -0.000606 0.000000
# 2 -0.008619 0.047928 -0.021724 0.000000 0.004176 0.000000
# 3 -0.017935 -0.021724 0.050625 0.000000 -0.002017 0.000000
# 4 0.000000 0.000000 0.000000 0.036774 0.000000 0.002043
# 5 -0.000606 0.004176 -0.002017 0.000000 0.028289 0.000000
# 6 0.000000 0.000000 0.000000 0.002043 0.000000 0.029174
#
#
# Mechanical properties :
#
#
# Convention : Reuss Voigt Hill
#
# Bulk Modulus (GPa) = 44.80430 68.35082 56.57756
# Shear Modulus (GPa) = 15.76747 24.78922 20.27835
#
# Velocity S-wave (km/s) = 3.00412 3.76676 3.40685
# Velocity P-wave (km/s) = 6.13819 7.61837 6.91798
#
# Compressibility (1/GPa) = 0.02231929
#
# Stress axis : x y z
#
# Youngs Moduli (GPa) = 49.20680 20.86475 19.75292
#
# Poissons Ratio (x) = 0.17982 0.35428
# Poissons Ratio (y) = 0.42409 0.42912
# Poissons Ratio (z) = 0.88254 0.45327
#
# Static dielectric constant tensor:
#      x y z
#    x 1.633030 0.000000 -0.007180 
#    y 0.000000 1.602290 0.000000 
#    z -0.007180 0.000000 1.582810 
# 
# From -- ./inp_files/244137.got.cif
#   From: 2010.05.17/outbox.cif.g08.bks.cpg/sg12_123_cif.got.tgz:244137.got - 2010.06.03 13:09:07.
