data_PCOD9182661
_publ_section_title
;
Structure prediction by ZEFSAII (Michael W. Deem and Ramdas Pophale) SiO2 
 PCOD9182661
Probable space group: C 2/M
;
_chemical_formula_sum "Si O2"
_cell_formula_units_Z 60
_cell_length_a 24.535803
_cell_length_b 31.737104
_cell_length_c 5.175125
_cell_angle_alpha 90.000000
_cell_angle_beta 139.247204
_cell_angle_gamma 90.000000
_cell_volume 2630.670042
_symmetry_space_group_name_H-M "C 2/M"
_symmetry_group_IT_number 12
_symmetry_cell_setting 'monoclinic'
loop_
_space_group_symop_operation_xyz
x,y,z
-x,y,-z
-x,-y,-z
x,-y,z
1/2+x,1/2+y,z
1/2-x,1/2+y,-z
1/2-x,1/2-y,-z
1/2+x,1/2-y,z
loop_
_atom_site_type_symbol
_atom_site_label
_atom_site_fract_x
_atom_site_fract_y
_atom_site_fract_z
Si Si1 0.249991 0.950796 0.494244
Si Si2 0.838543 0.612656 0.422458
Si Si3 0.806789 0.702430 0.493265
Si Si4 0.075174 0.546845 0.565659
Si Si5 0.681820 0.378733 0.561534
Si Si6 0.805442 0.208301 0.416691
Si Si7 0.558319 0.500000 0.461042
Si Si8 0.441969 0.591361 0.536889
O O1 0.283858 0.922096 0.381749
O O2 0.180114 0.922050 0.391637
O O3 0.225778 0.000000 0.362150
O O4 0.334632 0.953873 0.969677
O O5 0.850355 0.656817 0.614490
O O6 0.915871 0.585756 0.597020
O O7 0.779941 0.625457 0.970489
O O8 0.852550 0.747090 0.603758
O O9 0.770177 0.708106 0.648028
O O10 0.732493 0.703943 0.009086
O O11 0.067768 0.500000 0.419161
O O12 0.000000 0.551858 0.500000
O O13 0.648977 0.334822 0.331989
O O14 0.634371 0.379701 0.664383
O O15 0.500000 0.500000 0.500000
O O16 0.600290 0.545017 0.619558
O O17 0.500000 0.500000 0.000000
O O18 0.500000 0.598457 0.500000
O O19 0.500000 0.593126 0.000000
#
# Coordination Sequence:
#
# PCOD9182661 Si02
#       8
#     8   8   8   8   8   8   4   8
#     4  10  20  33  51  80 110 140 178 225 277 321
#     4  10  19  33  52  80 109 138 178 229 277 324
#     4   9  17  30  52  78 110 134 175 221 273 321
#     4   9  19  35  53  75 109 151 189 222 265 332
#     4  10  21  34  53  76 109 136 181 225 280 320
#     4   9  17  31  51  80 104 138 174 223 271 327
#     4   8  16  34  48  64  92 126 175 212 245 298
#     4  10  22  36  52  73 101 142 183 220 262 317
#
# _framework density 22.807874999999999
#
# number of rings (size 3 to 8) (size 9 to 14) (size 15 to 20)
#    0.000    2.533    1.333    0.400    2.800    1.067 
#    0.000    2.000    0.000    0.800    3.467    0.000 
#    0.000    0.000    0.000    0.000    0.000    0.000 
#
# Total GULP energy -167026.554553 kJ/mol
# GULP energy per Si atom -5567.551818 kJ/mol
# Density = 2.275596 g / cm^3
# Si number density = 22.807875 Si / 1000 Ang^3
#
#
#
# Elastic Constant Matrix: (Units=GPa)
#
#
# Indices 1 2 3 4 5 6 
#
# 1 102.0619 66.2024 13.7802 0.0000 -4.2141 0.0000
# 2 66.2024 232.1120 6.9891 0.0000 6.0206 0.0000
# 3 13.7802 6.9891 63.6735 0.0000 -9.8193 0.0000
# 4 0.0000 0.0000 0.0000 9.9579 0.0000 -11.7786
# 5 -4.2141 6.0206 -9.8193 0.0000 29.5488 0.0000
# 6 0.0000 0.0000 0.0000 -11.7786 0.0000 35.7590
#
#
#
# Elastic Compliance Matrix: (Units=1/GPa)
#
#
# Indices 1 2 3 4 5 6 
#
# 1 0.012439 -0.003534 -0.002023 0.000000 0.001822 0.000000
# 2 -0.003534 0.005360 -0.000073 0.000000 -0.001621 0.000000
# 3 -0.002023 -0.000073 0.016979 0.000000 0.005369 0.000000
# 4 0.000000 0.000000 0.000000 0.164521 0.000000 0.054191
# 5 0.001822 -0.001621 0.005369 0.000000 0.036216 0.000000
# 6 0.000000 0.000000 0.000000 0.054191 0.000000 0.045815
#
#
# Mechanical properties :
#
#
# Convention : Reuss Voigt Hill
#
# Bulk Modulus (GPa) = 42.52277 63.53231 53.02754
# Shear Modulus (GPa) = 16.64275 35.77820 26.21048
#
# Velocity S-wave (km/s) = 2.70421 3.96495 3.39364
# Velocity P-wave (km/s) = 5.33242 6.99121 6.21738
#
# Compressibility (1/GPa) = 0.02351681
#
# Stress axis : x y z
#
# Youngs Moduli (GPa) = 80.39407 186.54996 58.89639
#
# Poissons Ratio (x) = 0.65928 0.11916
# Poissons Ratio (y) = 0.28412 0.00433
# Poissons Ratio (z) = 0.16265 0.01371
#
# Static dielectric constant tensor:
#      x y z
#    x 1.848950 0.000000 -0.064670 
#    y 0.000000 2.022090 0.000000 
#    z -0.064670 0.000000 1.930230 
# 
# From -- ./inp_files/26703.got.cif
#   From: 2010.05.17/outbox.cif.g08.bks.cpg/sg12_14_cif.got.tgz:26703.got - 2010.06.03 13:09:07.
