data_PCOD9182746
_publ_section_title
;
Structure prediction by ZEFSAII (Michael W. Deem and Ramdas Pophale) SiO2 
 PCOD9182746
Probable space group: C 2/M
;
_chemical_formula_sum "Si O2"
_cell_formula_units_Z 56
_cell_length_a 21.863337
_cell_length_b 9.040267
_cell_length_c 20.581539
_cell_angle_alpha 90.000000
_cell_angle_beta 127.913724
_cell_angle_gamma 90.000000
_cell_volume 3209.355560
_symmetry_space_group_name_H-M "C 2/M"
_symmetry_group_IT_number 12
_symmetry_cell_setting 'monoclinic'
loop_
_space_group_symop_operation_xyz
x,y,z
-x,y,-z
-x,-y,-z
x,-y,z
1/2+x,1/2+y,z
1/2-x,1/2+y,-z
1/2-x,1/2-y,-z
1/2+x,1/2-y,z
loop_
_atom_site_type_symbol
_atom_site_label
_atom_site_fract_x
_atom_site_fract_y
_atom_site_fract_z
Si Si1 0.394762 0.325951 0.465716
Si Si2 0.983301 0.821201 0.064128
Si Si3 0.770946 0.675145 0.582155
Si Si4 0.080693 0.328327 0.240625
Si Si5 0.077671 0.331543 0.785307
Si Si6 0.533685 0.175259 0.612786
Si Si7 0.166506 0.825892 0.951818
O O1 0.411861 0.500000 0.472582
O O2 0.305534 0.307625 0.424240
O O3 0.449836 0.252770 0.555982
O O4 0.418811 0.245650 0.415198
O O5 0.897474 0.775607 0.035448
O O6 0.047448 0.755725 0.155670
O O7 0.986149 0.000000 0.069806
O O8 0.000000 0.778734 0.000000
O O9 0.784523 0.500000 0.578992
O O10 0.750000 0.750000 0.500000
O O11 0.844502 0.731424 0.671786
O O12 0.096420 0.500000 0.232821
O O13 0.009910 0.327971 0.245369
O O14 0.106924 0.500000 0.816100
O O15 0.075908 0.301225 0.708193
O O16 0.124666 0.213898 0.857077
O O17 0.523885 0.000000 0.596881
O O18 0.177365 0.000000 0.967818
O O19 0.250000 0.750000 0.000000
#
# Coordination Sequence:
#
# PCOD9182746 Si02
#       7
#     8   8   8   8   8   8   8
#     4  10  20  33  49  72 106 139 170 215 261 307
#     4   9  19  37  58  80 107 140 177 220 269 319
#     4  10  21  35  52  76 107 140 175 217 262 309
#     4   9  18  34  54  77 105 136 174 216 256 310
#     4   9  18  33  54  76 100 132 172 214 256 305
#     4  10  19  33  53  74  98 135 178 216 257 308
#     4  10  20  35  56  80 108 137 171 218 265 318
#
# _framework density 17.448986999999999
#
# number of rings (size 3 to 8) (size 9 to 14) (size 15 to 20)
#    0.000    2.429    0.000    3.000    0.000    4.857 
#    2.571    2.857    0.000    0.000    0.000    0.000 
#    0.000    0.000    0.000    0.000    0.000    0.000 
#
# Total GULP energy -156026.316956 kJ/mol
# GULP energy per Si atom -5572.368463 kJ/mol
# Density = 1.740927 g / cm^3
# Si number density = 17.448987 Si / 1000 Ang^3
#
#
#
# Elastic Constant Matrix: (Units=GPa)
#
#
# Indices 1 2 3 4 5 6 
#
# 1 73.7118 37.2714 67.0383 0.0000 9.2898 0.0000
# 2 37.2714 47.6473 40.5098 0.0000 2.8045 0.0000
# 3 67.0383 40.5098 111.0171 0.0000 2.5238 0.0000
# 4 0.0000 0.0000 0.0000 30.8999 0.0000 2.5345
# 5 9.2898 2.8045 2.5238 0.0000 31.1525 0.0000
# 6 0.0000 0.0000 0.0000 2.5345 0.0000 19.0920
#
#
#
# Elastic Compliance Matrix: (Units=1/GPa)
#
#
# Indices 1 2 3 4 5 6 
#
# 1 0.037534 -0.014141 -0.017312 0.000000 -0.008517 0.000000
# 2 -0.014141 0.035861 -0.004577 0.000000 0.001359 0.000000
# 3 -0.017312 -0.004577 0.021044 0.000000 0.003870 0.000000
# 4 0.000000 0.000000 0.000000 0.032719 0.000000 -0.004343
# 5 -0.008517 0.001359 0.003870 0.000000 0.034204 0.000000
# 6 0.000000 0.000000 0.000000 -0.004343 0.000000 0.052955
#
#
# Mechanical properties :
#
#
# Convention : Reuss Voigt Hill
#
# Bulk Modulus (GPa) = 44.68503 58.00169 51.34336
# Shear Modulus (GPa) = 17.01630 22.06599 19.54115
#
# Velocity S-wave (km/s) = 3.12621 3.55998 3.35012
# Velocity P-wave (km/s) = 6.22057 7.08596 6.66732
#
# Compressibility (1/GPa) = 0.02237886
#
# Stress axis : x y z
#
# Youngs Moduli (GPa) = 26.64228 27.88568 47.52019
#
# Poissons Ratio (x) = 0.39433 0.82266
# Poissons Ratio (y) = 0.37675 0.21752
# Poissons Ratio (z) = 0.46122 0.12764
#
# Static dielectric constant tensor:
#      x y z
#    x 1.601030 0.000000 0.011490 
#    y 0.000000 1.601250 0.000000 
#    z 0.011490 0.000000 1.589370 
# 
# From -- ./inp_files/323809.got.cif
#   From: 2010.05.17/outbox.cif.g08.bks.cpg/sg12_162_cif.got.tgz:323809.got - 2010.06.03 13:09:07.
