data_PCOD9182348
_publ_section_title
;
Structure prediction by ZEFSAII (Michael W. Deem and Ramdas Pophale) SiO2 
 PCOD9182348
Probable space group: C 2/M
;
_chemical_formula_sum "Si O2"
_cell_formula_units_Z 56
_cell_length_a 15.046869
_cell_length_b 16.710434
_cell_length_c 17.377422
_cell_angle_alpha 90.000000
_cell_angle_beta 131.323431
_cell_angle_gamma 90.000000
_cell_volume 3281.374354
_symmetry_space_group_name_H-M "C 2/M"
_symmetry_group_IT_number 12
_symmetry_cell_setting 'monoclinic'
loop_
_space_group_symop_operation_xyz
x,y,z
-x,y,-z
-x,-y,-z
x,-y,z
1/2+x,1/2+y,z
1/2-x,1/2+y,-z
1/2-x,1/2-y,-z
1/2+x,1/2-y,z
loop_
_atom_site_type_symbol
_atom_site_label
_atom_site_fract_x
_atom_site_fract_y
_atom_site_fract_z
Si Si1 0.189758 0.096191 0.587814
Si Si2 0.919263 0.095990 0.880113
Si Si3 0.065959 0.151864 0.277502
Si Si4 0.827363 0.407748 0.441326
Si Si5 0.855219 0.405299 0.278056
Si Si6 0.413261 0.826816 0.640631
Si Si7 0.039775 0.904364 0.640412
O O1 0.317427 0.124166 0.634889
O O2 0.145188 0.125123 0.645951
O O3 0.085068 0.122478 0.469438
O O4 0.189302 0.000000 0.586660
O O5 0.958610 0.144149 0.826804
O O6 0.781276 0.114971 0.816907
O O7 0.924841 0.000000 0.866275
O O8 0.000000 0.111686 0.000000
O O9 0.184984 0.099293 0.357441
O O10 0.091786 0.239098 0.326478
O O11 0.962085 0.119682 0.272474
O O12 0.859053 0.500000 0.481089
O O13 0.871013 0.392302 0.379374
O O14 0.871708 0.343844 0.528920
O O15 0.871027 0.500000 0.274096
O O16 0.952355 0.358187 0.285010
O O17 0.040334 0.000000 0.635835
#
# Coordination Sequence:
#
# PCOD9182348 Si02
#       7
#     8   8   8   8   8   8   8
#     4   9  18  30  46  64  95 144 185 203 221 276
#     4   9  19  39  64  81  94 122 170 225 269 309
#     4  11  21  31  49  79 107 133 166 215 262 308
#     4  10  19  33  50  69 103 147 184 214 242 289
#     4   9  19  34  53  76 102 135 177 217 257 307
#     4  12  21  29  45  75 111 144 167 199 258 315
#     4   9  17  31  46  64  93 137 181 209 232 271
#
# _framework density 17.066020000000002
#
# number of rings (size 3 to 8) (size 9 to 14) (size 15 to 20)
#    0.000    2.143    1.429    5.143    0.000    3.429 
#    2.571    0.714    0.000    0.000    0.000    0.000 
#    0.000    9.714    0.000    0.000    0.000    0.000 
#
# Total GULP energy -156112.884396 kJ/mol
# GULP energy per Si atom -5575.460157 kJ/mol
# Density = 1.702718 g / cm^3
# Si number density = 17.066020 Si / 1000 Ang^3
#
#
#
# Elastic Constant Matrix: (Units=GPa)
#
#
# Indices 1 2 3 4 5 6 
#
# 1 145.3655 39.4728 42.8281 0.0000 -2.1244 0.0000
# 2 39.4728 56.7570 32.2572 0.0000 -7.2804 0.0000
# 3 42.8281 32.2572 88.8211 0.0000 -5.4223 0.0000
# 4 0.0000 0.0000 0.0000 20.5818 0.0000 -21.9851
# 5 -2.1244 -7.2804 -5.4223 0.0000 14.0039 0.0000
# 6 0.0000 0.0000 0.0000 -21.9851 0.0000 2.5517
#
#
#
# Elastic Compliance Matrix: (Units=1/GPa)
#
#
# Indices 1 2 3 4 5 6 
#
# 1 0.008995 -0.005046 -0.002644 0.000000 -0.002282 0.000000
# 2 -0.005046 0.026098 -0.006415 0.000000 0.010318 0.000000
# 3 -0.002644 -0.006415 0.014989 0.000000 0.002068 0.000000
# 4 0.000000 0.000000 0.000000 -0.005923 0.000000 -0.051030
# 5 -0.002282 0.010318 0.002068 0.000000 0.077228 0.000000
# 6 0.000000 0.000000 0.000000 -0.051030 0.000000 -0.047773
#
#
# Mechanical properties :
#
#
# Convention : Reuss Voigt Hill
#
# Bulk Modulus (GPa) = 45.71975 57.78443 51.75209
# Shear Modulus (GPa) = 45.82343 19.18651 32.50497
#
# Velocity S-wave (km/s) = 5.18739 3.35662 4.36898
# Velocity P-wave (km/s) = 7.92002 6.99682 7.47269
#
# Compressibility (1/GPa) = 0.02187238
#
# Stress axis : x y z
#
# Youngs Moduli (GPa) = 111.17269 38.31764 66.71341
#
# Poissons Ratio (x) = 0.19334 0.17640
# Poissons Ratio (y) = 0.56096 0.42796
# Poissons Ratio (z) = 0.29395 0.24581
#
# Static dielectric constant tensor:
#      x y z
#    x 1.618090 0.000000 -0.005430 
#    y 0.000000 1.558410 0.000000 
#    z -0.005430 0.000000 1.575360 
# 
# From -- ./inp_files/270187.got.cif
#   From: 2010.05.17/outbox.cif.g08.bks.cpg/sg12_136_cif.got.tgz:270187.got - 2010.06.03 13:09:07.
