data_PCOD9182136
_publ_section_title
;
Structure prediction by ZEFSAII (Michael W. Deem and Ramdas Pophale) SiO2 
 PCOD9182136
Probable space group: C 2/M
;
_chemical_formula_sum "Si O2"
_cell_formula_units_Z 58
_cell_length_a 13.639035
_cell_length_b 12.909407
_cell_length_c 16.360607
_cell_angle_alpha 90.000000
_cell_angle_beta 84.589373
_cell_angle_gamma 90.000000
_cell_volume 2867.807682
_symmetry_space_group_name_H-M "C 2/M"
_symmetry_group_IT_number 12
_symmetry_cell_setting 'monoclinic'
loop_
_space_group_symop_operation_xyz
x,y,z
-x,y,-z
-x,-y,-z
x,-y,z
1/2+x,1/2+y,z
1/2-x,1/2+y,-z
1/2-x,1/2-y,-z
1/2+x,1/2-y,z
loop_
_atom_site_type_symbol
_atom_site_label
_atom_site_fract_x
_atom_site_fract_y
_atom_site_fract_z
Si Si1 0.500000 0.500000 0.500000
Si Si2 0.808436 0.736743 0.621181
Si Si3 0.617469 0.689748 0.555480
Si Si4 0.096526 0.617542 0.050947
Si Si5 0.999927 0.616244 0.626580
Si Si6 0.199662 0.622326 0.885865
Si Si7 0.884897 0.120490 0.760726
Si Si8 0.476315 0.211228 0.201590
O O1 0.547124 0.591754 0.555422
O O2 0.699893 0.691338 0.619171
O O3 0.829826 0.802133 0.537005
O O4 0.831374 0.813777 0.693738
O O5 0.885973 0.643700 0.622186
O O6 0.558761 0.795922 0.573749
O O7 0.115538 0.500000 0.075724
O O8 0.063868 0.680085 0.132391
O O9 0.182949 0.649590 0.982246
O O10 0.000000 0.618570 0.000000
O O11 0.025270 0.500000 0.600817
O O12 0.023111 0.636559 0.720041
O O13 0.168114 0.500000 0.880022
O O14 0.309768 0.626982 0.843239
O O15 0.125759 0.692539 0.837753
O O16 0.989102 0.176045 0.770149
O O17 0.894690 0.000000 0.737599
#
# Coordination Sequence:
#
# PCOD9182136 Si02
#       8
#     2   8   8   8   8   8   8   8
#     4  12  24  44  62  84 118 148 190 222 280 360
#     4  10  23  40  57  84 109 146 189 226 287 328
#     4  11  24  41  60  85 111 151 186 231 282 335
#     4   8  14  27  51  82 111 143 186 235 288 332
#     4  11  22  39  58  86 115 143 192 239 285 331
#     4   9  17  33  56  83 111 147 191 237 285 335
#     4  10  22  37  57  82 115 150 192 231 278 349
#     4  10  19  32  56  83 112 147 187 235 289 329
#
# _framework density 20.224508
#
# number of rings (size 3 to 8) (size 9 to 14) (size 15 to 20)
#    0.000    2.069    1.379    2.897    1.931    3.310 
#    2.483    0.000    0.000    6.207    0.000    0.000 
#    0.000    0.000    0.000    0.000    0.000    0.000 
#
# Total GULP energy -161546.907061 kJ/mol
# GULP energy per Si atom -5570.583002 kJ/mol
# Density = 2.017848 g / cm^3
# Si number density = 20.224508 Si / 1000 Ang^3
#
#
#
# Elastic Constant Matrix: (Units=GPa)
#
#
# Indices 1 2 3 4 5 6 
#
# 1 56.2914 29.5149 -16.7378 0.0000 -0.7660 0.0000
# 2 29.5149 127.5449 9.4699 0.0000 -3.0954 0.0000
# 3 -16.7378 9.4699 52.5719 0.0000 -14.5566 0.0000
# 4 0.0000 0.0000 0.0000 21.7652 0.0000 4.1706
# 5 -0.7660 -3.0954 -14.5566 0.0000 20.6565 0.0000
# 6 0.0000 0.0000 0.0000 4.1706 0.0000 5.8626
#
#
#
# Elastic Compliance Matrix: (Units=1/GPa)
#
#
# Indices 1 2 3 4 5 6 
#
# 1 0.024463 -0.006295 0.011073 0.000000 0.007767 0.000000
# 2 -0.006295 0.009567 -0.004218 0.000000 -0.001772 0.000000
# 3 0.011073 -0.004218 0.028881 0.000000 0.020131 0.000000
# 4 0.000000 0.000000 0.000000 0.053196 0.000000 -0.037843
# 5 0.007767 -0.001772 0.020131 0.000000 0.062619 0.000000
# 6 0.000000 0.000000 0.000000 -0.037843 0.000000 0.197493
#
#
# Mechanical properties :
#
#
# Convention : Reuss Voigt Hill
#
# Bulk Modulus (GPa) = 15.61720 31.21135 23.41427
# Shear Modulus (GPa) = 12.61213 23.93428 18.27320
#
# Velocity S-wave (km/s) = 2.49992 3.44383 3.00912
# Velocity P-wave (km/s) = 4.00893 5.59279 4.86573
#
# Compressibility (1/GPa) = 0.06403196
#
# Stress axis : x y z
#
# Youngs Moduli (GPa) = 40.87749 104.52392 34.62502
#
# Poissons Ratio (x) = 0.65794 -0.38341
# Poissons Ratio (y) = 0.25731 0.14605
# Poissons Ratio (z) = -0.45264 0.44090
#
# Static dielectric constant tensor:
#      x y z
#    x 1.764010 0.000000 -0.033890 
#    y 0.000000 1.695120 0.000000 
#    z -0.033890 0.000000 1.756100 
# 
# From -- ./inp_files/268758.got.cif
#   From: 2010.05.17/outbox.cif.g08.bks.cpg/sg12_135_cif.got.tgz:268758.got - 2010.06.03 13:09:07.
