data_PCOD9182388
_publ_section_title
;
Structure prediction by ZEFSAII (Michael W. Deem and Ramdas Pophale) SiO2 
 PCOD9182388
Probable space group: C 2/M
;
_chemical_formula_sum "Si O2"
_cell_formula_units_Z 56
_cell_length_a 15.604303
_cell_length_b 24.720062
_cell_length_c 9.726490
_cell_angle_alpha 90.000000
_cell_angle_beta 117.385227
_cell_angle_gamma 90.000000
_cell_volume 3331.430573
_symmetry_space_group_name_H-M "C 2/M"
_symmetry_group_IT_number 12
_symmetry_cell_setting 'monoclinic'
loop_
_space_group_symop_operation_xyz
x,y,z
-x,y,-z
-x,-y,-z
x,-y,z
1/2+x,1/2+y,z
1/2-x,1/2+y,-z
1/2-x,1/2-y,-z
1/2+x,1/2-y,z
loop_
_atom_site_type_symbol
_atom_site_label
_atom_site_fract_x
_atom_site_fract_y
_atom_site_fract_z
Si Si1 0.274750 0.302196 0.609262
Si Si2 0.765169 0.269092 0.854456
Si Si3 0.644577 0.905562 0.506791
Si Si4 0.569167 0.063650 0.741354
Si Si5 0.887341 0.163236 0.437917
Si Si6 0.111644 0.376641 0.042677
Si Si7 0.238697 0.061066 0.659690
O O1 0.250000 0.250000 0.500000
O O2 0.295558 0.280397 0.777038
O O3 0.185864 0.344514 0.545424
O O4 0.359034 0.327237 0.577299
O O5 0.672378 0.296398 0.708148
O O6 0.843750 0.317001 0.913210
O O7 0.750000 0.250000 0.000000
O O8 0.537754 0.911734 0.363316
O O9 0.629986 0.929948 0.646783
O O10 0.721387 0.935536 0.466733
O O11 0.558758 0.000000 0.767576
O O12 0.618450 0.097872 0.896920
O O13 0.847705 0.103011 0.379938
O O14 0.000000 0.169617 0.500000
O O15 0.172319 0.415324 0.187130
O O16 0.000000 0.376251 0.000000
O O17 0.215483 0.000000 0.679612
#
# Coordination Sequence:
#
# PCOD9182388 Si02
#       7
#     8   8   8   8   8   8   8
#     4   9  19  36  54  73 106 140 181 226 272 311
#     4  10  21  38  54  78 107 140 184 227 272 322
#     4  10  19  33  50  77 106 139 179 215 256 329
#     4  11  21  32  51  80 114 142 173 213 268 337
#     4   9  20  37  55  77 104 139 182 226 266 319
#     4  11  22  33  51  78 111 139 176 216 270 337
#     4  10  19  34  55  76 106 140 172 220 272 320
#
# _framework density 16.809595000000002
#
# number of rings (size 3 to 8) (size 9 to 14) (size 15 to 20)
#    0.000    2.000    1.429    3.857    0.000    2.000 
#   12.857    0.000    0.000    0.000    0.000    0.000 
#    0.000   13.714    0.000    0.000    0.000    0.000 
#
# Total GULP energy -156031.854756 kJ/mol
# GULP energy per Si atom -5572.566241 kJ/mol
# Density = 1.677134 g / cm^3
# Si number density = 16.809595 Si / 1000 Ang^3
#
#
#
# Elastic Constant Matrix: (Units=GPa)
#
#
# Indices 1 2 3 4 5 6 
#
# 1 72.9641 22.1663 37.1013 0.0000 7.7512 0.0000
# 2 22.1663 105.9832 34.4125 0.0000 8.1141 0.0000
# 3 37.1013 34.4125 89.0315 0.0000 -9.0615 0.0000
# 4 0.0000 0.0000 0.0000 99.5108 0.0000 23.9470
# 5 7.7512 8.1141 -9.0615 0.0000 24.6456 0.0000
# 6 0.0000 0.0000 0.0000 23.9470 0.0000 23.5375
#
#
#
# Elastic Compliance Matrix: (Units=1/GPa)
#
#
# Indices 1 2 3 4 5 6 
#
# 1 0.019287 -0.000484 -0.008780 0.000000 -0.009135 0.000000
# 2 -0.000484 0.011507 -0.004796 0.000000 -0.005400 0.000000
# 3 -0.008780 -0.004796 0.017854 0.000000 0.010905 0.000000
# 4 0.000000 0.000000 0.000000 0.013307 0.000000 -0.013539
# 5 -0.009135 -0.005400 0.010905 0.000000 0.049236 0.000000
# 6 0.000000 0.000000 0.000000 -0.013539 0.000000 0.056260
#
#
# Mechanical properties :
#
#
# Convention : Reuss Voigt Hill
#
# Bulk Modulus (GPa) = 48.71005 50.59323 49.65164
# Shear Modulus (GPa) = 24.70181 41.15868 32.93025
#
# Velocity S-wave (km/s) = 3.83757 4.95362 4.43088
# Velocity P-wave (km/s) = 6.97685 7.92975 7.46851
#
# Compressibility (1/GPa) = 0.02052964
#
# Stress axis : x y z
#
# Youngs Moduli (GPa) = 51.84731 86.90209 56.00830
#
# Poissons Ratio (x) = 0.04203 0.49177
# Poissons Ratio (y) = 0.02507 0.26861
# Poissons Ratio (z) = 0.45524 0.41677
#
# Static dielectric constant tensor:
#      x y z
#    x 1.553220 0.000000 -0.032760 
#    y 0.000000 1.579870 0.000000 
#    z -0.032760 0.000000 1.605220 
# 
# From -- ./inp_files/65294.got.cif
#   From: 2010.05.17/outbox.cif.g08.bks.cpg/sg12_33_cif.got.tgz:65294.got - 2010.06.03 13:09:07.
