data_PCOD9182230
_publ_section_title
;
Structure prediction by ZEFSAII (Michael W. Deem and Ramdas Pophale) SiO2 
 PCOD9182230
Probable space group: C 2/M
;
_chemical_formula_sum "Si O2"
_cell_formula_units_Z 48
_cell_length_a 13.689908
_cell_length_b 21.153476
_cell_length_c 9.633974
_cell_angle_alpha 90.000000
_cell_angle_beta 71.482991
_cell_angle_gamma 90.000000
_cell_volume 2645.459798
_symmetry_space_group_name_H-M "C 2/M"
_symmetry_group_IT_number 12
_symmetry_cell_setting 'monoclinic'
loop_
_space_group_symop_operation_xyz
x,y,z
-x,y,-z
-x,-y,-z
x,-y,z
1/2+x,1/2+y,z
1/2-x,1/2+y,-z
1/2-x,1/2-y,-z
1/2+x,1/2-y,z
loop_
_atom_site_type_symbol
_atom_site_label
_atom_site_fract_x
_atom_site_fract_y
_atom_site_fract_z
Si Si1 0.554729 0.277931 0.668231
Si Si2 0.812540 0.426161 0.228214
Si Si3 0.834651 0.185831 0.650136
Si Si4 0.985961 0.370646 0.345487
Si Si5 0.833395 0.227407 0.113515
Si Si6 0.662799 0.848506 0.057020
O O1 0.641045 0.301270 0.521378
O O2 0.444311 0.305539 0.675469
O O3 0.550405 0.202347 0.648407
O O4 0.584779 0.293915 0.810966
O O5 0.791243 0.500000 0.233672
O O6 0.715534 0.382626 0.311510
O O7 0.903292 0.411044 0.296911
O O8 0.843209 0.399113 0.062970
O O9 0.755213 0.235441 0.756442
O O10 0.000000 0.387951 0.500000
O O11 0.093856 0.370632 0.215399
O O12 0.776738 0.171515 0.056710
O O13 0.875396 0.281575 0.991379
#
# Coordination Sequence:
#
# PCOD9182230 Si02
#       6
#     8   8   8   8   8   8
#     4  11  19  32  60  97 126 144 189 256 321 352
#     4  11  26  44  59  80 122 174 211 236 285 363
#     4  10  20  35  60  93 118 159 189 248 310 357
#     4  12  22  35  63  95 124 149 193 253 313 360
#     4  10  19  32  57  90 127 148 191 242 312 361
#     4  10  21  36  57  90 121 160 192 241 301 364
#
# _framework density 18.144293000000001
#
# number of rings (size 3 to 8) (size 9 to 14) (size 15 to 20)
#    0.000    1.333    6.667    1.000    2.333    1.667 
#    0.000    1.667    0.000    2.000    0.000    0.000 
#    0.000    0.000    0.000    0.000    0.000    0.000 
#
# Total GULP energy -134069.578818 kJ/mol
# GULP energy per Si atom -5586.232451 kJ/mol
# Density = 1.810300 g / cm^3
# Si number density = 18.144293 Si / 1000 Ang^3
#
#
#
# Elastic Constant Matrix: (Units=GPa)
#
#
# Indices 1 2 3 4 5 6 
#
# 1 62.7180 22.3256 17.8761 0.0000 21.7450 0.0000
# 2 22.3256 84.7730 11.8316 0.0000 2.5150 0.0000
# 3 17.8761 11.8316 68.1890 0.0000 11.3877 0.0000
# 4 0.0000 0.0000 0.0000 9.6264 0.0000 -2.5444
# 5 21.7450 2.5150 11.3877 0.0000 43.4144 0.0000
# 6 0.0000 0.0000 0.0000 -2.5444 0.0000 5.5237
#
#
#
# Elastic Compliance Matrix: (Units=1/GPa)
#
#
# Indices 1 2 3 4 5 6 
#
# 1 0.022124 -0.005077 -0.003260 0.000000 -0.009932 0.000000
# 2 -0.005077 0.013255 -0.001323 0.000000 0.002122 0.000000
# 3 -0.003260 -0.001323 0.016172 0.000000 -0.002532 0.000000
# 4 0.000000 0.000000 0.000000 0.118282 0.000000 0.054486
# 5 -0.009932 0.002122 -0.002532 0.000000 0.028550 0.000000
# 6 0.000000 0.000000 0.000000 0.054486 0.000000 0.206138
#
#
# Mechanical properties :
#
#
# Convention : Reuss Voigt Hill
#
# Bulk Modulus (GPa) = 31.02662 35.52741 33.27701
# Shear Modulus (GPa) = 11.50517 22.62268 17.06393
#
# Velocity S-wave (km/s) = 2.52085 3.53487 3.07001
# Velocity P-wave (km/s) = 5.06063 6.02357 5.56297
#
# Compressibility (1/GPa) = 0.03223039
#
# Stress axis : x y z
#
# Youngs Moduli (GPa) = 45.19880 75.44327 61.83378
#
# Poissons Ratio (x) = 0.38302 0.20161
# Poissons Ratio (y) = 0.22947 0.08183
# Poissons Ratio (z) = 0.14737 0.09984
#
# Static dielectric constant tensor:
#      x y z
#    x 1.655680 0.000000 -0.005390 
#    y 0.000000 1.574840 0.000000 
#    z -0.005390 0.000000 1.673970 
# 
# From -- ./inp_files/63345.got.cif
#   From: 2010.05.17/outbox.cif.g08.bks.cpg/sg12_32_cif.got.tgz:63345.got - 2010.06.03 13:09:07.
