data_PCOD9182813
_publ_section_title
;
Structure prediction by ZEFSAII (Michael W. Deem and Ramdas Pophale) SiO2 
 PCOD9182813
Probable space group: C 2/M
;
_chemical_formula_sum "Si O2"
_cell_formula_units_Z 56
_cell_length_a 21.813784
_cell_length_b 10.998705
_cell_length_c 17.619890
_cell_angle_alpha 90.000000
_cell_angle_beta 47.500550
_cell_angle_gamma 90.000000
_cell_volume 3116.810939
_symmetry_space_group_name_H-M "C 2/M"
_symmetry_group_IT_number 12
_symmetry_cell_setting 'monoclinic'
loop_
_space_group_symop_operation_xyz
x,y,z
-x,y,-z
-x,-y,-z
x,-y,z
1/2+x,1/2+y,z
1/2-x,1/2+y,-z
1/2-x,1/2-y,-z
1/2+x,1/2-y,z
loop_
_atom_site_type_symbol
_atom_site_label
_atom_site_fract_x
_atom_site_fract_y
_atom_site_fract_z
Si Si1 0.888096 0.706663 0.894070
Si Si2 0.914595 0.140543 0.525288
Si Si3 0.029083 0.369935 0.889131
Si Si4 0.026411 0.139805 0.691146
Si Si5 0.696778 0.141200 0.317291
Si Si6 0.255977 0.363608 0.097037
Si Si7 0.626412 0.634864 0.757207
O O1 0.824349 0.640334 0.890869
O O2 0.951130 0.636541 0.896660
O O3 0.949102 0.786216 0.789708
O O4 0.827515 0.782051 0.000425
O O5 0.938473 0.177290 0.419461
O O6 0.860763 0.248338 0.607188
O O7 0.000000 0.134376 0.500000
O O8 0.879886 0.000000 0.554070
O O9 0.073034 0.500000 0.838244
O O10 0.082690 0.249401 0.832302
O O11 0.000000 0.369209 0.000000
O O12 0.099892 0.144645 0.691749
O O13 0.999138 0.000000 0.706082
O O14 0.727958 0.169006 0.205541
O O15 0.776833 0.139940 0.305116
O O16 0.663286 0.000000 0.344824
O O17 0.289226 0.500000 0.072926
O O18 0.596439 0.500000 0.808335
#
# Coordination Sequence:
#
# PCOD9182813 Si02
#       7
#     8   8   8   8   8   8   8
#     4  10  19  33  53  76 104 138 175 214 262 312
#     4  10  21  37  56  79 106 138 176 216 259 309
#     4  10  20  33  50  75 107 139 173 215 260 307
#     4   9  18  34  55  77 103 135 175 219 260 308
#     4  10  21  37  55  79 109 138 174 217 259 308
#     4  10  20  33  51  76 106 139 175 216 261 310
#     4   9  19  35  54  76 102 135 174 215 259 309
#
# _framework density 17.967084
#
# number of rings (size 3 to 8) (size 9 to 14) (size 15 to 20)
#    0.000    2.286    0.000    2.571    0.000    2.286 
#    0.000    7.143    0.000    0.000    0.000    0.000 
#    0.000    0.000    0.000    0.000    0.000    0.000 
#
# Total GULP energy -155936.799199 kJ/mol
# GULP energy per Si atom -5569.171400 kJ/mol
# Density = 1.792619 g / cm^3
# Si number density = 17.967084 Si / 1000 Ang^3
#
#
#
# Elastic Constant Matrix: (Units=GPa)
#
#
# Indices 1 2 3 4 5 6 
#
# 1 47.8986 31.6964 22.8253 0.0000 -2.1769 0.0000
# 2 31.6964 138.4027 79.5879 0.0000 0.0669 0.0000
# 3 22.8253 79.5879 94.7975 0.0000 14.0880 0.0000
# 4 0.0000 0.0000 0.0000 34.9289 0.0000 26.7734
# 5 -2.1769 0.0669 14.0880 0.0000 22.6735 0.0000
# 6 0.0000 0.0000 0.0000 26.7734 0.0000 42.8609
#
#
#
# Elastic Compliance Matrix: (Units=1/GPa)
#
#
# Indices 1 2 3 4 5 6 
#
# 1 0.025286 -0.003645 -0.003735 0.000000 0.004759 0.000000
# 2 -0.003645 0.015943 -0.013714 0.000000 0.008124 0.000000
# 3 -0.003735 -0.013714 0.025350 0.000000 -0.016069 0.000000
# 4 0.000000 0.000000 0.000000 0.054931 0.000000 -0.034313
# 5 0.004759 0.008124 -0.016069 0.000000 0.054522 0.000000
# 6 0.000000 0.000000 0.000000 -0.034313 0.000000 0.044765
#
#
# Mechanical properties :
#
#
# Convention : Reuss Voigt Hill
#
# Bulk Modulus (GPa) = 41.00202 61.03534 51.01868
# Shear Modulus (GPa) = 18.44226 29.89192 24.16709
#
# Velocity S-wave (km/s) = 3.20730 4.08328 3.67151
# Velocity P-wave (km/s) = 6.04862 7.50169 6.81400
#
# Compressibility (1/GPa) = 0.02438904
#
# Stress axis : x y z
#
# Youngs Moduli (GPa) = 39.54770 62.72520 39.44742
#
# Poissons Ratio (x) = 0.22865 0.14735
# Poissons Ratio (y) = 0.14416 0.54100
# Poissons Ratio (z) = 0.14772 0.86023
#
# Static dielectric constant tensor:
#      x y z
#    x 1.613610 0.000000 0.012020 
#    y 0.000000 1.646040 0.000000 
#    z 0.012020 0.000000 1.588320 
# 
# From -- ./inp_files/282782.got.cif
#   From: 2010.05.17/outbox.cif.g08.bks.cpg/sg12_142_cif.got.tgz:282782.got - 2010.06.03 13:09:07.
