data_PCOD9182680
_publ_section_title
;
Structure prediction by ZEFSAII (Michael W. Deem and Ramdas Pophale) SiO2 
 PCOD9182680
Probable space group: C 2/M
;
_chemical_formula_sum "Si O2"
_cell_formula_units_Z 56
_cell_length_a 24.884982
_cell_length_b 18.648464
_cell_length_c 8.985555
_cell_angle_alpha 90.000000
_cell_angle_beta 50.579192
_cell_angle_gamma 90.000000
_cell_volume 3221.257805
_symmetry_space_group_name_H-M "C 2/M"
_symmetry_group_IT_number 12
_symmetry_cell_setting 'monoclinic'
loop_
_space_group_symop_operation_xyz
x,y,z
-x,y,-z
-x,-y,-z
x,-y,z
1/2+x,1/2+y,z
1/2-x,1/2+y,-z
1/2-x,1/2-y,-z
1/2+x,1/2-y,z
loop_
_atom_site_type_symbol
_atom_site_label
_atom_site_fract_x
_atom_site_fract_y
_atom_site_fract_z
Si Si1 0.710130 0.080741 0.119774
Si Si2 0.567646 0.657129 0.303464
Si Si3 0.436548 0.586498 0.005164
Si Si4 0.820431 0.721116 0.955732
Si Si5 0.255219 0.817329 0.380257
Si Si6 0.723054 0.415133 0.678572
Si Si7 0.832264 0.919277 0.657896
O O1 0.661444 0.145846 0.155982
O O2 0.748060 0.100228 0.207536
O O3 0.680956 0.000000 0.184206
O O4 0.768863 0.078162 0.887791
O O5 0.500000 0.688523 0.500000
O O6 0.550894 0.615945 0.181429
O O7 0.622576 0.718712 0.168969
O O8 0.601573 0.601965 0.361370
O O9 0.435847 0.500000 0.003610
O O10 0.500000 0.609321 0.000000
O O11 0.357785 0.609470 0.188871
O O12 0.750000 0.750000 0.000000
O O13 0.804365 0.704855 0.157094
O O14 0.250000 0.750000 0.500000
O O15 0.271835 0.880546 0.467559
O O16 0.188239 0.854240 0.416164
O O17 0.723001 0.500000 0.661302
O O18 0.839103 0.000000 0.579581
#
# Coordination Sequence:
#
# PCOD9182680 Si02
#       7
#     8   8   8   8   8   8   8
#     4   9  17  33  60  82 107 141 180 230 282 335
#     4  12  24  37  55  79 109 152 196 236 272 331
#     4  10  21  35  50  72 113 158 188 218 265 327
#     4  11  20  38  56  79 110 144 188 236 285 331
#     4  11  21  31  54  80 110 146 185 232 281 321
#     4  10  19  33  52  82 114 140 179 227 276 334
#     4  10  20  35  54  80 113 151 189 226 268 334
#
# _framework density 17.384513999999999
#
# number of rings (size 3 to 8) (size 9 to 14) (size 15 to 20)
#    0.000    1.571    4.286    2.571    2.000    1.714 
#    0.000    0.000    0.000    0.429    0.000    0.000 
#    0.000    2.857    0.000    0.000    0.000    0.000 
#
# Total GULP energy -156053.022321 kJ/mol
# GULP energy per Si atom -5573.322226 kJ/mol
# Density = 1.734495 g / cm^3
# Si number density = 17.384514 Si / 1000 Ang^3
#
#
#
# Elastic Constant Matrix: (Units=GPa)
#
#
# Indices 1 2 3 4 5 6 
#
# 1 81.8539 43.3600 25.9055 0.0000 21.3091 0.0000
# 2 43.3600 67.0109 23.2180 0.0000 5.0031 0.0000
# 3 25.9055 23.2180 74.2753 0.0000 12.6183 0.0000
# 4 0.0000 0.0000 0.0000 25.6404 0.0000 10.3291
# 5 21.3091 5.0031 12.6183 0.0000 24.2391 0.0000
# 6 0.0000 0.0000 0.0000 10.3291 0.0000 25.8726
#
#
#
# Elastic Compliance Matrix: (Units=1/GPa)
#
#
# Indices 1 2 3 4 5 6 
#
# 1 0.025001 -0.014427 -0.001077 0.000000 -0.018440 0.000000
# 2 -0.014427 0.025075 -0.004478 0.000000 0.009838 0.000000
# 3 -0.001077 -0.004478 0.016369 0.000000 -0.006650 0.000000
# 4 0.000000 0.000000 0.000000 0.046475 0.000000 -0.018554
# 5 -0.018440 0.009838 -0.006650 0.000000 0.058898 0.000000
# 6 0.000000 0.000000 0.000000 -0.018554 0.000000 0.046058
#
#
# Mechanical properties :
#
#
# Convention : Reuss Voigt Hill
#
# Bulk Modulus (GPa) = 37.76412 45.34524 41.55468
# Shear Modulus (GPa) = 18.75004 23.86087 21.30545
#
# Velocity S-wave (km/s) = 3.28769 3.70879 3.50457
# Velocity P-wave (km/s) = 6.01514 6.66937 6.35068
#
# Compressibility (1/GPa) = 0.02648016
#
# Stress axis : x y z
#
# Youngs Moduli (GPa) = 39.99911 39.88049 61.09257
#
# Poissons Ratio (x) = 0.57535 0.06581
# Poissons Ratio (y) = 0.57706 0.27357
# Poissons Ratio (z) = 0.04309 0.17858
#
# Static dielectric constant tensor:
#      x y z
#    x 1.602850 0.000000 0.027540 
#    y 0.000000 1.641280 0.000000 
#    z 0.027540 0.000000 1.619330 
# 
# From -- ./inp_files/87345.got.cif
#   From: 2010.05.17/outbox.cif.g08.bks.cpg/sg12_44_cif.got.tgz:87345.got - 2010.06.03 13:09:07.
