data_PCOD9182741
_publ_section_title
;
Structure prediction by ZEFSAII (Michael W. Deem and Ramdas Pophale) SiO2 
 PCOD9182741
Probable space group: C 2/M
;
_chemical_formula_sum "Si O2"
_cell_formula_units_Z 64
_cell_length_a 14.779151
_cell_length_b 7.420716
_cell_length_c 27.856772
_cell_angle_alpha 90.000000
_cell_angle_beta 62.857308
_cell_angle_gamma 90.000000
_cell_volume 2718.655491
_symmetry_space_group_name_H-M "C 2/M"
_symmetry_group_IT_number 12
_symmetry_cell_setting 'monoclinic'
loop_
_space_group_symop_operation_xyz
x,y,z
-x,y,-z
-x,-y,-z
x,-y,z
1/2+x,1/2+y,z
1/2-x,1/2+y,-z
1/2-x,1/2-y,-z
1/2+x,1/2-y,z
loop_
_atom_site_type_symbol
_atom_site_label
_atom_site_fract_x
_atom_site_fract_y
_atom_site_fract_z
Si Si1 0.886360 0.280878 0.779446
Si Si2 0.835676 0.290449 0.124571
Si Si3 0.370571 0.782978 0.675367
Si Si4 0.586350 0.713520 0.590900
Si Si5 0.995445 0.292908 0.844772
Si Si6 0.118354 0.218116 0.479956
Si Si7 0.275776 0.285310 0.938812
Si Si8 0.782323 0.204614 0.360355
O O1 0.889064 0.500000 0.779608
O O2 0.774547 0.223810 0.824043
O O3 0.894724 0.218072 0.722853
O O4 0.969533 0.216126 0.798178
O O5 0.864959 0.500000 0.110836
O O6 0.810988 0.216979 0.077239
O O7 0.920397 0.211081 0.139905
O O8 0.466045 0.736417 0.619205
O O9 0.268015 0.713836 0.674907
O O10 0.362596 0.000000 0.678923
O O11 0.607211 0.500000 0.586757
O O12 0.636490 0.783412 0.530128
O O13 0.627568 0.792158 0.630933
O O14 0.027323 0.500000 0.828856
O O15 0.885781 0.290804 0.897585
O O16 0.192823 0.297146 0.422220
O O17 0.000000 0.259707 0.500000
O O18 0.128957 0.000000 0.475114
O O19 0.283397 0.500000 0.929718
O O20 0.250000 0.250000 0.000000
O O21 0.812196 0.000000 0.340758
#
# Coordination Sequence:
#
# PCOD9182741 Si02
#       8
#     8   8   8   8   8   8   8   8
#     4   9  19  35  54  75 102 133 168 212 257 300
#     4   9  19  35  55  78 103 135 176 215 252 297
#     4  10  21  36  52  75 104 132 164 206 254 304
#     4  10  21  36  52  73 100 131 165 204 250 302
#     4   9  18  35  56  76 102 138 176 213 254 299
#     4  10  19  33  53  74  98 127 164 207 248 295
#     4  10  20  34  52  78 111 142 174 212 253 298
#     4  10  21  35  52  74 101 131 164 201 249 306
#
# _framework density 23.541049000000001
#
# number of rings (size 3 to 8) (size 9 to 14) (size 15 to 20)
#    0.000    2.375    1.250    0.750    0.000    4.250 
#    0.000    2.500    0.000    0.000    0.000    0.000 
#    0.000    0.000    0.000    0.000    0.000    0.000 
#
# Total GULP energy -178626.696312 kJ/mol
# GULP energy per Si atom -5582.084260 kJ/mol
# Density = 2.348747 g / cm^3
# Si number density = 23.541049 Si / 1000 Ang^3
#
#
#
# Elastic Constant Matrix: (Units=GPa)
#
#
# Indices 1 2 3 4 5 6 
#
# 1 161.9851 3.7342 28.5162 0.0000 55.6651 0.0000
# 2 3.7342 85.3127 -10.1948 -0.0001 7.7283 -0.0001
# 3 28.5162 -10.1948 92.6341 0.0000 45.0664 0.0000
# 4 0.0000 -0.0001 0.0000 7.7003 0.0000 -10.4388
# 5 55.6651 7.7283 45.0664 0.0000 40.0313 0.0000
# 6 0.0000 -0.0001 0.0000 -10.4388 0.0000 3.6370
#
#
#
# Elastic Compliance Matrix: (Units=1/GPa)
#
#
# Indices 1 2 3 4 5 6 
#
# 1 0.019970 0.005944 0.018957 0.000000 -0.050258 0.000000
# 2 0.005944 0.015050 0.011632 0.000000 -0.024265 0.000000
# 3 0.018957 0.011632 0.044564 0.000000 -0.078775 0.000000
# 4 0.000000 0.000000 0.000000 -0.044922 0.000000 -0.128934
# 5 -0.050258 -0.024265 -0.078775 0.000000 0.188235 0.000000
# 6 0.000000 0.000000 0.000000 -0.128934 0.000000 -0.095110
#
#
# Mechanical properties :
#
#
# Convention : Reuss Voigt Hill
#
# Bulk Modulus (GPa) = 6.55098 42.67147 24.61122
# Shear Modulus (GPa) = 47.34751 31.46548 39.40649
#
# Velocity S-wave (km/s) = 4.48959 3.65995 4.09583
# Velocity P-wave (km/s) = 5.44647 6.00217 5.73106
#
# Compressibility (1/GPa) = 0.15264901
#
# Stress axis : x y z
#
# Youngs Moduli (GPa) = 50.07505 66.44730 22.43986
#
# Poissons Ratio (x) = -0.39497 -0.42540
# Poissons Ratio (y) = -0.29765 -0.26101
# Poissons Ratio (z) = -0.94929 -0.77289
#
# Static dielectric constant tensor:
#      x y z
#    x 1.925720 0.000000 0.078590 
#    y 0.000000 1.956120 0.000000 
#    z 0.078590 0.000000 1.874090 
# 
# From -- ./inp_files/359707.got.cif
#   From: 2010.05.17/outbox.cif.g08.bks.cpg/sg12_180_cif.got.tgz:359707.got - 2010.06.03 13:09:07.
