data_PCOD9182679
_publ_section_title
;
Structure prediction by ZEFSAII (Michael W. Deem and Ramdas Pophale) SiO2 
 PCOD9182679
Probable space group: C 2/M
;
_chemical_formula_sum "Si O2"
_cell_formula_units_Z 40
_cell_length_a 9.856293
_cell_length_b 22.572809
_cell_length_c 10.428515
_cell_angle_alpha 90.000000
_cell_angle_beta 115.630077
_cell_angle_gamma 90.000000
_cell_volume 2091.887256
_symmetry_space_group_name_H-M "C 2/M"
_symmetry_group_IT_number 12
_symmetry_cell_setting 'monoclinic'
loop_
_space_group_symop_operation_xyz
x,y,z
-x,y,-z
-x,-y,-z
x,-y,z
1/2+x,1/2+y,z
1/2-x,1/2+y,-z
1/2-x,1/2-y,-z
1/2+x,1/2-y,z
loop_
_atom_site_type_symbol
_atom_site_label
_atom_site_fract_x
_atom_site_fract_y
_atom_site_fract_z
Si Si1 0.133306 0.244746 0.279800
Si Si2 0.374462 0.198275 0.062547
Si Si3 0.678996 0.069641 0.565259
Si Si4 0.832700 0.162573 0.459092
Si Si5 0.841553 0.128416 0.876879
O O1 0.156330 0.206828 0.416084
O O2 0.259395 0.295953 0.320078
O O3 0.125777 0.194116 0.168870
O O4 0.979153 0.281236 0.223150
O O5 0.281218 0.139945 0.061640
O O6 0.500000 0.192942 0.000000
O O7 0.250000 0.250000 0.000000
O O8 0.500000 0.079496 0.500000
O O9 0.735135 0.107930 0.467563
O O10 0.766904 0.091994 0.729406
O O11 0.706691 0.000000 0.560468
O O12 0.000000 0.142028 0.500000
O O13 0.000000 0.106167 0.000000
#
# Coordination Sequence:
#
# PCOD9182679 Si02
#       5
#     8   8   8   8   8
#     4  10  19  33  52  81 125 147 174 213 285 344
#     4  12  20  31  51  78 115 153 169 213 269 346
#     4  10  23  43  60  76 108 154 199 240 285 331
#     4  10  21  33  58  85 111 147 188 236 274 334
#     4  11  21  36  57  85 116 149 185 228 280 340
#
# _framework density 19.121490999999999
#
# number of rings (size 3 to 8) (size 9 to 14) (size 15 to 20)
#    0.000    1.400    4.000    2.400    0.000    6.400 
#    0.000    0.000    0.000    0.600    0.000    0.000 
#    0.000    0.800    0.000    0.000    0.000    0.000 
#
# Total GULP energy -111434.179737 kJ/mol
# GULP energy per Si atom -5571.708987 kJ/mol
# Density = 1.907797 g / cm^3
# Si number density = 19.121491 Si / 1000 Ang^3
#
#
#
# Elastic Constant Matrix: (Units=GPa)
#
#
# Indices 1 2 3 4 5 6 
#
# 1 102.1121 47.8715 11.0134 0.0000 11.5931 0.0000
# 2 47.8715 81.8635 26.8842 0.0000 13.9441 0.0000
# 3 11.0134 26.8842 62.3433 0.0000 19.5103 0.0000
# 4 0.0000 0.0000 0.0000 21.6504 0.0000 8.8181
# 5 11.5931 13.9441 19.5103 0.0000 33.4361 0.0000
# 6 0.0000 0.0000 0.0000 8.8181 0.0000 10.9538
#
#
#
# Elastic Compliance Matrix: (Units=1/GPa)
#
#
# Indices 1 2 3 4 5 6 
#
# 1 0.013724 -0.008231 0.001884 0.000000 -0.002425 0.000000
# 2 -0.008231 0.019398 -0.006450 0.000000 -0.001472 0.000000
# 3 0.001884 -0.006450 0.021840 0.000000 -0.010707 0.000000
# 4 0.000000 0.000000 0.000000 0.068721 0.000000 -0.055323
# 5 -0.002425 -0.001472 -0.010707 0.000000 0.037610 0.000000
# 6 0.000000 0.000000 0.000000 -0.055323 0.000000 0.135829
#
#
# Mechanical properties :
#
#
# Convention : Reuss Voigt Hill
#
# Bulk Modulus (GPa) = 34.05191 46.42856 40.24024
# Shear Modulus (GPa) = 15.03734 23.91138 19.47436
#
# Velocity S-wave (km/s) = 2.80734 3.54007 3.19478
# Velocity P-wave (km/s) = 5.32495 6.40648 5.89059
#
# Compressibility (1/GPa) = 0.02936693
#
# Stress axis : x y z
#
# Youngs Moduli (GPa) = 72.86428 51.55240 45.78838
#
# Poissons Ratio (x) = 0.42433 -0.08626
# Poissons Ratio (y) = 0.59975 0.29534
# Poissons Ratio (z) = -0.13727 0.33252
#
# Static dielectric constant tensor:
#      x y z
#    x 1.723320 0.000000 -0.003170 
#    y 0.000000 1.621750 0.000000 
#    z -0.003170 0.000000 1.770090 
# 
# From -- ./inp_files/39446.got.cif
#   From: 2010.05.17/outbox.cif.g08.bks.cpg/sg12_20_cif.got.tgz:39446.got - 2010.06.03 13:09:07.
