data_PCOD9182475
_publ_section_title
;
Structure prediction by ZEFSAII (Michael W. Deem and Ramdas Pophale) SiO2 
 PCOD9182475
Probable space group: C 2/M
;
_chemical_formula_sum "Si O2"
_cell_formula_units_Z 52
_cell_length_a 30.010057
_cell_length_b 8.766950
_cell_length_c 14.782110
_cell_angle_alpha 90.000000
_cell_angle_beta 41.966754
_cell_angle_gamma 90.000000
_cell_volume 2600.654364
_symmetry_space_group_name_H-M "C 2/M"
_symmetry_group_IT_number 12
_symmetry_cell_setting 'monoclinic'
loop_
_space_group_symop_operation_xyz
x,y,z
-x,y,-z
-x,-y,-z
x,-y,z
1/2+x,1/2+y,z
1/2-x,1/2+y,-z
1/2-x,1/2-y,-z
1/2+x,1/2-y,z
loop_
_atom_site_type_symbol
_atom_site_label
_atom_site_fract_x
_atom_site_fract_y
_atom_site_fract_z
Si Si1 0.283760 0.819105 0.325432
Si Si2 0.849583 0.680193 0.549578
Si Si3 0.684638 0.318696 0.209837
Si Si4 0.611627 0.823609 0.692182
Si Si5 0.840989 0.680794 0.941920
Si Si6 0.000000 0.240143 0.000000
Si Si7 0.616993 0.331051 0.953004
O O1 0.220837 0.720648 0.391491
O O2 0.324942 0.755518 0.349676
O O3 0.336743 0.794597 0.164836
O O4 0.268056 0.000000 0.357360
O O5 0.856625 0.500000 0.557120
O O6 0.848099 0.766320 0.646943
O O7 0.899201 0.733591 0.393615
O O8 0.678423 0.500000 0.208173
O O9 0.654752 0.234016 0.168007
O O10 0.764366 0.283929 0.088554
O O11 0.549735 0.819755 0.853818
O O12 0.629578 0.000000 0.653018
O O13 0.851473 0.500000 0.933578
O O14 0.889454 0.773526 0.935058
O O15 0.050811 0.160599 0.992458
O O16 0.648227 0.500000 0.904866
#
# Coordination Sequence:
#
# PCOD9182475 Si02
#       7
#     8   8   8   8   8   4   8
#     4  10  19  33  51  77 110 147 187 224 273 334
#     4  11  20  32  52  81 114 146 181 226 281 334
#     4  10  20  34  53  81 116 149 184 221 274 337
#     4   9  20  35  54  78 107 146 189 233 279 327
#     4  10  20  34  55  82 113 148 186 225 274 330
#     4  10  22  40  58  80 109 148 195 236 273 326
#     4  11  21  35  56  82 114 148 186 233 279 324
#
# _framework density 19.994968
#
# number of rings (size 3 to 8) (size 9 to 14) (size 15 to 20)
#    0.000    1.846    1.538    3.231    0.000    3.077 
#    0.000    8.462    0.000    0.923    0.000    5.385 
#    0.000    0.000    0.000    0.000    0.000    0.000 
#
# Total GULP energy -144844.704041 kJ/mol
# GULP energy per Si atom -5570.950155 kJ/mol
# Density = 1.994946 g / cm^3
# Si number density = 19.994968 Si / 1000 Ang^3
#
#
#
# Elastic Constant Matrix: (Units=GPa)
#
#
# Indices 1 2 3 4 5 6 
#
# 1 99.8168 27.1387 36.1138 0.0000 36.0447 0.0000
# 2 27.1387 61.6489 9.3890 0.0002 8.8198 0.0001
# 3 36.1138 9.3890 78.9241 -0.0001 30.8062 0.0001
# 4 0.0000 0.0002 -0.0001 4.9222 0.0000 3.0210
# 5 36.0447 8.8198 30.8062 0.0000 38.1886 0.0000
# 6 0.0000 0.0001 0.0001 3.0210 0.0000 19.1774
#
#
#
# Elastic Compliance Matrix: (Units=1/GPa)
#
#
# Indices 1 2 3 4 5 6 
#
# 1 0.016915 -0.005263 -0.001980 0.000000 -0.013153 0.000000
# 2 -0.005263 0.018440 -0.000091 -0.000001 0.000782 0.000000
# 3 -0.001980 -0.000091 0.018755 0.000000 -0.013240 0.000000
# 4 0.000000 -0.000001 0.000000 0.224904 0.000000 -0.035429
# 5 -0.013153 0.000782 -0.013240 0.000000 0.049100 0.000000
# 6 0.000000 0.000000 0.000000 -0.035429 0.000000 0.057726
#
#
# Mechanical properties :
#
#
# Convention : Reuss Voigt Hill
#
# Bulk Modulus (GPa) = 25.35331 42.85253 34.10292
# Shear Modulus (GPa) = 12.08739 23.64086 17.86412
#
# Velocity S-wave (km/s) = 2.46137 3.44225 2.99227
# Velocity P-wave (km/s) = 4.55907 6.10548 5.38805
#
# Compressibility (1/GPa) = 0.03944258
#
# Stress axis : x y z
#
# Youngs Moduli (GPa) = 59.11807 54.23086 53.31931
#
# Poissons Ratio (x) = 0.28542 0.10557
# Poissons Ratio (y) = 0.31114 0.00483
# Poissons Ratio (z) = 0.11705 0.00491
#
# Static dielectric constant tensor:
#      x y z
#    x 1.736060 0.000000 0.029230 
#    y 0.000000 1.684270 0.000000 
#    z 0.029230 0.000000 1.772540 
# 
# From -- ./inp_files/249621.got.cif
#   From: 2010.05.17/outbox.cif.g08.bks.cpg/sg12_125_cif.got.tgz:249621.got - 2010.06.03 13:09:07.
