data_PCOD9182905
_publ_section_title
;
Structure prediction by ZEFSAII (Michael W. Deem and Ramdas Pophale) SiO2 
 PCOD9182905
Probable space group: C 2/M
;
_chemical_formula_sum "Si O2"
_cell_formula_units_Z 56
_cell_length_a 27.891429
_cell_length_b 8.115008
_cell_length_c 18.988083
_cell_angle_alpha 90.000000
_cell_angle_beta 148.272008
_cell_angle_gamma 90.000000
_cell_volume 2260.130336
_symmetry_space_group_name_H-M "C 2/M"
_symmetry_group_IT_number 12
_symmetry_cell_setting 'monoclinic'
loop_
_space_group_symop_operation_xyz
x,y,z
-x,y,-z
-x,-y,-z
x,-y,z
1/2+x,1/2+y,z
1/2-x,1/2+y,-z
1/2-x,1/2-y,-z
1/2+x,1/2-y,z
loop_
_atom_site_type_symbol
_atom_site_label
_atom_site_fract_x
_atom_site_fract_y
_atom_site_fract_z
Si Si1 0.372312 0.807735 0.399050
Si Si2 0.206279 0.187094 0.843179
Si Si3 0.535136 0.188650 0.698317
Si Si4 0.564317 0.310498 0.292440
Si Si5 0.614155 0.698987 0.996315
Si Si6 0.774160 0.803122 0.419615
Si Si7 0.604230 0.301874 0.138709
O O1 0.337450 0.704880 0.289662
O O2 0.476295 0.780959 0.553892
O O3 0.317214 0.772501 0.402207
O O4 0.360037 0.000000 0.364359
O O5 0.140360 0.288702 0.811568
O O6 0.310151 0.243188 0.963614
O O7 0.202867 0.000000 0.862428
O O8 0.493593 0.304239 0.706513
O O9 0.516673 0.000000 0.696965
O O10 0.579423 0.500000 0.289188
O O11 0.662142 0.237922 0.437206
O O12 0.488027 0.236631 0.145694
O O13 0.610021 0.500000 0.988920
O O14 0.644475 0.746142 0.112707
O O15 0.667492 0.762686 0.280278
O O16 0.785314 0.000000 0.431804
O O17 0.604218 0.500000 0.144230
O O18 0.500000 0.248522 0.000000
#
# Coordination Sequence:
#
# PCOD9182905 Si02
#       7
#     8   8   8   8   8   8   8
#     4  10  19  33  53  78 110 148 191 233 279 334
#     4  12  23  33  51  80 114 149 191 240 284 327
#     4  10  21  35  53  78 110 152 195 235 278 329
#     4   9  20  38  58  81 112 152 193 232 279 332
#     4  10  21  39  60  80 111 152 190 231 281 340
#     4  10  19  34  58  86 114 145 184 232 286 334
#     4  10  21  38  62  89 114 145 187 231 279 340
#
# _framework density 24.777334
#
# number of rings (size 3 to 8) (size 9 to 14) (size 15 to 20)
#    0.000    1.857    1.429    3.000    0.000    5.429 
#    0.000    0.714    0.000    0.000    0.000    0.000 
#    0.000    0.000    0.000    0.000    0.000    0.000 
#
# Total GULP energy -156580.922778 kJ/mol
# GULP energy per Si atom -5592.175814 kJ/mol
# Density = 2.472094 g / cm^3
# Si number density = 24.777334 Si / 1000 Ang^3
#
#
#
# Elastic Constant Matrix: (Units=GPa)
#
#
# Indices 1 2 3 4 5 6 
#
# 1 65.0720 -0.9936 37.1476 0.0000 5.2260 0.0000
# 2 -0.9936 38.9808 16.6354 0.0000 0.8974 0.0000
# 3 37.1476 16.6354 202.6904 0.0000 9.1471 0.0000
# 4 0.0000 0.0000 0.0000 18.8019 0.0000 4.2448
# 5 5.2260 0.8974 9.1471 0.0000 51.3478 0.0000
# 6 0.0000 0.0000 0.0000 4.2448 0.0000 11.4545
#
#
#
# Elastic Compliance Matrix: (Units=1/GPa)
#
#
# Indices 1 2 3 4 5 6 
#
# 1 0.017367 0.001871 -0.003282 0.000000 -0.001216 0.000000
# 2 0.001871 0.026787 -0.002532 0.000000 -0.000208 0.000000
# 3 -0.003282 -0.002532 0.005772 0.000000 -0.000650 0.000000
# 4 0.000000 0.000000 0.000000 0.058042 0.000000 -0.021509
# 5 -0.001216 -0.000208 -0.000650 0.000000 0.019718 0.000000
# 6 0.000000 0.000000 0.000000 -0.021509 0.000000 0.095273
#
#
# Mechanical properties :
#
#
# Convention : Reuss Voigt Hill
#
# Bulk Modulus (GPa) = 23.78628 45.81354 34.79991
# Shear Modulus (GPa) = 20.42000 33.25109 26.83555
#
# Velocity S-wave (km/s) = 2.87390 3.66730 3.29457
# Velocity P-wave (km/s) = 4.54238 6.03841 5.34302
#
# Compressibility (1/GPa) = 0.04204104
#
# Stress axis : x y z
#
# Youngs Moduli (GPa) = 57.57993 37.33195 173.24390
#
# Poissons Ratio (x) = -0.06985 0.56852
# Poissons Ratio (y) = -0.10774 0.43866
# Poissons Ratio (z) = 0.18896 0.09453
#
# Static dielectric constant tensor:
#      x y z
#    x 1.986600 0.000000 0.012540 
#    y 0.000000 1.869860 0.000000 
#    z 0.012540 0.000000 2.027420 
# 
# From -- ./inp_files/329685.got.cif
#   From: 2010.05.17/outbox.cif.g08.bks.cpg/sg12_165_cif.got.tgz:329685.got - 2010.06.03 13:09:07.
