data_PCOD9182820
_publ_section_title
;
Structure prediction by ZEFSAII (Michael W. Deem and Ramdas Pophale) SiO2 
 PCOD9182820
Probable space group: C 2/M
;
_chemical_formula_sum "Si O2"
_cell_formula_units_Z 56
_cell_length_a 24.584041
_cell_length_b 10.175369
_cell_length_c 18.293582
_cell_angle_alpha 90.000000
_cell_angle_beta 142.655849
_cell_angle_gamma 90.000000
_cell_volume 2775.910458
_symmetry_space_group_name_H-M "C 2/M"
_symmetry_group_IT_number 12
_symmetry_cell_setting 'monoclinic'
loop_
_space_group_symop_operation_xyz
x,y,z
-x,y,-z
-x,-y,-z
x,-y,z
1/2+x,1/2+y,z
1/2-x,1/2+y,-z
1/2-x,1/2-y,-z
1/2+x,1/2-y,z
loop_
_atom_site_type_symbol
_atom_site_label
_atom_site_fract_x
_atom_site_fract_y
_atom_site_fract_z
Si Si1 0.368309 0.351095 0.336036
Si Si2 0.181509 0.142281 0.953584
Si Si3 0.868044 0.657255 0.472278
Si Si4 0.659917 0.349386 0.247238
Si Si5 0.488512 0.855605 0.899244
Si Si6 0.490926 0.651442 0.322181
Si Si7 0.322939 0.254446 0.900220
O O1 0.381080 0.500000 0.379386
O O2 0.381529 0.236560 0.410017
O O3 0.433550 0.336574 0.336428
O O4 0.265392 0.334166 0.201144
O O5 0.081296 0.170531 0.819020
O O6 0.204916 0.000000 0.947065
O O7 0.250000 0.250000 0.000000
O O8 0.189988 0.142351 0.049498
O O9 0.885921 0.500000 0.485436
O O10 0.763031 0.672861 0.380722
O O11 0.933245 0.737551 0.595504
O O12 0.635509 0.500000 0.235193
O O13 0.585614 0.251904 0.199680
O O14 0.661130 0.322090 0.161032
O O15 0.458628 0.000000 0.844337
O O16 0.500000 0.855683 0.000000
O O17 0.588957 0.825004 0.982048
O O18 0.524547 0.500000 0.354039
#
# Coordination Sequence:
#
# PCOD9182820 Si02
#       7
#     8   8   8   8   8   8   8
#     4  10  19  33  53  76 106 142 177 220 270 321
#     4  11  23  38  55  78 110 149 188 222 262 315
#     4  10  21  35  52  77 105 138 179 226 275 319
#     4   9  19  34  53  79 109 137 171 219 275 326
#     4   9  18  31  52  81 109 137 172 215 268 324
#     4  10  21  36  52  74 104 143 185 221 262 314
#     4  10  19  33  55  81 111 142 178 220 265 320
#
# _framework density 20.173562
#
# number of rings (size 3 to 8) (size 9 to 14) (size 15 to 20)
#    0.000    2.143    1.429    1.714    0.000   11.143 
#    0.000    0.000    0.000    0.857    0.000    0.000 
#    0.000    0.000    0.000    0.000    0.000    0.000 
#
# Total GULP energy -156212.126884 kJ/mol
# GULP energy per Si atom -5579.004532 kJ/mol
# Density = 2.012765 g / cm^3
# Si number density = 20.173562 Si / 1000 Ang^3
#
#
#
# Elastic Constant Matrix: (Units=GPa)
#
#
# Indices 1 2 3 4 5 6 
#
# 1 18.0480 22.8853 20.2656 0.0000 19.3127 0.0000
# 2 22.8853 160.1575 78.9182 0.0000 32.6355 0.0000
# 3 20.2656 78.9182 100.5030 0.0000 20.7501 0.0000
# 4 0.0000 0.0000 0.0000 27.5275 0.0000 2.3268
# 5 19.3127 32.6355 20.7501 0.0000 24.9045 0.0000
# 6 0.0000 0.0000 0.0000 2.3268 0.0000 10.9755
#
#
#
# Elastic Compliance Matrix: (Units=1/GPa)
#
#
# Indices 1 2 3 4 5 6 
#
# 1 0.389584 0.022933 -0.033799 0.000000 -0.304001 0.000000
# 2 0.022933 0.013082 -0.009282 0.000000 -0.027193 0.000000
# 3 -0.033799 -0.009282 0.019483 0.000000 0.022141 0.000000
# 4 0.000000 0.000000 0.000000 0.036990 0.000000 -0.007842
# 5 -0.304001 -0.027193 0.022141 0.000000 0.293083 0.000000
# 6 0.000000 0.000000 0.000000 -0.007842 0.000000 0.092775
#
#
# Mechanical properties :
#
#
# Convention : Reuss Voigt Hill
#
# Bulk Modulus (GPa) = 2.61882 58.09408 30.35645
# Shear Modulus (GPa) = 4.93790 23.12414 14.03102
#
# Velocity S-wave (km/s) = 1.56621 3.38932 2.64012
# Velocity P-wave (km/s) = 2.13814 6.64652 4.93700
#
# Compressibility (1/GPa) = 0.38185139
#
# Stress axis : x y z
#
# Youngs Moduli (GPa) = 2.56684 76.44173 51.32774
#
# Poissons Ratio (x) = -1.75301 1.73483
# Poissons Ratio (y) = -0.05886 0.47644
# Poissons Ratio (z) = 0.08676 0.70955
#
# Static dielectric constant tensor:
#      x y z
#    x 1.719250 0.000000 -0.003720 
#    y 0.000000 1.699760 0.000000 
#    z -0.003720 0.000000 1.737130 
# 
# From -- ./inp_files/329704.got.cif
#   From: 2010.05.17/outbox.cif.g08.bks.cpg/sg12_165_cif.got.tgz:329704.got - 2010.06.03 13:09:07.
