data_PCOD9182006
_publ_section_title
;
Structure prediction by ZEFSAII (Michael W. Deem and Ramdas Pophale) SiO2 
 PCOD9182006
Probable space group: C 2/M
;
_chemical_formula_sum "Si O2"
_cell_formula_units_Z 56
_cell_length_a 19.770729
_cell_length_b 18.062464
_cell_length_c 21.100127
_cell_angle_alpha 90.000000
_cell_angle_beta 159.934400
_cell_angle_gamma 90.000000
_cell_volume 2585.235776
_symmetry_space_group_name_H-M "C 2/M"
_symmetry_group_IT_number 12
_symmetry_cell_setting 'monoclinic'
loop_
_space_group_symop_operation_xyz
x,y,z
-x,y,-z
-x,-y,-z
x,-y,z
1/2+x,1/2+y,z
1/2-x,1/2+y,-z
1/2-x,1/2-y,-z
1/2+x,1/2-y,z
loop_
_atom_site_type_symbol
_atom_site_label
_atom_site_fract_x
_atom_site_fract_y
_atom_site_fract_z
Si Si1 0.755787 0.161515 0.562389
Si Si2 0.595319 0.730666 0.718768
Si Si3 0.515656 0.417059 0.439574
Si Si4 0.782313 0.417478 0.339050
Si Si5 0.397679 0.083583 0.696319
Si Si6 0.470671 0.230973 0.136591
Si Si7 0.822147 0.767906 0.801102
O O1 0.596958 0.228478 0.424280
O O2 0.709846 0.108255 0.581271
O O3 0.722650 0.113554 0.470620
O O4 0.963588 0.202615 0.758888
O O5 0.579850 0.643607 0.690582
O O6 0.636371 0.760991 0.683538
O O7 0.776659 0.747623 0.925126
O O8 0.500000 0.396648 0.500000
O O9 0.430099 0.500000 0.357226
O O10 0.741285 0.421214 0.615740
O O11 0.702417 0.500000 0.262974
O O12 0.654635 0.354552 0.192927
O O13 0.000000 0.416229 0.500000
O O14 0.541478 0.151361 0.840753
O O15 0.476336 0.000000 0.754709
O O16 0.650768 0.230011 0.243101
O O17 0.000000 0.737601 0.000000
#
# Coordination Sequence:
#
# PCOD9182006 Si02
#       7
#     8   8   8   8   8   8   8
#     4  11  22  39  61  84 121 157 194 248 293 347
#     4  11  21  36  64  88 120 153 199 243 295 348
#     4  10  22  39  63  90 119 157 196 241 304 357
#     4  10  19  32  55  82 111 153 196 232 286 346
#     4  11  23  41  61  86 122 158 195 245 300 354
#     4  10  22  37  61  90 116 153 204 242 291 349
#     4   9  19  35  55  88 116 149 194 246 289 342
#
# _framework density 21.661466000000001
#
# number of rings (size 3 to 8) (size 9 to 14) (size 15 to 20)
#    0.000    1.714    2.857    1.714    2.000    1.429 
#    0.000    0.000    0.000    6.857    0.000    0.000 
#    0.000    0.000    0.000    0.000    0.000    0.000 
#
# Total GULP energy -156257.788159 kJ/mol
# GULP energy per Si atom -5580.635291 kJ/mol
# Density = 2.161216 g / cm^3
# Si number density = 21.661466 Si / 1000 Ang^3
#
#
#
# Elastic Constant Matrix: (Units=GPa)
#
#
# Indices 1 2 3 4 5 6 
#
# 1 90.3773 13.2439 5.9814 -0.0084 -4.6564 -0.0145
# 2 13.2439 152.7542 18.5300 -0.0071 -11.4725 0.0042
# 3 5.9814 18.5300 60.9564 0.0096 -8.8130 -0.0049
# 4 -0.0084 -0.0071 0.0096 14.6687 0.0005 0.7426
# 5 -4.6564 -11.4725 -8.8130 0.0005 23.7826 -0.0009
# 6 -0.0145 0.0042 -0.0049 0.7426 -0.0009 21.3574
#
#
#
# Elastic Compliance Matrix: (Units=1/GPa)
#
#
# Indices 1 2 3 4 5 6 
#
# 1 0.011304 -0.000782 -0.000640 0.000006 0.001599 0.000008
# 2 -0.000782 0.007014 -0.001678 0.000004 0.002608 -0.000002
# 3 -0.000640 -0.001678 0.017796 -0.000013 0.005660 0.000005
# 4 0.000006 0.000004 -0.000013 0.068293 -0.000003 -0.002375
# 5 0.001599 0.002608 0.005660 -0.000003 0.045716 0.000004
# 6 0.000008 -0.000002 0.000005 -0.002375 0.000004 0.046905
#
#
# Mechanical properties :
#
#
# Convention : Reuss Voigt Hill
#
# Bulk Modulus (GPa) = 33.43070 42.17761 37.80415
# Shear Modulus (GPa) = 23.45212 29.71724 26.58468
#
# Velocity S-wave (km/s) = 3.29396 3.70793 3.50706
# Velocity P-wave (km/s) = 5.47116 6.15184 5.82146
#
# Compressibility (1/GPa) = 0.02991263
#
# Stress axis : x y z
#
# Youngs Moduli (GPa) = 88.46341 142.57666 56.19092
#
# Poissons Ratio (x) = 0.11154 0.03598
# Poissons Ratio (y) = 0.06921 0.09430
# Poissons Ratio (z) = 0.05664 0.23928
#
# Static dielectric constant tensor:
#      x y z
#    x 1.868500 -0.000010 0.008270 
#    y -0.000010 1.797770 -0.000030 
#    z 0.008270 -0.000030 1.779990 
# 
# From -- ./inp_files/322731.got.cif
#   From: 2010.05.17/outbox.cif.g08.bks.cpg/sg12_162_cif.got.tgz:322731.got - 2010.06.03 13:09:07.
