data_PCOD9182855
_publ_section_title
;
Structure prediction by ZEFSAII (Michael W. Deem and Ramdas Pophale) SiO2 
 PCOD9182855
Probable space group: C 2/M
;
_chemical_formula_sum "Si O2"
_cell_formula_units_Z 48
_cell_length_a 22.416603
_cell_length_b 16.874593
_cell_length_c 10.834413
_cell_angle_alpha 90.000000
_cell_angle_beta 149.918875
_cell_angle_gamma 90.000000
_cell_volume 2054.195753
_symmetry_space_group_name_H-M "C 2/M"
_symmetry_group_IT_number 12
_symmetry_cell_setting 'monoclinic'
loop_
_space_group_symop_operation_xyz
x,y,z
-x,y,-z
-x,-y,-z
x,-y,z
1/2+x,1/2+y,z
1/2-x,1/2+y,-z
1/2-x,1/2-y,-z
1/2+x,1/2-y,z
loop_
_atom_site_type_symbol
_atom_site_label
_atom_site_fract_x
_atom_site_fract_y
_atom_site_fract_z
Si Si1 0.599629 0.407811 0.575193
Si Si2 0.200850 0.500000 0.387236
Si Si3 0.537269 0.000000 0.867617
Si Si4 0.729218 0.669250 0.386517
Si Si5 0.763115 0.658052 0.054849
Si Si6 0.556598 0.317522 0.863026
Si Si7 0.451204 0.845090 0.593806
O O1 0.500000 0.382927 0.500000
O O2 0.586510 0.500000 0.530679
O O3 0.565573 0.361382 0.390766
O O4 0.723737 0.387940 0.862125
O O5 0.265828 0.583279 0.536609
O O6 0.079740 0.500000 0.252714
O O7 0.153289 0.500000 0.161695
O O8 0.521501 0.922910 0.756862
O O9 0.750000 0.750000 0.500000
O O10 0.840909 0.666119 0.491654
O O11 0.607152 0.680858 0.090816
O O12 0.886415 0.647340 0.345884
O O13 0.750000 0.750000 0.000000
O O14 0.661712 0.638941 0.975175
O O15 0.534942 0.230322 0.768714
#
# Coordination Sequence:
#
# PCOD9182855 Si02
#       7
#     8   4   4   8   8   8   8
#     4   9  18  31  51  77 103 136 174 212 254 303
#     4   9  18  34  54  78 103 135 176 218 262 308
#     4   9  18  32  54  78 101 135 174 220 256 306
#     4  10  21  35  56  80 106 138 175 220 263 310
#     4  10  19  33  53  77 106 139 173 212 256 310
#     4  10  20  33  55  78 103 141 173 213 259 311
#     4  10  20  34  55  80 106 136 177 213 261 311
#
# _framework density 23.366810000000001
#
# number of rings (size 3 to 8) (size 9 to 14) (size 15 to 20)
#    0.000    2.333    1.667    1.000    2.333    2.000 
#    0.000    0.000    3.667    2.000    0.000    0.000 
#    0.000    0.000    0.000    0.000    0.000    0.000 
#
# Total GULP energy -134087.485396 kJ/mol
# GULP energy per Si atom -5586.978558 kJ/mol
# Density = 2.331363 g / cm^3
# Si number density = 23.366810 Si / 1000 Ang^3
#
#
#
# Elastic Constant Matrix: (Units=GPa)
#
#
# Indices 1 2 3 4 5 6 
#
# 1 60.2602 10.5726 48.9934 0.0000 12.6987 0.0000
# 2 10.5726 150.5846 119.2275 0.0000 -34.3948 0.0000
# 3 48.9934 119.2275 260.9525 0.0000 -55.2324 0.0000
# 4 0.0000 0.0000 0.0000 35.0625 0.0000 -7.9496
# 5 12.6987 -34.3948 -55.2324 0.0000 39.6725 0.0000
# 6 0.0000 0.0000 0.0000 -7.9496 0.0000 26.5273
#
#
#
# Elastic Compliance Matrix: (Units=1/GPa)
#
#
# Indices 1 2 3 4 5 6 
#
# 1 0.031398 0.001437 -0.011930 0.000000 -0.025414 0.000000
# 2 0.001437 0.010806 -0.004709 0.000000 0.002352 0.000000
# 3 -0.011930 -0.004709 0.011580 0.000000 0.015858 0.000000
# 4 0.000000 0.000000 0.000000 0.030600 0.000000 0.009170
# 5 -0.025414 0.002352 0.015858 0.000000 0.057458 0.000000
# 6 0.000000 0.000000 0.000000 0.009170 0.000000 0.040445
#
#
# Mechanical properties :
#
#
# Convention : Reuss Voigt Hill
#
# Bulk Modulus (GPa) = 42.77420 92.15379 67.46400
# Shear Modulus (GPa) = 22.67737 39.78604 31.23171
#
# Velocity S-wave (km/s) = 3.11866 4.13082 3.65990
# Velocity P-wave (km/s) = 5.59583 7.89146 6.84063
#
# Compressibility (1/GPa) = 0.02337858
#
# Stress axis : x y z
#
# Youngs Moduli (GPa) = 31.84917 92.54544 86.35607
#
# Poissons Ratio (x) = -0.13298 1.03027
# Poissons Ratio (y) = -0.04576 0.40664
# Poissons Ratio (z) = 0.37998 0.43578
#
# Static dielectric constant tensor:
#      x y z
#    x 2.023130 0.000000 0.056400 
#    y 0.000000 1.702190 0.000000 
#    z 0.056400 0.000000 1.908750 
# 
# From -- ./inp_files/144807.got.cif
#   From: 2010.05.17/outbox.cif.g08.bks.cpg/sg12_73_cif.got.tgz:144807.got - 2010.06.03 13:09:07.
