data_PCOD9182716
_publ_section_title
;
Structure prediction by ZEFSAII (Michael W. Deem and Ramdas Pophale) SiO2 
 PCOD9182716
Probable space group: C 2/M
;
_chemical_formula_sum "Si O2"
_cell_formula_units_Z 56
_cell_length_a 19.106242
_cell_length_b 9.211890
_cell_length_c 24.877061
_cell_angle_alpha 90.000000
_cell_angle_beta 35.456437
_cell_angle_gamma 90.000000
_cell_volume 2539.883676
_symmetry_space_group_name_H-M "C 2/M"
_symmetry_group_IT_number 12
_symmetry_cell_setting 'monoclinic'
loop_
_space_group_symop_operation_xyz
x,y,z
-x,y,-z
-x,-y,-z
x,-y,z
1/2+x,1/2+y,z
1/2-x,1/2+y,-z
1/2-x,1/2-y,-z
1/2+x,1/2-y,z
loop_
_atom_site_type_symbol
_atom_site_label
_atom_site_fract_x
_atom_site_fract_y
_atom_site_fract_z
Si Si1 0.844282 0.165983 0.478677
Si Si2 0.718685 0.667979 0.161298
Si Si3 0.905410 0.164136 0.109362
Si Si4 0.291110 0.166645 0.321775
Si Si5 0.536316 0.672434 0.191766
Si Si6 0.595520 0.834413 0.054932
Si Si7 0.935042 0.177109 0.596268
O O1 0.750000 0.250000 0.500000
O O2 0.785258 0.161836 0.575056
O O3 0.980316 0.223629 0.406843
O O4 0.855413 0.000000 0.451572
O O5 0.712125 0.500000 0.184709
O O6 0.780765 0.773351 0.164674
O O7 0.592811 0.715002 0.213771
O O8 0.809438 0.669846 0.053113
O O9 0.969585 0.276606 0.108969
O O10 0.896127 0.000000 0.136867
O O11 0.000000 0.157278 0.000000
O O12 0.405403 0.263592 0.263383
O O13 0.203067 0.220029 0.329023
O O14 0.326335 0.000000 0.288244
O O15 0.536793 0.500000 0.189825
O O16 0.616796 0.732660 0.092529
O O17 0.588637 0.000000 0.077467
O O18 0.000000 0.221663 0.500000
O O19 0.935538 0.000000 0.597428
#
# Coordination Sequence:
#
# PCOD9182716 Si02
#       7
#     8   8   8   8   8   8   8
#     4   9  17  31  54  81 104 126 158 201 245 293
#     4   9  19  34  51  72  99 134 174 214 257 305
#     4   9  17  30  50  74  97 121 156 207 259 303
#     4   9  18  34  53  72  97 133 172 203 241 296
#     4  11  22  34  49  73 105 135 168 214 260 300
#     4  10  19  33  53  73  96 131 175 216 256 307
#     4   7  12  27  51  73  93 123 162 196 226 274
#
# _framework density 22.048254
#
# number of rings (size 3 to 8) (size 9 to 14) (size 15 to 20)
#    0.000    2.857    0.000    3.429    0.000    4.000 
#    0.000    2.143    0.000    7.714    0.000    0.000 
#    0.000    0.000    0.000    0.000    0.000    0.000 
#
# Total GULP energy -156249.833008 kJ/mol
# GULP energy per Si atom -5580.351179 kJ/mol
# Density = 2.199807 g / cm^3
# Si number density = 22.048254 Si / 1000 Ang^3
#
#
#
# Elastic Constant Matrix: (Units=GPa)
#
#
# Indices 1 2 3 4 5 6 
#
# 1 166.2586 53.4100 28.4262 0.0000 -43.0477 0.0000
# 2 53.4100 58.7888 5.4883 -0.0001 -17.8345 0.0001
# 3 28.4262 5.4883 51.0209 0.0000 -12.1526 0.0000
# 4 0.0000 -0.0001 0.0000 19.2373 0.0000 -3.4840
# 5 -43.0477 -17.8345 -12.1526 0.0000 46.8379 0.0000
# 6 0.0000 0.0001 0.0000 -3.4840 0.0000 31.7093
#
#
#
# Elastic Compliance Matrix: (Units=1/GPa)
#
#
# Indices 1 2 3 4 5 6 
#
# 1 0.010576 -0.007469 -0.003679 0.000000 0.005922 0.000000
# 2 -0.007469 0.024511 0.002252 0.000000 0.003053 0.000000
# 3 -0.003679 0.002252 0.022177 0.000000 0.003230 0.000000
# 4 0.000000 0.000000 0.000000 0.053038 0.000000 0.005827
# 5 0.005922 0.003053 0.003230 0.000000 0.028794 0.000000
# 6 0.000000 0.000000 0.000000 0.005827 0.000000 0.032177
#
#
# Mechanical properties :
#
#
# Convention : Reuss Voigt Hill
#
# Bulk Modulus (GPa) = 25.33364 50.07969 37.70667
# Shear Modulus (GPa) = 24.72537 32.13981 28.43259
#
# Velocity S-wave (km/s) = 3.35239 3.82213 3.59494
# Velocity P-wave (km/s) = 5.14779 6.49933 5.86264
#
# Compressibility (1/GPa) = 0.03947320
#
# Stress axis : x y z
#
# Youngs Moduli (GPa) = 94.55075 40.79734 45.09266
#
# Poissons Ratio (x) = 0.30470 0.16588
# Poissons Ratio (y) = 0.70617 -0.10154
# Poissons Ratio (z) = 0.34781 -0.09186
#
# Static dielectric constant tensor:
#      x y z
#    x 1.827600 0.000000 -0.003830 
#    y 0.000000 1.732340 0.000000 
#    z -0.003830 0.000000 1.921330 
# 
# From -- ./inp_files/363027.got.cif
#   From: 2010.05.17/outbox.cif.g08.bks.cpg/sg12_182_cif.got.tgz:363027.got - 2010.06.03 13:09:07.
