data_PCOD9182598
_publ_section_title
;
Structure prediction by ZEFSAII (Michael W. Deem and Ramdas Pophale) SiO2 
 PCOD9182598
Probable space group: C 2/M
;
_chemical_formula_sum "Si O2"
_cell_formula_units_Z 64
_cell_length_a 29.824378
_cell_length_b 13.843637
_cell_length_c 7.967469
_cell_angle_alpha 90.000000
_cell_angle_beta 65.319882
_cell_angle_gamma 90.000000
_cell_volume 2989.097664
_symmetry_space_group_name_H-M "C 2/M"
_symmetry_group_IT_number 12
_symmetry_cell_setting 'monoclinic'
loop_
_space_group_symop_operation_xyz
x,y,z
-x,y,-z
-x,-y,-z
x,-y,z
1/2+x,1/2+y,z
1/2-x,1/2+y,-z
1/2-x,1/2-y,-z
1/2+x,1/2-y,z
loop_
_atom_site_type_symbol
_atom_site_label
_atom_site_fract_x
_atom_site_fract_y
_atom_site_fract_z
Si Si1 0.098796 0.150862 0.689372
Si Si2 0.339455 0.395734 0.088750
Si Si3 0.672308 0.254876 0.342644
Si Si4 0.005888 0.891925 0.290926
Si Si5 0.637851 0.185293 0.075172
Si Si6 0.743989 0.108813 0.808547
Si Si7 0.049397 0.711250 0.009056
Si Si8 0.264540 0.107349 0.571658
O O1 0.128941 0.100419 0.789274
O O2 0.134588 0.169568 0.478933
O O3 0.048468 0.104502 0.705225
O O4 0.082256 0.251311 0.802287
O O5 0.344198 0.500000 0.994874
O O6 0.282981 0.380986 0.235227
O O7 0.358015 0.300688 0.966909
O O8 0.643671 0.182350 0.265072
O O9 0.716983 0.313542 0.184269
O O10 0.697218 0.190891 0.448135
O O11 0.000000 0.871389 0.500000
O O12 0.032531 0.806119 0.145571
O O13 0.028500 0.000000 0.237176
O O14 0.586815 0.152745 0.070057
O O15 0.687139 0.136293 0.926903
O O16 0.751804 0.111119 0.595621
O O17 0.752823 0.000000 0.856692
O O18 0.000000 0.669363 0.000000
O O19 0.285136 0.000000 0.569625
#
# Coordination Sequence:
#
# PCOD9182598 Si02
#       8
#     8   8   8   8   8   8   8   8
#     4  10  20  33  55  76 108 149 191 229 272 336
#     4  10  19  33  52  76 105 145 191 227 270 331
#     4  12  22  37  56  85 119 154 190 236 290 341
#     4  10  20  34  52  79 113 144 181 234 290 340
#     4  11  23  37  55  83 115 152 188 240 293 343
#     4  11  23  38  56  81 116 157 199 238 279 340
#     4   9  20  37  57  80 105 146 190 234 281 337
#     4  10  20  35  56  78 108 150 193 232 274 331
#
# _framework density 21.411142999999999
#
# number of rings (size 3 to 8) (size 9 to 14) (size 15 to 20)
#    0.000    1.625    2.500    3.375    0.000    5.750 
#    0.000    0.000    0.000    0.375    0.000    2.625 
#    0.000   11.000    0.000    0.000    0.000    0.000 
#
# Total GULP energy -178643.193052 kJ/mol
# GULP energy per Si atom -5582.599783 kJ/mol
# Density = 2.136241 g / cm^3
# Si number density = 21.411143 Si / 1000 Ang^3
#
#
#
# Elastic Constant Matrix: (Units=GPa)
#
#
# Indices 1 2 3 4 5 6 
#
# 1 116.2279 5.7759 14.2162 0.0000 -2.1176 0.0000
# 2 5.7759 34.4628 -3.0581 0.0000 -4.7422 0.0000
# 3 14.2162 -3.0581 40.7847 0.0000 -2.7612 0.0000
# 4 0.0000 0.0000 0.0000 10.1556 0.0000 -0.1045
# 5 -2.1176 -4.7422 -2.7612 0.0000 32.7791 0.0000
# 6 0.0000 0.0000 0.0000 -0.1045 0.0000 13.2854
#
#
#
# Elastic Compliance Matrix: (Units=1/GPa)
#
#
# Indices 1 2 3 4 5 6 
#
# 1 0.009099 -0.001812 -0.003304 0.000000 0.000047 0.000000
# 2 -0.001812 0.030228 0.003204 0.000000 0.004526 0.000000
# 3 -0.003304 0.003204 0.026077 0.000000 0.002447 0.000000
# 4 0.000000 0.000000 0.000000 0.098476 0.000000 0.000775
# 5 0.000047 0.004526 0.002447 0.000000 0.031371 0.000000
# 6 0.000000 0.000000 0.000000 0.000775 0.000000 0.075277
#
#
# Mechanical properties :
#
#
# Convention : Reuss Voigt Hill
#
# Bulk Modulus (GPa) = 16.23899 25.03816 20.63857
# Shear Modulus (GPa) = 16.95625 22.88009 19.91817
#
# Velocity S-wave (km/s) = 2.81719 3.27250 3.05334
# Velocity P-wave (km/s) = 4.26414 5.09886 4.70007
#
# Compressibility (1/GPa) = 0.06158020
#
# Stress axis : x y z
#
# Youngs Moduli (GPa) = 109.90435 33.08239 38.34846
#
# Poissons Ratio (x) = 0.05993 0.12671
# Poissons Ratio (y) = 0.19910 -0.12288
# Poissons Ratio (z) = 0.36314 -0.10601
#
# Static dielectric constant tensor:
#      x y z
#    x 1.805290 0.000000 0.021420 
#    y 0.000000 1.779980 0.000000 
#    z 0.021420 0.000000 1.782150 
# 
# From -- ./inp_files/104529.got.cif
#   From: 2010.05.17/outbox.cif.g08.bks.cpg/sg12_53_cif.got.tgz:104529.got - 2010.06.03 13:09:07.
