data_PCOD9182184
_publ_section_title
;
Structure prediction by ZEFSAII (Michael W. Deem and Ramdas Pophale) SiO2 
 PCOD9182184
Probable space group: C 2/M
;
_chemical_formula_sum "Si O2"
_cell_formula_units_Z 58
_cell_length_a 20.736107
_cell_length_b 12.275368
_cell_length_c 18.765631
_cell_angle_alpha 90.000000
_cell_angle_beta 37.746354
_cell_angle_gamma 90.000000
_cell_volume 2924.117410
_symmetry_space_group_name_H-M "C 2/M"
_symmetry_group_IT_number 12
_symmetry_cell_setting 'monoclinic'
loop_
_space_group_symop_operation_xyz
x,y,z
-x,y,-z
-x,-y,-z
x,-y,z
1/2+x,1/2+y,z
1/2-x,1/2+y,-z
1/2-x,1/2-y,-z
1/2+x,1/2-y,z
loop_
_atom_site_type_symbol
_atom_site_label
_atom_site_fract_x
_atom_site_fract_y
_atom_site_fract_z
Si Si1 0.808587 0.120277 0.379255
Si Si2 0.918112 0.696073 0.854982
Si Si3 0.058246 0.795302 0.858242
Si Si4 0.410110 0.205963 0.398169
Si Si5 0.293087 0.871142 0.198790
Si Si6 0.092460 0.122284 0.476834
Si Si7 0.785870 0.877635 0.890455
Si Si8 0.500000 0.500000 0.000000
O O1 0.842401 0.154490 0.271053
O O2 0.683977 0.126941 0.498228
O O3 0.861133 0.208185 0.384776
O O4 0.848055 0.000000 0.360619
O O5 0.867047 0.799225 0.858891
O O6 0.985025 0.733691 0.865181
O O7 0.995637 0.648813 0.726913
O O8 0.821312 0.626835 0.969513
O O9 0.110128 0.708337 0.867151
O O10 0.000428 0.901120 0.939720
O O11 0.434148 0.282662 0.444511
O O12 0.202703 0.859966 0.338520
O O13 0.243978 0.843728 0.164249
O O14 0.323198 0.000000 0.170540
O O15 0.000000 0.120110 0.500000
O O16 0.098204 0.000000 0.504544
O O17 0.827583 0.000000 0.850134
#
# Coordination Sequence:
#
# PCOD9182184 Si02
#       8
#     8   8   8   8   8   8   8   2
#     4  10  20  36  56  85 122 157 193 242 297 356
#     4  10  23  39  60  88 118 160 207 253 303 372
#     4  11  22  39  60  94 126 159 208 253 308 363
#     4  10  20  35  57  85 118 155 192 245 293 359
#     4  10  21  39  63  92 125 159 199 257 318 366
#     4  10  19  32  56  89 119 152 193 239 301 366
#     4  10  22  41  62  85 119 160 202 258 310 362
#     4  12  24  36  62  88 122 172 202 256 302 368
#
# _framework density 19.835045999999998
#
# number of rings (size 3 to 8) (size 9 to 14) (size 15 to 20)
#    0.000    1.793    2.069    2.069    0.966    3.310 
#    0.000    1.724    0.000    0.414    0.000    0.000 
#    0.000    0.000    0.000    0.000    0.000    0.000 
#
# Total GULP energy -161510.868618 kJ/mol
# GULP energy per Si atom -5569.340297 kJ/mol
# Density = 1.978990 g / cm^3
# Si number density = 19.835046 Si / 1000 Ang^3
#
#
#
# Elastic Constant Matrix: (Units=GPa)
#
#
# Indices 1 2 3 4 5 6 
#
# 1 69.2907 15.3498 -16.8989 0.0000 8.1367 0.0000
# 2 15.3498 52.2516 -29.5011 0.0000 3.0243 0.0000
# 3 -16.8989 -29.5011 46.0572 0.0000 1.0013 0.0000
# 4 0.0000 0.0000 0.0000 29.4631 0.0000 32.6884
# 5 8.1367 3.0243 1.0013 0.0000 30.9601 0.0000
# 6 0.0000 0.0000 0.0000 32.6884 0.0000 63.4805
#
#
#
# Elastic Compliance Matrix: (Units=1/GPa)
#
#
# Indices 1 2 3 4 5 6 
#
# 1 0.016563 -0.001770 0.005038 0.000000 -0.004343 0.000000
# 2 -0.001770 0.030565 0.018997 0.000000 -0.003135 0.000000
# 3 0.005038 0.018997 0.035823 0.000000 -0.004338 0.000000
# 4 0.000000 0.000000 0.000000 0.079172 0.000000 -0.040769
# 5 -0.004343 -0.003135 -0.004338 0.000000 0.033888 0.000000
# 6 0.000000 0.000000 0.000000 -0.040769 0.000000 0.036746
#
#
# Mechanical properties :
#
#
# Convention : Reuss Voigt Hill
#
# Bulk Modulus (GPa) = 7.84440 11.72213 9.78327
# Shear Modulus (GPa) = 21.67126 38.02406 29.84766
#
# Velocity S-wave (km/s) = 3.30900 4.38312 3.88338
# Velocity P-wave (km/s) = 4.30844 5.61590 5.00505
#
# Compressibility (1/GPa) = 0.12747941
#
# Stress axis : x y z
#
# Youngs Moduli (GPa) = 60.37681 32.71718 27.91518
#
# Poissons Ratio (x) = 0.05791 -0.14063
# Poissons Ratio (y) = 0.10686 -0.53029
# Poissons Ratio (z) = -0.30416 -0.62152
#
# Static dielectric constant tensor:
#      x y z
#    x 1.669610 0.000000 0.006250 
#    y 0.000000 1.661790 0.000000 
#    z 0.006250 0.000000 1.796200 
# 
# From -- ./inp_files/283506.got.cif
#   From: 2010.05.17/outbox.cif.g08.bks.cpg/sg12_142_cif.got.tgz:283506.got - 2010.06.03 13:09:07.
