data_PCOD9182308
_publ_section_title
;
Structure prediction by ZEFSAII (Michael W. Deem and Ramdas Pophale) SiO2 
 PCOD9182308
Probable space group: C 2/M
;
_chemical_formula_sum "Si O2"
_cell_formula_units_Z 60
_cell_length_a 13.353468
_cell_length_b 9.294274
_cell_length_c 19.368106
_cell_angle_alpha 90.000000
_cell_angle_beta 92.678523
_cell_angle_gamma 90.000000
_cell_volume 2401.164713
_symmetry_space_group_name_H-M "C 2/M"
_symmetry_group_IT_number 12
_symmetry_cell_setting 'monoclinic'
loop_
_space_group_symop_operation_xyz
x,y,z
-x,y,-z
-x,-y,-z
x,-y,z
1/2+x,1/2+y,z
1/2-x,1/2+y,-z
1/2-x,1/2-y,-z
1/2+x,1/2-y,z
loop_
_atom_site_type_symbol
_atom_site_label
_atom_site_fract_x
_atom_site_fract_y
_atom_site_fract_z
Si Si1 0.920875 0.334638 0.649800
Si Si2 0.199862 0.835295 0.757715
Si Si3 0.659298 0.835465 0.622194
Si Si4 0.619344 0.335094 0.486410
Si Si5 0.792978 0.000000 0.008939
Si Si6 0.767897 0.719517 0.100302
Si Si7 0.538958 0.665635 0.212952
Si Si8 0.504406 0.837793 0.922196
O O1 0.885509 0.500000 0.645312
O O2 0.874478 0.233648 0.589236
O O3 0.040067 0.339498 0.635939
O O4 0.915162 0.263537 0.725066
O O5 0.205274 0.766455 0.682355
O O6 0.247574 0.736393 0.818809
O O7 0.080978 0.839447 0.773400
O O8 0.235645 0.000000 0.761318
O O9 0.665469 0.767042 0.546524
O O10 0.695350 0.000000 0.627394
O O11 0.500000 0.339617 0.500000
O O12 0.655126 0.500000 0.491786
O O13 0.803018 0.876004 0.948912
O O14 0.775424 0.875551 0.066876
O O15 0.878269 0.652254 0.091959
O O16 0.573904 0.500000 0.214318
O O17 0.542907 0.741833 0.138723
O O18 0.461133 0.000000 0.922171
O O19 0.500000 0.779560 0.000000
#
# Coordination Sequence:
#
# PCOD9182308 Si02
#       8
#     8   8   8   8   4   8   8   8
#     4   9  15  23  35  49  70  99 135 175 210 251
#     4   9  16  26  39  55  79 104 137 177 216 258
#     4   9  16  22  32  49  70  99 134 172 212 251
#     4   9  15  22  31  45  68  97 133 172 211 249
#     4  10  20  32  50  66  90 114 150 190 228 272
#     4  10  19  33  48  69  88 117 151 190 227 273
#     4   9  17  27  40  58  78 105 141 179 218 259
#     4  10  20  33  48  66  91 119 150 188 231 274
#
# _framework density 24.987871999999999
#
# number of rings (size 3 to 8) (size 9 to 14) (size 15 to 20)
#    0.000    2.667    1.333    1.600    1.867    6.667 
#    0.000    0.000    0.000    0.000    0.000    0.000 
#    0.000    0.000    0.000    0.000    0.000    8.000 
#
# Total GULP energy -167566.687627 kJ/mol
# GULP energy per Si atom -5585.556254 kJ/mol
# Density = 2.493100 g / cm^3
# Si number density = 24.987872 Si / 1000 Ang^3
#
#
#
# Elastic Constant Matrix: (Units=GPa)
#
#
# Indices 1 2 3 4 5 6 
#
# 1 72.1710 -11.9884 9.6304 0.0000 -1.6228 0.0000
# 2 -11.9884 194.6983 102.5555 0.0000 18.8473 0.0000
# 3 9.6304 102.5555 241.3501 0.0000 -25.7258 0.0000
# 4 0.0000 0.0000 0.0000 108.8793 0.0000 17.0217
# 5 -1.6228 18.8473 -25.7258 0.0000 30.3080 0.0000
# 6 0.0000 0.0000 0.0000 17.0217 0.0000 10.6290
#
#
#
# Elastic Compliance Matrix: (Units=1/GPa)
#
#
# Indices 1 2 3 4 5 6 
#
# 1 0.014333 0.001860 -0.001543 0.000000 -0.001699 0.000000
# 2 0.001860 0.008648 -0.004741 0.000000 -0.009302 0.000000
# 3 -0.001543 -0.004741 0.007174 0.000000 0.008955 0.000000
# 4 0.000000 0.000000 0.000000 0.012252 0.000000 -0.019621
# 5 -0.001699 -0.009302 0.008955 0.000000 0.046289 0.000000
# 6 0.000000 0.000000 0.000000 -0.019621 0.000000 0.125504
#
#
# Mechanical properties :
#
#
# Convention : Reuss Voigt Hill
#
# Bulk Modulus (GPa) = 46.93352 78.73491 62.83421
# Shear Modulus (GPa) = 21.72502 57.16472 39.44487
#
# Velocity S-wave (km/s) = 2.95180 4.78818 3.97742
# Velocity P-wave (km/s) = 5.51731 7.88331 6.80394
#
# Compressibility (1/GPa) = 0.02130673
#
# Stress axis : x y z
#
# Youngs Moduli (GPa) = 69.77059 115.63069 139.39600
#
# Poissons Ratio (x) = -0.21507 0.21514
# Poissons Ratio (y) = -0.12977 0.66082
# Poissons Ratio (z) = 0.10768 0.54816
#
# Static dielectric constant tensor:
#      x y z
#    x 2.120850 0.000000 -0.016110 
#    y 0.000000 1.871360 0.000000 
#    z -0.016110 0.000000 1.876400 
# 
# From -- ./inp_files/287839.got.cif
#   From: 2010.05.17/outbox.cif.g08.bks.cpg/sg12_144_cif.got.tgz:287839.got - 2010.06.03 13:09:07.
