data_PCOD9182593
_publ_section_title
;
Structure prediction by ZEFSAII (Michael W. Deem and Ramdas Pophale) SiO2 
 PCOD9182593
Probable space group: C 2/M
;
_chemical_formula_sum "Si O2"
_cell_formula_units_Z 40
_cell_length_a 16.732056
_cell_length_b 10.953298
_cell_length_c 12.653575
_cell_angle_alpha 90.000000
_cell_angle_beta 120.004336
_cell_angle_gamma 90.000000
_cell_volume 2008.256175
_symmetry_space_group_name_H-M "C 2/M"
_symmetry_group_IT_number 12
_symmetry_cell_setting 'monoclinic'
loop_
_space_group_symop_operation_xyz
x,y,z
-x,y,-z
-x,-y,-z
x,-y,z
1/2+x,1/2+y,z
1/2-x,1/2+y,-z
1/2-x,1/2-y,-z
1/2+x,1/2-y,z
loop_
_atom_site_type_symbol
_atom_site_label
_atom_site_fract_x
_atom_site_fract_y
_atom_site_fract_z
Si Si1 0.188079 0.370768 0.023939
Si Si2 0.888043 0.140860 0.435659
Si Si3 0.109431 0.860676 0.097495
Si Si4 0.424307 0.354454 0.686585
Si Si5 0.369048 0.736899 0.203482
O O1 0.153717 0.500000 0.043032
O O2 0.151116 0.252156 0.060896
O O3 0.298203 0.362701 0.109727
O O4 0.158819 0.354371 0.882714
O O5 0.869513 0.180113 0.543815
O O6 0.855029 0.228500 0.320043
O O7 0.000000 0.138212 0.500000
O O8 0.856651 0.000000 0.397271
O O9 0.121142 0.834504 0.230150
O O10 0.142582 0.000000 0.097230
O O11 0.000000 0.861970 0.000000
O O12 0.440564 0.500000 0.687723
O O13 0.524915 0.293171 0.750064
#
# Coordination Sequence:
#
# PCOD9182593 Si02
#       5
#     8   8   8   8   8
#     4  11  23  34  51  79 112 143 168 210 266 316
#     4   8  14  26  51  79 100 126 171 223 257 292
#     4  10  20  35  55  77 104 138 176 218 255 304
#     4   9  16  31  55  80 100 130 178 222 255 296
#     4  10  19  33  52  76 104 136 175 215 257 306
#
# _framework density 19.917777000000001
#
# number of rings (size 3 to 8) (size 9 to 14) (size 15 to 20)
#    0.000    2.400    2.000    3.000    0.000    4.400 
#    0.000    1.000    0.000    6.600    0.000    0.000 
#    0.000    0.000    0.000    0.000    0.000    0.000 
#
# Total GULP energy -111407.693423 kJ/mol
# GULP energy per Si atom -5570.384671 kJ/mol
# Density = 1.987244 g / cm^3
# Si number density = 19.917777 Si / 1000 Ang^3
#
#
#
# Elastic Constant Matrix: (Units=GPa)
#
#
# Indices 1 2 3 4 5 6 
#
# 1 46.9074 46.6058 28.8681 0.0000 -18.8851 0.0000
# 2 46.6058 111.3560 33.5547 0.0000 -19.4093 0.0000
# 3 28.8681 33.5547 114.6796 0.0000 -38.1763 0.0000
# 4 0.0000 0.0000 0.0000 9.6571 0.0000 -14.4245
# 5 -18.8851 -19.4093 -38.1763 0.0000 36.0543 0.0000
# 6 0.0000 0.0000 0.0000 -14.4245 0.0000 12.7673
#
#
#
# Elastic Compliance Matrix: (Units=1/GPa)
#
#
# Indices 1 2 3 4 5 6 
#
# 1 0.042344 -0.014977 -0.002436 0.000000 0.011537 0.000000
# 2 -0.014977 0.015436 -0.000914 0.000000 -0.000503 0.000000
# 3 -0.002436 -0.000914 0.013918 0.000000 0.012969 0.000000
# 4 0.000000 0.000000 0.000000 -0.150606 0.000000 -0.170155
# 5 0.011537 -0.000503 0.012969 0.000000 0.047241 0.000000
# 6 0.000000 0.000000 0.000000 -0.170155 0.000000 -0.113917
#
#
# Mechanical properties :
#
#
# Convention : Reuss Voigt Hill
#
# Bulk Modulus (GPa) = 28.53567 54.55556 41.54561
# Shear Modulus (GPa) = -51.41420 22.62336 -14.39542
#
# Velocity S-wave (km/s) = -5.08618 3.37387 -2.69130
# Velocity P-wave (km/s) = 4.48715 6.52895 3.35356
#
# Compressibility (1/GPa) = 0.03504385
#
# Stress axis : x y z
#
# Youngs Moduli (GPa) = 23.61636 64.78250 71.84981
#
# Poissons Ratio (x) = 0.97025 0.17504
# Poissons Ratio (y) = 0.35370 0.06565
# Poissons Ratio (z) = 0.05753 0.05919
#
# Static dielectric constant tensor:
#      x y z
#    x 1.748430 0.000000 -0.047540 
#    y 0.000000 1.687720 0.000000 
#    z -0.047540 0.000000 1.764170 
# 
# From -- ./inp_files/222663.got.cif
#   From: 2010.05.17/outbox.cif.g08.bks.cpg/sg12_112_cif.got.tgz:222663.got - 2010.06.03 13:09:07.
