data_PCOD9182167
_publ_section_title
;
Structure prediction by ZEFSAII (Michael W. Deem and Ramdas Pophale) SiO2 
 PCOD9182167
Probable space group: C 2/M
;
_chemical_formula_sum "Si O2"
_cell_formula_units_Z 56
_cell_length_a 11.085171
_cell_length_b 28.942804
_cell_length_c 9.653673
_cell_angle_alpha 90.000000
_cell_angle_beta 105.762120
_cell_angle_gamma 90.000000
_cell_volume 2980.781925
_symmetry_space_group_name_H-M "C 2/M"
_symmetry_group_IT_number 12
_symmetry_cell_setting 'monoclinic'
loop_
_space_group_symop_operation_xyz
x,y,z
-x,y,-z
-x,-y,-z
x,-y,z
1/2+x,1/2+y,z
1/2-x,1/2+y,-z
1/2-x,1/2-y,-z
1/2+x,1/2-y,z
loop_
_atom_site_type_symbol
_atom_site_label
_atom_site_fract_x
_atom_site_fract_y
_atom_site_fract_z
Si Si1 0.898495 0.798194 0.095064
Si Si2 0.550533 0.906420 0.858724
Si Si3 0.394165 0.805153 0.088843
Si Si4 0.820082 0.052001 0.948345
Si Si5 0.373249 0.447932 0.639878
Si Si6 0.600969 0.391745 0.769644
Si Si7 0.193440 0.445603 0.336369
O O1 0.911189 0.746032 0.156888
O O2 0.915990 0.837620 0.214474
O O3 0.752750 0.805358 0.002363
O O4 0.000000 0.803380 0.000000
O O5 0.582828 0.853573 0.826068
O O6 0.673840 0.936982 0.909749
O O7 0.448602 0.929794 0.728375
O O8 0.500000 0.904234 0.000000
O O9 0.500000 0.805441 0.000000
O O10 0.847679 0.055551 0.794848
O O11 0.849933 0.000000 0.004757
O O12 0.889393 0.087026 0.072077
O O13 0.418251 0.500000 0.624219
O O14 0.484817 0.412731 0.651405
O O15 0.251789 0.440483 0.507565
O O16 0.724598 0.411634 0.734628
O O17 0.206878 0.500000 0.301113
#
# Coordination Sequence:
#
# PCOD9182167 Si02
#       7
#     8   8   8   8   8   8   8
#     4  10  19  32  56  86 119 150 188 242 301 348
#     4  11  20  35  57  83 113 143 192 239 288 339
#     4   9  18  34  53  85 120 149 188 244 296 350
#     4  11  21  33  54  83 113 144 182 236 286 332
#     4  10  23  38  52  78 116 154 190 227 280 348
#     4  12  20  34  58  85 112 145 189 237 287 337
#     4  11  23  38  57  81 114 157 194 230 283 350
#
# _framework density 18.787016999999999
#
# number of rings (size 3 to 8) (size 9 to 14) (size 15 to 20)
#    0.000    1.429    2.857    4.286    0.000    3.429 
#    0.000    2.143    0.000    0.857    3.714    0.000 
#    0.000    0.000    0.000    0.000    0.000    0.000 
#
# Total GULP energy -156136.675594 kJ/mol
# GULP energy per Si atom -5576.309843 kJ/mol
# Density = 1.874426 g / cm^3
# Si number density = 18.787017 Si / 1000 Ang^3
#
#
#
# Elastic Constant Matrix: (Units=GPa)
#
#
# Indices 1 2 3 4 5 6 
#
# 1 82.3020 10.9203 10.1621 0.0000 17.8283 0.0000
# 2 10.9203 75.6071 21.9877 0.0000 5.1916 0.0000
# 3 10.1621 21.9877 70.1947 0.0000 16.8364 0.0000
# 4 0.0000 0.0000 0.0000 49.2313 0.0000 8.1528
# 5 17.8283 5.1916 16.8364 0.0000 30.4023 0.0000
# 6 0.0000 0.0000 0.0000 8.1528 0.0000 25.3445
#
#
#
# Elastic Compliance Matrix: (Units=1/GPa)
#
#
# Indices 1 2 3 4 5 6 
#
# 1 0.014092 -0.001596 0.000434 0.000000 -0.008231 0.000000
# 2 -0.001596 0.014733 -0.004618 0.000000 0.000978 0.000000
# 3 0.000434 -0.004618 0.017876 0.000000 -0.009366 0.000000
# 4 0.000000 0.000000 0.000000 0.021455 0.000000 -0.006902
# 5 -0.008231 0.000978 -0.009366 0.000000 0.042739 0.000000
# 6 0.000000 0.000000 0.000000 -0.006902 0.000000 0.041676
#
#
# Mechanical properties :
#
#
# Convention : Reuss Voigt Hill
#
# Bulk Modulus (GPa) = 28.45767 34.91599 31.68683
# Shear Modulus (GPa) = 28.43409 33.33121 30.88265
#
# Velocity S-wave (km/s) = 3.89459 4.21665 4.05881
# Velocity P-wave (km/s) = 5.95014 6.50633 6.23444
#
# Compressibility (1/GPa) = 0.03513991
#
# Stress axis : x y z
#
# Youngs Moduli (GPa) = 70.96385 67.87585 55.94017
#
# Poissons Ratio (x) = 0.10836 -0.02430
# Poissons Ratio (y) = 0.11329 0.25835
# Poissons Ratio (z) = -0.03082 0.31347
#
# Static dielectric constant tensor:
#      x y z
#    x 1.752860 0.000000 -0.029210 
#    y 0.000000 1.676480 0.000000 
#    z -0.029210 0.000000 1.635580 
# 
# From -- ./inp_files/53176.got.cif
#   From: 2010.05.17/outbox.cif.g08.bks.cpg/sg12_27_cif.got.tgz:53176.got - 2010.06.03 13:09:07.
