data_PCOD9182369
_publ_section_title
;
Structure prediction by ZEFSAII (Michael W. Deem and Ramdas Pophale) SiO2 
 PCOD9182369
Probable space group: C 2/M
;
_chemical_formula_sum "Si O2"
_cell_formula_units_Z 64
_cell_length_a 25.783367
_cell_length_b 8.462509
_cell_length_c 24.776761
_cell_angle_alpha 90.000000
_cell_angle_beta 46.109972
_cell_angle_gamma 90.000000
_cell_volume 3896.016827
_symmetry_space_group_name_H-M "C 2/M"
_symmetry_group_IT_number 12
_symmetry_cell_setting 'monoclinic'
loop_
_space_group_symop_operation_xyz
x,y,z
-x,y,-z
-x,-y,-z
x,-y,z
1/2+x,1/2+y,z
1/2-x,1/2+y,-z
1/2-x,1/2-y,-z
1/2+x,1/2-y,z
loop_
_atom_site_type_symbol
_atom_site_label
_atom_site_fract_x
_atom_site_fract_y
_atom_site_fract_z
Si Si1 0.310847 0.689478 0.682531
Si Si2 0.590796 0.807169 0.577021
Si Si3 0.112594 0.309226 0.682033
Si Si4 0.440218 0.688311 0.999040
Si Si5 0.272107 0.810642 0.591439
Si Si6 0.665598 0.190194 0.842981
Si Si7 0.453949 0.190458 0.159012
Si Si8 0.469037 0.191158 0.581013
O O1 0.308550 0.500000 0.679979
O O2 0.295426 0.759667 0.634507
O O3 0.245657 0.740106 0.768795
O O4 0.389057 0.743528 0.645173
O O5 0.587813 0.753335 0.641003
O O6 0.665645 0.758380 0.494983
O O7 0.524484 0.756775 0.587315
O O8 0.590424 0.000000 0.577178
O O9 0.109839 0.500000 0.683976
O O10 0.194880 0.260341 0.632840
O O11 0.065055 0.254108 0.767156
O O12 0.440037 0.500000 0.997911
O O13 0.471291 0.751572 0.920453
O O14 0.500000 0.743016 0.000000
O O15 0.365755 0.747742 0.077978
O O16 0.267573 0.000000 0.592722
O O17 0.610955 0.242465 0.834370
O O18 0.663341 0.000000 0.845923
O O19 0.454174 0.000000 0.158443
O O20 0.500000 0.238616 0.500000
O O21 0.465869 0.000000 0.583683
#
# Coordination Sequence:
#
# PCOD9182369 Si02
#       8
#     8   8   8   8   8   8   8   8
#     4  11  21  33  50  74  98 128 167 206 244 287
#     4   9  19  34  51  69  95 131 169 205 244 290
#     4  10  19  33  50  71  98 131 169 202 235 288
#     4   9  17  27  42  67  95 123 154 189 230 283
#     4  11  20  32  49  71  99 132 164 202 249 290
#     4   9  17  30  45  65  94 125 157 192 236 287
#     4   9  16  28  45  65  93 129 158 187 232 285
#     4  10  19  35  53  70  95 129 166 206 252 293
#
# _framework density 16.427035
#
# number of rings (size 3 to 8) (size 9 to 14) (size 15 to 20)
#    0.000    2.250    2.500    1.500    0.000    3.250 
#    0.000    1.250    0.000    0.000    0.000    0.875 
#    0.000    0.000    0.000    0.000    0.000    0.000 
#
# Total GULP energy -178443.307234 kJ/mol
# GULP energy per Si atom -5576.353351 kJ/mol
# Density = 1.638965 g / cm^3
# Si number density = 16.427035 Si / 1000 Ang^3
#
#
#
# Elastic Constant Matrix: (Units=GPa)
#
#
# Indices 1 2 3 4 5 6 
#
# 1 74.5364 4.6868 68.0438 0.0000 16.6844 -0.0003
# 2 4.6868 4.3006 21.7288 0.0029 3.1936 0.0095
# 3 68.0438 21.7288 185.1051 -0.0003 4.6058 0.0001
# 4 0.0000 0.0029 -0.0003 21.0278 0.0000 -7.2192
# 5 16.6844 3.1936 4.6058 0.0000 15.6051 0.0001
# 6 -0.0003 0.0095 0.0001 -7.2192 0.0001 15.2542
#
#
#
# Elastic Compliance Matrix: (Units=1/GPa)
#
#
# Indices 1 2 3 4 5 6 
#
# 1 0.118524 0.536835 -0.101444 -0.000228 -0.206645 -0.000439
# 2 0.536835 3.203352 -0.546790 -0.001360 -1.068151 -0.002626
# 3 -0.101444 -0.546790 0.102146 0.000232 0.190214 0.000448
# 4 -0.000228 -0.001360 0.000232 0.056782 0.000454 0.026873
# 5 -0.206645 -1.068151 0.190214 0.000454 0.447476 0.000874
# 6 -0.000439 -0.002626 0.000448 0.026873 0.000874 0.078275
#
#
# Mechanical properties :
#
#
# Convention : Reuss Voigt Hill
#
# Bulk Modulus (GPa) = 0.31238 50.31787 25.31512
# Shear Modulus (GPa) = 0.94403 21.67627 11.31015
#
# Velocity S-wave (km/s) = 0.75890 3.63650 2.62679
# Velocity P-wave (km/s) = 0.97902 6.95196 4.96429
#
# Compressibility (1/GPa) = 3.20122188
#
# Stress axis : x y z
#
# Youngs Moduli (GPa) = 8.43708 0.31217 9.78993
#
# Poissons Ratio (x) = -0.16759 0.99313
# Poissons Ratio (y) = -4.52932 5.35304
# Poissons Ratio (z) = 0.85590 0.17069
#
# Static dielectric constant tensor:
#      x y z
#    x 1.526180 0.000000 0.007270 
#    y 0.000000 1.559860 0.000000 
#    z 0.007270 0.000000 1.572480 
# 
# From -- ./inp_files/348529.got.cif
#   From: 2010.05.17/outbox.cif.g08.bks.cpg/sg12_175_cif.got.tgz:348529.got - 2010.06.03 13:09:07.
