data_PCOD9182904
_publ_section_title
;
Structure prediction by ZEFSAII (Michael W. Deem and Ramdas Pophale) SiO2 
 PCOD9182904
Probable space group: C 2/M
;
_chemical_formula_sum "Si O2"
_cell_formula_units_Z 56
_cell_length_a 29.412288
_cell_length_b 9.001116
_cell_length_c 19.416227
_cell_angle_alpha 90.000000
_cell_angle_beta 138.785759
_cell_angle_gamma 90.000000
_cell_volume 3386.834672
_symmetry_space_group_name_H-M "C 2/M"
_symmetry_group_IT_number 12
_symmetry_cell_setting 'monoclinic'
loop_
_space_group_symop_operation_xyz
x,y,z
-x,y,-z
-x,-y,-z
x,-y,z
1/2+x,1/2+y,z
1/2-x,1/2+y,-z
1/2-x,1/2-y,-z
1/2+x,1/2-y,z
loop_
_atom_site_type_symbol
_atom_site_label
_atom_site_fract_x
_atom_site_fract_y
_atom_site_fract_z
Si Si1 0.292939 0.822940 0.801778
Si Si2 0.641769 0.823885 0.377273
Si Si3 0.356766 0.676645 0.124965
Si Si4 0.995298 0.821828 0.205936
Si Si5 0.738565 0.175849 0.876227
Si Si6 0.761349 0.823705 0.623107
Si Si7 0.557834 0.677673 0.008687
O O1 0.251972 0.761316 0.821024
O O2 0.261439 0.757739 0.695855
O O3 0.371318 0.762883 0.896883
O O4 0.292542 0.000000 0.800513
O O5 0.565635 0.762180 0.302044
O O6 0.692186 0.797626 0.499722
O O7 0.676336 0.739873 0.352200
O O8 0.640888 0.000000 0.362728
O O9 0.354736 0.500000 0.137108
O O10 0.432907 0.717196 0.186208
O O11 0.326800 0.765359 0.155394
O O12 0.304458 0.702425 0.001430
O O13 0.006029 0.000000 0.221741
O O14 0.970863 0.788133 0.100095
O O15 0.734029 0.000000 0.858672
O O16 0.770281 0.000000 0.642798
O O17 0.571930 0.500000 0.027321
O O18 0.500000 0.711331 0.000000
#
# Coordination Sequence:
#
# PCOD9182904 Si02
#       7
#     8   8   8   8   8   8   8
#     4  12  23  34  53  80 108 138 177 223 266 313
#     4  10  21  36  56  82 107 136 181 227 263 309
#     4   9  18  33  52  77 107 140 180 216 257 316
#     4  10  19  33  53  78 110 146 176 212 264 321
#     4  10  19  34  54  76 106 141 178 217 264 318
#     4  10  21  38  57  76 105 144 181 220 267 316
#     4  10  20  34  51  74 107 146 178 207 258 323
#
# _framework density 16.534614000000001
#
# number of rings (size 3 to 8) (size 9 to 14) (size 15 to 20)
#    0.000    1.857    1.429    3.429    0.000    4.857 
#    0.000    0.000    0.000    0.857    0.000    6.000 
#    0.000    0.000    0.000    0.000    0.000    0.000 
#
# Total GULP energy -156386.122448 kJ/mol
# GULP energy per Si atom -5585.218659 kJ/mol
# Density = 1.649698 g / cm^3
# Si number density = 16.534614 Si / 1000 Ang^3
#
#
#
# Elastic Constant Matrix: (Units=GPa)
#
#
# Indices 1 2 3 4 5 6 
#
# 1 147.1175 78.4129 67.0603 0.0000 -6.8998 0.0000
# 2 78.4129 84.8522 56.5725 0.0000 -9.8147 0.0000
# 3 67.0603 56.5725 61.6345 0.0000 -6.2971 0.0000
# 4 0.0000 0.0000 0.0000 21.9885 0.0000 4.5693
# 5 -6.8998 -9.8147 -6.2971 0.0000 20.1905 0.0000
# 6 0.0000 0.0000 0.0000 4.5693 0.0000 29.6831
#
#
#
# Elastic Compliance Matrix: (Units=1/GPa)
#
#
# Indices 1 2 3 4 5 6 
#
# 1 0.015312 -0.008040 -0.009447 0.000000 -0.001622 0.000000
# 2 -0.008040 0.035380 -0.022983 0.000000 0.007283 0.000000
# 3 -0.009447 -0.022983 0.047646 0.000000 0.000459 0.000000
# 4 0.000000 0.000000 0.000000 0.046981 0.000000 -0.007232
# 5 -0.001622 0.007283 0.000459 0.000000 0.052658 0.000000
# 6 0.000000 0.000000 0.000000 -0.007232 0.000000 0.034802
#
#
# Mechanical properties :
#
#
# Convention : Reuss Voigt Hill
#
# Bulk Modulus (GPa) = 57.47353 77.52173 67.49763
# Shear Modulus (GPa) = 15.64853 20.47631 18.06242
#
# Velocity S-wave (km/s) = 3.07972 3.52290 3.30873
# Velocity P-wave (km/s) = 6.89066 7.97082 7.45034
#
# Compressibility (1/GPa) = 0.01739932
#
# Stress axis : x y z
#
# Youngs Moduli (GPa) = 65.30652 28.26419 20.98831
#
# Poissons Ratio (x) = 0.22723 0.19827
# Poissons Ratio (y) = 0.52504 0.48238
# Poissons Ratio (z) = 0.61693 0.64960
#
# Static dielectric constant tensor:
#      x y z
#    x 1.539410 0.000000 -0.000810 
#    y 0.000000 1.550100 0.000000 
#    z -0.000810 0.000000 1.536290 
# 
# From -- ./inp_files/288259.got.cif
#   From: 2010.05.17/outbox.cif.g08.bks.cpg/sg12_145_cif.got.tgz:288259.got - 2010.06.03 13:09:07.
