data_PCOD9182267
_publ_section_title
;
Structure prediction by ZEFSAII (Michael W. Deem and Ramdas Pophale) SiO2 
 PCOD9182267
Probable space group: C 2/M
;
_chemical_formula_sum "Si O2"
_cell_formula_units_Z 60
_cell_length_a 17.803673
_cell_length_b 13.945652
_cell_length_c 13.548754
_cell_angle_alpha 90.000000
_cell_angle_beta 71.677576
_cell_angle_gamma 90.000000
_cell_volume 3193.393393
_symmetry_space_group_name_H-M "C 2/M"
_symmetry_group_IT_number 12
_symmetry_cell_setting 'monoclinic'
loop_
_space_group_symop_operation_xyz
x,y,z
-x,y,-z
-x,-y,-z
x,-y,z
1/2+x,1/2+y,z
1/2-x,1/2+y,-z
1/2-x,1/2-y,-z
1/2+x,1/2-y,z
loop_
_atom_site_type_symbol
_atom_site_label
_atom_site_fract_x
_atom_site_fract_y
_atom_site_fract_z
Si Si1 0.717919 0.306640 0.107312
Si Si2 0.658147 0.110426 0.673901
Si Si3 0.121292 0.394666 0.910489
Si Si4 0.459842 0.614844 0.832877
Si Si5 0.544748 0.385410 0.383306
Si Si6 0.302567 0.261603 0.670443
Si Si7 0.590503 0.112556 0.488860
Si Si8 0.500000 0.736194 0.000000
O O1 0.785566 0.383194 0.107278
O O2 0.632742 0.354412 0.124107
O O3 0.713269 0.240321 0.207471
O O4 0.750000 0.250000 0.000000
O O5 0.611272 0.114151 0.796483
O O6 0.725317 0.191945 0.652916
O O7 0.605709 0.125231 0.598995
O O8 0.690566 0.000000 0.654940
O O9 0.094998 0.500000 0.954110
O O10 0.074176 0.307866 0.978487
O O11 0.466669 0.500000 0.840856
O O12 0.488341 0.643639 0.710639
O O13 0.504239 0.670096 0.901643
O O14 0.500000 0.352958 0.500000
O O15 0.545194 0.500000 0.383116
O O16 0.632939 0.346251 0.353278
O O17 0.345192 0.175570 0.596023
O O18 0.500000 0.137229 0.500000
O O19 0.601449 0.000000 0.460836
#
# Coordination Sequence:
#
# PCOD9182267 Si02
#       8
#     8   8   8   8   8   8   8   4
#     4  10  19  38  59  80 108 142 187 235 275 327
#     4   9  19  36  58  80 108 145 187 229 279 331
#     4  10  21  37  57  82 110 146 188 236 280 321
#     4  10  21  37  58  81 112 152 183 225 287 339
#     4   9  18  33  55  84 111 138 183 233 278 330
#     4  10  19  32  59  82 106 141 187 231 277 322
#     4  10  21  37  54  79 117 155 185 222 275 338
#     4  12  22  34  56  82 120 144 188 232 272 350
#
# _framework density 18.788789999999999
#
# number of rings (size 3 to 8) (size 9 to 14) (size 15 to 20)
#    0.000    2.133    1.333    2.000    0.000    6.400 
#    0.000    1.333    0.000    1.600    0.000    0.000 
#    0.000    0.000    0.000    0.000    0.000    0.000 
#
# Total GULP energy -167289.488461 kJ/mol
# GULP energy per Si atom -5576.316282 kJ/mol
# Density = 1.874603 g / cm^3
# Si number density = 18.788790 Si / 1000 Ang^3
#
#
#
# Elastic Constant Matrix: (Units=GPa)
#
#
# Indices 1 2 3 4 5 6 
#
# 1 42.4498 16.7741 17.0579 0.0000 11.3215 0.0000
# 2 16.7741 83.5469 41.2363 0.0000 9.6717 0.0000
# 3 17.0579 41.2363 116.3245 0.0000 12.7103 0.0000
# 4 0.0000 0.0000 0.0000 32.7677 0.0000 0.1646
# 5 11.3215 9.6717 12.7103 0.0000 26.2750 0.0000
# 6 0.0000 0.0000 0.0000 0.1646 0.0000 24.2715
#
#
#
# Elastic Compliance Matrix: (Units=1/GPa)
#
#
# Indices 1 2 3 4 5 6 
#
# 1 0.028391 -0.003667 -0.001768 0.000000 -0.010029 0.000000
# 2 -0.003667 0.015211 -0.004662 0.000000 -0.001764 0.000000
# 3 -0.001768 -0.004662 0.010809 0.000000 -0.002751 0.000000
# 4 0.000000 0.000000 0.000000 0.030519 0.000000 -0.000207
# 5 -0.010029 -0.001764 -0.002751 0.000000 0.044360 0.000000
# 6 0.000000 0.000000 0.000000 -0.000207 0.000000 0.041202
#
#
# Mechanical properties :
#
#
# Convention : Reuss Voigt Hill
#
# Bulk Modulus (GPa) = 29.22391 43.60641 36.41516
# Shear Modulus (GPa) = 24.74142 27.81303 26.27722
#
# Velocity S-wave (km/s) = 3.63274 3.85164 3.74379
# Velocity P-wave (km/s) = 5.76050 6.56043 6.17344
#
# Compressibility (1/GPa) = 0.03421855
#
# Stress axis : x y z
#
# Youngs Moduli (GPa) = 35.22226 65.74386 92.51575
#
# Poissons Ratio (x) = 0.24107 0.16354
# Poissons Ratio (y) = 0.12915 0.43127
# Poissons Ratio (z) = 0.06226 0.30647
#
# Static dielectric constant tensor:
#      x y z
#    x 1.649070 0.000000 -0.005110 
#    y 0.000000 1.647900 0.000000 
#    z -0.005110 0.000000 1.686530 
# 
# From -- ./inp_files/156602.got.cif
#   From: 2010.05.17/outbox.cif.g08.bks.cpg/sg12_79_cif.got.tgz:156602.got - 2010.06.03 13:09:07.
