data_PCOD9182988
_publ_section_title
;
Structure prediction by ZEFSAII (Michael W. Deem and Ramdas Pophale) SiO2 
 PCOD9182988
Probable space group: C 2/M
;
_chemical_formula_sum "Si O2"
_cell_formula_units_Z 40
_cell_length_a 13.881832
_cell_length_b 14.223816
_cell_length_c 12.748879
_cell_angle_alpha 90.000000
_cell_angle_beta 41.117802
_cell_angle_gamma 90.000000
_cell_volume 1655.399759
_symmetry_space_group_name_H-M "C 2/M"
_symmetry_group_IT_number 12
_symmetry_cell_setting 'monoclinic'
loop_
_space_group_symop_operation_xyz
x,y,z
-x,y,-z
-x,-y,-z
x,-y,z
1/2+x,1/2+y,z
1/2-x,1/2+y,-z
1/2-x,1/2-y,-z
1/2+x,1/2-y,z
loop_
_atom_site_type_symbol
_atom_site_label
_atom_site_fract_x
_atom_site_fract_y
_atom_site_fract_z
Si Si1 0.818574 0.247827 0.561040
Si Si2 0.672529 0.397577 0.074113
Si Si3 0.891884 0.107041 0.174332
Si Si4 0.583868 0.888434 0.819839
Si Si5 0.896236 0.294194 0.785241
O O1 0.750000 0.250000 0.500000
O O2 0.746457 0.333037 0.683286
O O3 0.747783 0.155677 0.674403
O O4 0.987927 0.270094 0.399633
O O5 0.713861 0.500000 0.083073
O O6 0.501812 0.398308 0.183958
O O7 0.686969 0.304939 0.131252
O O8 0.771708 0.374592 0.890305
O O9 0.859378 0.000000 0.171490
O O10 0.000000 0.151728 0.000000
O O11 0.491089 0.830392 0.808468
O O12 0.587186 0.000000 0.792771
O O13 0.500000 0.877833 0.000000
#
# Coordination Sequence:
#
# PCOD9182988 Si02
#       5
#     8   8   8   8   8
#     4  10  19  33  53  82 108 138 176 227 265 310
#     4  10  20  35  56  79 109 145 181 219 270 325
#     4  10  20  35  57  80 106 142 181 221 267 322
#     4  10  20  34  56  83 110 144 182 221 267 320
#     4  10  21  36  54  83 110 143 179 225 271 314
#
# _framework density 24.163347000000002
#
# number of rings (size 3 to 8) (size 9 to 14) (size 15 to 20)
#    0.000    2.000    4.000    1.200    0.000    4.800 
#    0.000    1.000    0.000    3.600    0.000    7.000 
#    0.000    0.000    0.000    0.000    0.000    0.000 
#
# Total GULP energy -111619.802570 kJ/mol
# GULP energy per Si atom -5580.990128 kJ/mol
# Density = 2.410835 g / cm^3
# Si number density = 24.163347 Si / 1000 Ang^3
#
#
#
# Elastic Constant Matrix: (Units=GPa)
#
#
# Indices 1 2 3 4 5 6 
#
# 1 52.7721 11.7109 20.7724 0.0000 -0.9792 0.0000
# 2 11.7109 190.9040 81.2973 0.0000 -8.3381 0.0000
# 3 20.7724 81.2973 210.9530 0.0000 -16.7775 0.0000
# 4 0.0000 0.0000 0.0000 16.0522 0.0000 11.7117
# 5 -0.9792 -8.3381 -16.7775 0.0000 49.8789 0.0000
# 6 0.0000 0.0000 0.0000 11.7117 0.0000 16.4727
#
#
#
# Elastic Compliance Matrix: (Units=1/GPa)
#
#
# Indices 1 2 3 4 5 6 
#
# 1 0.019751 -0.000462 -0.001790 0.000000 -0.000292 0.000000
# 2 -0.000462 0.006280 -0.002355 0.000000 0.000249 0.000000
# 3 -0.001790 -0.002355 0.005949 0.000000 0.001572 0.000000
# 4 0.000000 0.000000 0.000000 0.129441 0.000000 -0.092030
# 5 -0.000292 0.000249 0.001572 0.000000 0.020613 0.000000
# 6 0.000000 0.000000 0.000000 -0.092030 0.000000 0.126137
#
#
# Mechanical properties :
#
#
# Convention : Reuss Voigt Hill
#
# Bulk Modulus (GPa) = 43.92414 75.79892 59.86153
# Shear Modulus (GPa) = 15.38575 39.20401 27.29488
#
# Velocity S-wave (km/s) = 2.52611 4.03234 3.36460
# Velocity P-wave (km/s) = 5.16970 7.28816 6.31834
#
# Compressibility (1/GPa) = 0.02276652
#
# Stress axis : x y z
#
# Youngs Moduli (GPa) = 50.63000 159.22684 168.08725
#
# Poissons Ratio (x) = 0.07358 0.30087
# Poissons Ratio (y) = 0.02340 0.39585
# Poissons Ratio (z) = 0.09063 0.37499
#
# Static dielectric constant tensor:
#      x y z
#    x 2.161290 0.000000 0.014710 
#    y 0.000000 1.892840 0.000000 
#    z 0.014710 0.000000 1.987890 
# 
# From -- ./inp_files/225550.got.cif
#   From: 2010.05.17/outbox.cif.g08.bks.cpg/sg12_113_cif.got.tgz:225550.got - 2010.06.03 13:09:07.
