data_PCOD9182872
_publ_section_title
;
Structure prediction by ZEFSAII (Michael W. Deem and Ramdas Pophale) SiO2 
 PCOD9182872
Probable space group: C 2/M
;
_chemical_formula_sum "Si O2"
_cell_formula_units_Z 40
_cell_length_a 24.573187
_cell_length_b 9.952921
_cell_length_c 14.199604
_cell_angle_alpha 90.000000
_cell_angle_beta 146.995677
_cell_angle_gamma 90.000000
_cell_volume 1891.679223
_symmetry_space_group_name_H-M "C 2/M"
_symmetry_group_IT_number 12
_symmetry_cell_setting 'monoclinic'
loop_
_space_group_symop_operation_xyz
x,y,z
-x,y,-z
-x,-y,-z
x,-y,z
1/2+x,1/2+y,z
1/2-x,1/2+y,-z
1/2-x,1/2-y,-z
1/2+x,1/2-y,z
loop_
_atom_site_type_symbol
_atom_site_label
_atom_site_fract_x
_atom_site_fract_y
_atom_site_fract_z
Si Si1 0.984570 0.641816 0.366842
Si Si2 0.828138 0.653921 0.498483
Si Si3 0.491896 0.162329 0.879381
Si Si4 0.324770 0.655272 0.163215
Si Si5 0.214670 0.657737 0.198421
O O1 0.931412 0.500000 0.259342
O O2 0.928920 0.782655 0.281042
O O3 0.000000 0.629649 0.500000
O O4 0.085628 0.643874 0.455692
O O5 0.792484 0.500000 0.464902
O O6 0.747003 0.751147 0.333603
O O7 0.893246 0.710088 0.680997
O O8 0.602588 0.194435 0.999543
O O9 0.482857 0.000000 0.862071
O O10 0.500000 0.202606 0.000000
O O11 0.316991 0.500000 0.128275
O O12 0.294331 0.670492 0.229047
O O13 0.250000 0.750000 0.000000
O O14 0.210824 0.500000 0.220355
#
# Coordination Sequence:
#
# PCOD9182872 Si02
#       5
#     8   8   8   8   8
#     4  10  19  33  53  77 110 146 180 218 265 324
#     4  10  20  36  59  84 112 147 187 227 274 332
#     4   9  19  37  59  81 108 145 186 229 280 336
#     4  11  22  34  52  78 112 148 186 227 272 327
#     4  10  21  37  57  82 112 144 185 232 277 330
#
# _framework density 21.145233999999999
#
# number of rings (size 3 to 8) (size 9 to 14) (size 15 to 20)
#    0.000    2.000    2.000    1.800    0.000    6.000 
#    0.000    1.000    0.000    1.200    0.000    0.000 
#    0.000    0.000    0.000    0.000    0.000    0.000 
#
# Total GULP energy -111446.503911 kJ/mol
# GULP energy per Si atom -5572.325196 kJ/mol
# Density = 2.109711 g / cm^3
# Si number density = 21.145234 Si / 1000 Ang^3
#
#
#
# Elastic Constant Matrix: (Units=GPa)
#
#
# Indices 1 2 3 4 5 6 
#
# 1 48.7065 8.3387 -12.8873 0.0000 -7.5547 0.0000
# 2 8.3387 120.7330 57.9723 0.0000 -2.7246 0.0000
# 3 -12.8873 57.9723 94.3798 0.0000 -17.2159 0.0000
# 4 0.0000 0.0000 0.0000 48.1213 0.0000 6.7529
# 5 -7.5547 -2.7246 -17.2159 0.0000 28.9725 0.0000
# 6 0.0000 0.0000 0.0000 6.7529 0.0000 15.3584
#
#
#
# Elastic Compliance Matrix: (Units=1/GPa)
#
#
# Indices 1 2 3 4 5 6 
#
# 1 0.025865 -0.006022 0.009374 0.000000 0.011748 0.000000
# 2 -0.006022 0.013489 -0.010277 0.000000 -0.006408 0.000000
# 3 0.009374 -0.010277 0.020701 0.000000 0.013779 0.000000
# 4 0.000000 0.000000 0.000000 0.022147 0.000000 -0.009738
# 5 0.011748 -0.006408 0.013779 0.000000 0.045164 0.000000
# 6 0.000000 0.000000 0.000000 -0.009738 0.000000 0.069393
#
#
# Mechanical properties :
#
#
# Convention : Reuss Voigt Hill
#
# Bulk Modulus (GPa) = 21.64295 41.18519 31.41407
# Shear Modulus (GPa) = 22.12297 32.51683 27.31990
#
# Velocity S-wave (km/s) = 3.23807 3.92571 3.59836
# Velocity P-wave (km/s) = 4.92318 6.32992 5.67035
#
# Compressibility (1/GPa) = 0.04620442
#
# Stress axis : x y z
#
# Youngs Moduli (GPa) = 38.66284 74.13696 48.30639
#
# Poissons Ratio (x) = 0.44648 -0.45282
# Poissons Ratio (y) = 0.23284 0.49642
# Poissons Ratio (z) = -0.36242 0.76187
#
# Static dielectric constant tensor:
#      x y z
#    x 1.792300 0.000000 0.024780 
#    y 0.000000 2.014450 0.000000 
#    z 0.024780 0.000000 1.880980 
# 
# From -- ./inp_files/151951.got.cif
#   From: 2010.05.17/outbox.cif.g08.bks.cpg/sg12_76_cif.got.tgz:151951.got - 2010.06.03 13:09:07.
