data_PCOD9182768
_publ_section_title
;
Structure prediction by ZEFSAII (Michael W. Deem and Ramdas Pophale) SiO2 
 PCOD9182768
Probable space group: C 2/M
;
_chemical_formula_sum "Si O2"
_cell_formula_units_Z 48
_cell_length_a 5.352988
_cell_length_b 19.003498
_cell_length_c 27.043253
_cell_angle_alpha 90.000000
_cell_angle_beta 119.930233
_cell_angle_gamma 90.000000
_cell_volume 2384.098915
_symmetry_space_group_name_H-M "C 2/M"
_symmetry_group_IT_number 12
_symmetry_cell_setting 'monoclinic'
loop_
_space_group_symop_operation_xyz
x,y,z
-x,y,-z
-x,-y,-z
x,-y,z
1/2+x,1/2+y,z
1/2-x,1/2+y,-z
1/2-x,1/2-y,-z
1/2+x,1/2-y,z
loop_
_atom_site_type_symbol
_atom_site_label
_atom_site_fract_x
_atom_site_fract_y
_atom_site_fract_z
Si Si1 0.701521 0.416392 0.267481
Si Si2 0.449324 0.719136 0.210872
Si Si3 0.154866 0.922006 0.961732
Si Si4 0.834365 0.913970 0.533303
Si Si5 0.872833 0.915293 0.336826
Si Si6 0.930245 0.776683 0.917567
O O1 0.667944 0.500000 0.253947
O O2 0.516985 0.363440 0.215650
O O3 0.579975 0.401948 0.310654
O O4 0.037928 0.396177 0.296378
O O5 0.751625 0.759999 0.237634
O O6 0.265797 0.746117 0.145961
O O7 0.016699 0.857350 0.919011
O O8 0.107638 0.000000 0.935336
O O9 0.500000 0.911851 0.000000
O O10 0.000000 0.921582 0.000000
O O11 0.500000 0.892815 0.500000
O O12 0.000000 0.892149 0.500000
O O13 0.994412 0.888649 0.598683
O O14 0.838052 0.000000 0.534305
O O15 0.864331 0.000000 0.340519
O O16 0.724219 0.767497 0.944324
#
# Coordination Sequence:
#
# PCOD9182768 Si02
#       6
#     8   8   8   8   8   8
#     4  10  19  33  53  75 103 137 175 222 271 319
#     4  10  21  38  55  77 108 139 178 226 271 321
#     4  10  21  37  58  85 115 146 182 223 267 317
#     4   9  15  23  37  61  99 140 169 202 258 323
#     4   9  17  28  45  72 103 137 176 217 266 321
#     4  10  21  37  56  82 112 145 181 221 269 319
#
# _framework density 20.133395
#
# number of rings (size 3 to 8) (size 9 to 14) (size 15 to 20)
#    0.000    2.333    0.000    3.000    0.000    6.000 
#    0.000    6.667    0.000    0.000    0.000    0.000 
#    0.000   46.667    0.000    0.000    0.000    0.000 
#
# Total GULP energy -133791.228697 kJ/mol
# GULP energy per Si atom -5574.634529 kJ/mol
# Density = 2.008757 g / cm^3
# Si number density = 20.133395 Si / 1000 Ang^3
#
#
#
# Elastic Constant Matrix: (Units=GPa)
#
#
# Indices 1 2 3 4 5 6 
#
# 1 164.4772 26.5879 7.4069 0.0000 8.5158 0.0000
# 2 26.5879 98.6558 44.9504 0.0000 15.5568 0.0000
# 3 7.4069 44.9504 44.9803 0.0000 7.2309 0.0000
# 4 0.0000 0.0000 0.0000 6.2381 0.0000 4.6137
# 5 8.5158 15.5568 7.2309 0.0000 20.4777 0.0000
# 6 0.0000 0.0000 0.0000 4.6137 0.0000 24.5678
#
#
#
# Elastic Compliance Matrix: (Units=1/GPa)
#
#
# Indices 1 2 3 4 5 6 
#
# 1 0.006437 -0.002057 0.001246 0.000000 -0.001554 0.000000
# 2 -0.002057 0.020601 -0.018945 0.000000 -0.008105 0.000000
# 3 0.001246 -0.018945 0.041060 0.000000 -0.000624 0.000000
# 4 0.000000 0.000000 0.000000 0.186161 0.000000 -0.034960
# 5 -0.001554 -0.008105 -0.000624 0.000000 0.055857 0.000000
# 6 0.000000 0.000000 0.000000 -0.034960 0.000000 0.047269
#
#
# Mechanical properties :
#
#
# Convention : Reuss Voigt Hill
#
# Bulk Modulus (GPa) = 34.98506 51.77820 43.38163
# Shear Modulus (GPa) = 12.30233 25.53459 18.91846
#
# Velocity S-wave (km/s) = 2.47461 3.56514 3.06871
# Velocity P-wave (km/s) = 5.05759 6.53608 5.84378
#
# Compressibility (1/GPa) = 0.02858363
#
# Stress axis : x y z
#
# Youngs Moduli (GPa) = 155.35708 48.54174 24.35465
#
# Poissons Ratio (x) = 0.09987 -0.03034
# Poissons Ratio (y) = 0.31962 0.46141
# Poissons Ratio (z) = -0.19354 0.91964
#
# Static dielectric constant tensor:
#      x y z
#    x 1.750880 0.000000 0.019470 
#    y 0.000000 1.719020 0.000000 
#    z 0.019470 0.000000 1.645780 
# 
# From -- ./inp_files/354873.got.cif
#   From: 2010.05.17/outbox.cif.g08.bks.cpg/sg12_178_cif.got.tgz:354873.got - 2010.06.03 13:09:07.
