data_PCOD9182529
_publ_section_title
;
Structure prediction by ZEFSAII (Michael W. Deem and Ramdas Pophale) SiO2 
 PCOD9182529
Probable space group: C 2/M
;
_chemical_formula_sum "Si O2"
_cell_formula_units_Z 48
_cell_length_a 23.254529
_cell_length_b 8.247910
_cell_length_c 24.739912
_cell_angle_alpha 90.000000
_cell_angle_beta 144.873297
_cell_angle_gamma 90.000000
_cell_volume 2730.293115
_symmetry_space_group_name_H-M "C 2/M"
_symmetry_group_IT_number 12
_symmetry_cell_setting 'monoclinic'
loop_
_space_group_symop_operation_xyz
x,y,z
-x,y,-z
-x,-y,-z
x,-y,z
1/2+x,1/2+y,z
1/2-x,1/2+y,-z
1/2-x,1/2-y,-z
1/2+x,1/2-y,z
loop_
_atom_site_type_symbol
_atom_site_label
_atom_site_fract_x
_atom_site_fract_y
_atom_site_fract_z
Si Si1 0.712182 0.305304 0.412436
Si Si2 0.382517 0.311165 0.463403
Si Si3 0.830959 0.195448 0.017804
Si Si4 0.102008 0.691054 0.643535
Si Si5 0.676258 0.803755 0.815720
Si Si6 0.014252 0.196294 0.779861
O O1 0.712092 0.500000 0.410606
O O2 0.750000 0.250000 0.500000
O O3 0.788325 0.241401 0.426033
O O4 0.598763 0.247251 0.315238
O O5 0.403296 0.500000 0.488026
O O6 0.482620 0.215477 0.557287
O O7 0.367168 0.278186 0.388035
O O8 0.935387 0.250069 0.124490
O O9 0.833999 0.000000 0.018139
O O10 0.750000 0.250000 0.000000
O O11 0.781273 0.251004 0.923385
O O12 0.122369 0.500000 0.652762
O O13 0.154722 0.752585 0.738472
O O14 0.586885 0.751485 0.787152
O O15 0.675822 0.000000 0.814204
O O16 0.013908 0.000000 0.778990
#
# Coordination Sequence:
#
# PCOD9182529 Si02
#       6
#     8   8   8   8   8   8
#     4  11  22  35  50  71  97 128 161 195 234 281
#     4  11  22  35  50  70  95 127 161 196 236 281
#     4   8  14  27  44  67  95 122 152 189 230 276
#     4  10  19  33  52  73  96 124 156 197 239 281
#     4   9  17  28  48  74  98 122 153 191 235 280
#     4   9  18  30  47  69  97 128 157 190 232 278
#
# _framework density 17.580531000000001
#
# number of rings (size 3 to 8) (size 9 to 14) (size 15 to 20)
#    0.000    2.333    0.000    4.500    0.000    5.333 
#    0.000    0.000    0.000    1.000    0.000    7.000 
#    0.000    0.000    0.000    0.000    0.000    0.000 
#
# Total GULP energy -133780.145380 kJ/mol
# GULP energy per Si atom -5574.172724 kJ/mol
# Density = 1.754052 g / cm^3
# Si number density = 17.580531 Si / 1000 Ang^3
#
#
#
# Elastic Constant Matrix: (Units=GPa)
#
#
# Indices 1 2 3 4 5 6 
#
# 1 71.7196 0.2089 65.6603 0.0000 -6.6303 0.0000
# 2 0.2089 17.6803 -1.7030 0.0000 0.5571 0.0000
# 3 65.6603 -1.7030 160.8886 0.0000 -22.0965 0.0000
# 4 0.0000 0.0000 0.0000 14.2359 0.0000 -1.3113
# 5 -6.6303 0.5571 -22.0965 0.0000 30.4405 0.0000
# 6 0.0000 0.0000 0.0000 -1.3113 0.0000 24.7673
#
#
#
# Elastic Compliance Matrix: (Units=1/GPa)
#
#
# Indices 1 2 3 4 5 6 
#
# 1 0.022386 -0.001110 -0.009414 0.000000 -0.001937 0.000000
# 2 -0.001110 0.056685 0.000975 0.000000 -0.000572 0.000000
# 3 -0.009414 0.000975 0.010867 0.000000 0.005820 0.000000
# 4 0.000000 0.000000 0.000000 0.070589 0.000000 0.003737
# 5 -0.001937 -0.000572 0.005820 0.000000 0.036664 0.000000
# 6 0.000000 0.000000 0.000000 0.003737 0.000000 0.040574
#
#
# Mechanical properties :
#
#
# Convention : Reuss Voigt Hill
#
# Bulk Modulus (GPa) = 14.11646 42.06899 28.09273
# Shear Modulus (GPa) = 17.82681 26.29689 22.06185
#
# Velocity S-wave (km/s) = 3.18780 3.87175 3.54630
# Velocity P-wave (km/s) = 4.64720 6.63087 5.72560
#
# Compressibility (1/GPa) = 0.07083928
#
# Stress axis : x y z
#
# Youngs Moduli (GPa) = 44.67147 17.64130 92.02252
#
# Poissons Ratio (x) = 0.01958 0.86626
# Poissons Ratio (y) = 0.04959 -0.08968
# Poissons Ratio (z) = 0.42052 -0.01719
#
# Static dielectric constant tensor:
#      x y z
#    x 1.554340 0.000000 -0.031350 
#    y 0.000000 1.604760 0.000000 
#    z -0.031350 0.000000 1.644750 
# 
# From -- ./inp_files/365551.got.cif
#   From: 2010.05.17/outbox.cif.g08.bks.cpg/sg12_183_cif.got.tgz:365551.got - 2010.06.03 13:09:07.
