data_PCOD9182658
_publ_section_title
;
Structure prediction by ZEFSAII (Michael W. Deem and Ramdas Pophale) SiO2 
 PCOD9182658
Probable space group: C 2/M
;
_chemical_formula_sum "Si O2"
_cell_formula_units_Z 56
_cell_length_a 28.485873
_cell_length_b 9.051543
_cell_length_c 21.576247
_cell_angle_alpha 90.000000
_cell_angle_beta 148.294140
_cell_angle_gamma 90.000000
_cell_volume 2923.810757
_symmetry_space_group_name_H-M "C 2/M"
_symmetry_group_IT_number 12
_symmetry_cell_setting 'monoclinic'
loop_
_space_group_symop_operation_xyz
x,y,z
-x,y,-z
-x,-y,-z
x,-y,z
1/2+x,1/2+y,z
1/2-x,1/2+y,-z
1/2-x,1/2-y,-z
1/2+x,1/2-y,z
loop_
_atom_site_type_symbol
_atom_site_label
_atom_site_fract_x
_atom_site_fract_y
_atom_site_fract_z
Si Si1 0.579002 0.834182 0.138049
Si Si2 0.487708 0.327178 0.247100
Si Si3 0.757954 0.826324 0.197633
Si Si4 0.430809 0.832368 0.069277
Si Si5 0.678525 0.822090 0.467238
Si Si6 0.241180 0.673680 0.674666
Si Si7 0.315655 0.678508 0.125067
O O1 0.526104 0.825496 0.142939
O O2 0.654711 0.714720 0.215709
O O3 0.618438 0.000000 0.175775
O O4 0.500000 0.820089 0.000000
O O5 0.509819 0.500000 0.274800
O O6 0.430414 0.288537 0.121728
O O7 0.577864 0.233560 0.343441
O O8 0.418858 0.288706 0.224571
O O9 0.789585 0.748789 0.295887
O O10 0.793937 0.774376 0.171102
O O11 0.777762 0.000000 0.224938
O O12 0.650348 0.810345 0.069601
O O13 0.418737 0.000000 0.080858
O O14 0.750000 0.750000 0.500000
O O15 0.699587 0.778176 0.562270
O O16 0.684226 0.000000 0.468029
O O17 0.228103 0.500000 0.665641
O O18 0.304061 0.500000 0.108652
O O19 0.250000 0.750000 0.000000
#
# Coordination Sequence:
#
# PCOD9182658 Si02
#       7
#     8   8   8   8   8   8   8
#     4  10  19  33  52  79 113 151 192 230 285 362
#     4  11  23  38  60  91 122 156 202 252 302 357
#     4  10  20  37  59  85 119 159 198 238 295 362
#     4  10  19  33  56  84 117 157 197 239 293 358
#     4  11  25  45  66  89 119 160 206 252 302 362
#     4  11  24  39  57  85 118 153 198 252 305 353
#     4  10  21  37  60  91 125 160 202 249 300 359
#
# _framework density 19.153085999999998
#
# number of rings (size 3 to 8) (size 9 to 14) (size 15 to 20)
#    0.000    1.571    2.857    2.143    0.000    7.143 
#    0.000    0.714    0.000    4.286    0.000    0.000 
#    0.000    0.000    0.000    0.000    0.000    0.000 
#
# Total GULP energy -156236.589026 kJ/mol
# GULP energy per Si atom -5579.878179 kJ/mol
# Density = 1.910949 g / cm^3
# Si number density = 19.153086 Si / 1000 Ang^3
#
#
#
# Elastic Constant Matrix: (Units=GPa)
#
#
# Indices 1 2 3 4 5 6 
#
# 1 126.0105 39.5142 45.2042 0.0000 -12.0379 0.0000
# 2 39.5142 34.9803 31.9006 0.0000 -10.0941 0.0000
# 3 45.2042 31.9006 68.0599 0.0000 -15.1585 0.0000
# 4 0.0000 0.0000 0.0000 26.7162 0.0000 -6.7935
# 5 -12.0379 -10.0941 -15.1585 0.0000 35.2058 0.0000
# 6 0.0000 0.0000 0.0000 -6.7935 0.0000 26.8496
#
#
#
# Elastic Compliance Matrix: (Units=1/GPa)
#
#
# Indices 1 2 3 4 5 6 
#
# 1 0.012626 -0.011600 -0.003018 0.000000 -0.000308 0.000000
# 2 -0.011600 0.061296 -0.019904 0.000000 0.005038 0.000000
# 3 -0.003018 -0.019904 0.027127 0.000000 0.004941 0.000000
# 4 0.000000 0.000000 0.000000 0.040004 0.000000 0.010122
# 5 -0.000308 0.005038 0.004941 0.000000 0.031871 0.000000
# 6 0.000000 0.000000 0.000000 0.010122 0.000000 0.039806
#
#
# Mechanical properties :
#
#
# Convention : Reuss Voigt Hill
#
# Bulk Modulus (GPa) = 31.24333 51.36543 41.30438
# Shear Modulus (GPa) = 17.09735 25.24977 21.17356
#
# Velocity S-wave (km/s) = 2.99100 3.63480 3.32850
# Velocity P-wave (km/s) = 5.31751 6.67025 6.03192
#
# Compressibility (1/GPa) = 0.03200683
#
# Stress axis : x y z
#
# Youngs Moduli (GPa) = 79.19870 16.31422 36.86334
#
# Poissons Ratio (x) = 0.18924 0.11125
# Poissons Ratio (y) = 0.91868 0.73373
# Poissons Ratio (z) = 0.23902 0.32472
#
# Static dielectric constant tensor:
#      x y z
#    x 1.723970 0.000000 -0.019790 
#    y 0.000000 1.656530 0.000000 
#    z -0.019790 0.000000 1.664980 
# 
# From -- ./inp_files/329708.got.cif
#   From: 2010.05.17/outbox.cif.g08.bks.cpg/sg12_165_cif.got.tgz:329708.got - 2010.06.03 13:09:07.
