data_PCOD9182614
_publ_section_title
;
Structure prediction by ZEFSAII (Michael W. Deem and Ramdas Pophale) SiO2 
 PCOD9182614
Probable space group: C 2/M
;
_chemical_formula_sum "Si O2"
_cell_formula_units_Z 56
_cell_length_a 24.697897
_cell_length_b 7.619966
_cell_length_c 15.158274
_cell_angle_alpha 90.000000
_cell_angle_beta 68.607344
_cell_angle_gamma 90.000000
_cell_volume 2656.197052
_symmetry_space_group_name_H-M "C 2/M"
_symmetry_group_IT_number 12
_symmetry_cell_setting 'monoclinic'
loop_
_space_group_symop_operation_xyz
x,y,z
-x,y,-z
-x,-y,-z
x,-y,z
1/2+x,1/2+y,z
1/2-x,1/2+y,-z
1/2-x,1/2-y,-z
1/2+x,1/2-y,z
loop_
_atom_site_type_symbol
_atom_site_label
_atom_site_fract_x
_atom_site_fract_y
_atom_site_fract_z
Si Si1 0.690547 0.213216 0.432215
Si Si2 0.352292 0.214717 0.727915
Si Si3 0.392268 0.206257 0.032263
Si Si4 0.239475 0.208780 0.903610
Si Si5 0.557113 0.784919 0.183365
Si Si6 0.564057 0.204690 0.811981
Si Si7 0.677443 0.703563 0.640161
O O1 0.652806 0.268082 0.370731
O O2 0.669843 0.278368 0.539461
O O3 0.757606 0.272785 0.379159
O O4 0.691476 0.000000 0.436057
O O5 0.293838 0.272407 0.813752
O O6 0.407644 0.274003 0.751585
O O7 0.351974 0.000000 0.728600
O O8 0.323336 0.222149 0.087054
O O9 0.425790 0.282932 0.096658
O O10 0.406251 0.000000 0.020573
O O11 0.409733 0.274038 0.925551
O O12 0.237347 0.000000 0.894800
O O13 0.250000 0.250000 0.000000
O O14 0.490721 0.725319 0.210212
O O15 0.558935 0.000000 0.186106
O O16 0.624175 0.213787 0.723516
O O17 0.550296 0.000000 0.834046
O O18 0.677475 0.500000 0.665550
#
# Coordination Sequence:
#
# PCOD9182614 Si02
#       7
#     8   8   8   8   8   8   8
#     4   9  18  34  57  80  99 128 169 212 261 316
#     4   9  17  31  53  77 103 133 170 215 258 301
#     4  10  19  33  52  77 106 138 177 220 259 300
#     4  11  20  32  51  77 108 140 172 211 259 309
#     4   9  17  32  52  75 104 139 178 216 253 299
#     4  10  20  33  54  78 102 138 181 217 252 304
#     4  10  20  35  54  77 106 133 163 214 270 315
#
# _framework density 21.082773
#
# number of rings (size 3 to 8) (size 9 to 14) (size 15 to 20)
#    0.000    2.286    1.429    2.143    0.000    4.000 
#    0.000    2.857    0.000    6.000    0.000    0.000 
#    0.000    0.000    0.000    0.000    0.000    0.000 
#
# Total GULP energy -156336.417440 kJ/mol
# GULP energy per Si atom -5583.443480 kJ/mol
# Density = 2.103479 g / cm^3
# Si number density = 21.082773 Si / 1000 Ang^3
#
#
#
# Elastic Constant Matrix: (Units=GPa)
#
#
# Indices 1 2 3 4 5 6 
#
# 1 125.9457 -2.0002 55.5824 0.0000 32.9479 0.0000
# 2 -2.0002 40.5437 -3.4237 0.0000 0.0177 0.0000
# 3 55.5824 -3.4237 51.6145 0.0000 32.4745 0.0000
# 4 0.0000 0.0000 0.0000 11.4341 0.0000 -5.6020
# 5 32.9479 0.0177 32.4745 0.0000 34.5216 0.0000
# 6 0.0000 0.0000 0.0000 -5.6020 0.0000 11.9013
#
#
#
# Elastic Compliance Matrix: (Units=1/GPa)
#
#
# Indices 1 2 3 4 5 6 
#
# 1 0.015221 -0.000761 -0.017890 0.000000 0.002303 0.000000
# 2 -0.000761 0.025049 0.004979 0.000000 -0.003970 0.000000
# 3 -0.017890 0.004979 0.069166 0.000000 -0.047992 0.000000
# 4 0.000000 0.000000 0.000000 0.113672 0.000000 0.053506
# 5 0.002303 -0.003970 -0.047992 0.000000 0.071918 0.000000
# 6 0.000000 0.000000 0.000000 0.053506 0.000000 0.109210
#
#
# Mechanical properties :
#
#
# Convention : Reuss Voigt Hill
#
# Bulk Modulus (GPa) = 12.18151 35.38011 23.78081
# Shear Modulus (GPa) = 10.89459 22.76776 16.83117
#
# Velocity S-wave (km/s) = 2.27569 3.28978 2.82855
# Velocity P-wave (km/s) = 3.56307 5.59001 4.68741
#
# Compressibility (1/GPa) = 0.08209161
#
# Stress axis : x y z
#
# Youngs Moduli (GPa) = 65.69992 39.92116 14.45805
#
# Poissons Ratio (x) = 0.03037 0.25866
# Poissons Ratio (y) = 0.04999 -0.07199
# Poissons Ratio (z) = 1.17538 -0.19877
#
# Static dielectric constant tensor:
#      x y z
#    x 1.761010 0.000000 0.021710 
#    y 0.000000 1.815870 0.000000 
#    z 0.021710 0.000000 1.729620 
# 
# From -- ./inp_files/237339.got.cif
#   From: 2010.05.17/outbox.cif.g08.bks.cpg/sg12_119_cif.got.tgz:237339.got - 2010.06.03 13:09:07.
