data_PCOD9182538
_publ_section_title
;
Structure prediction by ZEFSAII (Michael W. Deem and Ramdas Pophale) SiO2 
 PCOD9182538
Probable space group: C 2/M
;
_chemical_formula_sum "Si O2"
_cell_formula_units_Z 56
_cell_length_a 26.524759
_cell_length_b 29.835694
_cell_length_c 13.890430
_cell_angle_alpha 90.000000
_cell_angle_beta 162.705501
_cell_angle_gamma 90.000000
_cell_volume 3267.936857
_symmetry_space_group_name_H-M "C 2/M"
_symmetry_group_IT_number 12
_symmetry_cell_setting 'monoclinic'
loop_
_space_group_symop_operation_xyz
x,y,z
-x,y,-z
-x,-y,-z
x,-y,z
1/2+x,1/2+y,z
1/2-x,1/2+y,-z
1/2-x,1/2-y,-z
1/2+x,1/2-y,z
loop_
_atom_site_type_symbol
_atom_site_label
_atom_site_fract_x
_atom_site_fract_y
_atom_site_fract_z
Si Si1 0.388052 0.801035 0.387634
Si Si2 0.243867 0.549672 0.605507
Si Si3 0.138363 0.049672 0.394492
Si Si4 0.000407 0.801039 0.612345
Si Si5 0.206046 0.356148 0.608169
Si Si6 0.597877 0.356149 0.391827
Si Si7 0.807126 0.301378 0.614252
O O1 0.500000 0.814683 0.500000
O O2 0.435492 0.749997 0.499974
O O3 0.403374 0.832747 0.508199
O O4 0.193725 0.801169 0.999990
O O5 0.173528 0.500000 0.497670
O O6 0.257945 0.555486 0.515893
O O7 0.156738 0.592858 0.492820
O O8 0.439721 0.549580 0.000000
O O9 0.163921 0.092857 0.507180
O O10 0.175863 0.000000 0.502332
O O11 0.000000 0.814688 0.500000
O O12 0.895173 0.832751 0.491797
O O13 0.205947 0.326874 0.511169
O O14 0.400385 0.357099 0.999998
O O15 0.694776 0.326874 0.488827
O O16 0.750000 0.250000 0.500000
O O17 0.000000 0.302391 0.000000
#
# Coordination Sequence:
#
# PCOD9182538 Si02
#       7
#     8   8   8   8   8   8   8
#     4  10  20  33  51  71  94 127 164 206 246 287
#     4   8  13  24  47  75  99 125 160 201 238 279
#     4   8  13  24  47  75  99 125 160 201 238 279
#     4  10  20  33  51  71  94 127 164 206 246 287
#     4  10  19  33  52  74 100 129 164 204 244 289
#     4  10  19  33  52  74 100 129 164 204 244 289
#     4  12  24  34  47  70 101 135 162 195 245 296
#
# _framework density 17.136195000000001
#
# number of rings (size 3 to 8) (size 9 to 14) (size 15 to 20)
#    0.000    2.286    1.429    4.714    0.000    4.571 
#    0.000    0.000    0.000    2.571    0.000    0.000 
#    0.000    0.000    0.000    0.000    0.000    1.143 
#
# Total GULP energy -156178.913107 kJ/mol
# GULP energy per Si atom -5577.818325 kJ/mol
# Density = 1.709719 g / cm^3
# Si number density = 17.136195 Si / 1000 Ang^3
#
#
#
# Elastic Constant Matrix: (Units=GPa)
#
#
# Indices 1 2 3 4 5 6 
#
# 1 145.3817 109.5308 14.2669 0.0001 -9.4440 0.0000
# 2 109.5308 171.5278 12.5840 0.0000 -9.0286 0.0000
# 3 14.2669 12.5840 17.9778 0.0000 -2.4236 0.0000
# 4 0.0001 0.0000 0.0000 10.0513 0.0001 -1.1502
# 5 -9.4440 -9.0286 -2.4236 0.0001 15.5158 0.0000
# 6 0.0000 0.0000 0.0000 -1.1502 0.0000 22.3964
#
#
#
# Elastic Compliance Matrix: (Units=1/GPa)
#
#
# Indices 1 2 3 4 5 6 
#
# 1 0.013785 -0.008306 -0.004746 0.000000 0.002816 0.000000
# 2 -0.008306 0.011287 -0.001129 0.000000 0.001336 0.000000
# 3 -0.004746 -0.001129 0.060987 0.000000 0.005981 0.000000
# 4 0.000000 0.000000 0.000000 0.100078 0.000000 0.005139
# 5 0.002816 0.001336 0.005981 0.000000 0.067876 0.000000
# 6 0.000000 0.000000 0.000000 0.005139 0.000000 0.044914
#
#
# Mechanical properties :
#
#
# Convention : Reuss Voigt Hill
#
# Bulk Modulus (GPa) = 17.33189 67.51674 42.42431
# Shear Modulus (GPa) = 14.42913 22.82639 18.62776
#
# Velocity S-wave (km/s) = 2.90492 3.65370 3.30061
# Velocity P-wave (km/s) = 4.62467 7.56868 6.27186
#
# Compressibility (1/GPa) = 0.05769712
#
# Stress axis : x y z
#
# Youngs Moduli (GPa) = 72.54299 88.59718 16.39695
#
# Poissons Ratio (x) = 0.73590 0.07782
# Poissons Ratio (y) = 0.60255 0.01851
# Poissons Ratio (z) = 0.34428 0.10002
#
# Static dielectric constant tensor:
#      x y z
#    x 1.564410 0.000000 0.002670 
#    y 0.000000 1.597110 0.000000 
#    z 0.002670 0.000000 1.593080 
# 
# From -- ./inp_files/178703.got.cif
#   From: 2010.05.17/outbox.cif.g08.bks.cpg/sg12_90_cif.got.tgz:178703.got - 2010.06.03 13:09:07.
