data_PCOD9182912
_publ_section_title
;
Structure prediction by ZEFSAII (Michael W. Deem and Ramdas Pophale) SiO2 
 PCOD9182912
Probable space group: C 2/M
;
_chemical_formula_sum "Si O2"
_cell_formula_units_Z 44
_cell_length_a 15.398138
_cell_length_b 20.138625
_cell_length_c 5.351119
_cell_angle_alpha 90.000000
_cell_angle_beta 85.246098
_cell_angle_gamma 90.000000
_cell_volume 1653.659242
_symmetry_space_group_name_H-M "C 2/M"
_symmetry_group_IT_number 12
_symmetry_cell_setting 'monoclinic'
loop_
_space_group_symop_operation_xyz
x,y,z
-x,y,-z
-x,-y,-z
x,-y,z
1/2+x,1/2+y,z
1/2-x,1/2+y,-z
1/2-x,1/2-y,-z
1/2+x,1/2-y,z
loop_
_atom_site_type_symbol
_atom_site_label
_atom_site_fract_x
_atom_site_fract_y
_atom_site_fract_z
Si Si1 0.870905 0.714045 0.418283
Si Si2 0.303877 0.295996 0.810828
Si Si3 0.942741 0.852607 0.259445
Si Si4 0.260304 0.427832 0.038183
Si Si5 0.061276 0.000000 0.734552
Si Si6 0.858805 0.573275 0.431300
O O1 0.769042 0.693496 0.390451
O O2 0.877447 0.748017 0.687728
O O3 0.898191 0.779255 0.256457
O O4 0.913141 0.641823 0.392775
O O5 0.250000 0.250000 0.000000
O O6 0.319231 0.365678 0.938010
O O7 0.000000 0.850005 0.500000
O O8 0.895191 0.925360 0.302975
O O9 0.000000 0.858155 0.000000
O O10 0.305131 0.500000 0.025992
O O11 0.202701 0.420210 0.303987
O O12 0.193775 0.430233 0.817862
O O13 0.000000 0.000000 0.500000
O O14 0.000000 0.000000 0.000000
O O15 0.900704 0.500000 0.447699
#
# Coordination Sequence:
#
# PCOD9182912 Si02
#       6
#     8   8   8   8   4   8
#     4  10  21  34  55  81 109 144 183 226 279 328
#     4  10  19  33  53  78 114 144 175 227 279 332
#     4  10  22  38  61  83 109 146 191 231 273 328
#     4   9  17  30  47  69 103 140 177 207 253 325
#     4   8  16  36  58  78 106 144 182 226 278 320
#     4   9  17  30  50  73  99 140 175 207 261 324
#
# _framework density 26.607659000000002
#
# number of rings (size 3 to 8) (size 9 to 14) (size 15 to 20)
#    0.000    2.545    1.818    0.000    2.545    0.000 
#    1.636    0.000    4.000    1.091    0.000    0.000 
#    0.000    0.000    0.000    0.000    0.000    0.000 
#
# Total GULP energy -122562.771712 kJ/mol
# GULP energy per Si atom -5571.035078 kJ/mol
# Density = 2.654710 g / cm^3
# Si number density = 26.607659 Si / 1000 Ang^3
#
#
#
# Elastic Constant Matrix: (Units=GPa)
#
#
# Indices 1 2 3 4 5 6 
#
# 1 45.1512 46.9294 -4.4315 0.0000 7.7700 0.0000
# 2 46.9294 365.6836 38.5369 0.0000 13.9467 0.0000
# 3 -4.4315 38.5369 145.3326 0.0000 3.0040 0.0000
# 4 0.0000 0.0000 0.0000 46.4190 0.0000 18.1447
# 5 7.7700 13.9467 3.0040 0.0000 19.7837 0.0000
# 6 0.0000 0.0000 0.0000 18.1447 0.0000 41.1719
#
#
#
# Elastic Compliance Matrix: (Units=1/GPa)
#
#
# Indices 1 2 3 4 5 6 
#
# 1 0.027335 -0.003379 0.001908 0.000000 -0.008643 0.000000
# 2 -0.003379 0.003302 -0.000961 0.000000 -0.000855 0.000000
# 3 0.001908 -0.000961 0.007218 0.000000 -0.001168 0.000000
# 4 0.000000 0.000000 0.000000 0.026026 0.000000 -0.011470
# 5 -0.008643 -0.000855 -0.001168 0.000000 0.054721 0.000000
# 6 0.000000 0.000000 0.000000 -0.011470 0.000000 0.029343
#
#
# Mechanical properties :
#
#
# Convention : Reuss Voigt Hill
#
# Bulk Modulus (GPa) = 30.31155 79.80413 55.05784
# Shear Modulus (GPa) = 30.52370 53.15043 41.83706
#
# Velocity S-wave (km/s) = 3.39067 4.47426 3.96961
# Velocity P-wave (km/s) = 5.17162 7.53326 6.46126
#
# Compressibility (1/GPa) = 0.03299072
#
# Stress axis : x y z
#
# Youngs Moduli (GPa) = 36.58311 302.83105 138.54411
#
# Poissons Ratio (x) = 1.02340 -0.26438
# Poissons Ratio (y) = 0.12363 0.13314
# Poissons Ratio (z) = -0.06981 0.29102
#
# Static dielectric constant tensor:
#      x y z
#    x 2.501430 0.000000 -0.005590 
#    y 0.000000 2.220470 0.000000 
#    z -0.005590 0.000000 2.176540 
# 
# From -- ./inp_files/20412.got.cif
#   From: 2010.05.17/outbox.cif.g08.bks.cpg/sg12_11_cif.got.tgz:20412.got - 2010.06.03 13:09:07.
