data_PCOD9182850
_publ_section_title
;
Structure prediction by ZEFSAII (Michael W. Deem and Ramdas Pophale) SiO2 
 PCOD9182850
Probable space group: C 2/M
;
_chemical_formula_sum "Si O2"
_cell_formula_units_Z 64
_cell_length_a 15.081375
_cell_length_b 8.541612
_cell_length_c 27.954027
_cell_angle_alpha 90.000000
_cell_angle_beta 105.050521
_cell_angle_gamma 90.000000
_cell_volume 3477.492059
_symmetry_space_group_name_H-M "C 2/M"
_symmetry_group_IT_number 12
_symmetry_cell_setting 'monoclinic'
loop_
_space_group_symop_operation_xyz
x,y,z
-x,y,-z
-x,-y,-z
x,-y,z
1/2+x,1/2+y,z
1/2-x,1/2+y,-z
1/2-x,1/2-y,-z
1/2+x,1/2-y,z
loop_
_atom_site_type_symbol
_atom_site_label
_atom_site_fract_x
_atom_site_fract_y
_atom_site_fract_z
Si Si1 0.349964 0.688848 0.707006
Si Si2 0.900685 0.187486 0.108870
Si Si3 0.777099 0.311705 0.555500
Si Si4 0.604981 0.178905 0.997514
Si Si5 0.463534 0.188499 0.633609
Si Si6 0.411506 0.311197 0.820868
Si Si7 0.834041 0.188473 0.366237
Si Si8 0.297109 0.189600 0.893146
O O1 0.348213 0.500000 0.704596
O O2 0.424480 0.750006 0.678907
O O3 0.378944 0.741101 0.764175
O O4 0.248634 0.751863 0.679385
O O5 0.892423 0.235973 0.052543
O O6 0.808594 0.233977 0.122483
O O7 0.989305 0.250162 0.148512
O O8 0.905833 0.000000 0.110115
O O9 0.776534 0.500000 0.554705
O O10 0.750000 0.250000 0.500000
O O11 0.880398 0.263623 0.585856
O O12 0.703723 0.263151 0.586257
O O13 0.636174 0.000000 0.994074
O O14 0.500000 0.176614 0.000000
O O15 0.661763 0.245310 0.050173
O O16 0.564569 0.249637 0.633153
O O17 0.466814 0.000000 0.635374
O O18 0.414756 0.500000 0.819577
O O19 0.346305 0.259641 0.854546
O O20 0.836396 0.000000 0.364797
O O21 0.307566 0.000000 0.894082
#
# Coordination Sequence:
#
# PCOD9182850 Si02
#       8
#     8   8   8   8   8   8   8   8
#     4  10  21  38  58  81 111 146 186 237 288 337
#     4  10  21  36  54  77 104 136 174 215 264 322
#     4   9  20  36  55  83 120 156 193 234 278 328
#     4  10  19  33  53  77 105 136 174 216 261 318
#     4  10  21  38  59  86 116 151 194 236 282 336
#     4  10  22  38  55  79 108 136 174 222 272 326
#     4  10  21  38  59  85 114 150 194 237 282 335
#     4  10  21  36  54  77 106 140 175 215 266 322
#
# _framework density 18.404067999999999
#
# number of rings (size 3 to 8) (size 9 to 14) (size 15 to 20)
#    0.000    2.125    1.250    2.250    0.000    6.750 
#    0.000    3.750    0.000    0.000    0.000    0.000 
#    0.000    0.000    0.000    0.000    0.000    0.000 
#
# Total GULP energy -178500.687264 kJ/mol
# GULP energy per Si atom -5578.146477 kJ/mol
# Density = 1.836218 g / cm^3
# Si number density = 18.404068 Si / 1000 Ang^3
#
#
#
# Elastic Constant Matrix: (Units=GPa)
#
#
# Indices 1 2 3 4 5 6 
#
# 1 179.7555 41.4290 109.9922 0.0000 0.9582 0.0000
# 2 41.4290 28.6590 33.8675 0.0000 -4.3362 0.0000
# 3 109.9922 33.8675 196.3828 0.0000 -5.0197 0.0000
# 4 0.0000 0.0000 0.0000 28.1359 0.0000 -6.0130
# 5 0.9582 -4.3362 -5.0197 0.0000 28.5653 0.0000
# 6 0.0000 0.0000 0.0000 -6.0130 0.0000 25.0738
#
#
#
# Elastic Compliance Matrix: (Units=1/GPa)
#
#
# Indices 1 2 3 4 5 6 
#
# 1 0.010617 -0.010866 -0.004142 0.000000 -0.002733 0.000000
# 2 -0.010866 0.055774 -0.003322 0.000000 0.008247 0.000000
# 3 -0.004142 -0.003322 0.008012 0.000000 0.001043 0.000000
# 4 0.000000 0.000000 0.000000 0.037462 0.000000 0.008984
# 5 -0.002733 0.008247 0.001043 0.000000 0.036534 0.000000
# 6 0.000000 0.000000 0.000000 0.008984 0.000000 0.042037
#
#
# Mechanical properties :
#
#
# Convention : Reuss Voigt Hill
#
# Bulk Modulus (GPa) = 26.49554 86.15275 56.32415
# Shear Modulus (GPa) = 20.86155 30.98889 25.92522
#
# Velocity S-wave (km/s) = 3.37045 4.10787 3.75729
# Velocity P-wave (km/s) = 5.43823 8.33144 7.03517
#
# Compressibility (1/GPa) = 0.03774220
#
# Stress axis : x y z
#
# Youngs Moduli (GPa) = 94.19225 17.92959 124.81758
#
# Poissons Ratio (x) = 0.19482 0.51703
# Poissons Ratio (y) = 1.02346 0.41464
# Poissons Ratio (z) = 0.39017 0.05956
#
# Static dielectric constant tensor:
#      x y z
#    x 1.629780 0.000000 0.021580 
#    y 0.000000 1.644210 0.000000 
#    z 0.021580 0.000000 1.623350 
# 
# From -- ./inp_files/359871.got.cif
#   From: 2010.05.17/outbox.cif.g08.bks.cpg/sg12_180_cif.got.tgz:359871.got - 2010.06.03 13:09:07.
