data_PCOD9182477
_publ_section_title
;
Structure prediction by ZEFSAII (Michael W. Deem and Ramdas Pophale) SiO2 
 PCOD9182477
Probable space group: C 2/M
;
_chemical_formula_sum "Si O2"
_cell_formula_units_Z 56
_cell_length_a 14.140286
_cell_length_b 26.779297
_cell_length_c 10.566113
_cell_angle_alpha 90.000000
_cell_angle_beta 40.997720
_cell_angle_gamma 90.000000
_cell_volume 2624.796581
_symmetry_space_group_name_H-M "C 2/M"
_symmetry_group_IT_number 12
_symmetry_cell_setting 'monoclinic'
loop_
_space_group_symop_operation_xyz
x,y,z
-x,y,-z
-x,-y,-z
x,-y,z
1/2+x,1/2+y,z
1/2-x,1/2+y,-z
1/2-x,1/2-y,-z
1/2+x,1/2-y,z
loop_
_atom_site_type_symbol
_atom_site_label
_atom_site_fract_x
_atom_site_fract_y
_atom_site_fract_z
Si Si1 0.235334 0.164897 0.607610
Si Si2 0.309472 0.054134 0.468177
Si Si3 0.551468 0.800164 0.205251
Si Si4 0.421073 0.090673 0.942352
Si Si5 0.316419 0.729995 0.119104
Si Si6 0.164565 0.928417 0.346304
Si Si7 0.643870 0.687118 0.424475
O O1 0.260367 0.105219 0.584990
O O2 0.393790 0.191011 0.426355
O O3 0.160706 0.184661 0.808632
O O4 0.145672 0.179558 0.572832
O O5 0.475113 0.062313 0.259588
O O6 0.226234 0.053946 0.417607
O O7 0.288832 0.000000 0.551130
O O8 0.589093 0.852784 0.099237
O O9 0.679103 0.787379 0.174011
O O10 0.564767 0.754635 0.091943
O O11 0.500000 0.093188 0.000000
O O12 0.273020 0.061872 0.121500
O O13 0.267805 0.775889 0.257042
O O14 0.169146 0.868179 0.346592
O O15 0.000000 0.943850 0.500000
O O16 0.500000 0.705372 0.500000
#
# Coordination Sequence:
#
# PCOD9182477 Si02
#       7
#     8   8   8   8   8   8   8
#     4  10  21  37  58  78 117 156 191 241 285 340
#     4   9  19  34  55  80 104 145 197 239 287 337
#     4  10  21  34  54  82 114 153 194 229 282 345
#     4   9  17  33  53  75 112 146 186 236 285 340
#     4  11  21  34  54  82 113 155 190 231 282 341
#     4   9  17  29  49  77 115 145 180 233 294 346
#     4  10  19  33  51  78 112 156 190 229 283 342
#
# _framework density 21.334985
#
# number of rings (size 3 to 8) (size 9 to 14) (size 15 to 20)
#    0.000    2.286    1.429    2.571    0.000    2.857 
#    0.000    0.000    0.000    6.857    0.000    0.000 
#    0.000    1.143    0.000    5.143    0.000    3.429 
#
# Total GULP energy -156335.632089 kJ/mol
# GULP energy per Si atom -5583.415432 kJ/mol
# Density = 2.128643 g / cm^3
# Si number density = 21.334985 Si / 1000 Ang^3
#
#
#
# Elastic Constant Matrix: (Units=GPa)
#
#
# Indices 1 2 3 4 5 6 
#
# 1 73.5876 24.6694 36.8414 0.0000 -10.6156 0.0000
# 2 24.6694 145.2409 50.4602 0.0000 0.4125 0.0000
# 3 36.8414 50.4602 86.8932 0.0000 -12.4637 0.0000
# 4 0.0000 0.0000 0.0000 -11.3326 0.0000 -5.6808
# 5 -10.6156 0.4125 -12.4637 0.0000 29.9241 0.0000
# 6 0.0000 0.0000 0.0000 -5.6808 0.0000 -6.2874
#
#
#
# Elastic Compliance Matrix: (Units=1/GPa)
#
#
# Indices 1 2 3 4 5 6 
#
# 1 0.017618 -0.000731 -0.006538 0.000000 0.003537 0.000000
# 2 -0.000731 0.008813 -0.005172 0.000000 -0.002535 0.000000
# 3 -0.006538 -0.005172 0.018039 0.000000 0.005265 0.000000
# 4 0.000000 0.000000 0.000000 -0.161296 0.000000 0.145736
# 5 0.003537 -0.002535 0.005265 0.000000 0.036901 0.000000
# 6 0.000000 0.000000 0.000000 0.145736 0.000000 -0.290726
#
#
# Mechanical properties :
#
#
# Convention : Reuss Voigt Hill
#
# Bulk Modulus (GPa) = 51.04959 58.85153 54.95056
# Shear Modulus (GPa) = -14.73877 15.37754 0.31939
#
# Velocity S-wave (km/s) = -2.63121 2.68762 0.38733
# Velocity P-wave (km/s) = 3.84039 6.10537 5.10020
#
# Compressibility (1/GPa) = 0.01958879
#
# Stress axis : x y z
#
# Youngs Moduli (GPa) = 56.76123 113.46583 55.43617
#
# Poissons Ratio (x) = 0.08295 0.36243
# Poissons Ratio (y) = 0.04150 0.28669
# Poissons Ratio (z) = 0.37109 0.58680
#
# Static dielectric constant tensor:
#      x y z
#    x 1.794120 0.000000 -0.042930 
#    y 0.000000 1.780210 0.000000 
#    z -0.042930 0.000000 1.805820 
# 
# From -- ./inp_files/149455.got.cif
#   From: 2010.05.17/outbox.cif.g08.bks.cpg/sg12_75_cif.got.tgz:149455.got - 2010.06.03 13:09:07.
