data_PCOD9182399
_publ_section_title
;
Structure prediction by ZEFSAII (Michael W. Deem and Ramdas Pophale) SiO2 
 PCOD9182399
Probable space group: C 2/M
;
_chemical_formula_sum "Si O2"
_cell_formula_units_Z 56
_cell_length_a 5.335712
_cell_length_b 14.654001
_cell_length_c 34.519505
_cell_angle_alpha 90.000000
_cell_angle_beta 103.493524
_cell_angle_gamma 90.000000
_cell_volume 2624.559688
_symmetry_space_group_name_H-M "C 2/M"
_symmetry_group_IT_number 12
_symmetry_cell_setting 'monoclinic'
loop_
_space_group_symop_operation_xyz
x,y,z
-x,y,-z
-x,-y,-z
x,-y,z
1/2+x,1/2+y,z
1/2-x,1/2+y,-z
1/2-x,1/2-y,-z
1/2+x,1/2-y,z
loop_
_atom_site_type_symbol
_atom_site_label
_atom_site_fract_x
_atom_site_fract_y
_atom_site_fract_z
Si Si1 0.920541 0.388946 0.257768
Si Si2 0.413480 0.351960 0.615577
Si Si3 0.713577 0.610538 0.476010
Si Si4 0.359812 0.191603 0.873376
Si Si5 0.384669 0.810426 0.957915
Si Si6 0.965468 0.646573 0.650020
Si Si7 0.852991 0.890659 0.212526
O O1 0.922339 0.500000 0.259503
O O2 0.957358 0.354297 0.302556
O O3 0.154738 0.359473 0.238612
O O4 0.644935 0.359348 0.230696
O O5 0.351607 0.349238 0.568155
O O6 0.687526 0.396761 0.633534
O O7 0.436187 0.249926 0.633520
O O8 0.184074 0.396583 0.631298
O O9 0.500000 0.636400 0.500000
O O10 0.706430 0.500000 0.471840
O O11 0.000000 0.635867 0.500000
O O12 0.643611 0.229851 0.873312
O O13 0.371204 0.141671 0.915607
O O14 0.252974 0.137433 0.833021
O O15 0.602632 0.730943 0.958023
O O16 0.500000 0.859611 0.000000
O O17 0.857848 0.000000 0.214600
#
# Coordination Sequence:
#
# PCOD9182399 Si02
#       7
#     8   8   8   8   8   8   8
#     4  10  21  38  58  76 102 141 185 222 265 327
#     4  10  21  38  56  81 113 140 171 212 261 312
#     4  10  21  38  60  85 111 141 176 210 249 304
#     4  10  19  33  50  81 108 136 187 227 277 329
#     4   8  14  25  44  68 101 137 172 221 270 322
#     4  10  21  38  53  79 108 136 176 215 263 313
#     4  10  21  38  55  77 108 144 181 225 283 333
#
# _framework density 21.336912000000002
#
# number of rings (size 3 to 8) (size 9 to 14) (size 15 to 20)
#    0.000    2.286    0.000    2.571    0.000    1.143 
#   15.429    8.571    0.000    0.429    0.000    0.000 
#    0.000   14.857    0.000    0.000    0.000    2.286 
#
# Total GULP energy -156338.060961 kJ/mol
# GULP energy per Si atom -5583.502177 kJ/mol
# Density = 2.128835 g / cm^3
# Si number density = 21.336912 Si / 1000 Ang^3
#
#
#
# Elastic Constant Matrix: (Units=GPa)
#
#
# Indices 1 2 3 4 5 6 
#
# 1 158.0831 -0.2707 21.0048 0.0000 0.8024 0.0000
# 2 -0.2707 60.3740 4.5772 0.0000 -1.6131 0.0000
# 3 21.0048 4.5772 156.3152 0.0000 -0.2641 0.0000
# 4 0.0000 0.0000 0.0000 51.0127 0.0000 9.7816
# 5 0.8024 -1.6131 -0.2641 0.0000 40.5571 0.0000
# 6 0.0000 0.0000 0.0000 9.7816 0.0000 -12.6551
#
#
#
# Elastic Compliance Matrix: (Units=1/GPa)
#
#
# Indices 1 2 3 4 5 6 
#
# 1 0.006442 0.000091 -0.000869 0.000000 -0.000129 0.000000
# 2 0.000091 0.016619 -0.000498 0.000000 0.000656 0.000000
# 3 -0.000869 -0.000498 0.006529 0.000000 0.000040 0.000000
# 4 0.000000 0.000000 0.000000 0.017073 0.000000 0.013196
# 5 -0.000129 0.000656 0.000040 0.000000 0.024686 0.000000
# 6 0.000000 0.000000 0.000000 0.013196 0.000000 -0.068820
#
#
# Mechanical properties :
#
#
# Convention : Reuss Voigt Hill
#
# Bulk Modulus (GPa) = 36.98271 47.26609 42.12440
# Shear Modulus (GPa) = 354.82232 39.08033 196.95132
#
# Velocity S-wave (km/s) = 12.90953 4.28434 9.61800
# Velocity P-wave (km/s) = 15.47832 6.83187 11.96355
#
# Compressibility (1/GPa) = 0.02703966
#
# Stress axis : x y z
#
# Youngs Moduli (GPa) = 155.23116 60.17180 153.17026
#
# Poissons Ratio (x) = -0.00549 0.13303
# Poissons Ratio (y) = -0.01417 0.07625
# Poissons Ratio (z) = 0.13482 0.02995
#
# Static dielectric constant tensor:
#      x y z
#    x 1.777390 0.000000 0.003280 
#    y 0.000000 1.774280 0.000000 
#    z 0.003280 0.000000 1.752750 
# 
# From -- ./inp_files/371570.got.cif
#   From: 2010.05.17/outbox.cif.g08.bks.cpg/sg12_186_cif.got.tgz:371570.got - 2010.06.03 13:09:07.
