data_PCOD9182764
_publ_section_title
;
Structure prediction by ZEFSAII (Michael W. Deem and Ramdas Pophale) SiO2 
 PCOD9182764
Probable space group: C 2/M
;
_chemical_formula_sum "Si O2"
_cell_formula_units_Z 48
_cell_length_a 29.005532
_cell_length_b 12.748052
_cell_length_c 14.296049
_cell_angle_alpha 90.000000
_cell_angle_beta 30.504079
_cell_angle_gamma 90.000000
_cell_volume 2683.255628
_symmetry_space_group_name_H-M "C 2/M"
_symmetry_group_IT_number 12
_symmetry_cell_setting 'monoclinic'
loop_
_space_group_symop_operation_xyz
x,y,z
-x,y,-z
-x,-y,-z
x,-y,z
1/2+x,1/2+y,z
1/2-x,1/2+y,-z
1/2-x,1/2-y,-z
1/2+x,1/2-y,z
loop_
_atom_site_type_symbol
_atom_site_label
_atom_site_fract_x
_atom_site_fract_y
_atom_site_fract_z
Si Si1 0.794905 0.624028 0.816213
Si Si2 0.115041 0.794884 0.228662
Si Si3 0.704012 0.253181 0.374941
Si Si4 0.385282 0.122972 0.098633
Si Si5 0.906553 0.377608 0.285889
Si Si6 0.935239 0.118597 0.486542
O O1 0.802312 0.500000 0.803765
O O2 0.864809 0.680330 0.765055
O O3 0.805140 0.672290 0.695312
O O4 0.697504 0.663170 0.023670
O O5 0.106916 0.866726 0.336093
O O6 0.021665 0.805138 0.336555
O O7 0.805156 0.299827 0.206805
O O8 0.662771 0.196069 0.537479
O O9 0.638122 0.348553 0.461017
O O10 0.391007 0.129323 0.201573
O O11 0.366466 0.000000 0.107818
O O12 0.486699 0.148683 0.884059
O O13 0.893633 0.500000 0.334986
O O14 0.966512 0.000000 0.419797
#
# Coordination Sequence:
#
# PCOD9182764 Si02
#       6
#     8   8   8   8   8   8
#     4  10  20  34  52  76 107 138 173 218 269 314
#     4   9  19  35  52  70 101 143 181 207 260 318
#     4  11  21  31  55  85 110 131 179 226 272 314
#     4   9  19  37  58  78 105 146 184 217 260 325
#     4   9  19  37  57  77 109 146 178 216 272 324
#     4  10  19  33  53  75 102 139 179 221 260 309
#
# _framework density 17.888717
#
# number of rings (size 3 to 8) (size 9 to 14) (size 15 to 20)
#    0.000    2.333    0.000    4.500    2.333    0.000 
#    0.000    8.333    0.000    0.000    0.000    7.000 
#    0.000    0.000    0.000    0.000    0.000    0.000 
#
# Total GULP energy -133836.479919 kJ/mol
# GULP energy per Si atom -5576.519997 kJ/mol
# Density = 1.784800 g / cm^3
# Si number density = 17.888717 Si / 1000 Ang^3
#
#
#
# Elastic Constant Matrix: (Units=GPa)
#
#
# Indices 1 2 3 4 5 6 
#
# 1 37.1141 24.7616 2.1678 0.0000 -18.0808 0.0000
# 2 24.7616 90.3790 25.2712 0.0000 -3.0511 0.0000
# 3 2.1678 25.2712 46.1928 0.0000 -6.3406 0.0000
# 4 0.0000 0.0000 0.0000 20.3443 0.0000 -2.2953
# 5 -18.0808 -3.0511 -6.3406 0.0000 24.9615 0.0000
# 6 0.0000 0.0000 0.0000 -2.2953 0.0000 13.0974
#
#
#
# Elastic Compliance Matrix: (Units=1/GPa)
#
#
# Indices 1 2 3 4 5 6 
#
# 1 0.060853 -0.018987 0.013743 0.000000 0.045248 0.000000
# 2 -0.018987 0.018988 -0.011466 0.000000 -0.014345 0.000000
# 3 0.013743 -0.011466 0.029478 0.000000 0.016041 0.000000
# 4 0.000000 0.000000 0.000000 0.050145 0.000000 0.008788
# 5 0.045248 -0.014345 0.016041 0.000000 0.075158 0.000000
# 6 0.000000 0.000000 0.000000 0.008788 0.000000 0.077891
#
#
# Mechanical properties :
#
#
# Convention : Reuss Voigt Hill
#
# Bulk Modulus (GPa) = 13.17562 30.89857 22.03710
# Shear Modulus (GPa) = 13.46860 19.77966 16.62413
#
# Velocity S-wave (km/s) = 2.74690 3.32882 3.05176
# Velocity P-wave (km/s) = 4.17635 5.66435 4.97628
#
# Compressibility (1/GPa) = 0.07589774
#
# Stress axis : x y z
#
# Youngs Moduli (GPa) = 16.43317 52.66384 33.92343
#
# Poissons Ratio (x) = 0.99994 -0.46620
# Poissons Ratio (y) = 0.31202 0.38897
# Poissons Ratio (z) = -0.22584 0.60385
#
# Static dielectric constant tensor:
#      x y z
#    x 1.610430 0.000000 -0.012590 
#    y 0.000000 1.595590 0.000000 
#    z -0.012590 0.000000 1.619940 
# 
# From -- ./inp_files/250728.got.cif
#   From: 2010.05.17/outbox.cif.g08.bks.cpg/sg12_126_cif.got.tgz:250728.got - 2010.06.03 13:09:07.
