data_PCOD9182933
_publ_section_title
;
Structure prediction by ZEFSAII (Michael W. Deem and Ramdas Pophale) SiO2 
 PCOD9182933
Probable space group: C 2/M
;
_chemical_formula_sum "Si O2"
_cell_formula_units_Z 64
_cell_length_a 31.155619
_cell_length_b 28.187301
_cell_length_c 8.570221
_cell_angle_alpha 90.000000
_cell_angle_beta 29.419605
_cell_angle_gamma 90.000000
_cell_volume 3696.935507
_symmetry_space_group_name_H-M "C 2/M"
_symmetry_group_IT_number 12
_symmetry_cell_setting 'monoclinic'
loop_
_space_group_symop_operation_xyz
x,y,z
-x,y,-z
-x,-y,-z
x,-y,z
1/2+x,1/2+y,z
1/2-x,1/2+y,-z
1/2-x,1/2-y,-z
1/2+x,1/2-y,z
loop_
_atom_site_type_symbol
_atom_site_label
_atom_site_fract_x
_atom_site_fract_y
_atom_site_fract_z
Si Si1 0.587244 0.694523 0.822829
Si Si2 0.576598 0.621504 0.133606
Si Si3 0.656224 0.553136 0.653824
Si Si4 0.268850 0.631265 0.796344
Si Si5 0.675175 0.216028 0.659539
Si Si6 0.745672 0.870180 0.237999
Si Si7 0.597903 0.136232 0.129963
Si Si8 0.834689 0.554919 0.294908
O O1 0.671392 0.673287 0.465080
O O2 0.605942 0.748860 0.801534
O O3 0.500000 0.687153 0.000000
O O4 0.577220 0.666909 0.018248
O O5 0.500000 0.619936 0.500000
O O6 0.582880 0.578036 0.992022
O O7 0.663935 0.621811 0.958524
O O8 0.633388 0.500000 0.683880
O O9 0.680556 0.585023 0.428713
O O10 0.743997 0.553163 0.482958
O O11 0.260578 0.632192 0.007322
O O12 0.172206 0.631391 0.027529
O O13 0.750000 0.250000 0.500000
O O14 0.711620 0.179614 0.415145
O O15 0.630874 0.181411 0.926070
O O16 0.685032 0.914142 0.487365
O O17 0.500000 0.142681 0.500000
O O18 0.603523 0.088668 0.005429
O O19 0.861740 0.500000 0.233991
#
# Coordination Sequence:
#
# PCOD9182933 Si02
#       8
#     8   8   8   8   8   8   8   8
#     4  11  22  37  58  81 108 146 189 231 278 332
#     4  10  19  33  53  79 111 144 184 231 275 331
#     4   8  16  32  54  77 108 149 184 223 281 331
#     4  10  20  36  55  82 114 144 185 237 275 331
#     4  11  20  41  56  74 113 149 182 228 280 326
#     4  10  20  34  58  79 108 150 181 228 282 330
#     4  10  21  37  59  82 112 149 186 230 279 332
#     4   8  16  34  57  80 108 145 184 224 278 338
#
# _framework density 17.311634999999999
#
# number of rings (size 3 to 8) (size 9 to 14) (size 15 to 20)
#    0.000    2.250    2.500    2.250    0.000    3.000 
#    2.250    1.875    0.000   13.500    0.000    0.000 
#    0.000    0.000    0.000    0.000    0.000    0.000 
#
# Total GULP energy -178334.381534 kJ/mol
# GULP energy per Si atom -5572.949423 kJ/mol
# Density = 1.727223 g / cm^3
# Si number density = 17.311635 Si / 1000 Ang^3
#
#
#
# Elastic Constant Matrix: (Units=GPa)
#
#
# Indices 1 2 3 4 5 6 
#
# 1 98.1373 48.8878 63.1936 0.0000 26.7225 0.0000
# 2 48.8878 145.4673 58.5549 0.0000 25.8514 0.0000
# 3 63.1936 58.5549 120.6923 0.0000 23.7582 0.0000
# 4 0.0000 0.0000 0.0000 6.2578 0.0000 -5.7569
# 5 26.7225 25.8514 23.7582 0.0000 33.1414 0.0000
# 6 0.0000 0.0000 0.0000 -5.7569 0.0000 6.4803
#
#
#
# Elastic Compliance Matrix: (Units=1/GPa)
#
#
# Indices 1 2 3 4 5 6 
#
# 1 0.017614 -0.001770 -0.006799 0.000000 -0.007947 0.000000
# 2 -0.001770 0.009281 -0.002831 0.000000 -0.003783 0.000000
# 3 -0.006799 -0.002831 0.013628 0.000000 -0.002079 0.000000
# 4 0.000000 0.000000 0.000000 0.874495 0.000000 0.776879
# 5 -0.007947 -0.003783 -0.002079 0.000000 0.041023 0.000000
# 6 0.000000 0.000000 0.000000 0.776879 0.000000 0.844474
#
#
# Mechanical properties :
#
#
# Convention : Reuss Voigt Hill
#
# Bulk Modulus (GPa) = 56.42755 78.39660 67.41207
# Shear Modulus (GPa) = 2.73340 22.08663 12.41001
#
# Velocity S-wave (km/s) = 1.25792 3.57575 2.68033
# Velocity P-wave (km/s) = 5.89710 7.90138 6.97164
#
# Compressibility (1/GPa) = 0.01772184
#
# Stress axis : x y z
#
# Youngs Moduli (GPa) = 56.77313 107.74380 73.37591
#
# Poissons Ratio (x) = 0.19075 0.49890
# Poissons Ratio (y) = 0.10051 0.20775
# Poissons Ratio (z) = 0.38601 0.30506
#
# Static dielectric constant tensor:
#      x y z
#    x 1.568680 0.000000 -0.015850 
#    y 0.000000 1.599800 0.000000 
#    z -0.015850 0.000000 1.550080 
# 
# From -- ./inp_files/113743.got.cif
#   From: 2010.05.17/outbox.cif.g08.bks.cpg/sg12_57_cif.got.tgz:113743.got - 2010.06.03 13:09:07.
