data_PCOD9182950
_publ_section_title
;
Structure prediction by ZEFSAII (Michael W. Deem and Ramdas Pophale) SiO2 
 PCOD9182950
Probable space group: C 2/M
;
_chemical_formula_sum "Si O2"
_cell_formula_units_Z 40
_cell_length_a 8.357081
_cell_length_b 28.191634
_cell_length_c 14.128972
_cell_angle_alpha 90.000000
_cell_angle_beta 146.928826
_cell_angle_gamma 90.000000
_cell_volume 1816.451481
_symmetry_space_group_name_H-M "C 2/M"
_symmetry_group_IT_number 12
_symmetry_cell_setting 'monoclinic'
loop_
_space_group_symop_operation_xyz
x,y,z
-x,y,-z
-x,-y,-z
x,-y,z
1/2+x,1/2+y,z
1/2-x,1/2+y,-z
1/2-x,1/2-y,-z
1/2+x,1/2-y,z
loop_
_atom_site_type_symbol
_atom_site_label
_atom_site_fract_x
_atom_site_fract_y
_atom_site_fract_z
Si Si1 0.298376 0.904789 0.186329
Si Si2 0.794616 0.139345 0.306966
Si Si3 0.703283 0.185954 0.690002
Si Si4 0.687453 0.267143 0.807628
Si Si5 0.366719 0.551504 0.541189
O O1 0.494536 0.882701 0.198323
O O2 0.218820 0.860690 0.213931
O O3 0.524220 0.937747 0.355906
O O4 0.000000 0.927119 0.000000
O O5 0.758204 0.186949 0.230763
O O6 0.000000 0.149692 0.500000
O O7 0.969226 0.097750 0.336619
O O8 0.500000 0.174378 0.500000
O O9 0.545258 0.223312 0.681255
O O10 0.980456 0.214306 0.787683
O O11 0.000000 0.249943 0.000000
O O12 0.500000 0.549262 0.500000
O O13 0.416468 0.500000 0.610544
#
# Coordination Sequence:
#
# PCOD9182950 Si02
#       5
#     8   8   8   8   8
#     4  10  19  33  53  80 109 134 170 218 260 299
#     4   9  18  35  55  75 102 139 177 210 252 310
#     4  12  23  36  53  76 108 142 178 211 254 309
#     4  12  23  36  54  77 107 140 176 216 259 303
#     4   8  16  32  55  79 102 133 172 213 257 308
#
# _framework density 22.020956000000002
#
# number of rings (size 3 to 8) (size 9 to 14) (size 15 to 20)
#    0.000    2.200    0.000    7.200    0.000    0.400 
#    0.000    0.000    0.000    6.000    0.000    0.000 
#    0.000    1.600    0.000    0.000    0.000    0.000 
#
# Total GULP energy -111776.120694 kJ/mol
# GULP energy per Si atom -5588.806035 kJ/mol
# Density = 2.197084 g / cm^3
# Si number density = 22.020956 Si / 1000 Ang^3
#
#
#
# Elastic Constant Matrix: (Units=GPa)
#
#
# Indices 1 2 3 4 5 6 
#
# 1 48.5281 -1.3570 14.5032 0.0000 10.8239 0.0000
# 2 -1.3570 63.6993 -7.8308 0.0000 -21.1766 0.0000
# 3 14.5032 -7.8308 73.4484 0.0000 14.9503 0.0000
# 4 0.0000 0.0000 0.0000 12.2899 0.0000 -5.4213
# 5 10.8239 -21.1766 14.9503 0.0000 25.9786 0.0000
# 6 0.0000 0.0000 0.0000 -5.4213 0.0000 3.7625
#
#
#
# Elastic Compliance Matrix: (Units=1/GPa)
#
#
# Indices 1 2 3 4 5 6 
#
# 1 0.023851 -0.003572 -0.002803 0.000000 -0.011235 0.000000
# 2 -0.003572 0.022206 -0.001036 0.000000 0.020186 0.000000
# 3 -0.002803 -0.001036 0.015849 0.000000 -0.008797 0.000000
# 4 0.000000 0.000000 0.000000 0.223292 0.000000 0.321737
# 5 -0.011235 0.020186 -0.008797 0.000000 0.064691 0.000000
# 6 0.000000 0.000000 0.000000 0.321737 0.000000 0.729363
#
#
# Mechanical properties :
#
#
# Convention : Reuss Voigt Hill
#
# Bulk Modulus (GPa) = 21.23905 21.81185 21.52545
# Shear Modulus (GPa) = 4.50544 20.43025 12.46785
#
# Velocity S-wave (km/s) = 1.43193 3.04923 2.38204
# Velocity P-wave (km/s) = 3.52133 4.72478 4.16673
#
# Compressibility (1/GPa) = 0.04708310
#
# Stress axis : x y z
#
# Youngs Moduli (GPa) = 41.92778 45.03302 63.09644
#
# Poissons Ratio (x) = 0.16085 0.17688
# Poissons Ratio (y) = 0.14975 0.06536
# Poissons Ratio (z) = 0.11754 0.04665
#
# Static dielectric constant tensor:
#      x y z
#    x 1.869340 0.000000 0.017920 
#    y 0.000000 1.803360 0.000000 
#    z 0.017920 0.000000 1.791090 
# 
# From -- ./inp_files/41877.got.cif
#   From: 2010.05.17/outbox.cif.g08.bks.cpg/sg12_21_cif.got.tgz:41877.got - 2010.06.03 13:09:07.
