data_PCOD9182929
_publ_section_title
;
Structure prediction by ZEFSAII (Michael W. Deem and Ramdas Pophale) SiO2 
 PCOD9182929
Probable space group: C 2/M
;
_chemical_formula_sum "Si O2"
_cell_formula_units_Z 64
_cell_length_a 25.858406
_cell_length_b 7.687298
_cell_length_c 29.972879
_cell_angle_alpha 90.000000
_cell_angle_beta 30.001172
_cell_angle_gamma 90.000000
_cell_volume 2979.129062
_symmetry_space_group_name_H-M "C 2/M"
_symmetry_group_IT_number 12
_symmetry_cell_setting 'monoclinic'
loop_
_space_group_symop_operation_xyz
x,y,z
-x,y,-z
-x,-y,-z
x,-y,z
1/2+x,1/2+y,z
1/2-x,1/2+y,-z
1/2-x,1/2-y,-z
1/2+x,1/2-y,z
loop_
_atom_site_type_symbol
_atom_site_label
_atom_site_fract_x
_atom_site_fract_y
_atom_site_fract_z
Si Si1 0.541706 0.786729 0.351724
Si Si2 0.082384 0.706590 0.475144
Si Si3 0.246041 0.200324 0.769099
Si Si4 0.681575 0.209413 0.984060
Si Si5 0.184441 0.699543 0.723416
Si Si6 0.981604 0.285753 0.824196
Si Si7 0.401958 0.210049 0.045575
Si Si8 0.414247 0.205802 0.780911
O O1 0.444425 0.732382 0.454517
O O2 0.639182 0.730702 0.309252
O O3 0.557287 0.722959 0.289384
O O4 0.545837 0.000000 0.346369
O O5 0.064744 0.500000 0.489172
O O6 0.201593 0.731676 0.373316
O O7 0.000000 0.776947 0.500000
O O8 0.178588 0.290595 0.781543
O O9 0.195199 0.216539 0.855318
O O10 0.252541 0.000000 0.750519
O O11 0.604768 0.257846 0.000821
O O12 0.794540 0.272027 0.884997
O O13 0.688468 0.000000 0.980782
O O14 0.624285 0.270203 0.071611
O O15 0.186316 0.500000 0.708397
O O16 0.083546 0.775210 0.774544
O O17 0.979952 0.500000 0.826469
O O18 0.978709 0.227082 0.775154
O O19 0.398300 0.000000 0.050869
O O20 0.500000 0.272308 0.000000
O O21 0.433571 0.000000 0.763936
#
# Coordination Sequence:
#
# PCOD9182929 Si02
#       8
#     8   8   8   8   8   8   8   8
#     4   9  18  33  55  80 106 136 175 221 273 323
#     4  10  19  36  58  80 110 144 177 221 277 334
#     4  11  20  34  54  79 109 143 181 222 272 327
#     4  10  19  33  53  79 109 144 184 226 271 317
#     4  11  22  37  56  82 112 144 183 225 273 333
#     4   9  20  37  56  77 109 149 185 222 271 327
#     4  10  20  33  49  73 111 153 184 218 273 332
#     4  10  19  36  59  80 105 145 190 228 266 317
#
# _framework density 21.482787999999999
#
# number of rings (size 3 to 8) (size 9 to 14) (size 15 to 20)
#    0.000    2.000    2.500    1.875    0.000    2.500 
#    0.000    5.000    0.000    0.000    0.000    0.000 
#    0.000    0.000    0.000    0.000    0.000    0.000 
#
# Total GULP energy -178539.776018 kJ/mol
# GULP energy per Si atom -5579.368001 kJ/mol
# Density = 2.143389 g / cm^3
# Si number density = 21.482788 Si / 1000 Ang^3
#
#
#
# Elastic Constant Matrix: (Units=GPa)
#
#
# Indices 1 2 3 4 5 6 
#
# 1 133.9503 7.4199 37.3329 -0.0200 18.7838 0.0297
# 2 7.4199 27.0173 -2.1234 -0.0397 4.3816 0.0430
# 3 37.3329 -2.1234 81.7046 -0.0003 21.5629 0.0203
# 4 -0.0200 -0.0397 -0.0003 18.9763 0.0003 1.4621
# 5 18.7838 4.3816 21.5629 0.0003 29.6529 -0.0083
# 6 0.0297 0.0430 0.0203 1.4621 -0.0083 9.2271
#
#
#
# Elastic Compliance Matrix: (Units=1/GPa)
#
#
# Indices 1 2 3 4 5 6 
#
# 1 0.008936 -0.002255 -0.003385 0.000006 -0.002865 -0.000014
# 2 -0.002255 0.039116 0.003954 0.000096 -0.007227 -0.000205
# 3 -0.003385 0.003954 0.016678 0.000009 -0.010568 -0.000055
# 4 0.000006 0.000096 0.000009 0.053349 -0.000028 -0.008454
# 5 -0.002865 -0.007227 -0.010568 -0.000028 0.044291 0.000111
# 6 -0.000014 -0.000205 -0.000055 -0.008454 0.000111 0.109717
#
#
# Mechanical properties :
#
#
# Convention : Reuss Voigt Hill
#
# Bulk Modulus (GPa) = 16.29809 36.43679 26.36744
# Shear Modulus (GPa) = 16.89695 24.90745 20.90220
#
# Velocity S-wave (km/s) = 2.80756 3.40871 3.12264
# Velocity P-wave (km/s) = 4.25593 5.70001 5.03006
#
# Compressibility (1/GPa) = 0.06135690
#
# Stress axis : x y z
#
# Youngs Moduli (GPa) = 111.91028 25.56497 59.96003
#
# Poissons Ratio (x) = 0.05766 0.20299
# Poissons Ratio (y) = 0.25240 -0.23711
# Poissons Ratio (z) = 0.37886 -0.10110
#
# Static dielectric constant tensor:
#      x y z
#    x 1.797910 -0.000040 -0.002000 
#    y -0.000040 1.809160 0.000010 
#    z -0.002000 0.000010 1.796890 
# 
# From -- ./inp_files/238564.got.cif
#   From: 2010.05.17/outbox.cif.g08.bks.cpg/sg12_120_cif.got.tgz:238564.got - 2010.06.03 13:09:07.
