data_PCOD9182570
_publ_section_title
;
Structure prediction by ZEFSAII (Michael W. Deem and Ramdas Pophale) SiO2 
 PCOD9182570
Probable space group: C 2/M
;
_chemical_formula_sum "Si O2"
_cell_formula_units_Z 48
_cell_length_a 9.243807
_cell_length_b 15.733236
_cell_length_c 17.205403
_cell_angle_alpha 90.000000
_cell_angle_beta 101.891043
_cell_angle_gamma 90.000000
_cell_volume 2448.572094
_symmetry_space_group_name_H-M "C 2/M"
_symmetry_group_IT_number 12
_symmetry_cell_setting 'monoclinic'
loop_
_space_group_symop_operation_xyz
x,y,z
-x,y,-z
-x,-y,-z
x,-y,z
1/2+x,1/2+y,z
1/2-x,1/2+y,-z
1/2-x,1/2-y,-z
1/2+x,1/2-y,z
loop_
_atom_site_type_symbol
_atom_site_label
_atom_site_fract_x
_atom_site_fract_y
_atom_site_fract_z
Si Si1 0.827082 0.190416 0.072830
Si Si2 0.384859 0.500000 0.060483
Si Si3 0.096189 0.500000 0.587186
Si Si4 0.339554 0.689290 0.839461
Si Si5 0.409811 0.184047 0.409376
Si Si6 0.420818 0.316318 0.667260
Si Si7 0.325458 0.500000 0.819382
Si Si8 0.404067 0.500000 0.654039
O O1 0.763869 0.233891 0.144262
O O2 0.005219 0.195623 0.096791
O O3 0.798442 0.089701 0.054678
O O4 0.750000 0.250000 0.000000
O O5 0.497424 0.500000 0.145830
O O6 0.500000 0.500000 0.000000
O O7 0.063605 0.589751 0.621946
O O8 0.267971 0.500000 0.579477
O O9 0.000000 0.500000 0.500000
O O10 0.379720 0.693780 0.752977
O O11 0.275524 0.592612 0.845397
O O12 0.500000 0.193486 0.500000
O O13 0.466125 0.249899 0.353103
O O14 0.233197 0.191939 0.397303
O O15 0.484271 0.411107 0.660997
O O16 0.311510 0.500000 0.725186
#
# Coordination Sequence:
#
# PCOD9182570 Si02
#       8
#     8   4   4   8   8   8   4   4
#     4  11  21  36  56  79 104 135 174 214 254 305
#     4  10  20  36  55  75 104 142 171 199 253 318
#     4   8  16  30  48  68  96 133 170 203 250 309
#     4  10  20  35  55  79 104 136 173 215 259 307
#     4  10  19  33  52  75 102 137 176 216 258 309
#     4  10  19  34  53  76 104 136 173 214 259 309
#     4   8  16  32  53  72  96 135 175 201 244 312
#     4   8  16  30  50  71  98 134 170 203 248 311
#
# _framework density 19.603263999999999
#
# number of rings (size 3 to 8) (size 9 to 14) (size 15 to 20)
#    0.000    2.333    0.000    4.000    0.000    0.000 
#    0.000    4.583    0.000    0.000    0.000    0.000 
#    0.000    0.000    0.000    0.000    0.000    0.000 
#
# Total GULP energy -133621.539375 kJ/mol
# GULP energy per Si atom -5567.564141 kJ/mol
# Density = 1.955865 g / cm^3
# Si number density = 19.603264 Si / 1000 Ang^3
#
#
#
# Elastic Constant Matrix: (Units=GPa)
#
#
# Indices 1 2 3 4 5 6 
#
# 1 31.5541 47.2558 -3.6651 0.0000 -2.4085 0.0000
# 2 47.2558 220.6179 9.3571 0.0000 -24.5514 0.0000
# 3 -3.6651 9.3571 52.4606 0.0000 10.0140 0.0000
# 4 0.0000 0.0000 0.0000 28.3147 0.0000 -2.4174
# 5 -2.4085 -24.5514 10.0140 0.0000 22.6828 0.0000
# 6 0.0000 0.0000 0.0000 -2.4174 0.0000 29.9989
#
#
#
# Elastic Compliance Matrix: (Units=1/GPa)
#
#
# Indices 1 2 3 4 5 6 
#
# 1 0.050299 -0.012400 0.007937 0.000000 -0.011584 0.000000
# 2 -0.012400 0.008446 -0.004222 0.000000 0.009689 0.000000
# 3 0.007937 -0.004222 0.023021 0.000000 -0.013891 0.000000
# 4 0.000000 0.000000 0.000000 0.035562 0.000000 0.002866
# 5 -0.011584 0.009689 -0.013891 0.000000 0.059476 0.000000
# 6 0.000000 0.000000 0.000000 0.002866 0.000000 0.033566
#
#
# Mechanical properties :
#
#
# Convention : Reuss Voigt Hill
#
# Bulk Modulus (GPa) = 15.52880 45.61425 30.57153
# Shear Modulus (GPa) = 20.06374 32.97826 26.52100
#
# Velocity S-wave (km/s) = 3.20267 4.10602 3.68215
# Velocity P-wave (km/s) = 4.64918 6.76745 5.80574
#
# Compressibility (1/GPa) = 0.06439646
#
# Stress axis : x y z
#
# Youngs Moduli (GPa) = 19.88097 118.39814 43.43848
#
# Poissons Ratio (x) = 1.46811 -0.34478
# Poissons Ratio (y) = 0.24652 0.18341
# Poissons Ratio (z) = -0.15780 0.49991
#
# Static dielectric constant tensor:
#      x y z
#    x 1.667820 0.000000 0.035050 
#    y 0.000000 1.743390 0.000000 
#    z 0.035050 0.000000 1.801400 
# 
# From -- ./inp_files/299924.got.cif
#   From: 2010.05.17/outbox.cif.g08.bks.cpg/sg12_150_cif.got.tgz:299924.got - 2010.06.03 13:09:07.
