data_PCOD9182002
_publ_section_title
;
Structure prediction by ZEFSAII (Michael W. Deem and Ramdas Pophale) SiO2 
 PCOD9182002
Probable space group: C 2/M
;
_chemical_formula_sum "Si O2"
_cell_formula_units_Z 64
_cell_length_a 20.481894
_cell_length_b 9.047290
_cell_length_c 24.869079
_cell_angle_alpha 90.000000
_cell_angle_beta 53.785219
_cell_angle_gamma 90.000000
_cell_volume 3718.077873
_symmetry_space_group_name_H-M "C 2/M"
_symmetry_group_IT_number 12
_symmetry_cell_setting 'monoclinic'
loop_
_space_group_symop_operation_xyz
x,y,z
-x,y,-z
-x,-y,-z
x,-y,z
1/2+x,1/2+y,z
1/2-x,1/2+y,-z
1/2-x,1/2-y,-z
1/2+x,1/2-y,z
loop_
_atom_site_type_symbol
_atom_site_label
_atom_site_fract_x
_atom_site_fract_y
_atom_site_fract_z
Si Si1 0.052777 0.822389 0.421919
Si Si2 0.637233 0.675191 0.183820
Si Si3 0.273298 0.177034 0.674588
Si Si4 0.488026 0.324359 0.337287
Si Si5 0.472859 0.823864 0.847962
Si Si6 0.621148 0.823906 0.694807
Si Si7 0.532990 0.677395 0.925004
Si Si8 0.778398 0.177122 0.178183
O O1 0.138884 0.742316 0.380695
O O2 0.005414 0.782170 0.390209
O O3 0.000000 0.787935 0.500000
O O4 0.066104 0.000000 0.413674
O O5 0.643713 0.500000 0.172906
O O6 0.570219 0.702152 0.263235
O O7 0.601012 0.751556 0.148564
O O8 0.720627 0.743103 0.163925
O O9 0.204251 0.246105 0.670558
O O10 0.250230 0.215345 0.747537
O O11 0.273103 0.000000 0.669917
O O12 0.471036 0.500000 0.342918
O O13 0.417406 0.236771 0.341490
O O14 0.553941 0.789449 0.773570
O O15 0.485097 0.757385 0.900802
O O16 0.463907 0.000000 0.853867
O O17 0.631218 0.000000 0.687722
O O18 0.526198 0.500000 0.920850
O O19 0.627726 0.716638 0.874359
O O20 0.500000 0.714306 0.000000
O O21 0.770597 0.000000 0.175637
#
# Coordination Sequence:
#
# PCOD9182002 Si02
#       8
#     8   8   8   8   8   8   8   8
#     4  10  21  38  58  81 113 149 183 223 274 331
#     4  10  19  32  55  82 109 141 180 226 272 323
#     4  11  21  34  56  83 112 143 182 230 272 321
#     4   9  18  33  53  79 109 141 178 221 271 322
#     4  10  20  34  54  81 113 144 179 227 276 324
#     4  10  20  33  54  82 110 141 180 227 274 321
#     4  10  21  38  58  80 111 149 185 223 273 332
#     4  10  20  34  54  82 111 140 179 227 273 318
#
# _framework density 17.213196
#
# number of rings (size 3 to 8) (size 9 to 14) (size 15 to 20)
#    0.000    2.000    2.500    1.500    0.000    3.500 
#    0.000    1.250    0.000    0.000    0.000    0.000 
#    0.000    0.000    0.000    0.000    0.000    0.000 
#
# Total GULP energy -178663.106536 kJ/mol
# GULP energy per Si atom -5583.222079 kJ/mol
# Density = 1.717402 g / cm^3
# Si number density = 17.213196 Si / 1000 Ang^3
#
#
#
# Elastic Constant Matrix: (Units=GPa)
#
#
# Indices 1 2 3 4 5 6 
#
# 1 128.2785 42.9807 33.2860 0.0001 17.3709 0.0001
# 2 42.9807 29.3344 25.5075 0.0001 6.6111 0.0002
# 3 33.2860 25.5075 61.4010 0.0001 10.2389 -0.0001
# 4 0.0001 0.0001 0.0001 19.3253 0.0000 1.4638
# 5 17.3709 6.6111 10.2389 0.0000 26.1402 0.0000
# 6 0.0001 0.0002 -0.0001 1.4638 0.0000 34.9279
#
#
#
# Elastic Compliance Matrix: (Units=1/GPa)
#
#
# Indices 1 2 3 4 5 6 
#
# 1 0.016097 -0.024360 0.002300 0.000000 -0.005437 0.000000
# 2 -0.024360 0.090888 -0.025054 0.000000 0.003015 -0.000001
# 3 0.002300 -0.025054 0.026368 0.000000 -0.005520 0.000000
# 4 0.000000 0.000000 0.000000 0.051911 0.000000 -0.002175
# 5 -0.005437 0.003015 -0.005520 0.000000 0.043268 0.000000
# 6 0.000000 -0.000001 0.000000 -0.002175 0.000000 0.028722
#
#
# Mechanical properties :
#
#
# Convention : Reuss Voigt Hill
#
# Bulk Modulus (GPa) = 25.55911 46.95136 36.25523
# Shear Modulus (GPa) = 13.71657 23.89466 18.80562
#
# Velocity S-wave (km/s) = 2.82594 3.72984 3.30890
# Velocity P-wave (km/s) = 5.05259 6.77381 5.97550
#
# Compressibility (1/GPa) = 0.03912500
#
# Stress axis : x y z
#
# Youngs Moduli (GPa) = 62.12359 11.00257 37.92458
#
# Poissons Ratio (x) = 0.26802 -0.08723
# Poissons Ratio (y) = 1.51332 0.95017
# Poissons Ratio (z) = -0.14289 0.27566
#
# Static dielectric constant tensor:
#      x y z
#    x 1.556730 0.000000 0.005150 
#    y 0.000000 1.569470 0.000000 
#    z 0.005150 0.000000 1.567850 
# 
# From -- ./inp_files/345927.got.cif
#   From: 2010.05.17/outbox.cif.g08.bks.cpg/sg12_173_cif.got.tgz:345927.got - 2010.06.03 13:09:07.
