data_PCOD9182135
_publ_section_title
;
Structure prediction by ZEFSAII (Michael W. Deem and Ramdas Pophale) SiO2 
 PCOD9182135
Probable space group: C 2/M
;
_chemical_formula_sum "Si O2"
_cell_formula_units_Z 52
_cell_length_a 7.433943
_cell_length_b 18.876211
_cell_length_c 16.165825
_cell_angle_alpha 90.000000
_cell_angle_beta 92.784614
_cell_angle_gamma 90.000000
_cell_volume 2265.785607
_symmetry_space_group_name_H-M "C 2/M"
_symmetry_group_IT_number 12
_symmetry_cell_setting 'monoclinic'
loop_
_space_group_symop_operation_xyz
x,y,z
-x,y,-z
-x,-y,-z
x,-y,z
1/2+x,1/2+y,z
1/2-x,1/2+y,-z
1/2-x,1/2-y,-z
1/2+x,1/2-y,z
loop_
_atom_site_type_symbol
_atom_site_label
_atom_site_fract_x
_atom_site_fract_y
_atom_site_fract_z
Si Si1 0.928481 0.828540 0.677200
Si Si2 0.786910 0.581212 0.869947
Si Si3 0.150313 0.671629 0.280584
Si Si4 0.372599 0.077260 0.576103
Si Si5 0.146696 0.081461 0.178446
Si Si6 0.288932 0.668244 0.977670
Si Si7 0.000000 0.866972 0.500000
O O1 0.882499 0.754618 0.719675
O O2 0.831753 0.890206 0.727224
O O3 0.913679 0.826065 0.577194
O O4 0.139186 0.838957 0.697253
O O5 0.845485 0.500000 0.870130
O O6 0.884145 0.628917 0.803309
O O7 0.570339 0.581421 0.845168
O O8 0.808922 0.618214 0.958573
O O9 0.061857 0.636408 0.358699
O O10 0.500000 0.077984 0.500000
O O11 0.167836 0.089611 0.540689
O O12 0.380029 0.000000 0.617476
O O13 0.206847 0.000000 0.169421
O O14 0.232707 0.136863 0.115027
O O15 0.500000 0.659998 0.000000
O O16 0.250000 0.750000 0.000000
#
# Coordination Sequence:
#
# PCOD9182135 Si02
#       7
#     8   8   8   8   8   8   4
#     4  10  22  35  56  81 108 149 184 232 288 334
#     4   9  17  32  55  81 107 143 187 229 275 331
#     4  10  21  35  55  79 112 144 185 232 282 338
#     4  10  22  38  59  85 114 151 193 242 292 341
#     4   9  18  34  54  81 110 140 186 234 275 329
#     4  10  19  32  56  83 110 144 180 225 277 334
#     4  10  23  38  60  84 113 156 196 242 289 346
#
# _framework density 22.950095999999998
#
# number of rings (size 3 to 8) (size 9 to 14) (size 15 to 20)
#    0.000    2.308    0.000    2.077    3.231    7.385 
#    0.000    0.000    0.000    3.692    0.000    0.000 
#    0.000    0.000    0.000    0.000    0.000    0.000 
#
# Total GULP energy -145197.442587 kJ/mol
# GULP energy per Si atom -5584.517023 kJ/mol
# Density = 2.289786 g / cm^3
# Si number density = 22.950096 Si / 1000 Ang^3
#
#
#
# Elastic Constant Matrix: (Units=GPa)
#
#
# Indices 1 2 3 4 5 6 
#
# 1 54.3210 -0.4581 18.6618 0.0000 8.8792 0.0000
# 2 -0.4581 139.6428 60.3486 0.0000 -19.4873 0.0000
# 3 18.6618 60.3486 133.4528 0.0000 -27.9132 0.0000
# 4 0.0000 0.0000 0.0000 42.8477 0.0000 -6.8261
# 5 8.8792 -19.4873 -27.9132 0.0000 25.5680 0.0000
# 6 0.0000 0.0000 0.0000 -6.8261 0.0000 16.0160
#
#
#
# Elastic Compliance Matrix: (Units=1/GPa)
#
#
# Indices 1 2 3 4 5 6 
#
# 1 0.023122 0.000936 -0.006722 0.000000 -0.014655 0.000000
# 2 0.000936 0.009132 -0.003723 0.000000 0.002571 0.000000
# 3 -0.006722 -0.003723 0.012974 0.000000 0.013661 0.000000
# 4 0.000000 0.000000 0.000000 0.025039 0.000000 0.010672
# 5 -0.014655 0.002571 0.013661 0.000000 0.061075 0.000000
# 6 0.000000 0.000000 0.000000 0.010672 0.000000 0.066986
#
#
# Mechanical properties :
#
#
# Convention : Reuss Voigt Hill
#
# Bulk Modulus (GPa) = 38.15295 53.83570 45.99433
# Shear Modulus (GPa) = 22.11608 33.47729 27.79668
#
# Velocity S-wave (km/s) = 3.10765 3.82344 3.48398
# Velocity P-wave (km/s) = 5.43480 6.55745 6.02234
#
# Compressibility (1/GPa) = 0.02621029
#
# Stress axis : x y z
#
# Youngs Moduli (GPa) = 43.24968 109.50820 77.07767
#
# Poissons Ratio (x) = -0.10245 0.51808
# Poissons Ratio (y) = -0.04046 0.28692
# Poissons Ratio (z) = 0.29070 0.40764
#
# Static dielectric constant tensor:
#      x y z
#    x 1.889600 0.000000 -0.006780 
#    y 0.000000 -0.104560 0.000000 
#    z -0.006780 0.000000 1.966090 
# 
# From -- ./inp_files/197067.got.cif
#   From: 2010.05.17/outbox.cif.g08.bks.cpg/sg12_99_cif.got.tgz:197067.got - 2010.06.03 13:09:07.
