data_PCOD9182895
_publ_section_title
;
Structure prediction by ZEFSAII (Michael W. Deem and Ramdas Pophale) SiO2 
 PCOD9182895
Probable space group: C 2/M
;
_chemical_formula_sum "Si O2"
_cell_formula_units_Z 56
_cell_length_a 19.423784
_cell_length_b 13.844720
_cell_length_c 17.876846
_cell_angle_alpha 90.000000
_cell_angle_beta 140.761344
_cell_angle_gamma 90.000000
_cell_volume 3040.921049
_symmetry_space_group_name_H-M "C 2/M"
_symmetry_group_IT_number 12
_symmetry_cell_setting 'monoclinic'
loop_
_space_group_symop_operation_xyz
x,y,z
-x,y,-z
-x,-y,-z
x,-y,z
1/2+x,1/2+y,z
1/2-x,1/2+y,-z
1/2-x,1/2-y,-z
1/2+x,1/2-y,z
loop_
_atom_site_type_symbol
_atom_site_label
_atom_site_fract_x
_atom_site_fract_y
_atom_site_fract_z
Si Si1 0.826736 0.611052 0.050800
Si Si2 0.803765 0.278785 0.623153
Si Si3 0.340218 0.302385 0.981323
Si Si4 0.070285 0.108607 0.190546
Si Si5 0.906114 0.270762 0.471737
Si Si6 0.033394 0.609546 0.330210
Si Si7 0.730252 0.892404 0.754367
O O1 0.822280 0.500000 0.022459
O O2 0.713439 0.645860 0.991722
O O3 0.917470 0.618573 0.192239
O O4 0.855364 0.690005 0.012394
O O5 0.750000 0.250000 0.500000
O O6 0.880648 0.190179 0.713647
O O7 0.702980 0.288443 0.596239
O O8 0.880301 0.366914 0.663443
O O9 0.257574 0.320389 0.844169
O O10 0.454453 0.354826 0.063908
O O11 0.158709 0.102917 0.199479
O O12 0.060906 0.000000 0.214987
O O13 0.139226 0.354905 0.621051
O O14 0.000000 0.222037 0.500000
O O15 0.951275 0.318454 0.586592
O O16 0.049798 0.500000 0.370620
O O17 0.704900 0.000000 0.761855
#
# Coordination Sequence:
#
# PCOD9182895 Si02
#       7
#     8   8   8   8   8   8   8
#     4  10  21  34  53  80 107 141 183 222 261 312
#     4   9  19  34  51  77 109 141 184 218 265 328
#     4  11  20  33  53  77 113 142 174 217 267 322
#     4  10  19  33  53  78 108 140 175 218 272 329
#     4  10  20  33  54  82 112 142 175 228 287 332
#     4  10  19  35  57  80 110 144 182 225 272 329
#     4  10  20  32  50  80 110 139 174 216 271 334
#
# _framework density 18.415472999999999
#
# number of rings (size 3 to 8) (size 9 to 14) (size 15 to 20)
#    0.000    2.000    1.429    3.000    0.000    6.857 
#    0.000    0.000    0.000    5.571    0.000    0.000 
#    0.000    0.000    0.000    0.000    0.000    0.000 
#
# Total GULP energy -156035.223646 kJ/mol
# GULP energy per Si atom -5572.686559 kJ/mol
# Density = 1.837356 g / cm^3
# Si number density = 18.415473 Si / 1000 Ang^3
#
#
#
# Elastic Constant Matrix: (Units=GPa)
#
#
# Indices 1 2 3 4 5 6 
#
# 1 75.7279 15.9378 7.5303 0.0000 16.1008 0.0000
# 2 15.9378 52.9780 23.3495 0.0000 -3.1908 0.0000
# 3 7.5303 23.3495 54.2198 0.0000 -6.3277 0.0000
# 4 0.0000 0.0000 0.0000 11.8238 0.0000 -6.8771
# 5 16.1008 -3.1908 -6.3277 0.0000 34.8000 0.0000
# 6 0.0000 0.0000 0.0000 -6.8771 0.0000 15.0860
#
#
#
# Elastic Compliance Matrix: (Units=1/GPa)
#
#
# Indices 1 2 3 4 5 6 
#
# 1 0.016045 -0.004833 -0.001088 0.000000 -0.008065 0.000000
# 2 -0.004833 0.024757 -0.009670 0.000000 0.002748 0.000000
# 3 -0.001088 -0.009670 0.023206 0.000000 0.003837 0.000000
# 4 0.000000 0.000000 0.000000 0.115091 0.000000 0.052466
# 5 -0.008065 0.002748 0.003837 0.000000 0.033416 0.000000
# 6 0.000000 0.000000 0.000000 0.052466 0.000000 0.090204
#
#
# Mechanical properties :
#
#
# Convention : Reuss Voigt Hill
#
# Bulk Modulus (GPa) = 30.46282 30.72896 30.59589
# Shear Modulus (GPa) = 14.49929 21.41582 17.95755
#
# Velocity S-wave (km/s) = 2.80901 3.41387 3.12610
# Velocity P-wave (km/s) = 5.20563 5.67997 5.44796
#
# Compressibility (1/GPa) = 0.03282691
#
# Stress axis : x y z
#
# Youngs Moduli (GPa) = 62.32389 40.39263 43.09140
#
# Poissons Ratio (x) = 0.19522 0.04690
# Poissons Ratio (y) = 0.30122 0.41667
# Poissons Ratio (z) = 0.06783 0.39058
#
# Static dielectric constant tensor:
#      x y z
#    x 1.725030 0.000000 0.009750 
#    y 0.000000 1.650400 0.000000 
#    z 0.009750 0.000000 1.661640 
# 
# From -- ./inp_files/277862.got.cif
#   From: 2010.05.17/outbox.cif.g08.bks.cpg/sg12_139_cif.got.tgz:277862.got - 2010.06.03 13:09:07.
