data_PCOD9182825
_publ_section_title
;
Structure prediction by ZEFSAII (Michael W. Deem and Ramdas Pophale) SiO2 
 PCOD9182825
Probable space group: C 2/M
;
_chemical_formula_sum "Si O2"
_cell_formula_units_Z 48
_cell_length_a 16.712258
_cell_length_b 26.839357
_cell_length_c 5.474025
_cell_angle_alpha 90.000000
_cell_angle_beta 126.582937
_cell_angle_gamma 90.000000
_cell_volume 1971.636527
_symmetry_space_group_name_H-M "C 2/M"
_symmetry_group_IT_number 12
_symmetry_cell_setting 'monoclinic'
loop_
_space_group_symop_operation_xyz
x,y,z
-x,y,-z
-x,-y,-z
x,-y,z
1/2+x,1/2+y,z
1/2-x,1/2+y,-z
1/2-x,1/2-y,-z
1/2+x,1/2-y,z
loop_
_atom_site_type_symbol
_atom_site_label
_atom_site_fract_x
_atom_site_fract_y
_atom_site_fract_z
Si Si1 0.650583 0.134913 0.849191
Si Si2 0.119681 0.747856 0.719388
Si Si3 0.880368 0.194093 0.780217
Si Si4 0.325331 0.445426 0.165459
Si Si5 0.898164 0.411893 0.742922
Si Si6 0.330177 0.419688 0.672413
O O1 0.663126 0.192709 0.819450
O O2 0.593428 0.111921 0.510663
O O3 0.749366 0.100990 0.030842
O O4 0.607483 0.127790 0.043687
O O5 0.145249 0.775245 0.511668
O O6 0.000000 0.741581 0.500000
O O7 0.142693 0.777881 0.009212
O O8 0.830227 0.140111 0.678664
O O9 0.000000 0.186046 0.000000
O O10 0.276251 0.500000 0.077878
O O11 0.380924 0.438870 0.520182
O O12 0.378928 0.439389 0.006960
O O13 0.787534 0.436618 0.544420
O O14 0.000000 0.440620 0.000000
#
# Coordination Sequence:
#
# PCOD9182825 Si02
#       6
#     8   8   8   8   8   8
#     4  10  20  34  56  81 109 150 195 234 278 337
#     4  10  19  33  55  82 117 156 187 226 285 344
#     4  10  21  37  58  85 117 152 189 233 287 344
#     4  10  21  39  61  83 112 152 191 237 295 339
#     4  10  19  33  53  76 107 146 187 231 279 327
#     4  10  21  38  60  85 111 149 192 237 289 343
#
# _framework density 24.345255999999999
#
# number of rings (size 3 to 8) (size 9 to 14) (size 15 to 20)
#    0.000    2.000    0.000    4.000    0.000    1.333 
#    0.000   20.000    0.000   59.500    0.000    0.000 
#    0.000    0.000    0.000    0.000    0.000    0.000 
#
# Total GULP energy -134045.462843 kJ/mol
# GULP energy per Si atom -5585.227618 kJ/mol
# Density = 2.428984 g / cm^3
# Si number density = 24.345256 Si / 1000 Ang^3
#
#
#
# Elastic Constant Matrix: (Units=GPa)
#
#
# Indices 1 2 3 4 5 6 
#
# 1 81.0519 26.8519 87.7625 0.0000 -15.5362 0.0000
# 2 26.8519 156.4109 47.4706 0.0000 -21.3185 0.0000
# 3 87.7625 47.4706 159.9507 0.0000 -51.9430 0.0000
# 4 0.0000 0.0000 0.0000 41.9692 0.0000 18.6640
# 5 -15.5362 -21.3185 -51.9430 0.0000 77.6594 0.0000
# 6 0.0000 0.0000 0.0000 18.6640 0.0000 27.3238
#
#
#
# Elastic Compliance Matrix: (Units=1/GPa)
#
#
# Indices 1 2 3 4 5 6 
#
# 1 0.033219 -0.000484 -0.020399 0.000000 -0.007131 0.000000
# 2 -0.000484 0.007062 -0.001574 0.000000 0.000789 0.000000
# 3 -0.020399 -0.001574 0.021010 0.000000 0.009539 0.000000
# 4 0.000000 0.000000 0.000000 0.034223 0.000000 -0.023376
# 5 -0.007131 0.000789 0.009539 0.000000 0.018047 0.000000
# 6 0.000000 0.000000 0.000000 -0.023376 0.000000 0.052566
#
#
# Mechanical properties :
#
#
# Convention : Reuss Voigt Hill
#
# Bulk Modulus (GPa) = 61.06335 80.17593 70.61964
# Shear Modulus (GPa) = 23.09484 45.07903 34.08694
#
# Velocity S-wave (km/s) = 3.08334 4.30776 3.74591
# Velocity P-wave (km/s) = 6.14920 7.59913 6.91229
#
# Compressibility (1/GPa) = 0.01637644
#
# Stress axis : x y z
#
# Youngs Moduli (GPa) = 30.10325 141.60788 47.59737
#
# Poissons Ratio (x) = 0.06851 0.97094
# Poissons Ratio (y) = 0.01456 0.07493
# Poissons Ratio (z) = 0.61408 0.22292
#
# Static dielectric constant tensor:
#      x y z
#    x 2.006410 0.000000 -0.002940 
#    y 0.000000 1.860830 0.000000 
#    z -0.002940 0.000000 1.991170 
# 
# From -- ./inp_files/21987.got.cif
#   From: 2010.05.17/outbox.cif.g08.bks.cpg/sg12_11_cif.got.tgz:21987.got - 2010.06.03 13:09:07.
