data_PCOD9182798
_publ_section_title
;
Structure prediction by ZEFSAII (Michael W. Deem and Ramdas Pophale) SiO2 
 PCOD9182798
Probable space group: C 2/M
;
_chemical_formula_sum "Si O2"
_cell_formula_units_Z 60
_cell_length_a 27.617865
_cell_length_b 9.951771
_cell_length_c 28.201320
_cell_angle_alpha 90.000000
_cell_angle_beta 152.002132
_cell_angle_gamma 90.000000
_cell_volume 3638.637653
_symmetry_space_group_name_H-M "C 2/M"
_symmetry_group_IT_number 12
_symmetry_cell_setting 'monoclinic'
loop_
_space_group_symop_operation_xyz
x,y,z
-x,y,-z
-x,-y,-z
x,-y,z
1/2+x,1/2+y,z
1/2-x,1/2+y,-z
1/2-x,1/2-y,-z
1/2+x,1/2-y,z
loop_
_atom_site_type_symbol
_atom_site_label
_atom_site_fract_x
_atom_site_fract_y
_atom_site_fract_z
Si Si1 0.058179 0.156930 0.999930
Si Si2 0.119714 0.656799 0.425508
Si Si3 0.000000 0.256029 0.500000
Si Si4 0.058312 0.347237 0.653063
Si Si5 0.117551 0.841369 0.230002
Si Si6 0.637009 0.341852 0.352723
Si Si7 0.276069 0.649423 0.318824
Si Si8 0.749176 0.157313 0.183079
O O1 0.976534 0.181337 0.887377
O O2 0.092140 0.000000 0.026889
O O3 0.152469 0.260027 0.079611
O O4 0.000000 0.173361 0.000000
O O5 0.110521 0.500000 0.403917
O O6 0.238885 0.678809 0.543094
O O7 0.097632 0.751722 0.361749
O O8 0.041646 0.680457 0.401187
O O9 0.970809 0.337558 0.427632
O O10 0.898776 0.170780 0.425354
O O11 0.093876 0.500000 0.693658
O O12 0.146641 0.237914 0.739242
O O13 0.092390 0.806975 0.262594
O O14 0.215369 0.758672 0.296394
O O15 0.142747 0.000000 0.250676
O O16 0.619362 0.500000 0.346833
O O17 0.250202 0.500000 0.313321
O O18 0.242779 0.661959 0.235022
O O19 0.751477 0.000000 0.171445
#
# Coordination Sequence:
#
# PCOD9182798 Si02
#       8
#     8   8   4   8   8   8   8   8
#     4  10  19  33  53  76 101 134 171 212 257 304
#     4   9  18  33  52  75 103 134 169 206 248 299
#     4  10  20  32  48  74 104 136 170 206 244 298
#     4  10  20  34  53  75 101 136 173 210 250 301
#     4  10  20  33  52  76 102 130 169 215 255 300
#     4   9  18  33  52  76 103 132 167 209 255 300
#     4  10  20  32  46  68 102 139 170 203 247 298
#     4  10  21  34  49  72 103 137 171 206 249 306
#
# _framework density 16.489688000000001
#
# number of rings (size 3 to 8) (size 9 to 14) (size 15 to 20)
#    0.000    2.267    1.333    1.600    0.000    6.133 
#    0.000    2.667    0.000    0.800    0.000    0.000 
#    0.000    0.000    0.000    0.000    0.000    0.000 
#
# Total GULP energy -167297.031522 kJ/mol
# GULP energy per Si atom -5576.567717 kJ/mol
# Density = 1.645216 g / cm^3
# Si number density = 16.489688 Si / 1000 Ang^3
#
#
#
# Elastic Constant Matrix: (Units=GPa)
#
#
# Indices 1 2 3 4 5 6 
#
# 1 81.1412 49.6415 33.7225 0.0000 -4.0156 0.0000
# 2 49.6415 84.6982 49.1366 0.0000 4.1159 0.0000
# 3 33.7225 49.1366 74.6702 0.0000 -7.0595 0.0000
# 4 0.0000 0.0000 0.0000 17.1202 0.0000 -2.6698
# 5 -4.0156 4.1159 -7.0595 0.0000 24.3817 0.0000
# 6 0.0000 0.0000 0.0000 -2.6698 0.0000 13.0566
#
#
#
# Elastic Compliance Matrix: (Units=1/GPa)
#
#
# Indices 1 2 3 4 5 6 
#
# 1 0.019920 -0.011255 -0.001131 0.000000 0.004853 0.000000
# 2 -0.011255 0.026714 -0.013467 0.000000 -0.010262 0.000000
# 3 -0.001131 -0.013467 0.023608 0.000000 0.008923 0.000000
# 4 0.000000 0.000000 0.000000 0.060335 0.000000 0.012337
# 5 0.004853 -0.010262 0.008923 0.000000 0.046130 0.000000
# 6 0.000000 0.000000 0.000000 0.012337 0.000000 0.079112
#
#
# Mechanical properties :
#
#
# Convention : Reuss Voigt Hill
#
# Bulk Modulus (GPa) = 53.94500 56.16785 55.05643
# Shear Modulus (GPa) = 15.93861 18.11228 17.02545
#
# Velocity S-wave (km/s) = 3.11236 3.31781 3.21672
# Velocity P-wave (km/s) = 6.76026 6.98667 6.87439
#
# Compressibility (1/GPa) = 0.01853740
#
# Stress axis : x y z
#
# Youngs Moduli (GPa) = 50.20065 37.43329 42.35766
#
# Poissons Ratio (x) = 0.42130 0.04792
# Poissons Ratio (y) = 0.56499 0.57042
# Poissons Ratio (z) = 0.05680 0.50410
#
# Static dielectric constant tensor:
#      x y z
#    x 1.526040 0.000000 -0.007290 
#    y 0.000000 1.559010 0.000000 
#    z -0.007290 0.000000 1.550710 
# 
# From -- ./inp_files/368914.got.cif
#   From: 2010.05.17/outbox.cif.g08.bks.cpg/sg12_185_cif.got.tgz:368914.got - 2010.06.03 13:09:07.
