data_PCOD9182908
_publ_section_title
;
Structure prediction by ZEFSAII (Michael W. Deem and Ramdas Pophale) SiO2 
 PCOD9182908
Probable space group: C 2/M
;
_chemical_formula_sum "Si O2"
_cell_formula_units_Z 48
_cell_length_a 13.464058
_cell_length_b 11.480766
_cell_length_c 13.617576
_cell_angle_alpha 90.000000
_cell_angle_beta 118.998210
_cell_angle_gamma 90.000000
_cell_volume 1841.083247
_symmetry_space_group_name_H-M "C 2/M"
_symmetry_group_IT_number 12
_symmetry_cell_setting 'monoclinic'
loop_
_space_group_symop_operation_xyz
x,y,z
-x,y,-z
-x,-y,-z
x,-y,z
1/2+x,1/2+y,z
1/2-x,1/2+y,-z
1/2-x,1/2-y,-z
1/2+x,1/2-y,z
loop_
_atom_site_type_symbol
_atom_site_label
_atom_site_fract_x
_atom_site_fract_y
_atom_site_fract_z
Si Si1 0.500804 0.127376 0.705715
Si Si2 0.019366 0.131821 0.116885
Si Si3 0.051020 0.871908 0.416377
Si Si4 0.183261 0.761985 0.867780
Si Si5 0.270660 0.132188 0.714367
Si Si6 0.258190 0.626589 0.642552
O O1 0.482661 0.240407 0.630810
O O2 0.631918 0.140506 0.803248
O O3 0.402775 0.133745 0.743566
O O4 0.483137 0.000000 0.652043
O O5 0.934370 0.180164 0.156221
O O6 0.144108 0.130104 0.224621
O O7 0.981876 0.000000 0.085743
O O8 0.000000 0.188914 0.000000
O O9 0.000000 0.880872 0.500000
O O10 0.178833 0.875135 0.432606
O O11 0.009994 0.000000 0.352483
O O12 0.247946 0.837561 0.817454
O O13 0.250000 0.750000 0.000000
O O14 0.210008 0.242951 0.632435
O O15 0.231379 0.000000 0.673601
O O16 0.199701 0.500000 0.623517
#
# Coordination Sequence:
#
# PCOD9182908 Si02
#       6
#     8   8   8   8   8   8
#     4  10  23  42  60  87 130 165 200 259 320 370
#     4  10  19  33  53  78 111 153 197 242 294 353
#     4   9  17  33  63  96 120 155 208 256 309 376
#     4  12  24  35  58  85 121 163 215 249 303 363
#     4  10  21  38  59  85 118 159 204 252 305 363
#     4   9  17  34  58  82 115 154 190 243 302 355
#
# _framework density 26.071608999999999
#
# number of rings (size 3 to 8) (size 9 to 14) (size 15 to 20)
#    0.000    2.000    3.333    1.500    0.000    3.000 
#    0.000    1.667    0.000    4.000    0.000    2.333 
#    0.000    0.000    0.000    0.000    0.000    0.000 
#
# Total GULP energy -133780.181316 kJ/mol
# GULP energy per Si atom -5574.174221 kJ/mol
# Density = 2.601227 g / cm^3
# Si number density = 26.071609 Si / 1000 Ang^3
#
#
#
# Elastic Constant Matrix: (Units=GPa)
#
#
# Indices 1 2 3 4 5 6 
#
# 1 149.1031 37.8990 34.4635 0.0000 -30.8130 0.0000
# 2 37.8990 273.9056 49.6088 0.0000 -18.4485 0.0000
# 3 34.4635 49.6088 107.4220 0.0000 -33.4210 0.0000
# 4 0.0000 0.0000 0.0000 27.4181 0.0000 -6.0089
# 5 -30.8130 -18.4485 -33.4210 0.0000 47.2725 0.0000
# 6 0.0000 0.0000 0.0000 -6.0089 0.0000 18.6263
#
#
#
# Elastic Compliance Matrix: (Units=1/GPa)
#
#
# Indices 1 2 3 4 5 6 
#
# 1 0.007971 -0.000647 -0.000924 0.000000 0.004290 0.000000
# 2 -0.000647 0.004041 -0.001665 0.000000 -0.000022 0.000000
# 3 -0.000924 -0.001665 0.012801 0.000000 0.007798 0.000000
# 4 0.000000 0.000000 0.000000 0.039247 0.000000 0.012661
# 5 0.004290 -0.000022 0.007798 0.000000 0.029455 0.000000
# 6 0.000000 0.000000 0.000000 0.012661 0.000000 0.057772
#
#
# Mechanical properties :
#
#
# Convention : Reuss Voigt Hill
#
# Bulk Modulus (GPa) = 54.52430 86.04148 70.28289
# Shear Modulus (GPa) = 30.51172 45.89402 38.20287
#
# Velocity S-wave (km/s) = 3.42468 4.20015 3.83208
# Velocity P-wave (km/s) = 6.04951 7.52299 6.82612
#
# Compressibility (1/GPa) = 0.01834045
#
# Stress axis : x y z
#
# Youngs Moduli (GPa) = 125.45006 247.49393 78.12134
#
# Poissons Ratio (x) = 0.16004 0.07218
# Poissons Ratio (y) = 0.08112 0.13010
# Poissons Ratio (z) = 0.11591 0.41216
#
# Static dielectric constant tensor:
#      x y z
#    x 2.074210 0.000000 0.109390 
#    y 0.000000 2.094900 0.000000 
#    z 0.109390 0.000000 2.340990 
# 
# From -- ./inp_files/212831.got.cif
#   From: 2010.05.17/outbox.cif.g08.bks.cpg/sg12_107_cif.got.tgz:212831.got - 2010.06.03 13:09:07.
