data_PCOD9182440
_publ_section_title
;
Structure prediction by ZEFSAII (Michael W. Deem and Ramdas Pophale) SiO2 
 PCOD9182440
Probable space group: C 2/M
;
_chemical_formula_sum "Si O2"
_cell_formula_units_Z 48
_cell_length_a 24.643272
_cell_length_b 7.386184
_cell_length_c 16.718441
_cell_angle_alpha 90.000000
_cell_angle_beta 144.115857
_cell_angle_gamma 90.000000
_cell_volume 1783.699408
_symmetry_space_group_name_H-M "C 2/M"
_symmetry_group_IT_number 12
_symmetry_cell_setting 'monoclinic'
loop_
_space_group_symop_operation_xyz
x,y,z
-x,y,-z
-x,-y,-z
x,-y,z
1/2+x,1/2+y,z
1/2-x,1/2+y,-z
1/2-x,1/2-y,-z
1/2+x,1/2-y,z
loop_
_atom_site_type_symbol
_atom_site_label
_atom_site_fract_x
_atom_site_fract_y
_atom_site_fract_z
Si Si1 0.803996 0.221821 0.229233
Si Si2 0.846944 0.294220 0.531603
Si Si3 0.480596 0.705386 0.362376
Si Si4 0.959311 0.278999 0.821302
Si Si5 0.868171 0.718904 0.070135
Si Si6 0.815337 0.296718 0.766647
O O1 0.909345 0.282562 0.342737
O O2 0.747838 0.285698 0.239574
O O3 0.808578 0.000000 0.236844
O O4 0.735539 0.274013 0.075113
O O5 0.819020 0.500000 0.513552
O O6 0.898071 0.221906 0.671323
O O7 0.757010 0.193562 0.393344
O O8 0.925843 0.293822 0.556965
O O9 0.506101 0.500000 0.413893
O O10 0.414458 0.703767 0.204634
O O11 0.956380 0.500000 0.820218
O O12 0.907970 0.215156 0.839792
O O13 0.063901 0.230663 0.923035
O O14 0.871640 0.500000 0.081563
O O15 0.839284 0.500000 0.823287
#
# Coordination Sequence:
#
# PCOD9182440 Si02
#       6
#     8   8   8   8   8   8
#     4   9  19  32  50  75 104 132 163 200 243 290
#     4  10  20  35  52  74  99 128 165 209 250 289
#     4  10  19  33  52  75  98 129 168 206 243 288
#     4   8  16  30  52  76  98 125 163 203 244 288
#     4   9  17  33  53  76 102 129 161 203 244 288
#     4  10  19  33  51  74 101 133 165 199 243 295
#
# _framework density 26.910364999999999
#
# number of rings (size 3 to 8) (size 9 to 14) (size 15 to 20)
#    0.000    2.667    0.000    3.000    0.000    1.333 
#    0.000   13.333    0.000    0.000    0.000    5.833 
#    0.000    0.000    0.000    0.000    0.000    0.000 
#
# Total GULP energy -134265.815586 kJ/mol
# GULP energy per Si atom -5594.408983 kJ/mol
# Density = 2.684912 g / cm^3
# Si number density = 26.910365 Si / 1000 Ang^3
#
#
#
# Elastic Constant Matrix: (Units=GPa)
#
#
# Indices 1 2 3 4 5 6 
#
# 1 168.5171 -3.9596 19.8538 0.0000 36.1881 0.0000
# 2 -3.9596 99.1113 -1.3916 0.0000 -1.6554 0.0000
# 3 19.8538 -1.3916 125.2631 0.0000 14.9676 0.0000
# 4 0.0000 0.0000 0.0000 11.0834 0.0000 0.6586
# 5 36.1881 -1.6554 14.9676 0.0000 38.6489 0.0000
# 6 0.0000 0.0000 0.0000 0.6586 0.0000 -0.6785
#
#
#
# Elastic Compliance Matrix: (Units=1/GPa)
#
#
# Indices 1 2 3 4 5 6 
#
# 1 0.007447 0.000178 -0.000363 0.000000 -0.006824 0.000000
# 2 0.000178 0.010102 0.000055 0.000000 0.000244 0.000000
# 3 -0.000363 0.000055 0.008389 0.000000 -0.002907 0.000000
# 4 0.000000 0.000000 0.000000 0.085304 0.000000 0.082809
# 5 -0.006824 0.000244 -0.002907 0.000000 0.033400 0.000000
# 6 0.000000 0.000000 0.000000 0.082809 0.000000 -1.393530
#
#
# Mechanical properties :
#
#
# Convention : Reuss Voigt Hill
#
# Bulk Modulus (GPa) = 38.94472 46.87740 42.91106
# Shear Modulus (GPa) = -4.03203 35.03670 15.50234
#
# Velocity S-wave (km/s) = -1.22539 3.61221 2.40276
# Velocity P-wave (km/s) = 3.53572 5.90382 4.86602
#
# Compressibility (1/GPa) = 0.02567742
#
# Stress axis : x y z
#
# Youngs Moduli (GPa) = 134.29080 98.99379 119.20908
#
# Poissons Ratio (x) = -0.01766 0.04325
# Poissons Ratio (y) = -0.02396 -0.00653
# Poissons Ratio (z) = 0.04873 -0.00542
#
# Static dielectric constant tensor:
#      x y z
#    x 2.171070 0.000000 -0.047620 
#    y 0.000000 2.044110 0.000000 
#    z -0.047620 0.000000 2.035020 
# 
# From -- ./inp_files/239404.got.cif
#   From: 2010.05.17/outbox.cif.g08.bks.cpg/sg12_120_cif.got.tgz:239404.got - 2010.06.03 13:09:07.
