data_PCOD9182602
_publ_section_title
;
Structure prediction by ZEFSAII (Michael W. Deem and Ramdas Pophale) SiO2 
 PCOD9182602
Probable space group: C 2/M
;
_chemical_formula_sum "Si O2"
_cell_formula_units_Z 56
_cell_length_a 15.395923
_cell_length_b 8.622716
_cell_length_c 24.287529
_cell_angle_alpha 90.000000
_cell_angle_beta 54.359407
_cell_angle_gamma 90.000000
_cell_volume 2620.336482
_symmetry_space_group_name_H-M "C 2/M"
_symmetry_group_IT_number 12
_symmetry_cell_setting 'monoclinic'
loop_
_space_group_symop_operation_xyz
x,y,z
-x,y,-z
-x,-y,-z
x,-y,z
1/2+x,1/2+y,z
1/2-x,1/2+y,-z
1/2-x,1/2-y,-z
1/2+x,1/2-y,z
loop_
_atom_site_type_symbol
_atom_site_label
_atom_site_fract_x
_atom_site_fract_y
_atom_site_fract_z
Si Si1 0.652285 0.319849 0.233641
Si Si2 0.305417 0.310074 0.331600
Si Si3 0.009532 0.176203 0.807167
Si Si4 0.425909 0.182585 0.945856
Si Si5 0.660897 0.814370 0.912247
Si Si6 0.358039 0.685210 0.434295
Si Si7 0.581336 0.183086 0.374415
O O1 0.672710 0.500000 0.243027
O O2 0.557231 0.325099 0.224450
O O3 0.752102 0.253379 0.162370
O O4 0.619976 0.222185 0.298289
O O5 0.308242 0.500000 0.327989
O O6 0.376466 0.253088 0.253480
O O7 0.356594 0.263511 0.370703
O O8 0.181738 0.262427 0.374007
O O9 0.937800 0.250771 0.880892
O O10 0.028728 0.000000 0.818440
O O11 0.544505 0.201953 0.928135
O O12 0.404819 0.000000 0.949340
O O13 0.346412 0.247682 0.022361
O O14 0.682885 0.000000 0.908595
O O15 0.355643 0.500000 0.435798
O O16 0.250000 0.750000 0.500000
O O17 0.465918 0.740616 0.423936
O O18 0.569157 0.000000 0.386630
#
# Coordination Sequence:
#
# PCOD9182602 Si02
#       7
#     8   8   8   8   8   8   8
#     4  10  19  34  55  77 108 152 195 237 290 349
#     4   9  20  39  61  84 119 160 191 228 292 352
#     4  10  19  33  52  76 107 148 190 232 287 350
#     4   9  17  31  49  72 103 140 186 243 295 340
#     4   8  16  31  50  71 101 143 189 236 294 350
#     4  11  23  44  67  91 124 159 191 230 282 342
#     4  11  22  38  62  91 118 152 197 241 284 339
#
# _framework density 21.371300999999999
#
# number of rings (size 3 to 8) (size 9 to 14) (size 15 to 20)
#    0.000    2.286    1.429    2.571    0.000    1.714 
#    0.000    8.571    0.000    0.000    0.000    0.000 
#    0.000    0.000    0.000    0.000    0.000    0.000 
#
# Total GULP energy -156219.690627 kJ/mol
# GULP energy per Si atom -5579.274665 kJ/mol
# Density = 2.132266 g / cm^3
# Si number density = 21.371301 Si / 1000 Ang^3
#
#
#
# Elastic Constant Matrix: (Units=GPa)
#
#
# Indices 1 2 3 4 5 6 
#
# 1 38.9754 6.0461 -14.6848 0.0000 -15.6639 0.0000
# 2 6.0461 18.7670 -0.0181 0.0000 -5.4530 0.0000
# 3 -14.6848 -0.0181 57.5933 0.0000 -23.9289 0.0000
# 4 0.0000 0.0000 0.0000 18.2083 0.0000 -6.5008
# 5 -15.6639 -5.4530 -23.9289 0.0000 38.2035 0.0000
# 6 0.0000 0.0000 0.0000 -6.5008 0.0000 15.3127
#
#
#
# Elastic Compliance Matrix: (Units=1/GPa)
#
#
# Indices 1 2 3 4 5 6 
#
# 1 0.054708 -0.005671 0.030997 0.000000 0.041037 0.000000
# 2 -0.005671 0.057047 0.001337 0.000000 0.006655 0.000000
# 3 0.030997 0.001337 0.041401 0.000000 0.038832 0.000000
# 4 0.000000 0.000000 0.000000 0.064731 0.000000 0.027481
# 5 0.041037 0.006655 0.038832 0.000000 0.068273 0.000000
# 6 0.000000 0.000000 0.000000 0.027481 0.000000 0.076972
#
#
# Mechanical properties :
#
#
# Convention : Reuss Voigt Hill
#
# Bulk Modulus (GPa) = 4.84304 10.89132 7.86718
# Shear Modulus (GPa) = 13.20536 22.61107 17.90821
#
# Velocity S-wave (km/s) = 2.48846 3.25624 2.89789
# Velocity P-wave (km/s) = 3.24463 4.38688 3.85826
#
# Compressibility (1/GPa) = 0.20648175
#
# Stress axis : x y z
#
# Youngs Moduli (GPa) = 18.27878 17.52940 24.15407
#
# Poissons Ratio (x) = 0.09942 -0.74871
# Poissons Ratio (y) = 0.10367 -0.03229
# Poissons Ratio (z) = -0.56659 -0.02343
#
# Static dielectric constant tensor:
#      x y z
#    x 1.802790 0.000000 -0.020180 
#    y 0.000000 1.750640 0.000000 
#    z -0.020180 0.000000 1.805030 
# 
# From -- ./inp_files/338486.got.cif
#   From: 2010.05.17/outbox.cif.g08.bks.cpg/sg12_170_cif.got.tgz:338486.got - 2010.06.03 13:09:07.
