data_PCOD9182047
_publ_section_title
;
Structure prediction by ZEFSAII (Michael W. Deem and Ramdas Pophale) SiO2 
 PCOD9182047
Probable space group: C 2/M
;
_chemical_formula_sum "Si O2"
_cell_formula_units_Z 64
_cell_length_a 15.393128
_cell_length_b 9.197356
_cell_length_c 33.003529
_cell_angle_alpha 90.000000
_cell_angle_beta 132.699782
_cell_angle_gamma 90.000000
_cell_volume 3433.907999
_symmetry_space_group_name_H-M "C 2/M"
_symmetry_group_IT_number 12
_symmetry_cell_setting 'monoclinic'
loop_
_space_group_symop_operation_xyz
x,y,z
-x,y,-z
-x,-y,-z
x,-y,z
1/2+x,1/2+y,z
1/2-x,1/2+y,-z
1/2-x,1/2-y,-z
1/2+x,1/2-y,z
loop_
_atom_site_type_symbol
_atom_site_label
_atom_site_fract_x
_atom_site_fract_y
_atom_site_fract_z
Si Si1 0.289363 0.828468 0.952283
Si Si2 0.433118 0.668517 0.552481
Si Si3 0.160207 0.826404 0.675784
Si Si4 0.939385 0.172422 0.067639
Si Si5 0.121325 0.325484 0.748609
Si Si6 0.347606 0.172213 0.669742
Si Si7 0.315809 0.173538 0.864952
Si Si8 0.269941 0.168001 0.442530
O O1 0.156662 0.802769 0.927039
O O2 0.303764 0.799691 0.909379
O O3 0.316172 0.000000 0.967922
O O4 0.376307 0.732330 0.007081
O O5 0.443666 0.500000 0.543668
O O6 0.556133 0.715064 0.611403
O O7 0.383163 0.759222 0.499314
O O8 0.335499 0.677771 0.557457
O O9 0.149669 0.735276 0.713045
O O10 0.283173 0.802401 0.691864
O O11 0.146041 0.000000 0.679695
O O12 0.061158 0.257974 0.111259
O O13 0.960879 0.000000 0.071460
O O14 0.133668 0.500000 0.754152
O O15 0.208755 0.249321 0.807688
O O16 0.984673 0.286647 0.713835
O O17 0.277153 0.252910 0.612095
O O18 0.340445 0.000000 0.658851
O O19 0.314548 0.000000 0.858055
O O20 0.292556 0.000000 0.441238
#
# Coordination Sequence:
#
# PCOD9182047 Si02
#       8
#     8   8   8   8   8   8   8   8
#     4   9  20  38  59  87 123 160 193 228 281 341
#     4   9  18  33  55  81 111 147 184 225 278 343
#     4  10  21  40  62  83 109 148 191 229 282 348
#     4  10  20  36  60  91 124 154 191 239 284 328
#     4  11  24  41  59  83 113 145 188 243 290 330
#     4  10  22  39  60  83 111 146 186 234 287 342
#     4  11  23  39  60  83 114 157 197 234 279 340
#     4  10  19  32  55  84 113 146 184 228 280 339
#
# _framework density 18.637656
#
# number of rings (size 3 to 8) (size 9 to 14) (size 15 to 20)
#    0.000    2.000    1.250    1.875    0.000    6.500 
#    0.000    5.000    0.000    0.000    0.000    0.000 
#    0.000    0.000    0.000    0.000    0.000    0.000 
#
# Total GULP energy -178768.364279 kJ/mol
# GULP energy per Si atom -5586.511384 kJ/mol
# Density = 1.859524 g / cm^3
# Si number density = 18.637656 Si / 1000 Ang^3
#
#
#
# Elastic Constant Matrix: (Units=GPa)
#
#
# Indices 1 2 3 4 5 6 
#
# 1 38.4235 28.9595 12.3945 0.0000 -19.7694 0.0000
# 2 28.9595 45.5535 22.6035 0.0000 -9.1238 0.0000
# 3 12.3945 22.6035 41.2823 0.0000 -10.7027 0.0000
# 4 0.0000 0.0000 0.0000 38.2168 0.0000 -1.5291
# 5 -19.7694 -9.1238 -10.7027 0.0000 -31.7031 0.0000
# 6 0.0000 0.0000 0.0000 -1.5291 0.0000 21.7095
#
#
#
# Elastic Compliance Matrix: (Units=1/GPa)
#
#
# Indices 1 2 3 4 5 6 
#
# 1 0.038728 -0.027456 -0.000742 0.000000 -0.015998 0.000000
# 2 -0.027456 0.049328 -0.016558 0.000000 0.008515 0.000000
# 3 -0.000742 -0.016558 0.032062 0.000000 -0.005596 0.000000
# 4 0.000000 0.000000 0.000000 0.026240 0.000000 0.001848
# 5 -0.015998 0.008515 -0.005596 0.000000 -0.022128 0.000000
# 6 0.000000 0.000000 0.000000 0.001848 0.000000 0.046193
#
#
# Mechanical properties :
#
#
# Convention : Reuss Voigt Hill
#
# Bulk Modulus (GPa) = 32.67404 28.13048 30.40226
# Shear Modulus (GPa) = 18.50915 9.73142 14.12028
#
# Velocity S-wave (km/s) = 3.15478 2.28751 2.75548
# Velocity P-wave (km/s) = 5.55332 4.70139 5.14502
#
# Compressibility (1/GPa) = 0.03060534
#
# Stress axis : x y z
#
# Youngs Moduli (GPa) = 25.82139 20.27231 31.19001
#
# Poissons Ratio (x) = 0.55660 0.02313
# Poissons Ratio (y) = 0.70896 0.51645
# Poissons Ratio (z) = 0.01915 0.33567
#
# Static dielectric constant tensor:
#      x y z
#    x 1.658040 0.000000 0.010310 
#    y 0.000000 1.624770 0.000000 
#    z 0.010310 0.000000 1.604000 
# 
# From -- ./inp_files/375624.got.cif
#   From: 2010.05.17/outbox.cif.g08.bks.cpg/sg12_188_cif.got.tgz:375624.got - 2010.06.03 13:09:07.
