data_PCOD9182753
_publ_section_title
;
Structure prediction by ZEFSAII (Michael W. Deem and Ramdas Pophale) SiO2 
 PCOD9182753
Probable space group: C 2/M
;
_chemical_formula_sum "Si O2"
_cell_formula_units_Z 56
_cell_length_a 19.947517
_cell_length_b 7.524516
_cell_length_c 18.639729
_cell_angle_alpha 90.000000
_cell_angle_beta 115.310393
_cell_angle_gamma 90.000000
_cell_volume 2529.168987
_symmetry_space_group_name_H-M "C 2/M"
_symmetry_group_IT_number 12
_symmetry_cell_setting 'monoclinic'
loop_
_space_group_symop_operation_xyz
x,y,z
-x,y,-z
-x,-y,-z
x,-y,z
1/2+x,1/2+y,z
1/2-x,1/2+y,-z
1/2-x,1/2-y,-z
1/2+x,1/2-y,z
loop_
_atom_site_type_symbol
_atom_site_label
_atom_site_fract_x
_atom_site_fract_y
_atom_site_fract_z
Si Si1 0.120411 0.297790 0.584495
Si Si2 0.438243 0.710590 0.134170
Si Si3 0.589684 0.707442 0.029969
Si Si4 0.411280 0.782275 0.583008
Si Si5 0.784267 0.294190 0.627224
Si Si6 0.431822 0.213690 0.288151
Si Si7 0.107289 0.216884 0.193863
O O1 0.091608 0.500000 0.576031
O O2 0.082762 0.219289 0.496181
O O3 0.207049 0.300500 0.605257
O O4 0.108780 0.220438 0.658342
O O5 0.444286 0.500000 0.124518
O O6 0.404080 0.734083 0.196919
O O7 0.523471 0.777120 0.174532
O O8 0.398260 0.783234 0.044292
O O9 0.611654 0.500000 0.038999
O O10 0.622681 0.779197 0.119284
O O11 0.500000 0.714097 0.000000
O O12 0.335725 0.723355 0.586533
O O13 0.482804 0.728613 0.661313
O O14 0.409569 0.000000 0.581839
O O15 0.767075 0.500000 0.604979
O O16 0.835001 0.281799 0.721239
O O17 0.429347 0.000000 0.286550
O O18 0.108569 0.000000 0.195625
#
# Coordination Sequence:
#
# PCOD9182753 Si02
#       7
#     8   8   8   8   8   8   8
#     4  10  21  36  53  71  96 136 176 203 238 298
#     4   9  16  28  49  76 103 130 161 201 247 292
#     4   7  12  24  44  71 100 128 160 198 238 286
#     4   9  18  34  54  74  96 128 169 209 249 292
#     4  11  21  33  51  75 105 131 159 210 259 292
#     4  10  19  33  53  75 101 131 166 207 247 293
#     4   9  16  29  50  74 100 132 168 199 236 296
#
# _framework density 22.141659000000001
#
# number of rings (size 3 to 8) (size 9 to 14) (size 15 to 20)
#    0.000    2.714    1.429    3.000    0.000    2.286 
#    0.000    2.143    0.000    5.143    0.000    0.000 
#    0.000    0.000    0.000    0.000    0.000    0.000 
#
# Total GULP energy -156172.730651 kJ/mol
# GULP energy per Si atom -5577.597523 kJ/mol
# Density = 2.209126 g / cm^3
# Si number density = 22.141659 Si / 1000 Ang^3
#
#
#
# Elastic Constant Matrix: (Units=GPa)
#
#
# Indices 1 2 3 4 5 6 
#
# 1 68.1481 -1.3524 26.5302 0.0000 -32.9688 0.0000
# 2 -1.3524 59.9679 -3.0318 0.0000 -1.8366 0.0000
# 3 26.5302 -3.0318 142.5881 0.0000 -55.5924 0.0000
# 4 0.0000 0.0000 0.0000 21.6536 0.0000 -16.4519
# 5 -32.9688 -1.8366 -55.5924 0.0000 41.4021 0.0000
# 6 0.0000 0.0000 0.0000 -16.4519 0.0000 56.8696
#
#
#
# Elastic Compliance Matrix: (Units=1/GPa)
#
#
# Indices 1 2 3 4 5 6 
#
# 1 0.027056 0.001935 0.007221 0.000000 0.031326 0.000000
# 2 0.001935 0.016962 0.001878 0.000000 0.004814 0.000000
# 3 0.007221 0.001878 0.016756 0.000000 0.028331 0.000000
# 4 0.000000 0.000000 0.000000 0.059192 0.000000 0.017124
# 5 0.031326 0.004814 0.028331 0.000000 0.087354 0.000000
# 6 0.000000 0.000000 0.000000 0.017124 0.000000 0.022538
#
#
# Mechanical properties :
#
#
# Convention : Reuss Voigt Hill
#
# Bulk Modulus (GPa) = 12.07159 34.99957 23.53558
# Shear Modulus (GPa) = 21.24000 40.55560 30.89780
#
# Velocity S-wave (km/s) = 3.10058 4.28441 3.73964
# Velocity P-wave (km/s) = 4.27574 6.34952 5.41287
#
# Compressibility (1/GPa) = 0.08283912
#
# Stress axis : x y z
#
# Youngs Moduli (GPa) = 36.95970 58.95676 59.68173
#
# Poissons Ratio (x) = -0.11406 -0.43093
# Poissons Ratio (y) = -0.07150 -0.11206
# Poissons Ratio (z) = -0.26687 -0.11070
#
# Static dielectric constant tensor:
#      x y z
#    x 1.803770 0.000000 -0.051740 
#    y 0.000000 1.868980 0.000000 
#    z -0.051740 0.000000 1.847510 
# 
# From -- ./inp_files/281637.got.cif
#   From: 2010.05.17/outbox.cif.g08.bks.cpg/sg12_141_cif.got.tgz:281637.got - 2010.06.03 13:09:07.
