data_PCOD9182714
_publ_section_title
;
Structure prediction by ZEFSAII (Michael W. Deem and Ramdas Pophale) SiO2 
 PCOD9182714
Probable space group: C 2/M
;
_chemical_formula_sum "Si O2"
_cell_formula_units_Z 56
_cell_length_a 18.580509
_cell_length_b 7.570873
_cell_length_c 29.911733
_cell_angle_alpha 90.000000
_cell_angle_beta 140.671264
_cell_angle_gamma 90.000000
_cell_volume 2666.711720
_symmetry_space_group_name_H-M "C 2/M"
_symmetry_group_IT_number 12
_symmetry_cell_setting 'monoclinic'
loop_
_space_group_symop_operation_xyz
x,y,z
-x,y,-z
-x,-y,-z
x,-y,z
1/2+x,1/2+y,z
1/2-x,1/2+y,-z
1/2-x,1/2-y,-z
1/2+x,1/2-y,z
loop_
_atom_site_type_symbol
_atom_site_label
_atom_site_fract_x
_atom_site_fract_y
_atom_site_fract_z
Si Si1 0.977590 0.717210 0.350800
Si Si2 0.830358 0.290795 0.495962
Si Si3 0.224984 0.790600 0.210480
Si Si4 0.296759 0.788394 0.071583
Si Si5 0.946000 0.713944 0.791880
Si Si6 0.369304 0.207029 0.658841
Si Si7 0.629790 0.716641 0.069820
O O1 0.979897 0.500000 0.352466
O O2 0.848561 0.778024 0.284353
O O3 0.046780 0.774365 0.428362
O O4 0.049181 0.777026 0.341549
O O5 0.837225 0.500000 0.493616
O O6 0.750000 0.250000 0.500000
O O7 0.760535 0.222641 0.420039
O O8 0.133343 0.764586 0.205090
O O9 0.178979 0.722289 0.141021
O O10 0.240651 0.000000 0.211528
O O11 0.425070 0.722433 0.139578
O O12 0.210934 0.724058 0.068545
O O13 0.301511 0.000000 0.078793
O O14 0.250000 0.750000 0.000000
O O15 0.947883 0.500000 0.791944
O O16 0.896079 0.779444 0.720598
O O17 0.396163 0.000000 0.673847
O O18 0.629229 0.500000 0.069694
O O19 0.500000 0.772278 0.000000
#
# Coordination Sequence:
#
# PCOD9182714 Si02
#       7
#     8   8   8   8   8   8   8
#     4   8  15  29  50  73  94 123 165 209 248 288
#     4   9  16  28  48  74 101 128 165 211 256 301
#     4  10  19  33  53  73  96 130 171 209 244 291
#     4  10  20  35  55  78 104 133 165 203 248 296
#     4  10  21  35  50  72 104 136 163 201 255 303
#     4   9  17  32  52  72  98 132 169 207 251 303
#     4   9  17  30  51  77  99 123 161 204 240 281
#
# _framework density 20.999644
#
# number of rings (size 3 to 8) (size 9 to 14) (size 15 to 20)
#    0.000    2.714    0.000    3.000    0.000    5.714 
#    0.000    5.000    0.000    8.571    0.000    0.000 
#    0.000    0.000    0.000    0.000    0.000    0.000 
#
# Total GULP energy -156230.302253 kJ/mol
# GULP energy per Si atom -5579.653652 kJ/mol
# Density = 2.095185 g / cm^3
# Si number density = 20.999644 Si / 1000 Ang^3
#
#
#
# Elastic Constant Matrix: (Units=GPa)
#
#
# Indices 1 2 3 4 5 6 
#
# 1 143.2790 -8.7311 114.3207 0.0000 4.1389 0.0006
# 2 -8.7311 38.4076 -8.4699 0.0000 2.5229 0.0012
# 3 114.3207 -8.4699 237.5920 0.0000 4.1325 0.0001
# 4 0.0000 0.0000 0.0000 13.8907 0.0000 -1.8470
# 5 4.1389 2.5229 4.1325 0.0000 36.5932 -0.0001
# 6 0.0006 0.0012 0.0001 -1.8470 -0.0001 18.9547
#
#
#
# Elastic Compliance Matrix: (Units=1/GPa)
#
#
# Indices 1 2 3 4 5 6 
#
# 1 0.011424 0.001450 -0.005432 0.000000 -0.000779 0.000000
# 2 0.001450 0.026562 0.000284 0.000000 -0.002027 -0.000002
# 3 -0.005432 0.000284 0.006836 0.000000 -0.000177 0.000000
# 4 0.000000 0.000000 0.000000 0.072936 0.000000 0.007107
# 5 -0.000779 -0.002027 -0.000177 0.000000 0.027575 0.000000
# 6 0.000000 -0.000002 0.000000 0.007107 0.000000 0.053450
#
#
# Mechanical properties :
#
#
# Convention : Reuss Voigt Hill
#
# Bulk Modulus (GPa) = 26.71803 68.16866 47.44335
# Shear Modulus (GPa) = 22.86733 35.36499 29.11616
#
# Velocity S-wave (km/s) = 3.30349 4.10820 3.72762
# Velocity P-wave (km/s) = 5.22508 7.41858 6.41626
#
# Compressibility (1/GPa) = 0.03742791
#
# Stress axis : x y z
#
# Youngs Moduli (GPa) = 87.53429 37.64763 146.29270
#
# Poissons Ratio (x) = -0.05460 0.79461
# Poissons Ratio (y) = -0.12695 -0.04159
# Poissons Ratio (z) = 0.47545 -0.01070
#
# Static dielectric constant tensor:
#      x y z
#    x 1.704190 0.000000 0.003310 
#    y 0.000000 1.794330 0.000000 
#    z 0.003310 0.000000 1.767070 
# 
# From -- ./inp_files/275085.got.cif
#   From: 2010.05.17/outbox.cif.g08.bks.cpg/sg12_138_cif.got.tgz:275085.got - 2010.06.03 13:09:07.
