data_PCOD9182324
_publ_section_title
;
Structure prediction by ZEFSAII (Michael W. Deem and Ramdas Pophale) SiO2 
 PCOD9182324
Probable space group: C 2/M
;
_chemical_formula_sum "Si O2"
_cell_formula_units_Z 40
_cell_length_a 10.781697
_cell_length_b 15.075290
_cell_length_c 27.680729
_cell_angle_alpha 90.000000
_cell_angle_beta 152.538352
_cell_angle_gamma 90.000000
_cell_volume 2074.803773
_symmetry_space_group_name_H-M "C 2/M"
_symmetry_group_IT_number 12
_symmetry_cell_setting 'monoclinic'
loop_
_space_group_symop_operation_xyz
x,y,z
-x,y,-z
-x,-y,-z
x,-y,z
1/2+x,1/2+y,z
1/2-x,1/2+y,-z
1/2-x,1/2-y,-z
1/2+x,1/2-y,z
loop_
_atom_site_type_symbol
_atom_site_label
_atom_site_fract_x
_atom_site_fract_y
_atom_site_fract_z
Si Si1 0.342800 0.893085 0.269478
Si Si2 0.266942 0.143591 0.953877
Si Si3 0.641873 0.107623 0.275363
Si Si4 0.751905 0.645838 0.057061
Si Si5 0.340024 0.397480 0.496023
O O1 0.448066 0.863019 0.252855
O O2 0.550276 0.858546 0.381926
O O3 0.032918 0.871350 0.169365
O O4 0.369151 0.000000 0.278457
O O5 0.304780 0.249769 0.969124
O O6 0.500000 0.107647 0.000000
O O7 0.279370 0.108028 0.012881
O O8 0.513705 0.135432 0.180689
O O9 0.943725 0.140412 0.391629
O O10 0.648054 0.000000 0.278775
O O11 0.500000 0.607372 0.000000
O O12 0.500000 0.398982 0.500000
O O13 0.295480 0.500000 0.495203
#
# Coordination Sequence:
#
# PCOD9182324 Si02
#       5
#     8   8   8   8   8
#     4   9  16  29  50  73  97 123 155 195 237 281
#     4  10  21  33  46  67  99 133 157 187 236 289
#     4   9  16  28  51  77  94 115 158 207 237 266
#     4  10  19  33  49  68  95 127 163 197 233 274
#     4   7  12  24  44  72  98 117 145 194 245 275
#
# _framework density 19.278932999999999
#
# number of rings (size 3 to 8) (size 9 to 14) (size 15 to 20)
#    0.000    3.000    2.000    2.400    0.000    1.600 
#    0.000    1.000    0.000    1.200    0.000    4.200 
#    0.000    0.000    0.000    0.000    0.000    0.000 
#
# Total GULP energy -111364.608143 kJ/mol
# GULP energy per Si atom -5568.230407 kJ/mol
# Density = 1.923505 g / cm^3
# Si number density = 19.278933 Si / 1000 Ang^3
#
#
#
# Elastic Constant Matrix: (Units=GPa)
#
#
# Indices 1 2 3 4 5 6 
#
# 1 104.1134 13.4249 92.7895 -0.0001 4.7079 0.0001
# 2 13.4249 27.6589 -12.9815 0.0001 -1.1071 -0.0001
# 3 92.7895 -12.9815 183.0826 0.0001 0.0875 -0.0002
# 4 -0.0001 0.0001 0.0001 27.8558 -0.0002 -2.3025
# 5 4.7079 -1.1071 0.0875 -0.0002 23.9523 0.0000
# 6 0.0001 -0.0001 -0.0002 -2.3025 0.0000 -2.4479
#
#
#
# Elastic Compliance Matrix: (Units=1/GPa)
#
#
# Indices 1 2 3 4 5 6 
#
# 1 0.024473 -0.018541 -0.013716 0.000000 -0.005617 0.000002
# 2 -0.018541 0.051517 0.013047 0.000000 0.005978 -0.000003
# 3 -0.013716 0.013047 0.013337 0.000000 0.003250 -0.000001
# 4 0.000000 0.000000 0.000000 0.033309 0.000000 -0.031331
# 5 -0.005617 0.005978 0.003250 0.000000 0.043118 0.000000
# 6 0.000002 -0.000003 -0.000001 -0.031331 0.000000 -0.379044
#
#
# Mechanical properties :
#
#
# Convention : Reuss Voigt Hill
#
# Bulk Modulus (GPa) = 19.64338 55.70230 37.67284
# Shear Modulus (GPa) = -31.66536 24.64683 -3.50927
#
# Velocity S-wave (km/s) = -4.05716 3.57940 -1.35063
# Velocity P-wave (km/s) = 3.42581 6.78516 4.14139
#
# Compressibility (1/GPa) = 0.05090774
#
# Stress axis : x y z
#
# Youngs Moduli (GPa) = 40.86063 19.41117 74.98036
#
# Poissons Ratio (x) = 0.35990 1.02840
# Poissons Ratio (y) = 0.75759 -0.97825
# Poissons Ratio (z) = 0.56043 -0.25325
#
# Static dielectric constant tensor:
#      x y z
#    x 1.675040 0.000000 0.002610 
#    y 0.000000 1.685500 0.000000 
#    z 0.002610 0.000000 1.724600 
# 
# From -- ./inp_files/120132.got.cif
#   From: 2010.05.17/outbox.cif.g08.bks.cpg/sg12_61_cif.got.tgz:120132.got - 2010.06.03 13:09:07.
