data_PCOD9182865
_publ_section_title
;
Structure prediction by ZEFSAII (Michael W. Deem and Ramdas Pophale) SiO2 
 PCOD9182865
Probable space group: C 2/M
;
_chemical_formula_sum "Si O2"
_cell_formula_units_Z 64
_cell_length_a 22.054885
_cell_length_b 11.397509
_cell_length_c 19.654742
_cell_angle_alpha 90.000000
_cell_angle_beta 138.610976
_cell_angle_gamma 90.000000
_cell_volume 3266.585406
_symmetry_space_group_name_H-M "C 2/M"
_symmetry_group_IT_number 12
_symmetry_cell_setting 'monoclinic'
loop_
_space_group_symop_operation_xyz
x,y,z
-x,y,-z
-x,-y,-z
x,-y,z
1/2+x,1/2+y,z
1/2-x,1/2+y,-z
1/2-x,1/2-y,-z
1/2+x,1/2-y,z
loop_
_atom_site_type_symbol
_atom_site_label
_atom_site_fract_x
_atom_site_fract_y
_atom_site_fract_z
Si Si1 0.795967 0.246692 0.370466
Si Si2 0.415480 0.138222 0.110641
Si Si3 0.893066 0.635914 0.933445
Si Si4 0.383006 0.199555 0.228759
Si Si5 0.924139 0.868195 0.384653
Si Si6 0.089722 0.370413 0.424524
Si Si7 0.626689 0.137002 0.300191
Si Si8 0.221818 0.870039 0.188097
O O1 0.833281 0.143417 0.353765
O O2 0.869543 0.276703 0.490020
O O3 0.701822 0.213098 0.326567
O O4 0.781814 0.354545 0.307025
O O5 0.379077 0.146907 0.003473
O O6 0.374105 0.209510 0.139569
O O7 0.522799 0.170377 0.194838
O O8 0.410383 0.000000 0.125922
O O9 0.864034 0.500000 0.890870
O O10 0.842157 0.753435 0.864141
O O11 0.000000 0.641912 0.000000
O O12 0.401242 0.311047 0.292957
O O13 0.480166 0.134015 0.322104
O O14 0.293352 0.140863 0.185802
O O15 0.000000 0.812248 0.500000
O O16 0.954064 0.000000 0.397422
O O17 0.114662 0.500000 0.469994
O O18 0.133030 0.352424 0.386751
O O19 0.638363 0.000000 0.291999
O O20 0.178248 0.000000 0.149661
#
# Coordination Sequence:
#
# PCOD9182865 Si02
#       8
#     8   8   8   8   8   8   8   8
#     4  11  20  33  53  78 110 152 194 231 287 339
#     4   9  18  36  62  85 110 143 185 241 288 343
#     4  10  22  42  67  91 113 147 193 239 292 356
#     4  10  20  37  57  81 113 152 190 227 287 343
#     4  10  20  34  50  74 110 152 197 240 281 329
#     4  10  19  33  53  77 108 146 188 232 277 341
#     4   9  18  32  54  82 107 138 186 239 288 336
#     4  11  24  37  56  86 120 151 188 241 290 343
#
# _framework density 19.592324000000001
#
# number of rings (size 3 to 8) (size 9 to 14) (size 15 to 20)
#    0.000    2.000    1.250    3.750    0.000    4.250 
#    0.000    2.500    0.000    4.500    0.000    0.000 
#    0.000    0.000    0.000    0.000    0.000    0.000 
#
# Total GULP energy -178213.075033 kJ/mol
# GULP energy per Si atom -5569.158595 kJ/mol
# Density = 1.954773 g / cm^3
# Si number density = 19.592324 Si / 1000 Ang^3
#
#
#
# Elastic Constant Matrix: (Units=GPa)
#
#
# Indices 1 2 3 4 5 6 
#
# 1 88.3986 22.1048 3.8084 0.0000 4.2214 0.0000
# 2 22.1048 68.5543 21.6018 0.0000 -4.3310 0.0000
# 3 3.8084 21.6018 38.1693 0.0000 -8.4289 0.0000
# 4 0.0000 0.0000 0.0000 23.0143 0.0000 1.9941
# 5 4.2214 -4.3310 -8.4289 0.0000 23.5993 0.0000
# 6 0.0000 0.0000 0.0000 1.9941 0.0000 -3.2532
#
#
#
# Elastic Compliance Matrix: (Units=1/GPa)
#
#
# Indices 1 2 3 4 5 6 
#
# 1 0.012524 -0.004414 0.000624 0.000000 -0.002828 0.000000
# 2 -0.004414 0.019311 -0.010348 0.000000 0.000638 0.000000
# 3 0.000624 -0.010348 0.034251 0.000000 0.010223 0.000000
# 4 0.000000 0.000000 0.000000 0.041260 0.000000 0.025291
# 5 -0.002828 0.000638 0.010223 0.000000 0.046648 0.000000
# 6 0.000000 0.000000 0.000000 0.025291 0.000000 -0.291891
#
#
# Mechanical properties :
#
#
# Convention : Reuss Voigt Hill
#
# Bulk Modulus (GPa) = 26.44756 32.23913 29.34334
# Shear Modulus (GPa) = -51.53640 18.51256 -16.51192
#
# Velocity S-wave (km/s) = -5.13434 3.07724 -2.90621
# Velocity P-wave (km/s) = 4.64977 5.39598 1.93600
#
# Compressibility (1/GPa) = 0.03781067
#
# Stress axis : x y z
#
# Youngs Moduli (GPa) = 79.84550 51.78394 29.19661
#
# Poissons Ratio (x) = 0.22855 -0.01821
# Poissons Ratio (y) = 0.35240 0.30212
# Poissons Ratio (z) = -0.04981 0.53585
#
# Static dielectric constant tensor:
#      x y z
#    x 1.686760 0.000000 -0.005930 
#    y 0.000000 1.704050 0.000000 
#    z -0.005930 0.000000 1.739320 
# 
# From -- ./inp_files/321281.got.cif
#   From: 2010.05.17/outbox.cif.g08.bks.cpg/sg12_161_cif.got.tgz:321281.got - 2010.06.03 13:09:07.
