data_PCOD9182079
_publ_section_title
;
Structure prediction by ZEFSAII (Michael W. Deem and Ramdas Pophale) SiO2 
 PCOD9182079
Probable space group: C 2/M
;
_chemical_formula_sum "Si O2"
_cell_formula_units_Z 64
_cell_length_a 27.114068
_cell_length_b 17.416496
_cell_length_c 21.435624
_cell_angle_alpha 90.000000
_cell_angle_beta 159.745083
_cell_angle_gamma 90.000000
_cell_volume 3504.415642
_symmetry_space_group_name_H-M "C 2/M"
_symmetry_group_IT_number 12
_symmetry_cell_setting 'monoclinic'
loop_
_space_group_symop_operation_xyz
x,y,z
-x,y,-z
-x,-y,-z
x,-y,z
1/2+x,1/2+y,z
1/2-x,1/2+y,-z
1/2-x,1/2-y,-z
1/2+x,1/2-y,z
loop_
_atom_site_type_symbol
_atom_site_label
_atom_site_fract_x
_atom_site_fract_y
_atom_site_fract_z
Si Si1 0.135718 0.782517 0.814617
Si Si2 0.558802 0.912234 0.999658
Si Si3 0.193486 0.321026 0.353891
Si Si4 0.154120 0.278230 0.569266
Si Si5 0.752065 0.221758 0.193178
Si Si6 0.007606 0.093019 0.276522
Si Si7 0.510430 0.317325 0.162139
Si Si8 0.140513 0.910564 0.208964
O O1 0.195195 0.784913 0.815011
O O2 0.995703 0.728574 0.643810
O O3 0.075987 0.865668 0.766000
O O4 0.250000 0.750000 0.000000
O O5 0.431937 0.881031 0.806451
O O6 0.591580 0.000000 0.026421
O O7 0.500000 0.904430 0.000000
O O8 0.693431 0.859389 0.147112
O O9 0.238421 0.276173 0.343375
O O10 0.332310 0.370843 0.535798
O O11 0.117969 0.253597 0.305492
O O12 0.145056 0.250612 0.629912
O O13 0.226153 0.361116 0.655270
O O14 0.614989 0.278483 0.026955
O O15 0.943586 0.134548 0.139262
O O16 0.005579 0.000000 0.274617
O O17 0.598693 0.377901 0.226666
O O18 0.171798 0.000000 0.247255
O O19 0.000000 0.898124 0.000000
#
# Coordination Sequence:
#
# PCOD9182079 Si02
#       8
#     8   8   8   8   8   8   8   8
#     4  11  24  42  59  80 110 159 209 248 278 339
#     4  10  19  32  55  86 119 147 178 235 298 346
#     4   9  19  33  58  85 117 146 191 229 291 357
#     4  10  20  37  62  85 111 154 198 236 288 351
#     4  11  20  37  60  83 113 150 202 237 281 346
#     4  11  22  38  57  82 116 155 195 245 297 342
#     4  10  19  33  60  85 117 152 191 229 295 355
#     4  10  19  33  58  92 125 146 180 242 305 356
#
# _framework density 18.262674000000001
#
# number of rings (size 3 to 8) (size 9 to 14) (size 15 to 20)
#    0.000    1.750    3.750    1.500    0.000    0.500 
#    0.000    0.625    0.000    3.000    0.000    0.000 
#    0.000    0.000    0.000    0.000    0.000    0.000 
#
# Total GULP energy -178310.763514 kJ/mol
# GULP energy per Si atom -5572.211360 kJ/mol
# Density = 1.822111 g / cm^3
# Si number density = 18.262674 Si / 1000 Ang^3
#
#
#
# Elastic Constant Matrix: (Units=GPa)
#
#
# Indices 1 2 3 4 5 6 
#
# 1 81.6052 46.4208 7.7575 0.0000 5.1339 -0.0001
# 2 46.4208 152.8674 49.3201 0.0002 2.7715 0.0000
# 3 7.7575 49.3201 88.5983 0.0000 -3.8969 0.0003
# 4 0.0000 0.0002 0.0000 15.1920 0.0000 0.5781
# 5 5.1339 2.7715 -3.8969 0.0000 21.1668 0.0000
# 6 -0.0001 0.0000 0.0003 0.5781 0.0000 21.6511
#
#
#
# Elastic Compliance Matrix: (Units=1/GPa)
#
#
# Indices 1 2 3 4 5 6 
#
# 1 0.015131 -0.004970 0.001320 0.000000 -0.002776 0.000000
# 2 -0.004970 0.009681 -0.004997 0.000000 -0.000982 0.000000
# 3 0.001320 -0.004997 0.014082 0.000000 0.002927 0.000000
# 4 0.000000 0.000000 0.000000 0.065891 0.000000 -0.001759
# 5 -0.002776 -0.000982 0.002927 0.000000 0.048584 0.000000
# 6 0.000000 0.000000 0.000000 -0.001759 0.000000 0.046234
#
#
# Mechanical properties :
#
#
# Convention : Reuss Voigt Hill
#
# Bulk Modulus (GPa) = 46.29961 58.89640 52.59800
# Shear Modulus (GPa) = 22.31177 26.24016 24.27597
#
# Velocity S-wave (km/s) = 3.49910 3.79465 3.64987
# Velocity P-wave (km/s) = 6.46003 7.17766 6.82828
#
# Compressibility (1/GPa) = 0.02159846
#
# Stress axis : x y z
#
# Youngs Moduli (GPa) = 66.09140 103.29578 71.01352
#
# Poissons Ratio (x) = 0.51340 -0.09373
# Poissons Ratio (y) = 0.32848 0.35486
# Poissons Ratio (z) = -0.08723 0.51618
#
# Static dielectric constant tensor:
#      x y z
#    x 1.672610 0.000000 -0.026890 
#    y 0.000000 1.597080 0.000000 
#    z -0.026890 0.000000 1.655340 
# 
# From -- ./inp_files/328659.got.cif
#   From: 2010.05.17/outbox.cif.g08.bks.cpg/sg12_165_cif.got.tgz:328659.got - 2010.06.03 13:09:07.
