data_PCOD9182197
_publ_section_title
;
Structure prediction by ZEFSAII (Michael W. Deem and Ramdas Pophale) SiO2 
 PCOD9182197
Probable space group: C 2/M
;
_chemical_formula_sum "Si O2"
_cell_formula_units_Z 48
_cell_length_a 10.751307
_cell_length_b 17.990141
_cell_length_c 19.915353
_cell_angle_alpha 90.000000
_cell_angle_beta 149.833514
_cell_angle_gamma 90.000000
_cell_volume 1935.674291
_symmetry_space_group_name_H-M "C 2/M"
_symmetry_group_IT_number 12
_symmetry_cell_setting 'monoclinic'
loop_
_space_group_symop_operation_xyz
x,y,z
-x,y,-z
-x,-y,-z
x,-y,z
1/2+x,1/2+y,z
1/2-x,1/2+y,-z
1/2-x,1/2-y,-z
1/2+x,1/2-y,z
loop_
_atom_site_type_symbol
_atom_site_label
_atom_site_fract_x
_atom_site_fract_y
_atom_site_fract_z
Si Si1 0.600660 0.223529 0.283725
Si Si2 0.967266 0.411744 0.564421
Si Si3 0.501659 0.313075 0.372342
Si Si4 0.769412 0.414251 0.092230
Si Si5 0.207119 0.583315 0.147283
Si Si6 0.994063 0.128269 0.164241
O O1 0.574996 0.255586 0.347342
O O2 0.875617 0.219148 0.379941
O O3 0.471825 0.286060 0.175881
O O4 0.457161 0.146019 0.209419
O O5 0.930462 0.500000 0.552526
O O6 0.732791 0.368608 0.485140
O O7 0.000000 0.392784 0.500000
O O8 0.221890 0.389326 0.720298
O O9 0.275575 0.361881 0.237441
O O10 0.849857 0.500000 0.138107
O O11 0.699770 0.396630 0.982215
O O12 0.500000 0.406064 0.000000
O O13 0.147450 0.500000 0.140739
O O14 0.444683 0.582420 0.209335
O O15 0.000000 0.612369 0.000000
#
# Coordination Sequence:
#
# PCOD9182197 Si02
#       6
#     8   8   8   8   8   8
#     4  11  24  42  65  95 136 176 224 276 333 393
#     4  11  21  40  68 100 131 166 218 280 339 393
#     4  11  24  41  64  97 132 176 219 272 332 395
#     4  11  24  42  65  96 137 182 222 268 333 405
#     4  10  19  32  56  91 126 160 209 274 334 383
#     4  11  22  39  64  95 129 171 218 275 333 393
#
# _framework density 24.797559
#
# number of rings (size 3 to 8) (size 9 to 14) (size 15 to 20)
#    0.000    1.167    3.333    4.500    0.000    7.333 
#    0.000    0.000    0.000    0.000    0.000    7.000 
#    0.000    0.000    0.000    0.000    0.000    0.000 
#
# Total GULP energy -134432.341664 kJ/mol
# GULP energy per Si atom -5601.347569 kJ/mol
# Density = 2.474112 g / cm^3
# Si number density = 24.797559 Si / 1000 Ang^3
#
#
#
# Elastic Constant Matrix: (Units=GPa)
#
#
# Indices 1 2 3 4 5 6 
#
# 1 132.1239 46.7182 28.4797 -0.0012 12.1924 0.0009
# 2 46.7182 183.6941 59.3682 -0.0018 5.3142 0.0025
# 3 28.4797 59.3682 114.8403 0.0068 13.3398 0.0017
# 4 -0.0012 -0.0018 0.0068 43.5006 0.0007 14.2612
# 5 12.1924 5.3142 13.3398 0.0007 40.9412 -0.0002
# 6 0.0009 0.0025 0.0017 14.2612 -0.0002 14.0010
#
#
#
# Elastic Compliance Matrix: (Units=1/GPa)
#
#
# Indices 1 2 3 4 5 6 
#
# 1 0.008605 -0.001820 -0.000959 0.000001 -0.002014 -0.000001
# 2 -0.001820 0.006924 -0.003208 0.000001 0.000689 -0.000002
# 3 -0.000959 -0.003208 0.010936 -0.000002 -0.002861 0.000002
# 4 0.000001 0.000001 -0.000002 0.034513 0.000000 -0.035155
# 5 -0.002014 0.000689 -0.002861 0.000000 0.025868 0.000001
# 6 -0.000001 -0.000002 0.000002 -0.035155 0.000001 0.107232
#
#
# Mechanical properties :
#
#
# Convention : Reuss Voigt Hill
#
# Bulk Modulus (GPa) = 69.01057 77.75451 73.38254
# Shear Modulus (GPa) = 23.70991 39.42802 31.56897
#
# Velocity S-wave (km/s) = 3.09550 3.99180 3.57188
# Velocity P-wave (km/s) = 6.37700 7.25739 6.83140
#
# Compressibility (1/GPa) = 0.01449053
#
# Stress axis : x y z
#
# Youngs Moduli (GPa) = 116.21379 144.43396 91.43882
#
# Poissons Ratio (x) = 0.26290 0.08769
# Poissons Ratio (y) = 0.21154 0.29332
# Poissons Ratio (z) = 0.11145 0.46332
#
# Static dielectric constant tensor:
#      x y z
#    x 2.058880 0.000000 0.050340 
#    y 0.000000 1.929050 0.000000 
#    z 0.050340 0.000000 1.989980 
# 
# From -- ./inp_files/336489.got.cif
#   From: 2010.05.17/outbox.cif.g08.bks.cpg/sg12_169_cif.got.tgz:336489.got - 2010.06.03 13:09:07.
