data_PCOD9182481
_publ_section_title
;
Structure prediction by ZEFSAII (Michael W. Deem and Ramdas Pophale) SiO2 
 PCOD9182481
Probable space group: C 2/M
;
_chemical_formula_sum "Si O2"
_cell_formula_units_Z 42
_cell_length_a 29.781938
_cell_length_b 7.720353
_cell_length_c 9.409631
_cell_angle_alpha 90.000000
_cell_angle_beta 133.525212
_cell_angle_gamma 90.000000
_cell_volume 1568.712953
_symmetry_space_group_name_H-M "C 2/M"
_symmetry_group_IT_number 12
_symmetry_cell_setting 'monoclinic'
loop_
_space_group_symop_operation_xyz
x,y,z
-x,y,-z
-x,-y,-z
x,-y,z
1/2+x,1/2+y,z
1/2-x,1/2+y,-z
1/2-x,1/2-y,-z
1/2+x,1/2-y,z
loop_
_atom_site_type_symbol
_atom_site_label
_atom_site_fract_x
_atom_site_fract_y
_atom_site_fract_z
Si Si1 0.288271 0.211950 0.375651
Si Si2 0.000000 0.000000 0.500000
Si Si3 0.021164 0.690772 0.342446
Si Si4 0.343844 0.802126 0.212594
Si Si5 0.653560 0.701615 0.099913
Si Si6 0.082773 0.798073 0.195550
O O1 0.296592 0.265561 0.228501
O O2 0.221704 0.275200 0.283902
O O3 0.348090 0.280418 0.586834
O O4 0.290412 0.000000 0.383167
O O5 0.010386 0.848882 0.645718
O O6 0.995416 0.500000 0.316897
O O7 0.090264 0.699734 0.563579
O O8 0.036666 0.714068 0.209154
O O9 0.328262 0.000000 0.146047
O O10 0.350360 0.709035 0.077894
O O11 0.655221 0.500000 0.142759
O O12 0.597073 0.776382 0.069195
O O13 0.066171 0.000000 0.154740
#
# Coordination Sequence:
#
# PCOD9182481 Si02
#       6
#     8   2   8   8   8   8
#     4   9  18  32  47  73 110 154 200 243 273 317
#     4  12  22  40  72  92 108 140 190 226 308 346
#     4  10  22  40  62  90 114 139 180 237 284 348
#     4   9  19  33  51  77 113 149 188 230 285 333
#     4  10  20  30  49  77 113 154 198 234 271 333
#     4  10  19  33  51  79 112 152 193 232 284 335
#
# _framework density 26.773541999999999
#
# number of rings (size 3 to 8) (size 9 to 14) (size 15 to 20)
#    0.000    2.286    0.952    3.143    1.333    3.048 
#    0.000    0.000    0.000    2.286    0.000    4.000 
#    0.000    0.000    0.000    0.000    0.000    0.000 
#
# Total GULP energy -117337.124501 kJ/mol
# GULP energy per Si atom -5587.482119 kJ/mol
# Density = 2.671260 g / cm^3
# Si number density = 26.773542 Si / 1000 Ang^3
#
#
#
# Elastic Constant Matrix: (Units=GPa)
#
#
# Indices 1 2 3 4 5 6 
#
# 1 201.2771 51.2211 51.8891 0.0000 -19.1747 0.0000
# 2 51.2211 132.0101 17.1114 0.0000 -11.9707 0.0000
# 3 51.8891 17.1114 109.1250 0.0000 -27.7468 0.0000
# 4 0.0000 0.0000 0.0000 17.3294 0.0000 -14.1420
# 5 -19.1747 -11.9707 -27.7468 0.0000 60.8878 0.0000
# 6 0.0000 0.0000 0.0000 -14.1420 0.0000 9.0281
#
#
#
# Elastic Compliance Matrix: (Units=1/GPa)
#
#
# Indices 1 2 3 4 5 6 
#
# 1 0.006172 -0.002033 -0.002515 0.000000 0.000398 0.000000
# 2 -0.002033 0.008467 -0.000114 0.000000 0.000973 0.000000
# 3 -0.002515 -0.000114 0.011503 0.000000 0.004428 0.000000
# 4 0.000000 0.000000 0.000000 -0.207327 0.000000 -0.324768
# 5 0.000398 0.000973 0.004428 0.000000 0.018758 0.000000
# 6 0.000000 0.000000 0.000000 -0.324768 0.000000 -0.397967
#
#
# Mechanical properties :
#
#
# Convention : Reuss Voigt Hill
#
# Bulk Modulus (GPa) = 59.45518 75.87284 67.66401
# Shear Modulus (GPa) = -9.16648 38.92843 14.88097
#
# Velocity S-wave (km/s) = -1.85233 3.81726 2.36012
# Velocity P-wave (km/s) = 4.20476 6.91584 5.72315
#
# Compressibility (1/GPa) = 0.01681939
#
# Stress axis : x y z
#
# Youngs Moduli (GPa) = 162.02829 118.10821 86.93197
#
# Poissons Ratio (x) = 0.24007 0.21861
# Poissons Ratio (y) = 0.32935 0.00989
# Poissons Ratio (z) = 0.40746 0.01344
#
# Static dielectric constant tensor:
#      x y z
#    x 2.137530 0.000000 0.011950 
#    y 0.000000 1.973350 0.000000 
#    z 0.011950 0.000000 2.214890 
# 
# From -- ./inp_files/107831.got.cif
#   From: 2010.05.17/outbox.cif.g08.bks.cpg/sg12_54_cif.got.tgz:107831.got - 2010.06.03 13:09:07.
