data_PCOD9182947
_publ_section_title
;
Structure prediction by ZEFSAII (Michael W. Deem and Ramdas Pophale) SiO2 
 PCOD9182947
Probable space group: C 2/M
;
_chemical_formula_sum "Si O2"
_cell_formula_units_Z 64
_cell_length_a 13.780938
_cell_length_b 30.218833
_cell_length_c 19.349988
_cell_angle_alpha 90.000000
_cell_angle_beta 158.899928
_cell_angle_gamma 90.000000
_cell_volume 2900.929884
_symmetry_space_group_name_H-M "C 2/M"
_symmetry_group_IT_number 12
_symmetry_cell_setting 'monoclinic'
loop_
_space_group_symop_operation_xyz
x,y,z
-x,y,-z
-x,-y,-z
x,-y,z
1/2+x,1/2+y,z
1/2-x,1/2+y,-z
1/2-x,1/2-y,-z
1/2+x,1/2-y,z
loop_
_atom_site_type_symbol
_atom_site_label
_atom_site_fract_x
_atom_site_fract_y
_atom_site_fract_z
Si Si1 0.751347 0.604704 0.614241
Si Si2 0.392738 0.668388 0.854253
Si Si3 0.545324 0.450525 0.689049
Si Si4 0.444088 0.926704 0.064941
Si Si5 0.220864 0.793187 0.566900
Si Si6 0.403094 0.225555 0.860101
Si Si7 0.787948 0.161856 0.067719
Si Si8 0.314569 0.195028 0.474336
O O1 0.500000 0.600720 0.500000
O O2 0.658951 0.585264 0.479071
O O3 0.807875 0.657431 0.648446
O O4 0.977626 0.574057 0.801947
O O5 0.416167 0.721782 0.868734
O O6 0.573371 0.649727 0.912550
O O7 0.072460 0.665405 0.627089
O O8 0.500000 0.652856 0.000000
O O9 0.435022 0.500000 0.608856
O O10 0.810323 0.446344 0.815713
O O11 0.667866 0.444380 0.847528
O O12 0.411409 0.874128 0.032970
O O13 0.360238 0.791376 0.584138
O O14 0.242707 0.741198 0.605402
O O15 0.893723 0.794052 0.348524
O O16 0.500000 0.211312 0.000000
O O17 0.615117 0.206221 0.947216
O O18 0.038401 0.169043 0.284686
#
# Coordination Sequence:
#
# PCOD9182947 Si02
#       8
#     8   8   8   8   8   8   8   8
#     4  10  21  34  54  87 121 160 200 241 299 373
#     4  10  24  39  50  74 109 157 218 260 305 352
#     4  10  21  40  63  89 132 166 185 237 322 409
#     4  10  22  34  55  89 118 156 200 241 293 370
#     4  10  20  36  55  83 119 160 203 270 314 357
#     4  10  19  33  53  80 107 149 205 264 318 369
#     4  12  22  35  58  81 114 162 209 260 309 360
#     4  10  22  37  58  74 114 167 222 265 308 357
#
# _framework density 22.061890999999999
#
# number of rings (size 3 to 8) (size 9 to 14) (size 15 to 20)
#    0.000    1.750    1.250    3.750    5.250    5.750 
#    0.000    0.000    0.000    0.000    0.000    0.000 
#    0.000   21.000    0.000    0.375    0.000    0.000 
#
# Total GULP energy -178451.949027 kJ/mol
# GULP energy per Si atom -5576.623407 kJ/mol
# Density = 2.201168 g / cm^3
# Si number density = 22.061891 Si / 1000 Ang^3
#
#
#
# Elastic Constant Matrix: (Units=GPa)
#
#
# Indices 1 2 3 4 5 6 
#
# 1 51.1991 10.5737 4.2008 -0.1251 -7.6572 -0.0461
# 2 10.5737 61.1049 17.7971 -0.0205 -13.9416 -0.0083
# 3 4.2008 17.7971 79.7525 -0.3313 -14.5139 -0.1237
# 4 -0.1251 -0.0205 -0.3313 -65.8389 -0.1401 -35.7686
# 5 -7.6572 -13.9416 -14.5139 -0.1401 41.8196 -0.0536
# 6 -0.0461 -0.0083 -0.1237 -35.7686 -0.0536 6.5817
#
#
#
# Elastic Compliance Matrix: (Units=1/GPa)
#
#
# Indices 1 2 3 4 5 6 
#
# 1 0.020552 -0.002939 0.000085 -0.000034 0.002813 -0.000020
# 2 -0.002939 0.018867 -0.003212 0.000004 0.004637 0.000003
# 3 0.000085 -0.003212 0.013939 -0.000059 0.003782 -0.000033
# 4 -0.000034 0.000004 -0.000059 -0.003842 -0.000065 -0.020884
# 5 0.002813 0.004637 0.003782 -0.000065 0.027286 -0.000035
# 6 -0.000020 0.000003 -0.000033 -0.020884 -0.000035 0.038441
#
#
# Mechanical properties :
#
#
# Convention : Reuss Voigt Hill
#
# Bulk Modulus (GPa) = 24.25618 28.57777 26.41697
# Shear Modulus (GPa) = 35.43162 7.14481 21.28821
#
# Velocity S-wave (km/s) = 4.01185 1.80154 3.10970
# Velocity P-wave (km/s) = 5.69898 4.16041 4.98936
#
# Compressibility (1/GPa) = 0.04122661
#
# Stress axis : x y z
#
# Youngs Moduli (GPa) = 48.65651 53.00167 71.74105
#
# Poissons Ratio (x) = 0.15580 -0.00610
# Poissons Ratio (y) = 0.14303 0.23040
# Poissons Ratio (z) = -0.00414 0.17022
#
# Static dielectric constant tensor:
#      x y z
#    x 1.907640 0.000000 -0.085440 
#    y 0.000000 1.805480 -0.000010 
#    z -0.085440 -0.000010 1.958480 
# 
# From -- ./inp_files/312971.got.cif
#   From: 2010.05.17/outbox.cif.g08.bks.cpg/sg12_157_cif.got.tgz:312971.got - 2010.06.03 13:09:07.
