data_PCOD9182015
_publ_section_title
;
Structure prediction by ZEFSAII (Michael W. Deem and Ramdas Pophale) SiO2 
 PCOD9182015
Probable space group: C 2/M
;
_chemical_formula_sum "Si O2"
_cell_formula_units_Z 48
_cell_length_a 16.591499
_cell_length_b 14.383287
_cell_length_c 15.751688
_cell_angle_alpha 90.000000
_cell_angle_beta 149.530209
_cell_angle_gamma 90.000000
_cell_volume 1906.122383
_symmetry_space_group_name_H-M "C 2/M"
_symmetry_group_IT_number 12
_symmetry_cell_setting 'monoclinic'
loop_
_space_group_symop_operation_xyz
x,y,z
-x,y,-z
-x,-y,-z
x,-y,z
1/2+x,1/2+y,z
1/2-x,1/2+y,-z
1/2-x,1/2-y,-z
1/2+x,1/2-y,z
loop_
_atom_site_type_symbol
_atom_site_label
_atom_site_fract_x
_atom_site_fract_y
_atom_site_fract_z
Si Si1 0.816923 0.694338 0.367559
Si Si2 0.587227 0.393597 0.287505
Si Si3 0.314982 0.396866 0.326388
Si Si4 0.913815 0.606007 0.012794
Si Si5 0.072188 0.280778 0.813798
Si Si6 0.223198 0.893760 0.118026
O O1 0.747297 0.634611 0.382245
O O2 0.786400 0.803696 0.352972
O O3 0.707200 0.665921 0.187878
O O4 0.000000 0.681623 0.500000
O O5 0.596681 0.500000 0.329408
O O6 0.540074 0.307117 0.305679
O O7 0.434662 0.391485 0.084032
O O8 0.500000 0.407618 0.500000
O O9 0.246774 0.500000 0.287221
O O10 0.264569 0.376131 0.182787
O O11 0.915757 0.500000 0.044097
O O12 0.978304 0.668395 0.145655
O O13 0.000000 0.616951 0.000000
O O14 0.118293 0.355218 0.784514
O O15 0.250000 0.250000 0.000000
O O16 0.248052 0.000000 0.165685
#
# Coordination Sequence:
#
# PCOD9182015 Si02
#       6
#     8   8   8   8   8   8
#     4  11  22  37  60  87 115 150 194 242 288 339
#     4  10  21  37  58  84 114 150 192 237 287 343
#     4   9  18  32  50  76 110 143 177 222 276 330
#     4  10  19  32  55  83 108 139 182 230 275 325
#     4  10  20  34  55  82 114 147 184 233 282 336
#     4  10  21  38  60  86 117 153 191 236 292 346
#
# _framework density 25.182015
#
# number of rings (size 3 to 8) (size 9 to 14) (size 15 to 20)
#    0.000    2.000    0.000    4.500    0.000    3.333 
#    0.000    2.500    0.000    5.000    0.000   11.667 
#    0.000    0.000    0.000    0.000    0.000    0.000 
#
# Total GULP energy -133948.163816 kJ/mol
# GULP energy per Si atom -5581.173492 kJ/mol
# Density = 2.512470 g / cm^3
# Si number density = 25.182015 Si / 1000 Ang^3
#
#
#
# Elastic Constant Matrix: (Units=GPa)
#
#
# Indices 1 2 3 4 5 6 
#
# 1 67.7793 33.6968 24.3114 -0.0001 19.8201 -0.0003
# 2 33.6968 187.5328 22.9329 -0.0002 10.4914 -0.0007
# 3 24.3114 22.9329 84.5357 -0.0001 22.2488 -0.0009
# 4 -0.0001 -0.0002 -0.0001 1.6260 -0.0001 24.9611
# 5 19.8201 10.4914 22.2488 -0.0001 41.3965 -0.0005
# 6 -0.0003 -0.0007 -0.0009 24.9611 -0.0005 10.2112
#
#
#
# Elastic Compliance Matrix: (Units=1/GPa)
#
#
# Indices 1 2 3 4 5 6 
#
# 1 0.019177 -0.002697 -0.002967 0.000000 -0.006904 0.000000
# 2 -0.002697 0.005912 -0.000901 0.000000 0.000277 0.000000
# 3 -0.002967 -0.000901 0.014551 0.000000 -0.006172 0.000000
# 4 0.000000 0.000000 0.000000 -0.016838 0.000000 0.041159
# 5 -0.006904 0.000277 -0.006172 0.000000 0.030709 0.000000
# 6 0.000000 0.000000 0.000000 0.041159 0.000000 -0.002681
#
#
# Mechanical properties :
#
#
# Convention : Reuss Voigt Hill
#
# Bulk Modulus (GPa) = 37.71962 55.74778 46.73370
# Shear Modulus (GPa) = 68.68407 27.90718 48.29562
#
# Velocity S-wave (km/s) = 5.22822 3.33260 4.38409
# Velocity P-wave (km/s) = 7.17335 6.08230 6.65024
#
# Compressibility (1/GPa) = 0.02651140
#
# Stress axis : x y z
#
# Youngs Moduli (GPa) = 52.14451 169.15686 68.72242
#
# Poissons Ratio (x) = 0.45620 0.20387
# Poissons Ratio (y) = 0.14063 0.06193
# Poissons Ratio (z) = 0.15469 0.15243
#
# Static dielectric constant tensor:
#      x y z
#    x 2.051710 0.000000 0.024740 
#    y 0.000000 2.004690 0.000000 
#    z 0.024740 0.000000 2.135340 
# 
# From -- ./inp_files/316348.got.cif
#   From: 2010.05.17/outbox.cif.g08.bks.cpg/sg12_159_cif.got.tgz:316348.got - 2010.06.03 13:09:07.
