data_PCOD9182920
_publ_section_title
;
Structure prediction by ZEFSAII (Michael W. Deem and Ramdas Pophale) SiO2 
 PCOD9182920
Probable space group: C 2/M
;
_chemical_formula_sum "Si O2"
_cell_formula_units_Z 56
_cell_length_a 15.070479
_cell_length_b 9.367505
_cell_length_c 28.251428
_cell_angle_alpha 90.000000
_cell_angle_beta 141.069380
_cell_angle_gamma 90.000000
_cell_volume 2506.184108
_symmetry_space_group_name_H-M "C 2/M"
_symmetry_group_IT_number 12
_symmetry_cell_setting 'monoclinic'
loop_
_space_group_symop_operation_xyz
x,y,z
-x,y,-z
-x,-y,-z
x,-y,z
1/2+x,1/2+y,z
1/2-x,1/2+y,-z
1/2-x,1/2-y,-z
1/2+x,1/2-y,z
loop_
_atom_site_type_symbol
_atom_site_label
_atom_site_fract_x
_atom_site_fract_y
_atom_site_fract_z
Si Si1 0.784341 0.345841 0.969848
Si Si2 0.689087 0.673706 0.521802
Si Si3 0.159191 0.157169 0.088990
Si Si4 0.566692 0.327512 0.327550
Si Si5 0.584407 0.844857 0.136547
Si Si6 0.586812 0.169670 0.244243
Si Si7 0.407513 0.328488 0.358857
O O1 0.714714 0.500000 0.943969
O O2 0.762844 0.269029 0.911779
O O3 0.750000 0.250000 0.000000
O O4 0.952334 0.362898 0.046871
O O5 0.707240 0.500000 0.529533
O O6 0.750000 0.750000 0.500000
O O7 0.782413 0.749105 0.600404
O O8 0.522540 0.705415 0.447196
O O9 0.161866 0.214870 0.143522
O O10 0.221788 0.000000 0.111146
O O11 0.000000 0.146273 0.000000
O O12 0.579321 0.500000 0.331771
O O13 0.519587 0.261863 0.258065
O O14 0.468509 0.287843 0.332218
O O15 0.530588 0.816914 0.167138
O O16 0.660951 0.000000 0.169732
O O17 0.749869 0.219863 0.304243
O O18 0.584316 0.000000 0.255156
O O19 0.401286 0.500000 0.355262
#
# Coordination Sequence:
#
# PCOD9182920 Si02
#       7
#     8   8   8   8   8   8   8
#     4  10  19  33  53  79 107 134 169 216 262 310
#     4   9  16  30  53  79 105 137 178 226 273 318
#     4   9  17  31  53  76 100 131 167 207 254 306
#     4  10  20  35  53  78 110 142 179 225 270 316
#     4   9  19  35  54  75 104 136 173 215 263 315
#     4  10  20  37  57  76 105 146 183 217 265 325
#     4   8  17  34  55  76 103 139 180 219 265 326
#
# _framework density 22.344726999999999
#
# number of rings (size 3 to 8) (size 9 to 14) (size 15 to 20)
#    0.000    2.714    0.000    2.571    0.000    3.429 
#    2.571    7.143    0.000    0.000    0.000    0.000 
#    0.000    0.000    0.000    0.000    0.000    0.000 
#
# Total GULP energy -156089.702165 kJ/mol
# GULP energy per Si atom -5574.632220 kJ/mol
# Density = 2.229387 g / cm^3
# Si number density = 22.344727 Si / 1000 Ang^3
#
#
#
# Elastic Constant Matrix: (Units=GPa)
#
#
# Indices 1 2 3 4 5 6 
#
# 1 66.1193 32.1212 19.4543 0.0000 -18.2810 0.0000
# 2 32.1212 125.5163 20.4795 0.0000 -25.5407 0.0000
# 3 19.4543 20.4795 97.9936 0.0000 -10.2471 0.0000
# 4 0.0000 0.0000 0.0000 17.8903 0.0000 -15.1660
# 5 -18.2810 -25.5407 -10.2471 0.0000 43.2023 0.0000
# 6 0.0000 0.0000 0.0000 -15.1660 0.0000 25.2560
#
#
#
# Elastic Compliance Matrix: (Units=1/GPa)
#
#
# Indices 1 2 3 4 5 6 
#
# 1 0.018995 -0.003340 -0.002501 0.000000 0.005470 0.000000
# 2 -0.003340 0.009826 -0.000954 0.000000 0.004169 0.000000
# 3 -0.002501 -0.000954 0.011004 0.000000 0.000987 0.000000
# 4 0.000000 0.000000 0.000000 0.113854 0.000000 0.068369
# 5 0.005470 0.004169 0.000987 0.000000 0.028161 0.000000
# 6 0.000000 0.000000 0.000000 0.068369 0.000000 0.080650
#
#
# Mechanical properties :
#
#
# Convention : Reuss Voigt Hill
#
# Bulk Modulus (GPa) = 38.11832 48.19324 43.15578
# Shear Modulus (GPa) = 17.55464 31.77466 24.66465
#
# Velocity S-wave (km/s) = 2.80595 3.77506 3.32599
# Velocity P-wave (km/s) = 5.25300 6.37309 5.83996
#
# Compressibility (1/GPa) = 0.02623411
#
# Stress axis : x y z
#
# Youngs Moduli (GPa) = 52.64558 101.77133 90.87610
#
# Poissons Ratio (x) = 0.33991 0.22728
# Poissons Ratio (y) = 0.17583 0.08674
# Poissons Ratio (z) = 0.13167 0.09714
#
# Static dielectric constant tensor:
#      x y z
#    x 1.898510 0.000000 0.060540 
#    y 0.000000 1.835830 0.000000 
#    z 0.060540 0.000000 1.948930 
# 
# From -- ./inp_files/377745.got.cif
#   From: 2010.05.17/outbox.cif.g08.bks.cpg/sg12_189_cif.got.tgz:377745.got - 2010.06.03 13:09:07.
