data_PCOD9182987
_publ_section_title
;
Structure prediction by ZEFSAII (Michael W. Deem and Ramdas Pophale) SiO2 
 PCOD9182987
Probable space group: C 2/M
;
_chemical_formula_sum "Si O2"
_cell_formula_units_Z 48
_cell_length_a 15.079123
_cell_length_b 16.169547
_cell_length_c 9.147514
_cell_angle_alpha 90.000000
_cell_angle_beta 104.456815
_cell_angle_gamma 90.000000
_cell_volume 2159.748268
_symmetry_space_group_name_H-M "C 2/M"
_symmetry_group_IT_number 12
_symmetry_cell_setting 'monoclinic'
loop_
_space_group_symop_operation_xyz
x,y,z
-x,y,-z
-x,-y,-z
x,-y,z
1/2+x,1/2+y,z
1/2-x,1/2+y,-z
1/2-x,1/2-y,-z
1/2+x,1/2-y,z
loop_
_atom_site_type_symbol
_atom_site_label
_atom_site_fract_x
_atom_site_fract_y
_atom_site_fract_z
Si Si1 0.146782 0.500000 0.331195
Si Si2 0.365665 0.349556 0.821562
Si Si3 0.599760 0.500000 0.614174
Si Si4 0.776517 0.000000 0.622218
Si Si5 0.079464 0.849733 0.819941
Si Si6 0.582289 0.834897 0.826919
Si Si7 0.133848 0.335081 0.176032
Si Si8 0.446499 0.000000 0.327399
O O1 0.174975 0.500000 0.513405
O O2 0.177879 0.413701 0.272553
O O3 0.037512 0.500000 0.258025
O O4 0.305096 0.420088 0.725152
O O5 0.469444 0.356881 0.800768
O O6 0.330140 0.256797 0.776147
O O7 0.376274 0.359490 0.000896
O O8 0.500000 0.500000 0.500000
O O9 0.667451 0.500000 0.506136
O O10 0.608380 0.419874 0.720125
O O11 0.102526 0.756856 0.776500
O O12 0.473537 0.830962 0.820679
O O13 0.600081 0.913374 0.732734
O O14 0.633991 0.846693 0.001692
O O15 0.500000 0.000000 0.500000
#
# Coordination Sequence:
#
# PCOD9182987 Si02
#       8
#     4   8   4   4   8   8   8   4
#     4  10  21  35  51  75 109 134 165 203 255 310
#     4   9  17  32  55  77  97 135 179 209 253 296
#     4  12  21  31  48  77 108 138 171 210 265 289
#     4  12  23  33  49  76 108 145 169 204 253 311
#     4   9  17  32  53  78 102 129 173 223 249 294
#     4   8  15  29  55  81  97 122 167 217 258 289
#     4   8  15  31  55  77  96 127 171 213 248 299
#     4  10  19  33  53  82 105 130 162 206 264 310
#
# _framework density 22.224812
#
# number of rings (size 3 to 8) (size 9 to 14) (size 15 to 20)
#    0.000    2.667    1.667    3.000    0.000    4.667 
#    3.000    0.000    7.333    2.000    0.000    0.000 
#    0.000    0.000    0.000    0.000    0.000    0.000 
#
# Total GULP energy -134042.492499 kJ/mol
# GULP energy per Si atom -5585.103854 kJ/mol
# Density = 2.217423 g / cm^3
# Si number density = 22.224812 Si / 1000 Ang^3
#
#
#
# Elastic Constant Matrix: (Units=GPa)
#
#
# Indices 1 2 3 4 5 6 
#
# 1 73.3798 21.1065 16.0952 0.0000 3.2895 0.0000
# 2 21.1065 260.1856 119.1446 0.0000 11.4891 0.0000
# 3 16.0952 119.1446 85.2668 0.0000 8.1311 0.0000
# 4 0.0000 0.0000 0.0000 -55.4344 0.0000 1.0909
# 5 3.2895 11.4891 8.1311 0.0000 27.1441 0.0000
# 6 0.0000 0.0000 0.0000 1.0909 0.0000 -3.4674
#
#
#
# Elastic Compliance Matrix: (Units=1/GPa)
#
#
# Indices 1 2 3 4 5 6 
#
# 1 0.014244 0.000212 -0.002894 0.000000 -0.000949 0.000000
# 2 0.000212 0.010675 -0.014950 0.000000 -0.000066 0.000000
# 3 -0.002894 -0.014950 0.033484 0.000000 -0.003352 0.000000
# 4 0.000000 0.000000 0.000000 -0.018152 0.000000 -0.005711
# 5 -0.000949 -0.000066 -0.003352 0.000000 0.037987 0.000000
# 6 0.000000 0.000000 0.000000 -0.005711 0.000000 -0.290196
#
#
# Mechanical properties :
#
#
# Convention : Reuss Voigt Hill
#
# Bulk Modulus (GPa) = 43.21872 81.28053 62.24962
# Shear Modulus (GPa) = -29.58947 11.14751 -9.22098
#
# Velocity S-wave (km/s) = -3.65275 2.24203 -2.03911
# Velocity P-wave (km/s) = 1.30316 6.58435 4.74615
#
# Compressibility (1/GPa) = 0.02313812
#
# Stress axis : x y z
#
# Youngs Moduli (GPa) = 70.20416 93.67476 29.86488
#
# Poissons Ratio (x) = -0.01982 0.08643
# Poissons Ratio (y) = -0.01486 0.44649
# Poissons Ratio (z) = 0.20317 1.40047
#
# Static dielectric constant tensor:
#      x y z
#    x 2.039270 0.000000 -0.021800 
#    y 0.000000 1.798570 0.000000 
#    z -0.021800 0.000000 1.752010 
# 
# From -- ./inp_files/86015.got.cif
#   From: 2010.05.17/outbox.cif.g08.bks.cpg/sg12_44_cif.got.tgz:86015.got - 2010.06.03 13:09:07.
