data_PCOD9182449
_publ_section_title
;
Structure prediction by ZEFSAII (Michael W. Deem and Ramdas Pophale) SiO2 
 PCOD9182449
Probable space group: C 2/M
;
_chemical_formula_sum "Si O2"
_cell_formula_units_Z 64
_cell_length_a 28.772862
_cell_length_b 9.342938
_cell_length_c 14.581229
_cell_angle_alpha 90.000000
_cell_angle_beta 72.760416
_cell_angle_gamma 90.000000
_cell_volume 3743.670430
_symmetry_space_group_name_H-M "C 2/M"
_symmetry_group_IT_number 12
_symmetry_cell_setting 'monoclinic'
loop_
_space_group_symop_operation_xyz
x,y,z
-x,y,-z
-x,-y,-z
x,-y,z
1/2+x,1/2+y,z
1/2-x,1/2+y,-z
1/2-x,1/2-y,-z
1/2+x,1/2-y,z
loop_
_atom_site_type_symbol
_atom_site_label
_atom_site_fract_x
_atom_site_fract_y
_atom_site_fract_z
Si Si1 0.247948 0.668054 0.405221
Si Si2 0.656929 0.670484 0.773377
Si Si3 0.999953 0.671314 0.609154
Si Si4 0.904617 0.165420 0.706179
Si Si5 0.189543 0.171085 0.115790
Si Si6 0.657414 0.337579 0.435740
Si Si7 0.090553 0.170114 0.647305
Si Si8 0.200274 0.329255 0.917045
O O1 0.244639 0.500000 0.423870
O O2 0.250000 0.750000 0.500000
O O3 0.295231 0.694905 0.316766
O O4 0.199352 0.727393 0.386963
O O5 0.654059 0.500000 0.794246
O O6 0.611104 0.709488 0.735618
O O7 0.666571 0.758161 0.859692
O O8 0.002007 0.500000 0.613927
O O9 0.950900 0.732815 0.683319
O O10 0.000000 0.709568 0.500000
O O11 0.045537 0.741392 0.634671
O O12 0.857934 0.203118 0.795776
O O13 0.885141 0.170214 0.613465
O O14 0.918204 0.000000 0.718586
O O15 0.241826 0.200324 0.133279
O O16 0.189077 0.000000 0.096766
O O17 0.189028 0.259607 0.022163
O O18 0.677261 0.500000 0.421867
O O19 0.634515 0.311053 0.548688
O O20 0.079199 0.000000 0.653796
O O21 0.193982 0.500000 0.922607
#
# Coordination Sequence:
#
# PCOD9182449 Si02
#       8
#     8   8   8   8   8   8   8   8
#     4  11  21  32  47  71 105 143 180 217 261 312
#     4  10  21  36  52  75 107 146 185 221 265 321
#     4  11  23  36  52  79 112 142 183 234 280 321
#     4  10  20  35  58  80 105 144 184 223 271 325
#     4   9  19  36  57  84 113 142 180 223 267 324
#     4  10  19  33  51  75 106 140 181 221 259 318
#     4  10  20  36  55  73 103 146 187 221 263 321
#     4  10  20  35  58  85 112 144 179 221 272 322
#
# _framework density 17.095521999999999
#
# number of rings (size 3 to 8) (size 9 to 14) (size 15 to 20)
#    0.000    1.875    2.500    1.875    0.000    5.000 
#    0.000    0.000    0.000    0.750    0.000    5.250 
#    0.000    0.000    0.000    0.000    0.000    0.000 
#
# Total GULP energy -178548.146797 kJ/mol
# GULP energy per Si atom -5579.629587 kJ/mol
# Density = 1.705661 g / cm^3
# Si number density = 17.095522 Si / 1000 Ang^3
#
#
#
# Elastic Constant Matrix: (Units=GPa)
#
#
# Indices 1 2 3 4 5 6 
#
# 1 98.2980 44.7173 38.5843 0.0000 16.5324 0.0000
# 2 44.7173 31.4460 34.9789 0.0000 10.7071 0.0000
# 3 38.5843 34.9789 73.2518 0.0000 15.1798 0.0000
# 4 0.0000 0.0000 0.0000 25.3214 0.0000 1.6111
# 5 16.5324 10.7071 15.1798 0.0000 28.3234 0.0000
# 6 0.0000 0.0000 0.0000 1.6111 0.0000 30.9212
#
#
#
# Elastic Compliance Matrix: (Units=1/GPa)
#
#
# Indices 1 2 3 4 5 6 
#
# 1 0.032411 -0.057062 0.010829 0.000000 -0.003151 0.000000
# 2 -0.057062 0.170550 -0.050538 0.000000 -0.004080 0.000000
# 3 0.010829 -0.050538 0.033108 0.000000 -0.004960 0.000000
# 4 0.000000 0.000000 0.000000 0.039624 0.000000 -0.002064
# 5 -0.003151 -0.004080 -0.004960 0.000000 0.041346 0.000000
# 6 0.000000 0.000000 0.000000 -0.002064 0.000000 0.032448
#
#
# Mechanical properties :
#
#
# Convention : Reuss Voigt Hill
#
# Bulk Modulus (GPa) = 23.51469 48.83963 36.17716
# Shear Modulus (GPa) = 8.97335 22.56087 15.76711
#
# Velocity S-wave (km/s) = 2.29354 3.63670 3.04023
# Velocity P-wave (km/s) = 4.56054 6.80182 5.79065
#
# Compressibility (1/GPa) = 0.04252661
#
# Stress axis : x y z
#
# Youngs Moduli (GPa) = 30.85384 5.86338 30.20411
#
# Poissons Ratio (x) = 0.33458 -0.32708
# Poissons Ratio (y) = 1.76059 1.52646
# Poissons Ratio (z) = -0.33412 0.29632
#
# Static dielectric constant tensor:
#      x y z
#    x 1.590690 0.000000 0.013760 
#    y 0.000000 1.573310 0.000000 
#    z 0.013760 0.000000 1.573300 
# 
# From -- ./inp_files/243961.got.cif
#   From: 2010.05.17/outbox.cif.g08.bks.cpg/sg12_122_cif.got.tgz:243961.got - 2010.06.03 13:09:07.
