data_PCOD9182701
_publ_section_title
;
Structure prediction by ZEFSAII (Michael W. Deem and Ramdas Pophale) SiO2 
 PCOD9182701
Probable space group: C 2/M
;
_chemical_formula_sum "Si O2"
_cell_formula_units_Z 64
_cell_length_a 30.274679
_cell_length_b 8.926981
_cell_length_c 15.894637
_cell_angle_alpha 90.000000
_cell_angle_beta 118.072192
_cell_angle_gamma 90.000000
_cell_volume 3790.341159
_symmetry_space_group_name_H-M "C 2/M"
_symmetry_group_IT_number 12
_symmetry_cell_setting 'monoclinic'
loop_
_space_group_symop_operation_xyz
x,y,z
-x,y,-z
-x,-y,-z
x,-y,z
1/2+x,1/2+y,z
1/2-x,1/2+y,-z
1/2-x,1/2-y,-z
1/2+x,1/2-y,z
loop_
_atom_site_type_symbol
_atom_site_label
_atom_site_fract_x
_atom_site_fract_y
_atom_site_fract_z
Si Si1 0.429233 0.319927 0.777603
Si Si2 0.959985 0.180078 0.147336
Si Si3 0.795106 0.321297 0.233634
Si Si4 0.137764 0.179038 0.843863
Si Si5 0.322615 0.679884 0.611186
Si Si6 0.909551 0.678427 0.939707
Si Si7 0.185972 0.820724 0.066407
Si Si8 0.771362 0.178944 0.388962
O O1 0.427779 0.500000 0.787745
O O2 0.482411 0.283314 0.782814
O O3 0.379554 0.276977 0.681892
O O4 0.426711 0.244036 0.866324
O O5 0.918812 0.221179 0.180412
O O6 0.955647 0.000000 0.131811
O O7 0.943290 0.257000 0.045580
O O8 0.797523 0.500000 0.242777
O O9 0.839735 0.260864 0.216034
O O10 0.742580 0.282174 0.140403
O O11 0.792810 0.249200 0.323502
O O12 0.139827 0.000000 0.832669
O O13 0.171137 0.213895 0.956793
O O14 0.317990 0.500000 0.616859
O O15 0.283717 0.756878 0.639874
O O16 0.304817 0.717619 0.500881
O O17 0.911372 0.500000 0.940860
O O18 0.853566 0.736021 0.910241
O O19 0.179003 0.000000 0.071650
O O20 0.769096 0.000000 0.379597
#
# Coordination Sequence:
#
# PCOD9182701 Si02
#       8
#     8   8   8   8   8   8   8   8
#     4  10  19  33  53  72  94 128 167 202 239 286
#     4   9  19  35  52  69  94 131 168 201 240 284
#     4  11  21  32  50  74  98 128 165 200 239 289
#     4   9  18  33  50  69  95 126 162 203 244 283
#     4   9  19  35  54  76 100 126 159 199 241 287
#     4  11  21  30  45  73 105 132 161 198 239 285
#     4   9  19  34  49  68  98 133 166 199 236 284
#     4  10  20  34  52  75 103 130 156 193 243 293
#
# _framework density 16.885021999999999
#
# number of rings (size 3 to 8) (size 9 to 14) (size 15 to 20)
#    0.000    2.250    0.000    4.125    0.000    9.000 
#    0.000    0.000    0.000    0.750    0.000    5.250 
#    0.000    0.000    0.000    0.000    0.000    0.000 
#
# Total GULP energy -178616.135410 kJ/mol
# GULP energy per Si atom -5581.754232 kJ/mol
# Density = 1.684659 g / cm^3
# Si number density = 16.885022 Si / 1000 Ang^3
#
#
#
# Elastic Constant Matrix: (Units=GPa)
#
#
# Indices 1 2 3 4 5 6 
#
# 1 152.9320 47.5214 82.4807 0.0000 -0.1113 0.0000
# 2 47.5214 25.9153 33.8242 0.0000 -2.7389 0.0000
# 3 82.4807 33.8242 69.6964 0.0000 -0.6161 0.0000
# 4 0.0000 0.0000 0.0000 17.0939 0.0000 -4.0539
# 5 -0.1113 -2.7389 -0.6161 0.0000 29.6060 0.0000
# 6 0.0000 0.0000 0.0000 -4.0539 0.0000 24.1610
#
#
#
# Elastic Compliance Matrix: (Units=1/GPa)
#
#
# Indices 1 2 3 4 5 6 
#
# 1 0.020330 -0.016492 -0.016071 0.000000 -0.001784 0.000000
# 2 -0.016492 0.120917 -0.039074 0.000000 0.010311 0.000000
# 3 -0.016071 -0.039074 0.052306 0.000000 -0.002587 0.000000
# 4 0.000000 0.000000 0.000000 0.060925 0.000000 0.010222
# 5 -0.001784 0.010311 -0.002587 0.000000 0.034670 0.000000
# 6 0.000000 0.000000 0.000000 0.010222 0.000000 0.043104
#
#
# Mechanical properties :
#
#
# Convention : Reuss Voigt Hill
#
# Bulk Modulus (GPa) = 19.88858 64.02182 41.95520
# Shear Modulus (GPa) = 10.15673 19.82001 14.98837
#
# Velocity S-wave (km/s) = 2.45526 3.42983 2.98262
# Velocity P-wave (km/s) = 4.45445 7.32691 6.06324
#
# Compressibility (1/GPa) = 0.05028012
#
# Stress axis : x y z
#
# Youngs Moduli (GPa) = 49.18938 8.27013 19.11820
#
# Poissons Ratio (x) = 0.13639 0.30724
# Poissons Ratio (y) = 0.81124 0.74702
# Poissons Ratio (z) = 0.79050 0.32314
#
# Static dielectric constant tensor:
#      x y z
#    x 1.571470 0.000000 0.020350 
#    y 0.000000 1.565420 0.000000 
#    z 0.020350 0.000000 1.557540 
# 
# From -- ./inp_files/243848.got.cif
#   From: 2010.05.17/outbox.cif.g08.bks.cpg/sg12_122_cif.got.tgz:243848.got - 2010.06.03 13:09:07.
