data_PCOD9182442
_publ_section_title
;
Structure prediction by ZEFSAII (Michael W. Deem and Ramdas Pophale) SiO2 
 PCOD9182442
Probable space group: C 2/M
;
_chemical_formula_sum "Si O2"
_cell_formula_units_Z 64
_cell_length_a 14.962465
_cell_length_b 28.229205
_cell_length_c 14.414736
_cell_angle_alpha 90.000000
_cell_angle_beta 139.998535
_cell_angle_gamma 90.000000
_cell_volume 3913.715193
_symmetry_space_group_name_H-M "C 2/M"
_symmetry_group_IT_number 12
_symmetry_cell_setting 'monoclinic'
loop_
_space_group_symop_operation_xyz
x,y,z
-x,y,-z
-x,-y,-z
x,-y,z
1/2+x,1/2+y,z
1/2-x,1/2+y,-z
1/2-x,1/2-y,-z
1/2+x,1/2-y,z
loop_
_atom_site_type_symbol
_atom_site_label
_atom_site_fract_x
_atom_site_fract_y
_atom_site_fract_z
Si Si1 0.159011 0.553720 0.246162
Si Si2 0.159229 0.359689 0.376616
Si Si3 0.354081 0.784013 0.924623
Si Si4 0.329758 0.854635 0.069721
Si Si5 0.650365 0.325376 0.098948
Si Si6 0.824048 0.554008 0.950937
Si Si7 0.151760 0.788823 0.589005
Si Si8 0.854748 0.679298 0.433752
O O1 0.202253 0.500000 0.302155
O O2 0.195225 0.590578 0.355326
O O3 0.211545 0.566301 0.184336
O O4 0.991737 0.553173 0.098116
O O5 0.260764 0.321279 0.410667
O O6 0.170888 0.352231 0.496047
O O7 0.995408 0.352823 0.222434
O O8 0.374990 0.728259 0.958641
O O9 0.241644 0.786717 0.754230
O O10 0.500000 0.803919 0.000000
O O11 0.308232 0.812782 0.978049
O O12 0.244791 0.848780 0.096063
O O13 0.281774 0.903557 0.983970
O O14 0.734497 0.324325 0.261795
O O15 0.500000 0.347039 0.000000
O O16 0.775921 0.500000 0.931104
O O17 0.134909 0.735597 0.534558
O O18 0.000000 0.806203 0.500000
O O19 0.000000 0.666362 0.500000
#
# Coordination Sequence:
#
# PCOD9182442 Si02
#       8
#     8   8   8   8   8   8   8   8
#     4   8  15  28  48  77 106 127 155 206 259 303
#     4  11  19  31  54  75  98 138 175 203 249 309
#     4  10  19  33  51  74 103 132 169 210 254 300
#     4  11  19  30  54  76  99 135 175 206 250 306
#     4  10  22  36  49  71 103 137 174 217 248 284
#     4   8  15  27  47  77 107 127 155 205 259 305
#     4  10  21  33  48  73 105 133 167 212 252 300
#     4  10  20  36  50  68 101 141 178 210 246 290
#
# _framework density 16.352747999999998
#
# number of rings (size 3 to 8) (size 9 to 14) (size 15 to 20)
#    0.000    2.250    2.500    2.250    1.750    1.000 
#    0.000    0.000    0.000    1.875    0.000    1.750 
#    0.000    0.000    0.000    0.000    0.000    0.000 
#
# Total GULP energy -178265.108542 kJ/mol
# GULP energy per Si atom -5570.784642 kJ/mol
# Density = 1.631553 g / cm^3
# Si number density = 16.352748 Si / 1000 Ang^3
#
#
#
# Elastic Constant Matrix: (Units=GPa)
#
#
# Indices 1 2 3 4 5 6 
#
# 1 111.8716 57.5497 34.9112 0.0000 -8.8579 0.0000
# 2 57.5497 77.4250 25.1039 0.0000 -22.2640 0.0000
# 3 34.9112 25.1039 50.2316 0.0000 -3.9094 0.0000
# 4 0.0000 0.0000 0.0000 5.0218 0.0000 3.3616
# 5 -8.8579 -22.2640 -3.9094 0.0000 33.4119 0.0000
# 6 0.0000 0.0000 0.0000 3.3616 0.0000 8.4898
#
#
#
# Elastic Compliance Matrix: (Units=1/GPa)
#
#
# Indices 1 2 3 4 5 6 
#
# 1 0.016318 -0.011311 -0.005993 0.000000 -0.003912 0.000000
# 2 -0.011311 0.026917 -0.004469 0.000000 0.014415 0.000000
# 3 -0.005993 -0.004469 0.026189 0.000000 -0.001502 0.000000
# 4 0.000000 0.000000 0.000000 0.270943 0.000000 -0.107281
# 5 -0.003912 0.014415 -0.001502 0.000000 0.038322 0.000000
# 6 0.000000 0.000000 0.000000 -0.107281 0.000000 0.160267
#
#
# Mechanical properties :
#
#
# Convention : Reuss Voigt Hill
#
# Bulk Modulus (GPa) = 38.64172 52.73977 45.69074
# Shear Modulus (GPa) = 8.45842 17.51559 12.98700
#
# Velocity S-wave (km/s) = 2.27677 3.27633 2.82117
# Velocity P-wave (km/s) = 5.53110 6.82889 6.21397
#
# Compressibility (1/GPa) = 0.02587876
#
# Stress axis : x y z
#
# Youngs Moduli (GPa) = 61.28296 37.15115 38.18344
#
# Poissons Ratio (x) = 0.42021 0.22882
# Poissons Ratio (y) = 0.69316 0.17065
# Poissons Ratio (z) = 0.36725 0.16604
#
# Static dielectric constant tensor:
#      x y z
#    x 1.547170 0.000000 0.009220 
#    y 0.000000 1.565460 0.000000 
#    z 0.009220 0.000000 1.542330 
# 
# From -- ./inp_files/218945.got.cif
#   From: 2010.05.17/outbox.cif.g08.bks.cpg/sg12_110_cif.got.tgz:218945.got - 2010.06.03 13:09:07.
