data_PCOD9182684
_publ_section_title
;
Structure prediction by ZEFSAII (Michael W. Deem and Ramdas Pophale) SiO2 
 PCOD9182684
Probable space group: C 2/M
;
_chemical_formula_sum "Si O2"
_cell_formula_units_Z 64
_cell_length_a 19.552306
_cell_length_b 17.792593
_cell_length_c 28.343389
_cell_angle_alpha 90.000000
_cell_angle_beta 159.678159
_cell_angle_gamma 90.000000
_cell_volume 3424.405778
_symmetry_space_group_name_H-M "C 2/M"
_symmetry_group_IT_number 12
_symmetry_cell_setting 'monoclinic'
loop_
_space_group_symop_operation_xyz
x,y,z
-x,y,-z
-x,-y,-z
x,-y,z
1/2+x,1/2+y,z
1/2-x,1/2+y,-z
1/2-x,1/2-y,-z
1/2+x,1/2-y,z
loop_
_atom_site_type_symbol
_atom_site_label
_atom_site_fract_x
_atom_site_fract_y
_atom_site_fract_z
Si Si1 0.836932 0.091314 0.139156
Si Si2 0.469780 0.322616 0.313783
Si Si3 0.422311 0.120621 0.901206
Si Si4 0.340914 0.813810 0.617763
Si Si5 0.298124 0.920456 0.722414
Si Si6 0.595051 0.317412 0.909609
Si Si7 0.712002 0.741203 0.635751
Si Si8 0.369823 0.085172 0.140204
O O1 0.961490 0.116495 0.265731
O O2 0.918723 0.124224 0.143244
O O3 0.807419 0.000000 0.118547
O O4 0.633033 0.138666 0.014332
O O5 0.249961 0.322966 0.193847
O O6 0.534720 0.242950 0.334162
O O7 0.640863 0.339493 0.462500
O O8 0.323822 0.076395 0.794976
O O9 0.500000 0.083279 0.000000
O O10 0.285100 0.768766 0.629409
O O11 0.479181 0.881308 0.724303
O O12 0.191309 0.843318 0.642220
O O13 0.506260 0.913560 0.829123
O O14 0.214008 0.000000 0.651209
O O15 0.380836 0.281044 0.775003
O O16 0.750000 0.250000 0.000000
O O17 0.683550 0.362000 0.011014
O O18 0.500000 0.779110 0.500000
O O19 0.315561 0.000000 0.115113
#
# Coordination Sequence:
#
# PCOD9182684 Si02
#       8
#     8   8   8   8   8   8   8   8
#     4  11  21  35  55  82 115 151 186 231 286 345
#     4  10  21  35  53  79 117 158 194 225 275 343
#     4  10  20  31  49  78 117 149 187 223 268 340
#     4  10  20  38  56  79 117 154 191 238 277 342
#     4  10  19  33  52  82 120 152 180 223 282 346
#     4  12  19  35  59  82 114 151 190 234 285 340
#     4  11  22  36  57  84 114 149 192 240 288 338
#     4  10  20  35  59  85 111 150 193 240 288 341
#
# _framework density 18.689373
#
# number of rings (size 3 to 8) (size 9 to 14) (size 15 to 20)
#    0.000    1.500    5.000    1.500    0.000    6.250 
#    0.000    2.500    0.000    1.500    0.000    0.000 
#    0.000   18.750    0.000    0.000    0.000    0.000 
#
# Total GULP energy -178194.070773 kJ/mol
# GULP energy per Si atom -5568.564712 kJ/mol
# Density = 1.864683 g / cm^3
# Si number density = 18.689373 Si / 1000 Ang^3
#
#
#
# Elastic Constant Matrix: (Units=GPa)
#
#
# Indices 1 2 3 4 5 6 
#
# 1 39.6643 17.6316 17.5382 0.0054 -10.2423 -0.0058
# 2 17.6316 88.8668 61.7783 -0.0549 -1.0704 0.0285
# 3 17.5382 61.7783 143.1701 -0.0907 -4.0260 0.0382
# 4 0.0054 -0.0549 -0.0907 -46.1720 0.0123 14.6971
# 5 -10.2423 -1.0704 -4.0260 0.0123 25.8605 -0.0003
# 6 -0.0058 0.0285 0.0382 14.6971 -0.0003 -1.8821
#
#
#
# Elastic Compliance Matrix: (Units=1/GPa)
#
#
# Indices 1 2 3 4 5 6 
#
# 1 0.031140 -0.005165 -0.001250 0.000033 0.011925 0.000054
# 2 -0.005165 0.016936 -0.006743 -0.000024 -0.002395 -0.000049
# 3 -0.001250 -0.006743 0.010070 -0.000015 0.000793 -0.000010
# 4 0.000033 -0.000024 -0.000015 0.014578 0.000004 0.113837
# 5 0.011925 -0.002395 0.000793 0.000004 0.043416 -0.000032
# 6 0.000054 -0.000049 -0.000010 0.113837 -0.000032 0.357626
#
#
# Mechanical properties :
#
#
# Convention : Reuss Voigt Hill
#
# Bulk Modulus (GPa) = 31.41801 51.73307 41.57554
# Shear Modulus (GPa) = 9.79064 7.21148 8.50106
#
# Velocity S-wave (km/s) = 2.29128 1.96646 2.13506
# Velocity P-wave (km/s) = 4.88335 5.73555 5.32652
#
# Compressibility (1/GPa) = 0.03182888
#
# Stress axis : x y z
#
# Youngs Moduli (GPa) = 32.11310 59.04556 99.30883
#
# Poissons Ratio (x) = 0.30500 0.12417
# Poissons Ratio (y) = 0.16588 0.66959
# Poissons Ratio (z) = 0.04015 0.39812
#
# Static dielectric constant tensor:
#      x y z
#    x 1.683500 0.000000 -0.013850 
#    y 0.000000 1.654250 -0.000020 
#    z -0.013850 -0.000020 1.691070 
# 
# From -- ./inp_files/381632.got.cif
#   From: 2010.05.17/outbox.cif.g08.bks.cpg/sg12_191_cif.got.tgz:381632.got - 2010.06.03 13:09:07.
