data_PCOD9182523
_publ_section_title
;
Structure prediction by ZEFSAII (Michael W. Deem and Ramdas Pophale) SiO2 
 PCOD9182523
Probable space group: C 2/M
;
_chemical_formula_sum "Si O2"
_cell_formula_units_Z 56
_cell_length_a 17.306720
_cell_length_b 14.075056
_cell_length_c 14.877156
_cell_angle_alpha 90.000000
_cell_angle_beta 128.898585
_cell_angle_gamma 90.000000
_cell_volume 2820.387466
_symmetry_space_group_name_H-M "C 2/M"
_symmetry_group_IT_number 12
_symmetry_cell_setting 'monoclinic'
loop_
_space_group_symop_operation_xyz
x,y,z
-x,y,-z
-x,-y,-z
x,-y,z
1/2+x,1/2+y,z
1/2-x,1/2+y,-z
1/2-x,1/2-y,-z
1/2+x,1/2-y,z
loop_
_atom_site_type_symbol
_atom_site_label
_atom_site_fract_x
_atom_site_fract_y
_atom_site_fract_z
Si Si1 0.866885 0.896496 0.443727
Si Si2 0.473446 0.748543 0.647672
Si Si3 0.190509 0.744174 0.123650
Si Si4 0.129399 0.893509 0.768296
Si Si5 0.855132 0.391263 0.210489
Si Si6 0.147036 0.333807 0.278521
Si Si7 0.437130 0.895869 0.068191
O O1 0.915943 0.806463 0.527295
O O2 0.887485 0.894598 0.352231
O O3 0.748417 0.889846 0.369012
O O4 0.901291 0.000000 0.504033
O O5 0.540836 0.667686 0.744653
O O6 0.556544 0.827063 0.680838
O O7 0.395250 0.790146 0.660813
O O8 0.269145 0.663512 0.149101
O O9 0.248327 0.840604 0.142550
O O10 0.175186 0.739271 0.219473
O O11 0.093732 0.700571 0.005517
O O12 0.136053 0.000000 0.806790
O O13 0.855196 0.500000 0.242554
O O14 0.885171 0.391566 0.127545
O O15 0.054937 0.392852 0.171668
O O16 0.411433 0.000000 0.008489
#
# Coordination Sequence:
#
# PCOD9182523 Si02
#       7
#     8   8   8   8   8   8   8
#     4  10  19  33  55  79 104 136 172 216 267 306
#     4  10  19  33  52  73 102 137 173 212 255 305
#     4  10  19  33  55  78 106 137 169 209 256 311
#     4   9  18  32  53  81 106 129 166 218 269 309
#     4   9  20  37  55  76 102 136 177 215 252 301
#     4  10  21  33  48  76 113 143 169 206 254 308
#     4  10  19  33  56  82 105 132 169 214 262 307
#
# _framework density 19.855429000000001
#
# number of rings (size 3 to 8) (size 9 to 14) (size 15 to 20)
#    0.000    2.286    0.000    3.000    0.000    4.000 
#    0.000    1.429    0.000   20.571    0.000    0.000 
#    0.000    0.000    0.000    0.000    0.000    0.000 
#
# Total GULP energy -156095.836807 kJ/mol
# GULP energy per Si atom -5574.851315 kJ/mol
# Density = 1.981024 g / cm^3
# Si number density = 19.855429 Si / 1000 Ang^3
#
#
#
# Elastic Constant Matrix: (Units=GPa)
#
#
# Indices 1 2 3 4 5 6 
#
# 1 84.4448 28.4442 8.6418 0.0000 21.4977 0.0000
# 2 28.4442 137.6337 33.3476 0.0000 16.0143 0.0000
# 3 8.6418 33.3476 58.3794 0.0000 20.1957 0.0000
# 4 0.0000 0.0000 0.0000 23.9549 0.0000 2.2261
# 5 21.4977 16.0143 20.1957 0.0000 25.4969 0.0000
# 6 0.0000 0.0000 0.0000 2.2261 0.0000 10.1291
#
#
#
# Elastic Compliance Matrix: (Units=1/GPa)
#
#
# Indices 1 2 3 4 5 6 
#
# 1 0.016240 -0.002630 0.004496 0.000000 -0.015601 0.000000
# 2 -0.002630 0.008937 -0.004877 0.000000 0.000468 0.000000
# 3 0.004496 -0.004877 0.026862 0.000000 -0.022004 0.000000
# 4 0.000000 0.000000 0.000000 0.042615 0.000000 -0.009366
# 5 -0.015601 0.000468 -0.022004 0.000000 0.069510 0.000000
# 6 0.000000 0.000000 0.000000 -0.009366 0.000000 0.100783
#
#
# Mechanical properties :
#
#
# Convention : Reuss Voigt Hill
#
# Bulk Modulus (GPa) = 21.73229 46.81392 34.27311
# Shear Modulus (GPa) = 17.46367 25.91781 21.69074
#
# Velocity S-wave (km/s) = 2.96892 3.61685 3.30878
# Velocity P-wave (km/s) = 4.76673 6.40864 5.64767
#
# Compressibility (1/GPa) = 0.04601448
#
# Stress axis : x y z
#
# Youngs Moduli (GPa) = 61.57758 111.90053 37.22744
#
# Poissons Ratio (x) = 0.29431 -0.16736
# Poissons Ratio (y) = 0.16196 0.18157
# Poissons Ratio (z) = -0.27683 0.54577
#
# Static dielectric constant tensor:
#      x y z
#    x 1.704700 0.000000 0.034980 
#    y 0.000000 1.716680 0.000000 
#    z 0.034980 0.000000 1.772790 
# 
# From -- ./inp_files/223170.got.cif
#   From: 2010.05.17/outbox.cif.g08.bks.cpg/sg12_112_cif.got.tgz:223170.got - 2010.06.03 13:09:07.
