data_PCOD9182377
_publ_section_title
;
Structure prediction by ZEFSAII (Michael W. Deem and Ramdas Pophale) SiO2 
 PCOD9182377
Probable space group: C 2/M
;
_chemical_formula_sum "Si O2"
_cell_formula_units_Z 44
_cell_length_a 19.964201
_cell_length_b 21.349386
_cell_length_c 5.185807
_cell_angle_alpha 90.000000
_cell_angle_beta 84.709062
_cell_angle_gamma 90.000000
_cell_volume 2200.894975
_symmetry_space_group_name_H-M "C 2/M"
_symmetry_group_IT_number 12
_symmetry_cell_setting 'monoclinic'
loop_
_space_group_symop_operation_xyz
x,y,z
-x,y,-z
-x,-y,-z
x,-y,z
1/2+x,1/2+y,z
1/2-x,1/2+y,-z
1/2-x,1/2-y,-z
1/2+x,1/2-y,z
loop_
_atom_site_type_symbol
_atom_site_label
_atom_site_fract_x
_atom_site_fract_y
_atom_site_fract_z
Si Si1 0.953119 0.500000 0.767525
Si Si2 0.349381 0.804697 0.481506
Si Si3 0.725368 0.432159 0.874976
Si Si4 0.789561 0.794437 0.191302
Si Si5 0.179516 0.566755 0.662997
Si Si6 0.047439 0.639001 0.230712
O O1 0.000000 0.500000 0.500000
O O2 0.919462 0.568855 0.790317
O O3 0.000000 0.500000 0.000000
O O4 0.270958 0.807282 0.586067
O O5 0.349990 0.743883 0.302740
O O6 0.362709 0.869680 0.327451
O O7 0.395347 0.810224 0.718429
O O8 0.688378 0.500000 0.894062
O O9 0.689365 0.364370 0.901520
O O10 0.771562 0.434110 0.602608
O O11 0.774188 0.431459 0.103184
O O12 0.750000 0.750000 0.000000
O O13 0.141606 0.500000 0.674640
O O14 0.000000 0.640276 0.500000
O O15 0.000000 0.649485 0.000000
#
# Coordination Sequence:
#
# PCOD9182377 Si02
#       6
#     4   8   8   8   8   8
#     4   8  16  34  50  68  96 134 178 224 250 270
#     4  10  21  32  51  73 101 138 170 215 263 301
#     4   9  17  30  45  66  97 128 161 198 241 301
#     4  10  19  33  50  74 104 132 170 210 262 316
#     4   9  17  28  44  67  93 128 169 203 237 288
#     4  10  22  36  52  72 101 137 181 221 252 292
#
# _framework density 19.991865000000001
#
# number of rings (size 3 to 8) (size 9 to 14) (size 15 to 20)
#    0.000    2.545    1.818    0.000    3.818    0.000 
#    0.000    0.000    0.000    0.000    0.000    0.000 
#    0.000    1.455    0.000    0.182    0.000    0.182 
#
# Total GULP energy -122615.678681 kJ/mol
# GULP energy per Si atom -5573.439940 kJ/mol
# Density = 1.994636 g / cm^3
# Si number density = 19.991865 Si / 1000 Ang^3
#
#
#
# Elastic Constant Matrix: (Units=GPa)
#
#
# Indices 1 2 3 4 5 6 
#
# 1 39.7760 32.2800 23.6740 0.0000 19.6009 0.0000
# 2 32.2800 196.0527 43.8382 0.0000 36.0954 0.0000
# 3 23.6740 43.8382 130.9044 0.0000 20.9739 0.0000
# 4 0.0000 0.0000 0.0000 34.3834 0.0000 14.6209
# 5 19.6009 36.0954 20.9739 0.0000 30.4133 0.0000
# 6 0.0000 0.0000 0.0000 14.6209 0.0000 20.7792
#
#
#
# Elastic Compliance Matrix: (Units=1/GPa)
#
#
# Indices 1 2 3 4 5 6 
#
# 1 0.038616 -0.001894 -0.003060 0.000000 -0.020529 0.000000
# 2 -0.001894 0.006754 -0.000934 0.000000 -0.006151 0.000000
# 3 -0.003060 -0.000934 0.009007 0.000000 -0.003131 0.000000
# 4 0.000000 0.000000 0.000000 0.041501 0.000000 -0.029201
# 5 -0.020529 -0.006151 -0.003131 0.000000 0.055570 0.000000
# 6 0.000000 0.000000 0.000000 -0.029201 0.000000 0.068672
#
#
# Mechanical properties :
#
#
# Convention : Reuss Voigt Hill
#
# Bulk Modulus (GPa) = 23.47401 62.92415 43.19908
# Shear Modulus (GPa) = 20.31733 34.91126 27.61430
#
# Velocity S-wave (km/s) = 3.19137 4.18338 3.72059
# Velocity P-wave (km/s) = 5.03459 7.40793 6.33342
#
# Compressibility (1/GPa) = 0.04260030
#
# Stress axis : x y z
#
# Youngs Moduli (GPa) = 25.89632 148.06545 111.02556
#
# Poissons Ratio (x) = 0.28047 0.33975
# Poissons Ratio (y) = 0.04905 0.10366
# Poissons Ratio (z) = 0.07924 0.13824
#
# Static dielectric constant tensor:
#      x y z
#    x 1.700810 0.000000 -0.026750 
#    y 0.000000 1.867560 0.000000 
#    z -0.026750 0.000000 1.852150 
# 
# From -- ./inp_files/16060.got.cif
#   From: 2010.05.17/outbox.cif.g08.bks.cpg/sg12_9_cif.got.tgz:16060.got - 2010.06.03 13:09:07.
