data_PCOD9182443
_publ_section_title
;
Structure prediction by ZEFSAII (Michael W. Deem and Ramdas Pophale) SiO2 
 PCOD9182443
Probable space group: C 2/M
;
_chemical_formula_sum "Si O2"
_cell_formula_units_Z 48
_cell_length_a 30.945834
_cell_length_b 8.836093
_cell_length_c 19.752610
_cell_angle_alpha 90.000000
_cell_angle_beta 149.457511
_cell_angle_gamma 90.000000
_cell_volume 2744.745750
_symmetry_space_group_name_H-M "C 2/M"
_symmetry_group_IT_number 12
_symmetry_cell_setting 'monoclinic'
loop_
_space_group_symop_operation_xyz
x,y,z
-x,y,-z
-x,-y,-z
x,-y,z
1/2+x,1/2+y,z
1/2-x,1/2+y,-z
1/2-x,1/2-y,-z
1/2+x,1/2-y,z
loop_
_atom_site_type_symbol
_atom_site_label
_atom_site_fract_x
_atom_site_fract_y
_atom_site_fract_z
Si Si1 0.383717 0.174124 0.186125
Si Si2 0.601244 0.177478 0.148448
Si Si3 0.147877 0.179922 0.071628
Si Si4 0.157196 0.819480 0.364713
Si Si5 0.267301 0.672723 0.130358
Si Si6 0.998893 0.682873 0.222449
O O1 0.351441 0.270853 0.205653
O O2 0.464664 0.224078 0.251158
O O3 0.394992 0.000000 0.222316
O O4 0.307101 0.176397 0.027331
O O5 0.646234 0.244835 0.142977
O O6 0.625352 0.269604 0.247589
O O7 0.621912 0.000000 0.185470
O O8 0.500000 0.188965 0.000000
O O9 0.231958 0.223667 0.142723
O O10 0.138114 0.000000 0.062911
O O11 0.068746 0.249739 0.922516
O O12 0.250000 0.750000 0.500000
O O13 0.090228 0.748019 0.327064
O O14 0.158477 0.000000 0.372614
O O15 0.275077 0.500000 0.163903
O O16 0.997311 0.500000 0.214672
#
# Coordination Sequence:
#
# PCOD9182443 Si02
#       6
#     8   8   8   8   8   8
#     4   8  15  26  42  65  97 134 171 212 261 315
#     4  11  22  37  58  80 108 142 180 225 273 321
#     4  11  20  30  49  76 106 139 178 219 266 321
#     4  12  25  40  58  80 109 143 183 225 270 322
#     4   9  16  26  41  65 100 136 171 213 263 314
#     4  10  19  33  51  74 104 139 178 221 269 317
#
# _framework density 17.487959
#
# number of rings (size 3 to 8) (size 9 to 14) (size 15 to 20)
#    0.000    1.833    1.667    5.500    0.000    5.333 
#    0.000    0.000    0.000    0.000    0.000    1.167 
#    0.000    9.333    0.000    0.000    0.000    0.000 
#
# Total GULP energy -133930.612937 kJ/mol
# GULP energy per Si atom -5580.442206 kJ/mol
# Density = 1.744816 g / cm^3
# Si number density = 17.487959 Si / 1000 Ang^3
#
#
#
# Elastic Constant Matrix: (Units=GPa)
#
#
# Indices 1 2 3 4 5 6 
#
# 1 139.8810 52.7501 27.4008 0.0000 28.5765 0.0000
# 2 52.7501 106.7672 18.7753 0.0000 12.3868 0.0000
# 3 27.4008 18.7753 33.8923 0.0000 16.3464 0.0000
# 4 0.0000 0.0000 0.0000 18.6584 0.0000 2.2721
# 5 28.5765 12.3868 16.3464 0.0000 18.2233 0.0000
# 6 0.0000 0.0000 0.0000 2.2721 0.0000 33.9574
#
#
#
# Elastic Compliance Matrix: (Units=1/GPa)
#
#
# Indices 1 2 3 4 5 6 
#
# 1 0.011942 -0.004088 0.000532 0.000000 -0.016424 0.000000
# 2 -0.004088 0.011893 -0.004365 0.000000 0.002241 0.000000
# 3 0.000532 -0.004365 0.053694 0.000000 -0.046031 0.000000
# 4 0.000000 0.000000 0.000000 0.054035 0.000000 -0.003615
# 5 -0.016424 0.002241 -0.046031 0.000000 0.120397 0.000000
# 6 0.000000 0.000000 0.000000 -0.003615 0.000000 0.029691
#
#
# Mechanical properties :
#
#
# Convention : Reuss Voigt Hill
#
# Bulk Modulus (GPa) = 16.21074 53.15479 34.68276
# Shear Modulus (GPa) = 15.72048 26.27544 20.99796
#
# Velocity S-wave (km/s) = 3.00147 3.88040 3.46888
# Velocity P-wave (km/s) = 4.61536 7.10899 5.99330
#
# Compressibility (1/GPa) = 0.06168752
#
# Stress axis : x y z
#
# Youngs Moduli (GPa) = 83.73975 84.08014 18.62397
#
# Poissons Ratio (x) = 0.34372 -0.00990
# Poissons Ratio (y) = 0.34233 0.08129
# Poissons Ratio (z) = -0.04452 0.36697
#
# Static dielectric constant tensor:
#      x y z
#    x 1.617520 0.000000 0.014850 
#    y 0.000000 1.584020 0.000000 
#    z 0.014850 0.000000 1.574100 
# 
# From -- ./inp_files/248814.got.cif
#   From: 2010.05.17/outbox.cif.g08.bks.cpg/sg12_125_cif.got.tgz:248814.got - 2010.06.03 13:09:07.
