data_PCOD9182280
_publ_section_title
;
Structure prediction by ZEFSAII (Michael W. Deem and Ramdas Pophale) SiO2 
 PCOD9182280
Probable space group: C 2/M
;
_chemical_formula_sum "Si O2"
_cell_formula_units_Z 36
_cell_length_a 16.134146
_cell_length_b 21.799365
_cell_length_c 10.039393
_cell_angle_alpha 90.000000
_cell_angle_beta 149.067331
_cell_angle_gamma 90.000000
_cell_volume 1815.039594
_symmetry_space_group_name_H-M "C 2/M"
_symmetry_group_IT_number 12
_symmetry_cell_setting 'monoclinic'
loop_
_space_group_symop_operation_xyz
x,y,z
-x,y,-z
-x,-y,-z
x,-y,z
1/2+x,1/2+y,z
1/2-x,1/2+y,-z
1/2-x,1/2-y,-z
1/2+x,1/2-y,z
loop_
_atom_site_type_symbol
_atom_site_label
_atom_site_fract_x
_atom_site_fract_y
_atom_site_fract_z
Si Si1 0.500000 0.391720 0.500000
Si Si2 0.352901 0.685392 0.891753
Si Si3 0.193756 0.684118 0.132889
Si Si4 0.963022 0.067995 0.741804
Si Si5 0.663876 0.146011 0.386233
O O1 0.657057 0.349109 0.728519
O O2 0.526818 0.429744 0.403477
O O3 0.322550 0.745671 0.936441
O O4 0.207809 0.673345 0.590276
O O5 0.500000 0.705485 0.000000
O O6 0.418202 0.622320 0.044975
O O7 0.219436 0.683701 0.330258
O O8 0.029155 0.645502 0.887060
O O9 0.780883 0.086796 0.534383
O O10 0.004918 0.000000 0.847318
#
# Coordination Sequence:
#
# PCOD9182280 Si02
#       5
#     4   8   8   8   8
#     4  10  23  38  58  82 113 152 184 236 276 332
#     4  10  19  32  60  85 115 144 176 239 280 329
#     4  10  19  35  57  88 114 141 186 226 293 326
#     4  10  22  39  57  81 112 154 190 222 276 332
#     4   9  19  34  59  85 111 143 180 236 275 330
#
# _framework density 19.834278999999999
#
# number of rings (size 3 to 8) (size 9 to 14) (size 15 to 20)
#    0.000    2.222    2.222    1.000    6.222    4.889 
#    0.000   10.000    0.000    1.333    0.000    0.000 
#    0.000    0.000    0.000    0.000    0.000    0.000 
#
# Total GULP energy -100266.766138 kJ/mol
# GULP energy per Si atom -5570.375897 kJ/mol
# Density = 1.978914 g / cm^3
# Si number density = 19.834279 Si / 1000 Ang^3
#
#
#
# Elastic Constant Matrix: (Units=GPa)
#
#
# Indices 1 2 3 4 5 6 
#
# 1 54.3778 16.8284 25.3896 0.0000 12.9469 0.0000
# 2 16.8284 124.4278 35.3144 0.0000 12.4897 0.0000
# 3 25.3896 35.3144 100.5566 0.0000 9.7305 0.0000
# 4 0.0000 0.0000 0.0000 14.1793 0.0000 -0.8966
# 5 12.9469 12.4897 9.7305 0.0000 30.9363 0.0000
# 6 0.0000 0.0000 0.0000 -0.8966 0.0000 -0.0934
#
#
#
# Elastic Compliance Matrix: (Units=1/GPa)
#
#
# Indices 1 2 3 4 5 6 
#
# 1 0.022679 -0.000983 -0.004642 0.000000 -0.007634 0.000000
# 2 -0.000983 0.009193 -0.002744 0.000000 -0.002437 0.000000
# 3 -0.004642 -0.002744 0.012155 0.000000 -0.000772 0.000000
# 4 0.000000 0.000000 0.000000 0.043895 0.000000 -0.421165
# 5 -0.007634 -0.002437 -0.000772 0.000000 0.036746 0.000000
# 6 0.000000 0.000000 0.000000 -0.421165 0.000000 -6.660719
#
#
# Mechanical properties :
#
#
# Convention : Reuss Voigt Hill
#
# Bulk Modulus (GPa) = 36.64657 48.26966 42.45812
# Shear Modulus (GPa) = -0.76802 22.45974 10.84586
#
# Velocity S-wave (km/s) = -0.62295 3.36872 2.34096
# Velocity P-wave (km/s) = 4.24253 6.28652 5.36281
#
# Compressibility (1/GPa) = 0.02728768
#
# Stress axis : x y z
#
# Youngs Moduli (GPa) = 44.09294 108.77467 82.26828
#
# Poissons Ratio (x) = 0.10698 0.38191
# Poissons Ratio (y) = 0.04336 0.22578
# Poissons Ratio (z) = 0.20469 0.29853
#
# Static dielectric constant tensor:
#      x y z
#    x 1.698050 0.000000 -0.053850 
#    y 0.000000 1.726190 0.000000 
#    z -0.053850 0.000000 1.761840 
# 
# From -- ./inp_files/159371.got.cif
#   From: 2010.05.17/outbox.cif.g08.bks.cpg/sg12_80_cif.got.tgz:159371.got - 2010.06.03 13:09:07.
