data_PCOD9182896
_publ_section_title
;
Structure prediction by ZEFSAII (Michael W. Deem and Ramdas Pophale) SiO2 
 PCOD9182896
Probable space group: C 2/M
;
_chemical_formula_sum "Si O2"
_cell_formula_units_Z 64
_cell_length_a 16.090370
_cell_length_b 7.725791
_cell_length_c 27.295712
_cell_angle_alpha 90.000000
_cell_angle_beta 62.179473
_cell_angle_gamma 90.000000
_cell_volume 3000.951234
_symmetry_space_group_name_H-M "C 2/M"
_symmetry_group_IT_number 12
_symmetry_cell_setting 'monoclinic'
loop_
_space_group_symop_operation_xyz
x,y,z
-x,y,-z
-x,-y,-z
x,-y,z
1/2+x,1/2+y,z
1/2-x,1/2+y,-z
1/2-x,1/2-y,-z
1/2+x,1/2-y,z
loop_
_atom_site_type_symbol
_atom_site_label
_atom_site_fract_x
_atom_site_fract_y
_atom_site_fract_z
Si Si1 0.422186 0.709987 0.060962
Si Si2 0.098527 0.702284 0.563151
Si Si3 0.826195 0.701833 0.755804
Si Si4 0.113390 0.700822 0.821703
Si Si5 0.784696 0.794755 0.561956
Si Si6 0.886425 0.710383 0.633023
Si Si7 0.930444 0.286902 0.823994
Si Si8 0.267540 0.207430 0.938788
O O1 0.423666 0.500000 0.063711
O O2 0.434163 0.781986 0.111874
O O3 0.321192 0.767807 0.068528
O O4 0.500000 0.762290 0.000000
O O5 0.089068 0.500000 0.578388
O O6 0.140691 0.717659 0.497017
O O7 0.180960 0.773794 0.575839
O O8 0.993381 0.773926 0.595223
O O9 0.852482 0.500000 0.746896
O O10 0.714792 0.712233 0.795212
O O11 0.851483 0.773681 0.695588
O O12 0.883251 0.773612 0.786497
O O13 0.130988 0.500000 0.806239
O O14 0.036944 0.769667 0.804291
O O15 0.818638 0.764039 0.607478
O O16 0.783837 0.000000 0.552783
O O17 0.886037 0.500000 0.632560
O O18 0.931254 0.500000 0.824186
O O19 0.862997 0.229781 0.887244
O O20 0.268593 0.000000 0.934920
O O21 0.250000 0.250000 0.000000
#
# Coordination Sequence:
#
# PCOD9182896 Si02
#       8
#     8   8   8   8   8   8   8   8
#     4  10  20  35  56  81 111 146 181 219 271 337
#     4   9  19  36  56  82 116 154 193 227 271 337
#     4  10  21  41  61  77 107 151 192 230 277 338
#     4  11  22  36  58  85 110 139 181 234 284 327
#     4  10  20  34  56  86 119 151 183 233 288 326
#     4  10  21  36  58  82 107 149 197 233 272 332
#     4   9  19  37  58  77 105 145 182 220 274 336
#     4  10  19  33  53  78 108 141 175 217 268 326
#
# _framework density 21.32657
#
# number of rings (size 3 to 8) (size 9 to 14) (size 15 to 20)
#    0.000    2.125    1.250    1.875    0.000    4.750 
#    0.000    4.375    0.000    0.000    0.000    0.000 
#    0.000    0.000    0.000    0.000    0.000    0.000 
#
# Total GULP energy -178691.402517 kJ/mol
# GULP energy per Si atom -5584.106329 kJ/mol
# Density = 2.127803 g / cm^3
# Si number density = 21.326570 Si / 1000 Ang^3
#
#
#
# Elastic Constant Matrix: (Units=GPa)
#
#
# Indices 1 2 3 4 5 6 
#
# 1 121.1405 -3.5825 45.0120 0.0001 35.3257 0.0001
# 2 -3.5825 27.9225 -12.3022 -0.0003 -2.6964 -0.0001
# 3 45.0120 -12.3022 91.6577 0.0000 30.6963 0.0000
# 4 0.0001 -0.0003 0.0000 15.7593 -0.0002 3.3030
# 5 35.3257 -2.6964 30.6963 -0.0002 23.8855 -0.0001
# 6 0.0001 -0.0001 0.0000 3.3030 -0.0001 15.2859
#
#
#
# Elastic Compliance Matrix: (Units=1/GPa)
#
#
# Indices 1 2 3 4 5 6 
#
# 1 0.014516 -0.000189 0.000076 0.000000 -0.021587 0.000000
# 2 -0.000189 0.038284 0.006479 0.000001 -0.003725 0.000000
# 3 0.000076 0.006479 0.020251 0.000000 -0.025406 0.000000
# 4 0.000000 0.000001 0.000000 0.066465 0.000001 -0.014362
# 5 -0.021587 -0.003725 -0.025406 0.000001 0.106024 0.000001
# 6 0.000000 0.000000 0.000000 -0.014362 0.000001 0.068523
#
#
# Mechanical properties :
#
#
# Convention : Reuss Voigt Hill
#
# Bulk Modulus (GPa) = 11.65747 33.21950 22.43849
# Shear Modulus (GPa) = 15.15491 25.09236 20.12364
#
# Velocity S-wave (km/s) = 2.66862 3.43385 3.07513
# Velocity P-wave (km/s) = 3.86955 5.59751 4.81173
#
# Compressibility (1/GPa) = 0.08578187
#
# Stress axis : x y z
#
# Youngs Moduli (GPa) = 68.88789 26.12071 49.37993
#
# Poissons Ratio (x) = 0.00493 -0.00373
# Poissons Ratio (y) = 0.01301 -0.31991
# Poissons Ratio (z) = -0.00520 -0.16923
#
# Static dielectric constant tensor:
#      x y z
#    x 1.793640 0.000000 -0.003020 
#    y 0.000000 1.813990 0.000000 
#    z -0.003020 0.000000 1.743800 
# 
# From -- ./inp_files/359729.got.cif
#   From: 2010.05.17/outbox.cif.g08.bks.cpg/sg12_180_cif.got.tgz:359729.got - 2010.06.03 13:09:07.
