data_PCOD9182426
_publ_section_title
;
Structure prediction by ZEFSAII (Michael W. Deem and Ramdas Pophale) SiO2 
 PCOD9182426
Probable space group: C 2/M
;
_chemical_formula_sum "Si O2"
_cell_formula_units_Z 64
_cell_length_a 12.159084
_cell_length_b 11.630354
_cell_length_c 23.246982
_cell_angle_alpha 90.000000
_cell_angle_beta 111.410944
_cell_angle_gamma 90.000000
_cell_volume 3060.578836
_symmetry_space_group_name_H-M "C 2/M"
_symmetry_group_IT_number 12
_symmetry_cell_setting 'monoclinic'
loop_
_space_group_symop_operation_xyz
x,y,z
-x,y,-z
-x,-y,-z
x,-y,z
1/2+x,1/2+y,z
1/2-x,1/2+y,-z
1/2-x,1/2-y,-z
1/2+x,1/2-y,z
loop_
_atom_site_type_symbol
_atom_site_label
_atom_site_fract_x
_atom_site_fract_y
_atom_site_fract_z
Si Si1 0.796360 0.874533 0.834694
Si Si2 0.098741 0.304724 0.221461
Si Si3 0.199462 0.196571 0.406407
Si Si4 0.951938 0.129450 0.055680
Si Si5 0.393824 0.130681 0.100245
Si Si6 0.500413 0.374103 0.713582
Si Si7 0.795541 0.874531 0.340489
Si Si8 0.898925 0.627691 0.526786
O O1 0.800977 0.772626 0.790264
O O2 0.930678 0.876164 0.883092
O O3 0.709745 0.858611 0.872056
O O4 0.768288 0.000000 0.803571
O O5 0.018427 0.366417 0.158773
O O6 0.011379 0.220705 0.239781
O O7 0.171007 0.374791 0.282492
O O8 0.121155 0.128710 0.345870
O O9 0.286832 0.277156 0.386391
O O10 0.112903 0.280292 0.425368
O O11 0.276459 0.129893 0.467658
O O12 0.890457 0.251394 0.061452
O O13 0.893707 0.000000 0.049786
O O14 0.000000 0.138638 0.000000
O O15 0.382641 0.000000 0.072246
O O16 0.517970 0.500000 0.743452
O O17 0.603013 0.355258 0.687008
O O18 0.815562 0.000000 0.370920
O O19 0.920642 0.500000 0.554259
O O20 0.000000 0.654066 0.500000
#
# Coordination Sequence:
#
# PCOD9182426 Si02
#       8
#     8   8   8   8   8   8   8   8
#     4   9  18  33  52  74 103 137 171 210 257 305
#     4  10  19  33  51  73 101 134 169 205 248 299
#     4  10  20  34  51  71  97 126 157 199 248 294
#     4   9  19  36  55  76 105 140 176 214 258 309
#     4  10  20  34  53  78 106 136 173 216 259 303
#     4  10  20  33  51  74  99 129 166 204 242 293
#     4  10  20  33  49  71  99 128 160 201 249 296
#     4  10  20  34  52  72  94 123 160 199 241 294
#
# _framework density 20.911076999999999
#
# number of rings (size 3 to 8) (size 9 to 14) (size 15 to 20)
#    0.000    2.250    0.000    3.000    0.000    1.250 
#    0.000    3.125    0.000   18.000    0.000    0.000 
#    0.000    0.000    0.000    0.000    0.000    0.000 
#
# Total GULP energy -178408.618779 kJ/mol
# GULP energy per Si atom -5575.269337 kJ/mol
# Density = 2.086348 g / cm^3
# Si number density = 20.911077 Si / 1000 Ang^3
#
#
#
# Elastic Constant Matrix: (Units=GPa)
#
#
# Indices 1 2 3 4 5 6 
#
# 1 65.5511 40.8781 -21.3143 0.0000 -11.5091 0.0000
# 2 40.8781 149.1049 16.1857 0.0000 -25.1932 0.0000
# 3 -21.3143 16.1857 28.2300 0.0000 1.7772 0.0000
# 4 0.0000 0.0000 0.0000 -27.0668 0.0000 0.2865
# 5 -11.5091 -25.1932 1.7772 0.0000 24.6206 0.0000
# 6 0.0000 0.0000 0.0000 0.2865 0.0000 -23.2306
#
#
#
# Elastic Compliance Matrix: (Units=1/GPa)
#
#
# Indices 1 2 3 4 5 6 
#
# 1 0.034139 -0.012895 0.033146 0.000000 0.000372 0.000000
# 2 -0.012895 0.013816 -0.018251 0.000000 0.009427 0.000000
# 3 0.033146 -0.018251 0.071438 0.000000 -0.008337 0.000000
# 4 0.000000 0.000000 0.000000 -0.036950 0.000000 -0.000456
# 5 0.000372 0.009427 -0.008337 0.000000 0.051038 0.000000
# 6 0.000000 0.000000 0.000000 -0.000456 0.000000 -0.043052
#
#
# Mechanical properties :
#
#
# Convention : Reuss Voigt Hill
#
# Bulk Modulus (GPa) = 8.10414 34.93166 21.51790
# Shear Modulus (GPa) = 39.19773 8.67374 23.93574
#
# Velocity S-wave (km/s) = 4.33424 2.03885 3.38693
# Velocity P-wave (km/s) = 5.37880 4.72056 5.06039
#
# Compressibility (1/GPa) = 0.12339372
#
# Stress axis : x y z
#
# Youngs Moduli (GPa) = 29.29179 72.38104 13.99818
#
# Poissons Ratio (x) = 0.93334 -0.46398
# Poissons Ratio (y) = 0.37771 0.25547
# Poissons Ratio (z) = -0.97090 1.32099
#
# Static dielectric constant tensor:
#      x y z
#    x 1.731060 0.000000 0.015000 
#    y 0.000000 1.778470 0.000000 
#    z 0.015000 0.000000 1.723710 
# 
# From -- ./inp_files/335193.got.cif
#   From: 2010.05.17/outbox.cif.g08.bks.cpg/sg12_168_cif.got.tgz:335193.got - 2010.06.03 13:09:07.
