data_PCOD9182466
_publ_section_title
;
Structure prediction by ZEFSAII (Michael W. Deem and Ramdas Pophale) SiO2 
 PCOD9182466
Probable space group: C 2/M
;
_chemical_formula_sum "Si O2"
_cell_formula_units_Z 56
_cell_length_a 13.862617
_cell_length_b 14.105767
_cell_length_c 16.789406
_cell_angle_alpha 90.000000
_cell_angle_beta 112.763670
_cell_angle_gamma 90.000000
_cell_volume 3027.327267
_symmetry_space_group_name_H-M "C 2/M"
_symmetry_group_IT_number 12
_symmetry_cell_setting 'monoclinic'
loop_
_space_group_symop_operation_xyz
x,y,z
-x,y,-z
-x,-y,-z
x,-y,z
1/2+x,1/2+y,z
1/2-x,1/2+y,-z
1/2-x,1/2-y,-z
1/2+x,1/2-y,z
loop_
_atom_site_type_symbol
_atom_site_label
_atom_site_fract_x
_atom_site_fract_y
_atom_site_fract_z
Si Si1 0.119262 0.390354 0.370998
Si Si2 0.583657 0.704002 0.277739
Si Si3 0.241700 0.114298 0.443391
Si Si4 0.881406 0.111660 0.985871
Si Si5 0.756805 0.786215 0.813560
Si Si6 0.639070 0.388168 0.830673
Si Si7 0.109002 0.389907 0.652035
O O1 0.131229 0.500000 0.350078
O O2 0.093107 0.316593 0.293997
O O3 0.218956 0.360461 0.455862
O O4 0.015605 0.385200 0.392968
O O5 0.637972 0.658848 0.373350
O O6 0.653740 0.687257 0.221973
O O7 0.471390 0.656921 0.231621
O O8 0.331761 0.141677 0.408569
O O9 0.233266 0.000000 0.439918
O O10 0.861427 0.121748 0.073490
O O11 0.874106 0.000000 0.963119
O O12 0.796059 0.168092 0.907876
O O13 0.000000 0.142070 0.000000
O O14 0.729359 0.676372 0.820297
O O15 0.653783 0.832365 0.741119
O O16 0.645456 0.500000 0.813445
O O17 0.136802 0.500000 0.673760
#
# Coordination Sequence:
#
# PCOD9182466 Si02
#       7
#     8   8   8   8   8   8   8
#     4  10  19  33  51  76 110 143 181 228 277 325
#     4  11  21  35  56  81 109 150 190 227 270 333
#     4   9  18  31  52  79 106 139 182 233 278 320
#     4  10  20  36  61  88 111 139 180 232 278 325
#     4  11  21  36  58  83 112 145 182 224 275 332
#     4  11  23  39  58  83 116 149 184 227 277 330
#     4   9  17  30  52  81 106 134 176 228 278 322
#
# _framework density 18.498166000000001
#
# number of rings (size 3 to 8) (size 9 to 14) (size 15 to 20)
#    0.000    1.857    2.857    2.143    0.000    3.429 
#    0.000    0.000    0.000    0.429    0.000    5.000 
#    0.000    0.000    0.000    0.000    0.000    0.000 
#
# Total GULP energy -156090.290456 kJ/mol
# GULP energy per Si atom -5574.653231 kJ/mol
# Density = 1.845606 g / cm^3
# Si number density = 18.498166 Si / 1000 Ang^3
#
#
#
# Elastic Constant Matrix: (Units=GPa)
#
#
# Indices 1 2 3 4 5 6 
#
# 1 18.0858 -0.5472 -2.1274 0.0000 10.5386 0.0000
# 2 -0.5472 72.0227 46.5575 0.0000 12.4431 0.0000
# 3 -2.1274 46.5575 83.6815 0.0000 21.0163 0.0000
# 4 0.0000 0.0000 0.0000 29.8029 0.0000 -1.0872
# 5 10.5386 12.4431 21.0163 0.0000 16.6125 0.0000
# 6 0.0000 0.0000 0.0000 -1.0872 0.0000 21.8105
#
#
#
# Elastic Compliance Matrix: (Units=1/GPa)
#
#
# Indices 1 2 3 4 5 6 
#
# 1 0.138618 0.000291 0.037378 0.000000 -0.135440 0.000000
# 2 0.000291 0.021707 -0.011637 0.000000 -0.001721 0.000000
# 3 0.037378 -0.011637 0.033917 0.000000 -0.057903 0.000000
# 4 0.000000 0.000000 0.000000 0.033615 0.000000 0.001676
# 5 -0.135440 -0.001721 -0.057903 0.000000 0.220656 0.000000
# 6 0.000000 0.000000 0.000000 0.001676 0.000000 0.045933
#
#
# Mechanical properties :
#
#
# Convention : Reuss Voigt Hill
#
# Bulk Modulus (GPa) = 4.06003 29.06177 16.56090
# Shear Modulus (GPa) = 9.53315 22.30565 15.91940
#
# Velocity S-wave (km/s) = 2.27261 3.47627 2.93677
# Velocity P-wave (km/s) = 3.01429 5.64423 4.52456
#
# Compressibility (1/GPa) = 0.24630347
#
# Stress axis : x y z
#
# Youngs Moduli (GPa) = 7.21406 46.06877 29.48372
#
# Poissons Ratio (x) = -0.01338 -1.10203
# Poissons Ratio (y) = -0.00210 0.34311
# Poissons Ratio (z) = -0.26964 0.53612
#
# Static dielectric constant tensor:
#      x y z
#    x 1.640770 0.000000 -0.000610 
#    y 0.000000 1.650300 0.000000 
#    z -0.000610 0.000000 1.637260 
# 
# From -- ./inp_files/246542.got.cif
#   From: 2010.05.17/outbox.cif.g08.bks.cpg/sg12_124_cif.got.tgz:246542.got - 2010.06.03 13:09:07.
