data_PCOD9182890
_publ_section_title
;
Structure prediction by ZEFSAII (Michael W. Deem and Ramdas Pophale) SiO2 
 PCOD9182890
Probable space group: C 2/M
;
_chemical_formula_sum "Si O2"
_cell_formula_units_Z 56
_cell_length_a 23.090244
_cell_length_b 11.574310
_cell_length_c 16.582525
_cell_angle_alpha 90.000000
_cell_angle_beta 45.676291
_cell_angle_gamma 90.000000
_cell_volume 3170.483195
_symmetry_space_group_name_H-M "C 2/M"
_symmetry_group_IT_number 12
_symmetry_cell_setting 'monoclinic'
loop_
_space_group_symop_operation_xyz
x,y,z
-x,y,-z
-x,-y,-z
x,-y,z
1/2+x,1/2+y,z
1/2-x,1/2+y,-z
1/2-x,1/2-y,-z
1/2+x,1/2-y,z
loop_
_atom_site_type_symbol
_atom_site_label
_atom_site_fract_x
_atom_site_fract_y
_atom_site_fract_z
Si Si1 0.629991 0.370985 0.042327
Si Si2 0.332343 0.631438 0.816413
Si Si3 0.974285 0.700689 0.650824
Si Si4 0.882181 0.370335 0.582561
Si Si5 0.032269 0.368998 0.161006
Si Si6 0.081905 0.367731 0.868756
Si Si7 0.721217 0.283282 0.808967
O O1 0.589216 0.500000 0.089099
O O2 0.683086 0.361646 0.072468
O O3 0.580938 0.248552 0.089473
O O4 0.679524 0.371060 0.911487
O O5 0.331001 0.500000 0.792902
O O6 0.421777 0.684336 0.716192
O O7 0.269007 0.699074 0.823759
O O8 0.923287 0.634897 0.631317
O O9 0.063553 0.711848 0.526578
O O10 0.976573 0.638164 0.734367
O O11 0.890272 0.500000 0.542879
O O12 0.789595 0.336174 0.684988
O O13 0.065211 0.500000 0.108561
O O14 0.948398 0.359763 0.193726
O O15 0.106506 0.500000 0.861375
O O16 0.152331 0.282807 0.826634
O O17 0.000000 0.345535 0.000000
#
# Coordination Sequence:
#
# PCOD9182890 Si02
#       7
#     8   8   8   8   8   8   8
#     4  10  20  34  51  78 111 138 169 216 271 322
#     4   9  19  33  52  78 108 137 169 216 266 317
#     4   9  18  34  56  80 103 135 173 216 265 311
#     4  10  19  33  53  78 107 134 170 218 263 315
#     4  10  19  34  58  80 100 137 184 222 258 309
#     4  10  20  35  53  75 104 138 180 224 256 302
#     4  11  20  33  50  75 106 143 175 209 262 317
#
# _framework density 17.662921999999998
#
# number of rings (size 3 to 8) (size 9 to 14) (size 15 to 20)
#    0.000    2.143    1.429    3.000    0.000    0.571 
#    0.000   12.857    0.000    0.000    0.000    0.000 
#    0.000    0.000    0.000    0.000    0.000    0.000 
#
# Total GULP energy -155868.531155 kJ/mol
# GULP energy per Si atom -5566.733256 kJ/mol
# Density = 1.762272 g / cm^3
# Si number density = 17.662922 Si / 1000 Ang^3
#
#
#
# Elastic Constant Matrix: (Units=GPa)
#
#
# Indices 1 2 3 4 5 6 
#
# 1 62.0670 31.8512 17.5127 0.0000 -0.3584 0.0000
# 2 31.8512 102.3994 28.9055 0.0000 -2.2508 0.0000
# 3 17.5127 28.9055 70.9492 0.0000 -8.4771 0.0000
# 4 0.0000 0.0000 0.0000 7.7598 0.0000 -6.4703
# 5 -0.3584 -2.2508 -8.4771 0.0000 16.1320 0.0000
# 6 0.0000 0.0000 0.0000 -6.4703 0.0000 2.6421
#
#
#
# Elastic Compliance Matrix: (Units=1/GPa)
#
#
# Indices 1 2 3 4 5 6 
#
# 1 0.019657 -0.005337 -0.002896 0.000000 -0.001830 0.000000
# 2 -0.005337 0.012495 -0.003819 0.000000 -0.000382 0.000000
# 3 -0.002896 -0.003819 0.017386 0.000000 0.008539 0.000000
# 4 0.000000 0.000000 0.000000 -0.123676 0.000000 -0.302875
# 5 -0.001830 -0.000382 0.008539 0.000000 0.066381 0.000000
# 6 0.000000 0.000000 0.000000 -0.302875 0.000000 -0.363236
#
#
# Mechanical properties :
#
#
# Convention : Reuss Voigt Hill
#
# Bulk Modulus (GPa) = 39.31839 43.55050 41.43444
# Shear Modulus (GPa) = -14.77500 15.78320 0.50410
#
# Velocity S-wave (km/s) = -2.89536 2.99252 0.53481
# Velocity P-wave (km/s) = 3.33635 6.05394 4.88781
#
# Compressibility (1/GPa) = 0.02543339
#
# Stress axis : x y z
#
# Youngs Moduli (GPa) = 50.87236 80.02955 57.51869
#
# Poissons Ratio (x) = 0.42711 0.16659
# Poissons Ratio (y) = 0.27150 0.21967
# Poissons Ratio (z) = 0.14734 0.30564
#
# Static dielectric constant tensor:
#      x y z
#    x 1.591150 0.000000 0.009130 
#    y 0.000000 1.630790 0.000000 
#    z 0.009130 0.000000 1.630640 
# 
# From -- ./inp_files/289036.got.cif
#   From: 2010.05.17/outbox.cif.g08.bks.cpg/sg12_145_cif.got.tgz:289036.got - 2010.06.03 13:09:07.
