data_PCOD9182556
_publ_section_title
;
Structure prediction by ZEFSAII (Michael W. Deem and Ramdas Pophale) SiO2 
 PCOD9182556
Probable space group: C 2/M
;
_chemical_formula_sum "Si O2"
_cell_formula_units_Z 36
_cell_length_a 12.194188
_cell_length_b 31.489280
_cell_length_c 4.963736
_cell_angle_alpha 90.000000
_cell_angle_beta 81.852918
_cell_angle_gamma 90.000000
_cell_volume 1886.769835
_symmetry_space_group_name_H-M "C 2/M"
_symmetry_group_IT_number 12
_symmetry_cell_setting 'monoclinic'
loop_
_space_group_symop_operation_xyz
x,y,z
-x,y,-z
-x,-y,-z
x,-y,z
1/2+x,1/2+y,z
1/2-x,1/2+y,-z
1/2-x,1/2-y,-z
1/2+x,1/2-y,z
loop_
_atom_site_type_symbol
_atom_site_label
_atom_site_fract_x
_atom_site_fract_y
_atom_site_fract_z
Si Si1 0.735405 0.800129 0.006541
Si Si2 0.391504 0.629708 0.857157
Si Si3 0.626043 0.843548 0.550947
Si Si4 0.085609 0.000000 0.713631
Si Si5 0.294245 0.589037 0.381807
O O1 0.851432 0.821900 0.878481
O O2 0.647317 0.819994 0.826365
O O3 0.750000 0.750000 0.000000
O O4 0.698811 0.816509 0.312128
O O5 0.379992 0.611509 0.562047
O O6 0.500000 0.623649 0.000000
O O7 0.302490 0.605115 0.072565
O O8 0.500000 0.843906 0.500000
O O9 0.678683 0.891186 0.529379
O O10 0.165353 0.959205 0.655594
O O11 0.000000 0.000000 0.500000
O O12 0.000000 0.000000 0.000000
#
# Coordination Sequence:
#
# PCOD9182556 Si02
#       5
#     8   8   8   4   8
#     4  10  21  36  54  82 109 137 185 230 264 320
#     4  10  19  33  52  74 107 142 170 214 273 325
#     4  10  21  38  58  77 109 151 184 222 273 322
#     4  12  22  34  57  84 111 142 176 226 283 332
#     4  10  21  35  52  79 108 137 180 220 264 329
#
# _framework density 19.080227000000001
#
# number of rings (size 3 to 8) (size 9 to 14) (size 15 to 20)
#    0.000    1.778    0.000    5.333    0.000    1.778 
#    0.000    0.556    0.000    0.000    0.000   10.889 
#    0.000    0.000    0.000    0.000    0.000    0.000 
#
# Total GULP energy -100230.899956 kJ/mol
# GULP energy per Si atom -5568.383331 kJ/mol
# Density = 1.903680 g / cm^3
# Si number density = 19.080227 Si / 1000 Ang^3
#
#
#
# Elastic Constant Matrix: (Units=GPa)
#
#
# Indices 1 2 3 4 5 6 
#
# 1 60.0534 3.7859 -0.4343 0.0000 7.4751 0.0000
# 2 3.7859 156.1671 23.3553 0.0000 -9.4030 0.0000
# 3 -0.4343 23.3553 96.2484 0.0000 21.9976 0.0000
# 4 0.0000 0.0000 0.0000 17.5689 0.0000 3.9756
# 5 7.4751 -9.4030 21.9976 0.0000 26.6620 0.0000
# 6 0.0000 0.0000 0.0000 3.9756 0.0000 8.6429
#
#
#
# Elastic Compliance Matrix: (Units=1/GPa)
#
#
# Indices 1 2 3 4 5 6 
#
# 1 0.017601 -0.001134 0.001940 0.000000 -0.006935 0.000000
# 2 -0.001134 0.007193 -0.002961 0.000000 0.005298 0.000000
# 3 0.001940 -0.002961 0.014148 0.000000 -0.013261 0.000000
# 4 0.000000 0.000000 0.000000 0.063532 0.000000 -0.029224
# 5 -0.006935 0.005298 -0.013261 0.000000 0.052260 0.000000
# 6 0.000000 0.000000 0.000000 -0.029224 0.000000 0.129144
#
#
# Mechanical properties :
#
#
# Convention : Reuss Voigt Hill
#
# Bulk Modulus (GPa) = 28.87730 40.65362 34.76546
# Shear Modulus (GPa) = 16.68153 29.62558 23.15355
#
# Velocity S-wave (km/s) = 2.96004 3.94469 3.48729
# Velocity P-wave (km/s) = 5.18169 6.48848 5.87155
#
# Compressibility (1/GPa) = 0.03462927
#
# Stress axis : x y z
#
# Youngs Moduli (GPa) = 56.81625 139.02844 70.68178
#
# Poissons Ratio (x) = 0.15770 -0.13710
# Poissons Ratio (y) = 0.06445 0.20931
# Poissons Ratio (z) = -0.11020 0.41171
#
# Static dielectric constant tensor:
#      x y z
#    x 1.711380 0.000000 -0.036880 
#    y 0.000000 1.702500 0.000000 
#    z -0.036880 0.000000 1.690310 
# 
# From -- ./inp_files/7505.got.cif
#   From: 2010.05.17/outbox.cif.g08.bks.cpg/sg12_4_cif.got.tgz:7505.got - 2010.06.03 13:09:07.
