data_PCOD9182151
_publ_section_title
;
Structure prediction by ZEFSAII (Michael W. Deem and Ramdas Pophale) SiO2 
 PCOD9182151
Probable space group: C 2/M
;
_chemical_formula_sum "Si O2"
_cell_formula_units_Z 64
_cell_length_a 20.186479
_cell_length_b 9.204065
_cell_length_c 31.387074
_cell_angle_alpha 90.000000
_cell_angle_beta 37.250276
_cell_angle_gamma 90.000000
_cell_volume 3529.882053
_symmetry_space_group_name_H-M "C 2/M"
_symmetry_group_IT_number 12
_symmetry_cell_setting 'monoclinic'
loop_
_space_group_symop_operation_xyz
x,y,z
-x,y,-z
-x,-y,-z
x,-y,z
1/2+x,1/2+y,z
1/2-x,1/2+y,-z
1/2-x,1/2-y,-z
1/2+x,1/2-y,z
loop_
_atom_site_type_symbol
_atom_site_label
_atom_site_fract_x
_atom_site_fract_y
_atom_site_fract_z
Si Si1 0.592859 0.327242 0.824910
Si Si2 0.102822 0.332303 0.660983
Si Si3 0.231545 0.827164 0.205976
Si Si4 0.943843 0.170210 0.574327
Si Si5 0.490176 0.329258 0.368993
Si Si6 0.138410 0.329464 0.173064
Si Si7 0.721621 0.328324 0.673493
Si Si8 0.849227 0.174724 0.924611
O O1 0.609147 0.500000 0.824147
O O2 0.667249 0.237982 0.819544
O O3 0.636001 0.295582 0.755082
O O4 0.463825 0.296117 0.890360
O O5 0.133627 0.500000 0.641885
O O6 0.186967 0.248817 0.647811
O O7 0.084532 0.262608 0.624249
O O8 0.984828 0.321458 0.745022
O O9 0.117725 0.804181 0.290420
O O10 0.214180 0.745265 0.170091
O O11 0.243594 0.000000 0.193667
O O12 0.019265 0.205343 0.576277
O O13 0.837353 0.268749 0.629615
O O14 0.000000 0.187035 0.500000
O O15 0.912200 0.000000 0.595563
O O16 0.468414 0.500000 0.373349
O O17 0.165293 0.500000 0.153566
O O18 0.144028 0.243429 0.125973
O O19 0.723980 0.500000 0.666087
O O20 0.836440 0.000000 0.928433
O O21 0.750000 0.250000 0.000000
#
# Coordination Sequence:
#
# PCOD9182151 Si02
#       8
#     8   8   8   8   8   8   8   8
#     4  10  21  36  56  83 114 146 183 231 279 328
#     4  10  20  33  55  84 112 143 185 234 279 329
#     4  10  19  32  56  85 113 144 184 233 279 329
#     4  10  21  38  58  82 115 152 188 230 282 338
#     4   9  18  33  53  80 112 146 182 226 280 331
#     4  10  20  35  56  83 115 149 185 229 282 334
#     4  11  21  35  57  84 114 146 187 235 280 330
#     4  11  23  40  59  83 116 152 189 229 281 338
#
# _framework density 18.130918000000001
#
# number of rings (size 3 to 8) (size 9 to 14) (size 15 to 20)
#    0.000    1.875    2.500    1.875    0.000    3.750 
#    0.000    1.250    0.000    3.750    0.000    0.000 
#    0.000    0.000    0.000    0.000    0.000    0.000 
#
# Total GULP energy -178673.477120 kJ/mol
# GULP energy per Si atom -5583.546160 kJ/mol
# Density = 1.808965 g / cm^3
# Si number density = 18.130918 Si / 1000 Ang^3
#
#
#
# Elastic Constant Matrix: (Units=GPa)
#
#
# Indices 1 2 3 4 5 6 
#
# 1 84.5828 33.8470 -26.8836 0.0000 16.3255 -0.0001
# 2 33.8470 56.6817 -4.3872 -0.0001 6.6692 -0.0003
# 3 -26.8836 -4.3872 -11.1245 0.0000 10.0324 0.0000
# 4 0.0000 -0.0001 0.0000 16.9826 0.0000 1.1924
# 5 16.3255 6.6692 10.0324 0.0000 20.7336 0.0000
# 6 -0.0001 -0.0003 0.0000 1.1924 0.0000 40.0012
#
#
#
# Elastic Compliance Matrix: (Units=1/GPa)
#
#
# Indices 1 2 3 4 5 6 
#
# 1 0.008900 -0.006911 -0.016079 0.000000 0.002996 0.000000
# 2 -0.006911 0.022560 0.004295 0.000000 -0.003893 0.000000
# 3 -0.016079 0.004295 -0.029627 0.000000 0.025615 0.000000
# 4 0.000000 0.000000 0.000000 0.059007 0.000000 -0.001759
# 5 0.002996 -0.003893 0.025615 0.000000 0.034730 0.000000
# 6 0.000000 0.000000 0.000000 -0.001759 0.000000 0.025052
#
#
# Mechanical properties :
#
#
# Convention : Reuss Voigt Hill
#
# Bulk Modulus (GPa) = -28.12131 15.03250 -6.54441
# Shear Modulus (GPa) = 34.20922 24.04773 29.12847
#
# Velocity S-wave (km/s) = 4.34843 3.64584 4.01254
# Velocity P-wave (km/s) = 3.10934 5.10215 4.22492
#
# Compressibility (1/GPa) = -0.03556022
#
# Stress axis : x y z
#
# Youngs Moduli (GPa) = 112.36534 44.32658 -33.75251
#
# Poissons Ratio (x) = 0.30636 -0.54272
# Poissons Ratio (y) = 0.77659 0.14495
# Poissons Ratio (z) = 1.80675 -0.19036
#
# Static dielectric constant tensor:
#      x y z
#    x 1.599570 0.000000 0.007800 
#    y 0.000000 1.601070 0.000000 
#    z 0.007800 0.000000 1.618640 
# 
# From -- ./inp_files/346004.got.cif
#   From: 2010.05.17/outbox.cif.g08.bks.cpg/sg12_174_cif.got.tgz:346004.got - 2010.06.03 13:09:07.
