data_PCOD9182587
_publ_section_title
;
Structure prediction by ZEFSAII (Michael W. Deem and Ramdas Pophale) SiO2 
 PCOD9182587
Probable space group: C 2/M
;
_chemical_formula_sum "Si O2"
_cell_formula_units_Z 64
_cell_length_a 14.962445
_cell_length_b 8.179661
_cell_length_c 26.604864
_cell_angle_alpha 90.000000
_cell_angle_beta 93.780649
_cell_angle_gamma 90.000000
_cell_volume 3249.022893
_symmetry_space_group_name_H-M "C 2/M"
_symmetry_group_IT_number 12
_symmetry_cell_setting 'monoclinic'
loop_
_space_group_symop_operation_xyz
x,y,z
-x,y,-z
-x,-y,-z
x,-y,z
1/2+x,1/2+y,z
1/2-x,1/2+y,-z
1/2-x,1/2-y,-z
1/2+x,1/2-y,z
loop_
_atom_site_type_symbol
_atom_site_label
_atom_site_fract_x
_atom_site_fract_y
_atom_site_fract_z
Si Si1 0.071220 0.806915 0.614341
Si Si2 0.377052 0.806923 0.275223
Si Si3 0.071297 0.197783 0.252394
Si Si4 0.771112 0.199853 0.809402
Si Si5 0.275307 0.193402 0.445608
Si Si6 0.240935 0.697773 0.921704
Si Si7 0.125540 0.800516 0.364291
Si Si8 0.602271 0.302864 0.997059
O O1 0.119577 0.769580 0.669224
O O2 0.126323 0.736884 0.570130
O O3 0.969822 0.744709 0.616940
O O4 0.066441 0.000000 0.607920
O O5 0.473658 0.774618 0.253740
O O6 0.301196 0.745082 0.234541
O O7 0.363065 0.000000 0.282001
O O8 0.130719 0.246117 0.207029
O O9 0.124945 0.242749 0.305473
O O10 0.060772 0.000000 0.252224
O O11 0.748522 0.255046 0.864637
O O12 0.768526 0.000000 0.809559
O O13 0.250000 0.250000 0.500000
O O14 0.206043 0.261641 0.401389
O O15 0.266388 0.000000 0.444605
O O16 0.241308 0.500000 0.921837
O O17 0.328052 0.752988 0.957001
O O18 0.151631 0.753831 0.947271
O O19 0.126841 0.000000 0.365371
O O20 0.599478 0.500000 0.999081
O O21 0.500000 0.243603 0.000000
#
# Coordination Sequence:
#
# PCOD9182587 Si02
#       8
#     8   8   8   8   8   8   8   8
#     4  10  20  37  57  77 100 133 173 209 247 298
#     4  10  19  33  52  76 103 132 166 205 248 295
#     4   9  17  33  54  75  98 132 172 202 238 297
#     4   9  18  32  51  73 104 141 168 196 247 312
#     4  11  22  37  55  78 104 133 168 209 255 302
#     4   9  18  33  51  73 100 133 172 207 246 304
#     4   8  17  34  55  73  98 136 169 195 240 305
#     4   9  18  33  52  73  98 129 168 216 262 296
#
# _framework density 19.698231
#
# number of rings (size 3 to 8) (size 9 to 14) (size 15 to 20)
#    0.000    2.625    0.000    2.625    0.000    3.750 
#    0.000   15.625    0.000    0.000    0.000    0.000 
#    0.000    0.000    0.000    0.000    0.000    0.000 
#
# Total GULP energy -178536.378455 kJ/mol
# GULP energy per Si atom -5579.261827 kJ/mol
# Density = 1.965340 g / cm^3
# Si number density = 19.698231 Si / 1000 Ang^3
#
#
#
# Elastic Constant Matrix: (Units=GPa)
#
#
# Indices 1 2 3 4 5 6 
#
# 1 82.6468 2.6838 37.8100 0.0000 -24.2329 0.0000
# 2 2.6838 9.5300 1.2875 0.0000 -0.8940 0.0000
# 3 37.8100 1.2875 67.1148 0.0000 -35.4683 0.0000
# 4 0.0000 0.0000 0.0000 25.4568 0.0000 -5.3899
# 5 -24.2329 -0.8940 -35.4683 0.0000 25.6283 0.0000
# 6 0.0000 0.0000 0.0000 -5.3899 0.0000 19.5697
#
#
#
# Elastic Compliance Matrix: (Units=1/GPa)
#
#
# Indices 1 2 3 4 5 6 
#
# 1 0.017132 -0.003294 -0.004051 0.000000 0.010478 0.000000
# 2 -0.003294 0.105911 0.000486 0.000000 0.001252 0.000000
# 3 -0.004051 0.000486 0.056427 0.000000 0.074278 0.000000
# 4 0.000000 0.000000 0.000000 0.041715 0.000000 0.011489
# 5 0.010478 0.001252 0.074278 0.000000 0.151767 0.000000
# 6 0.000000 0.000000 0.000000 0.011489 0.000000 0.054264
#
#
# Mechanical properties :
#
#
# Convention : Reuss Voigt Hill
#
# Bulk Modulus (GPa) = 6.03317 26.98381 16.50849
# Shear Modulus (GPa) = 10.07689 21.96498 16.02093
#
# Velocity S-wave (km/s) = 2.26423 3.34289 2.85497
# Velocity P-wave (km/s) = 3.14724 5.35054 4.38938
#
# Compressibility (1/GPa) = 0.16575023
#
# Stress axis : x y z
#
# Youngs Moduli (GPa) = 58.36947 9.44190 17.72214
#
# Poissons Ratio (x) = 0.03110 0.07180
# Poissons Ratio (y) = 0.19229 -0.00861
# Poissons Ratio (z) = 0.23647 -0.00459
#
# Static dielectric constant tensor:
#      x y z
#    x 1.727660 0.000000 -0.040830 
#    y 0.000000 1.694830 0.000000 
#    z -0.040830 0.000000 1.774640 
# 
# From -- ./inp_files/359796.got.cif
#   From: 2010.05.17/outbox.cif.g08.bks.cpg/sg12_180_cif.got.tgz:359796.got - 2010.06.03 13:09:07.
