data_PCOD9182977
_publ_section_title
;
Structure prediction by ZEFSAII (Michael W. Deem and Ramdas Pophale) SiO2 
 PCOD9182977
Probable space group: C 2/M
;
_chemical_formula_sum "Si O2"
_cell_formula_units_Z 56
_cell_length_a 18.509141
_cell_length_b 9.842457
_cell_length_c 20.370646
_cell_angle_alpha 90.000000
_cell_angle_beta 51.986314
_cell_angle_gamma 90.000000
_cell_volume 2923.786569
_symmetry_space_group_name_H-M "C 2/M"
_symmetry_group_IT_number 12
_symmetry_cell_setting 'monoclinic'
loop_
_space_group_symop_operation_xyz
x,y,z
-x,y,-z
-x,-y,-z
x,-y,z
1/2+x,1/2+y,z
1/2-x,1/2+y,-z
1/2-x,1/2-y,-z
1/2+x,1/2-y,z
loop_
_atom_site_type_symbol
_atom_site_label
_atom_site_fract_x
_atom_site_fract_y
_atom_site_fract_z
Si Si1 0.737710 0.337061 0.154750
Si Si2 0.077868 0.843949 0.669333
Si Si3 0.424655 0.336056 0.852816
Si Si4 0.661103 0.850031 0.309045
Si Si5 0.974048 0.220299 0.444168
Si Si6 0.723572 0.844007 0.419041
Si Si7 0.904893 0.840678 0.014370
O O1 0.748014 0.500000 0.155331
O O2 0.669447 0.307029 0.132312
O O3 0.690245 0.269901 0.244695
O O4 0.831267 0.257186 0.089031
O O5 0.029691 0.848263 0.625254
O O6 0.180140 0.782261 0.610626
O O7 0.008887 0.781818 0.761490
O O8 0.094628 0.000000 0.680259
O O9 0.433752 0.500000 0.847783
O O10 0.421372 0.294509 0.930100
O O11 0.555253 0.830790 0.390498
O O12 0.722053 0.844039 0.340624
O O13 0.672271 0.000000 0.272619
O O14 0.870258 0.271299 0.509404
O O15 0.000000 0.152588 0.500000
O O16 0.715630 0.000000 0.446721
O O17 0.874169 0.000000 0.031095
O O18 0.000000 0.835907 0.000000
#
# Coordination Sequence:
#
# PCOD9182977 Si02
#       7
#     8   8   8   8   8   8   8
#     4  11  22  38  60  84 119 154 186 229 286 345
#     4  10  19  33  54  80 114 153 190 230 283 341
#     4   9  19  36  57  83 114 151 189 229 279 336
#     4  10  20  35  58  85 113 149 196 242 282 334
#     4  10  19  33  53  81 113 146 189 240 288 335
#     4   9  19  33  54  79 109 150 195 242 287 331
#     4  10  22  39  64  92 115 144 190 237 276 334
#
# _framework density 19.153244000000001
#
# number of rings (size 3 to 8) (size 9 to 14) (size 15 to 20)
#    0.000    2.143    1.429    1.714    2.000    2.286 
#    0.000    2.857    0.000    1.714    0.000    0.000 
#    0.000    0.000    0.000    0.000    0.000    0.000 
#
# Total GULP energy -155962.955141 kJ/mol
# GULP energy per Si atom -5570.105541 kJ/mol
# Density = 1.910965 g / cm^3
# Si number density = 19.153244 Si / 1000 Ang^3
#
#
#
# Elastic Constant Matrix: (Units=GPa)
#
#
# Indices 1 2 3 4 5 6 
#
# 1 98.4876 30.0813 35.5494 0.0000 -9.6080 0.0000
# 2 30.0813 66.1617 37.5739 0.0000 -5.4274 0.0000
# 3 35.5494 37.5739 94.7159 0.0000 -8.6886 0.0000
# 4 0.0000 0.0000 0.0000 102.4934 0.0000 -3.1710
# 5 -9.6080 -5.4274 -8.6886 0.0000 33.1247 0.0000
# 6 0.0000 0.0000 0.0000 -3.1710 0.0000 16.1032
#
#
#
# Elastic Compliance Matrix: (Units=1/GPa)
#
#
# Indices 1 2 3 4 5 6 
#
# 1 0.012635 -0.003852 -0.003008 0.000000 0.002245 0.000000
# 2 -0.003852 0.020731 -0.006731 0.000000 0.000514 0.000000
# 3 -0.003008 -0.006731 0.014525 0.000000 0.001835 0.000000
# 4 0.000000 0.000000 0.000000 0.009817 0.000000 0.001933
# 5 0.002245 0.000514 0.001835 0.000000 0.031405 0.000000
# 6 0.000000 0.000000 0.000000 0.001933 0.000000 0.062480
#
#
# Mechanical properties :
#
#
# Convention : Reuss Voigt Hill
#
# Bulk Modulus (GPa) = 48.28938 51.75271 50.02104
# Shear Modulus (GPa) = 26.92829 40.75496 33.84163
#
# Velocity S-wave (km/s) = 3.75365 4.61785 4.20800
# Velocity P-wave (km/s) = 6.63727 7.45062 7.05568
#
# Compressibility (1/GPa) = 0.02070849
#
# Stress axis : x y z
#
# Youngs Moduli (GPa) = 79.14578 48.23778 68.84498
#
# Poissons Ratio (x) = 0.18582 0.20710
# Poissons Ratio (y) = 0.30488 0.46339
# Poissons Ratio (z) = 0.23808 0.32469
#
# Static dielectric constant tensor:
#      x y z
#    x 1.670400 0.000000 -0.000590 
#    y 0.000000 1.661530 0.000000 
#    z -0.000590 0.000000 1.704490 
# 
# From -- ./inp_files/276942.got.cif
#   From: 2010.05.17/outbox.cif.g08.bks.cpg/sg12_139_cif.got.tgz:276942.got - 2010.06.03 13:09:07.
