data_PCOD9182596
_publ_section_title
;
Structure prediction by ZEFSAII (Michael W. Deem and Ramdas Pophale) SiO2 
 PCOD9182596
Probable space group: C 2/M
;
_chemical_formula_sum "Si O2"
_cell_formula_units_Z 56
_cell_length_a 15.701739
_cell_length_b 7.643927
_cell_length_c 22.357942
_cell_angle_alpha 90.000000
_cell_angle_beta 99.411995
_cell_angle_gamma 90.000000
_cell_volume 2647.341119
_symmetry_space_group_name_H-M "C 2/M"
_symmetry_group_IT_number 12
_symmetry_cell_setting 'monoclinic'
loop_
_space_group_symop_operation_xyz
x,y,z
-x,y,-z
-x,-y,-z
x,-y,z
1/2+x,1/2+y,z
1/2-x,1/2+y,-z
1/2-x,1/2-y,-z
1/2+x,1/2-y,z
loop_
_atom_site_type_symbol
_atom_site_label
_atom_site_fract_x
_atom_site_fract_y
_atom_site_fract_z
Si Si1 0.276043 0.205902 0.084482
Si Si2 0.043217 0.786289 0.566246
Si Si3 0.738155 0.290837 0.568060
Si Si4 0.168338 0.289454 0.305557
Si Si5 0.400501 0.704387 0.994401
Si Si6 0.191712 0.787514 0.774611
Si Si7 0.983346 0.207811 0.305595
O O1 0.180478 0.276849 0.054689
O O2 0.291380 0.230577 0.156139
O O3 0.275405 0.000000 0.069949
O O4 0.355860 0.282382 0.054930
O O5 0.143011 0.734918 0.576598
O O6 0.000000 0.723526 0.500000
O O7 0.006277 0.723738 0.625246
O O8 0.037917 0.000000 0.564198
O O9 0.740331 0.500000 0.572217
O O10 0.750000 0.250000 0.500000
O O11 0.804631 0.222085 0.625228
O O12 0.173562 0.500000 0.307516
O O13 0.234772 0.228257 0.263099
O O14 0.070982 0.239902 0.280950
O O15 0.408481 0.500000 0.978771
O O16 0.500000 0.775068 0.000000
O O17 0.100494 0.724182 0.737837
O O18 0.191286 0.000000 0.774505
O O19 0.970362 0.000000 0.310225
#
# Coordination Sequence:
#
# PCOD9182596 Si02
#       7
#     8   8   8   8   8   8   8
#     4  10  21  36  58  89 119 149 190 236 277 320
#     4   9  16  29  51  75  99 131 177 226 271 331
#     4  10  19  33  52  76 105 137 178 228 283 341
#     4  10  21  37  55  78 110 144 180 233 291 336
#     4   9  19  38  62  87 119 156 191 226 271 328
#     4  10  21  39  58  77 112 156 192 226 277 342
#     4  10  20  36  57  79 102 141 191 229 273 340
#
# _framework density 21.153299000000001
#
# number of rings (size 3 to 8) (size 9 to 14) (size 15 to 20)
#    0.000    2.286    1.429    1.286    0.000    4.857 
#    0.000    5.000    0.000    2.571    0.000    0.000 
#    0.000    0.000    0.000    0.000    0.000    0.000 
#
# Total GULP energy -156197.649140 kJ/mol
# GULP energy per Si atom -5578.487469 kJ/mol
# Density = 2.110515 g / cm^3
# Si number density = 21.153299 Si / 1000 Ang^3
#
#
#
# Elastic Constant Matrix: (Units=GPa)
#
#
# Indices 1 2 3 4 5 6 
#
# 1 194.9371 -1.1192 81.2929 0.0000 1.1112 0.0000
# 2 -1.1192 37.7939 -4.2689 0.0000 4.2812 0.0000
# 3 81.2929 -4.2689 151.2294 0.0000 8.1972 0.0000
# 4 0.0000 0.0000 0.0000 20.7313 0.0000 -0.7900
# 5 1.1112 4.2812 8.1972 0.0000 19.1785 0.0000
# 6 0.0000 0.0000 0.0000 -0.7900 0.0000 12.6265
#
#
#
# Elastic Compliance Matrix: (Units=1/GPa)
#
#
# Indices 1 2 3 4 5 6 
#
# 1 0.006642 -0.000358 -0.003649 0.000000 0.001254 0.000000
# 2 -0.000358 0.027352 0.001325 0.000000 -0.006651 0.000000
# 3 -0.003649 0.001325 0.008820 0.000000 -0.003854 0.000000
# 4 0.000000 0.000000 0.000000 0.048352 0.000000 0.003025
# 5 0.001254 -0.006651 -0.003854 0.000000 0.055201 0.000000
# 6 0.000000 0.000000 0.000000 0.003025 0.000000 0.079388
#
#
# Mechanical properties :
#
#
# Convention : Reuss Voigt Hill
#
# Bulk Modulus (GPa) = 26.70124 59.52999 43.11561
# Shear Modulus (GPa) = 20.52538 31.04429 25.78484
#
# Velocity S-wave (km/s) = 3.11837 3.83507 3.49514
# Velocity P-wave (km/s) = 5.06120 6.91474 6.05926
#
# Compressibility (1/GPa) = 0.03745145
#
# Stress axis : x y z
#
# Youngs Moduli (GPa) = 150.55284 36.56065 113.37805
#
# Poissons Ratio (x) = 0.01307 0.41367
# Poissons Ratio (y) = 0.05382 -0.15020
# Poissons Ratio (z) = 0.54930 -0.04843
#
# Static dielectric constant tensor:
#      x y z
#    x 1.768630 0.000000 0.010840 
#    y 0.000000 1.813430 0.000000 
#    z 0.010840 0.000000 1.755660 
# 
# From -- ./inp_files/308933.got.cif
#   From: 2010.05.17/outbox.cif.g08.bks.cpg/sg12_155_cif.got.tgz:308933.got - 2010.06.03 13:09:07.
