data_PCOD9182594
_publ_section_title
;
Structure prediction by ZEFSAII (Michael W. Deem and Ramdas Pophale) SiO2 
 PCOD9182594
Probable space group: C 2/M
;
_chemical_formula_sum "Si O2"
_cell_formula_units_Z 64
_cell_length_a 15.690321
_cell_length_b 7.468506
_cell_length_c 26.848655
_cell_angle_alpha 90.000000
_cell_angle_beta 57.742597
_cell_angle_gamma 90.000000
_cell_volume 2660.622777
_symmetry_space_group_name_H-M "C 2/M"
_symmetry_group_IT_number 12
_symmetry_cell_setting 'monoclinic'
loop_
_space_group_symop_operation_xyz
x,y,z
-x,y,-z
-x,-y,-z
x,-y,z
1/2+x,1/2+y,z
1/2-x,1/2+y,-z
1/2-x,1/2-y,-z
1/2+x,1/2-y,z
loop_
_atom_site_type_symbol
_atom_site_label
_atom_site_fract_x
_atom_site_fract_y
_atom_site_fract_z
Si Si1 0.869409 0.202659 0.740324
Si Si2 0.217138 0.786102 0.066917
Si Si3 0.467960 0.279553 0.809536
Si Si4 0.865500 0.219774 0.629491
Si Si5 0.851332 0.204754 0.187947
Si Si6 0.087527 0.716825 0.935548
Si Si7 0.733531 0.783426 0.582218
Si Si8 0.087230 0.209093 0.545091
O O1 0.930633 0.282610 0.767156
O O2 0.866983 0.282604 0.685970
O O3 0.751849 0.196744 0.791862
O O4 0.907971 0.000000 0.722522
O O5 0.112384 0.720431 0.123165
O O6 0.307224 0.721827 0.074041
O O7 0.213676 0.000000 0.072252
O O8 0.250000 0.750000 0.000000
O O9 0.468084 0.500000 0.809599
O O10 0.580081 0.221858 0.789155
O O11 0.770625 0.274491 0.625276
O O12 0.974137 0.277910 0.574066
O O13 0.863737 0.000000 0.630277
O O14 0.920578 0.211845 0.117380
O O15 0.824377 0.000000 0.206669
O O16 0.085970 0.500000 0.933632
O O17 0.000000 0.773652 0.000000
O O18 0.824584 0.717327 0.517666
O O19 0.629969 0.724623 0.588257
O O20 0.730608 0.000000 0.582338
O O21 0.081289 0.000000 0.534289
#
# Coordination Sequence:
#
# PCOD9182594 Si02
#       8
#     8   8   8   8   8   8   8   8
#     4  10  20  39  59  74 102 144 185 221 265 324
#     4  10  19  33  52  76 105 135 167 206 257 311
#     4   9  19  36  55  73 101 138 170 210 264 318
#     4   9  18  32  55  79 100 141 190 223 260 317
#     4  11  22  36  56  81 107 136 175 222 272 316
#     4  10  20  35  56  81 109 140 175 214 260 319
#     4   9  17  31  51  79 113 142 177 226 271 312
#     4   9  17  31  52  79 110 144 181 220 266 321
#
# _framework density 24.054518999999999
#
# number of rings (size 3 to 8) (size 9 to 14) (size 15 to 20)
#    0.000    2.375    1.250    1.500    0.000    3.250 
#    0.000    5.000    0.000    3.000    0.000    0.000 
#    0.000    0.000    0.000    0.000    0.000    0.000 
#
# Total GULP energy -178737.878242 kJ/mol
# GULP energy per Si atom -5585.558695 kJ/mol
# Density = 2.399977 g / cm^3
# Si number density = 24.054519 Si / 1000 Ang^3
#
#
#
# Elastic Constant Matrix: (Units=GPa)
#
#
# Indices 1 2 3 4 5 6 
#
# 1 103.7263 -3.9266 -1.5197 -0.0002 36.7309 -0.0002
# 2 -3.9266 72.6574 -6.6693 0.0003 -2.0112 0.0001
# 3 -1.5197 -6.6693 56.6255 -0.0001 27.6062 -0.0001
# 4 -0.0002 0.0003 -0.0001 6.1854 0.0001 2.7552
# 5 36.7309 -2.0112 27.6062 0.0001 38.0105 0.0001
# 6 -0.0002 0.0001 -0.0001 2.7552 0.0001 0.9917
#
#
#
# Elastic Compliance Matrix: (Units=1/GPa)
#
#
# Indices 1 2 3 4 5 6 
#
# 1 0.021742 0.001816 0.017020 0.000011 -0.033275 -0.000022
# 2 0.001816 0.014077 0.003405 0.000002 -0.003483 -0.000007
# 3 0.017020 0.003405 0.040946 0.000012 -0.046005 -0.000023
# 4 0.000011 0.000002 0.000012 -0.680541 -0.000021 1.890765
# 5 -0.033275 -0.003483 -0.046005 -0.000021 0.091692 0.000040
# 6 -0.000022 -0.000007 -0.000023 1.890765 0.000040 -4.244761
#
#
# Mechanical properties :
#
#
# Convention : Reuss Voigt Hill
#
# Bulk Modulus (GPa) = 8.24758 23.19758 15.72258
# Shear Modulus (GPa) = -1.05022 25.37916 12.16447
#
# Velocity S-wave (km/s) = -0.66147 3.25171 2.25123
# Velocity P-wave (km/s) = 1.68901 4.87471 3.64798
#
# Compressibility (1/GPa) = 0.12124772
#
# Stress axis : x y z
#
# Youngs Moduli (GPa) = 45.99369 71.03542 24.42224
#
# Poissons Ratio (x) = -0.12901 -0.41566
# Poissons Ratio (y) = -0.08353 -0.08315
# Poissons Ratio (z) = -0.78281 -0.24186
#
# Static dielectric constant tensor:
#      x y z
#    x 1.886940 0.000000 0.049710 
#    y 0.000000 2.053920 0.000000 
#    z 0.049710 0.000000 1.860420 
# 
# From -- ./inp_files/359768.got.cif
#   From: 2010.05.17/outbox.cif.g08.bks.cpg/sg12_180_cif.got.tgz:359768.got - 2010.06.03 13:09:07.
