data_PCOD9182470
_publ_section_title
;
Structure prediction by ZEFSAII (Michael W. Deem and Ramdas Pophale) SiO2 
 PCOD9182470
Probable space group: C 2/M
;
_chemical_formula_sum "Si O2"
_cell_formula_units_Z 56
_cell_length_a 8.412258
_cell_length_b 17.210622
_cell_length_c 30.706751
_cell_angle_alpha 90.000000
_cell_angle_beta 42.132253
_cell_angle_gamma 90.000000
_cell_volume 2982.391672
_symmetry_space_group_name_H-M "C 2/M"
_symmetry_group_IT_number 12
_symmetry_cell_setting 'monoclinic'
loop_
_space_group_symop_operation_xyz
x,y,z
-x,y,-z
-x,-y,-z
x,-y,z
1/2+x,1/2+y,z
1/2-x,1/2+y,-z
1/2-x,1/2-y,-z
1/2+x,1/2-y,z
loop_
_atom_site_type_symbol
_atom_site_label
_atom_site_fract_x
_atom_site_fract_y
_atom_site_fract_z
Si Si1 0.632335 0.826016 0.665772
Si Si2 0.238911 0.285796 0.137858
Si Si3 0.783889 0.588334 0.439717
Si Si4 0.033531 0.907808 0.334679
Si Si5 0.713369 0.302857 0.229876
Si Si6 0.748501 0.698941 0.044682
Si Si7 0.586255 0.806721 0.437140
O O1 0.616767 0.879572 0.626344
O O2 0.747796 0.875524 0.681015
O O3 0.397490 0.776794 0.726603
O O4 0.819427 0.759279 0.614125
O O5 0.224656 0.216127 0.176370
O O6 0.478862 0.334184 0.099460
O O7 0.256093 0.253802 0.085428
O O8 0.979044 0.321912 0.191540
O O9 0.500000 0.587643 0.500000
O O10 0.866956 0.500000 0.429487
O O11 0.880840 0.644750 0.456715
O O12 0.057766 0.872370 0.280988
O O13 0.800577 0.866955 0.401341
O O14 0.022223 0.000000 0.337870
O O15 0.750000 0.750000 0.000000
O O16 0.000000 0.653687 0.000000
O O17 0.500000 0.772490 0.500000
#
# Coordination Sequence:
#
# PCOD9182470 Si02
#       7
#     8   8   8   8   8   8   8
#     4  11  22  37  56  75 103 137 182 219 272 324
#     4   9  16  28  49  76 113 148 179 213 255 307
#     4  11  24  39  55  76 102 132 170 223 284 330
#     4  11  23  37  54  76 105 138 179 229 273 319
#     4  10  19  33  51  77 104 150 181 217 260 320
#     4   8  14  25  45  79 119 147 167 212 268 303
#     4  11  23  39  58  78  99 131 176 224 279 341
#
# _framework density 18.776876000000001
#
# number of rings (size 3 to 8) (size 9 to 14) (size 15 to 20)
#    0.000    1.857    1.429    3.857    2.000    4.000 
#    0.000    0.000    0.000    0.000    0.000    0.000 
#    0.000   72.000    0.000    0.000    0.000    0.000 
#
# Total GULP energy -155945.130978 kJ/mol
# GULP energy per Si atom -5569.468964 kJ/mol
# Density = 1.873414 g / cm^3
# Si number density = 18.776876 Si / 1000 Ang^3
#
#
#
# Elastic Constant Matrix: (Units=GPa)
#
#
# Indices 1 2 3 4 5 6 
#
# 1 71.2167 6.4364 30.3264 0.0029 1.4722 -0.0042
# 2 6.4364 77.4041 13.0605 -0.0004 6.4327 -0.0003
# 3 30.3264 13.0605 88.8886 0.0063 4.2449 -0.0051
# 4 0.0029 -0.0004 0.0063 4.0619 -0.0026 -1.0868
# 5 1.4722 6.4327 4.2449 -0.0026 44.9311 0.0047
# 6 -0.0042 -0.0003 -0.0051 -1.0868 0.0047 24.1766
#
#
#
# Elastic Compliance Matrix: (Units=1/GPa)
#
#
# Indices 1 2 3 4 5 6 
#
# 1 0.016443 -0.000435 -0.005548 -0.000003 0.000048 0.000002
# 2 -0.000435 0.013393 -0.001736 0.000003 -0.001739 0.000000
# 3 -0.005548 -0.001736 0.013438 -0.000017 -0.000839 0.000001
# 4 -0.000003 0.000003 -0.000017 0.249186 0.000015 0.011202
# 5 0.000048 -0.001739 -0.000839 0.000015 0.022583 -0.000004
# 6 0.000002 0.000000 0.000001 0.011202 -0.000004 0.041866
#
#
# Mechanical properties :
#
#
# Convention : Reuss Voigt Hill
#
# Bulk Modulus (GPa) = 35.92664 37.46178 36.69421
# Shear Modulus (GPa) = 13.10186 27.14633 20.12409
#
# Velocity S-wave (km/s) = 2.64439 3.80640 3.27731
# Velocity P-wave (km/s) = 5.33842 6.26998 5.82286
#
# Compressibility (1/GPa) = 0.02783450
#
# Stress axis : x y z
#
# Youngs Moduli (GPa) = 60.81782 74.66643 74.41522
#
# Poissons Ratio (x) = 0.03248 0.41286
# Poissons Ratio (y) = 0.02646 0.12921
# Poissons Ratio (z) = 0.33742 0.12965
#
# Static dielectric constant tensor:
#      x y z
#    x 1.716000 0.000000 -0.034100 
#    y 0.000000 1.600980 0.000000 
#    z -0.034100 0.000000 1.724130 
# 
# From -- ./inp_files/300151.got.cif
#   From: 2010.05.17/outbox.cif.g08.bks.cpg/sg12_151_cif.got.tgz:300151.got - 2010.06.03 13:09:07.
