data_PCOD9182739
_publ_section_title
;
Structure prediction by ZEFSAII (Michael W. Deem and Ramdas Pophale) SiO2 
 PCOD9182739
Probable space group: C 2/M
;
_chemical_formula_sum "Si O2"
_cell_formula_units_Z 56
_cell_length_a 9.229197
_cell_length_b 15.226719
_cell_length_c 19.139818
_cell_angle_alpha 90.000000
_cell_angle_beta 89.999978
_cell_angle_gamma 90.000000
_cell_volume 2689.726075
_symmetry_space_group_name_H-M "C 2/M"
_symmetry_group_IT_number 12
_symmetry_cell_setting 'monoclinic'
loop_
_space_group_symop_operation_xyz
x,y,z
-x,y,-z
-x,-y,-z
x,-y,z
1/2+x,1/2+y,z
1/2-x,1/2+y,-z
1/2-x,1/2-y,-z
1/2+x,1/2-y,z
loop_
_atom_site_type_symbol
_atom_site_label
_atom_site_fract_x
_atom_site_fract_y
_atom_site_fract_z
Si Si1 0.338953 0.603751 0.211636
Si Si2 0.826285 0.655235 0.348682
Si Si3 0.168013 0.392613 0.922348
Si Si4 0.326628 0.844970 0.500000
Si Si5 0.661047 0.396249 0.211636
Si Si6 0.168013 0.607387 0.077652
Si Si7 0.673715 0.844765 0.348682
O O1 0.353578 0.500000 0.199562
O O2 0.500000 0.641411 0.223024
O O3 0.263065 0.640150 0.142142
O O4 0.241070 0.612780 0.280132
O O5 0.792600 0.612414 0.424778
O O6 0.758930 0.612780 0.280132
O O7 0.750000 0.750000 0.351091
O O8 1.000000 0.661190 0.342209
O O9 0.169786 0.500000 0.921314
O O10 0.263065 0.359850 0.857858
O O11 1.000000 0.366955 0.913796
O O12 0.218238 0.366121 1.000000
O O13 0.500000 0.831047 0.500000
O O14 0.250000 0.750000 0.500000
O O15 0.292600 0.887586 0.575222
O O16 0.646422 0.500000 0.199562
O O17 0.169787 0.500000 0.078686
#
# Coordination Sequence:
#
# PCOD9182739 Si02
#       7
#     8   8   8   8   8   8   8
#     4  10  20  32  47  71 102 132 163 199 239 283
#     4  10  19  33  53  74  97 125 160 200 242 289
#     4   8  14  26  45  68  93 123 160 199 238 281
#     4   8  16  30  49  72  93 119 157 199 239 282
#     4  10  20  32  47  71 102 132 163 199 239 283
#     4   8  14  26  45  68  93 123 160 199 238 281
#     4  10  19  33  53  74  97 125 160 200 242 289
#
# _framework density 20.819963999999999
#
# number of rings (size 3 to 8) (size 9 to 14) (size 15 to 20)
#    0.000    2.857    0.000    2.571    0.000    3.429 
#    0.000    3.571    0.000    5.143    0.000    0.000 
#    0.000    0.000    0.000    0.000    0.000    0.000 
#
# Total GULP energy -156007.663658 kJ/mol
# GULP energy per Si atom -5571.702273 kJ/mol
# Density = 2.077258 g / cm^3
# Si number density = 20.819964 Si / 1000 Ang^3
#
#
#
# Elastic Constant Matrix: (Units=GPa)
#
#
# Indices 1 2 3 4 5 6 
#
# 1 110.3211 6.0127 104.6413 0.0000 0.0002 0.0000
# 2 6.0127 24.4809 9.6889 0.0000 0.0000 0.0000
# 3 104.6413 9.6889 229.1141 0.0000 0.0001 0.0000
# 4 0.0000 0.0000 0.0000 11.9055 0.0000 0.0000
# 5 0.0002 0.0000 0.0001 0.0000 40.0084 0.0000
# 6 0.0000 0.0000 0.0000 0.0000 0.0000 15.0427
#
#
#
# Elastic Compliance Matrix: (Units=1/GPa)
#
#
# Indices 1 2 3 4 5 6 
#
# 1 0.016019 -0.001057 -0.007272 0.000000 0.000000 0.000000
# 2 -0.001057 0.041613 -0.001277 0.000000 0.000000 0.000000
# 3 -0.007272 -0.001277 0.007740 0.000000 0.000000 0.000000
# 4 0.000000 0.000000 0.000000 0.083995 0.000000 0.000000
# 5 0.000000 0.000000 0.000000 0.000000 0.024995 0.000000
# 6 0.000000 0.000000 0.000000 0.000000 0.000000 0.066478
#
#
# Mechanical properties :
#
#
# Convention : Reuss Voigt Hill
#
# Bulk Modulus (GPa) = 21.66314 67.17800 44.42057
# Shear Modulus (GPa) = 18.15295 29.62953 23.89124
#
# Velocity S-wave (km/s) = 2.95600 3.77653 3.39118
# Velocity P-wave (km/s) = 4.69874 7.16606 6.05932
#
# Compressibility (1/GPa) = 0.04616136
#
# Stress axis : x y z
#
# Youngs Moduli (GPa) = 62.42442 24.03089 129.20235
#
# Poissons Ratio (x) = 0.02539 0.93952
# Poissons Ratio (y) = 0.06595 0.16502
# Poissons Ratio (z) = 0.45393 0.03069
#
# Static dielectric constant tensor:
#      x y z
#    x 1.723730 0.000000 0.000000 
#    y 0.000000 1.798070 0.000000 
#    z 0.000000 0.000000 1.792390 
# 
# From -- ./inp_files/257645.got.cif
#   From: 2010.05.17/outbox.cif.g08.bks.cpg/sg12_129_cif.got.tgz:257645.got - 2010.06.03 13:09:07.
