data_PCOD9182194
_publ_section_title
;
Structure prediction by ZEFSAII (Michael W. Deem and Ramdas Pophale) SiO2 
 PCOD9182194
Probable space group: C 2/M
;
_chemical_formula_sum "Si O2"
_cell_formula_units_Z 56
_cell_length_a 29.209426
_cell_length_b 11.443448
_cell_length_c 9.956127
_cell_angle_alpha 90.000000
_cell_angle_beta 113.323658
_cell_angle_gamma 90.000000
_cell_volume 3055.954509
_symmetry_space_group_name_H-M "C 2/M"
_symmetry_group_IT_number 12
_symmetry_cell_setting 'monoclinic'
loop_
_space_group_symop_operation_xyz
x,y,z
-x,y,-z
-x,-y,-z
x,-y,z
1/2+x,1/2+y,z
1/2-x,1/2+y,-z
1/2-x,1/2-y,-z
1/2+x,1/2-y,z
loop_
_atom_site_type_symbol
_atom_site_label
_atom_site_fract_x
_atom_site_fract_y
_atom_site_fract_z
Si Si1 0.064099 0.500000 0.942714
Si Si2 0.951880 0.500000 0.753036
Si Si3 0.141181 0.698942 0.068883
Si Si4 0.593147 0.360036 0.814575
Si Si5 0.106033 0.266629 0.331535
Si Si6 0.348799 0.637055 0.379389
Si Si7 0.251921 0.134404 0.907423
Si Si8 0.493098 0.360665 0.840708
O O1 0.011672 0.500000 0.803712
O O2 0.053488 0.500000 0.090693
O O3 0.099293 0.611244 0.961936
O O4 0.922566 0.386753 0.667860
O O5 0.130174 0.719699 0.212493
O O6 0.195424 0.646397 0.107495
O O7 0.132052 0.814757 0.970893
O O8 0.593883 0.500000 0.815723
O O9 0.611402 0.324546 0.688541
O O10 0.538074 0.321645 0.797194
O O11 0.144413 0.219856 0.485445
O O12 0.061021 0.174263 0.270775
O O13 0.357650 0.500000 0.423871
O O14 0.294892 0.643804 0.247202
O O15 0.249500 0.000000 0.963063
O O16 0.250000 0.250000 0.000000
O O17 0.496571 0.500000 0.853504
O O18 0.500000 0.310700 0.000000
#
# Coordination Sequence:
#
# PCOD9182194 Si02
#       8
#     4   4   8   8   8   8   8   8
#     4   9  18  34  57  93 115 159 199 249 294 365
#     4   9  20  34  57  83 129 159 198 237 305 365
#     4  11  20  35  64  89 117 154 206 256 304 366
#     4  10  20  35  58  89 122 158 198 249 303 368
#     4  11  22  37  58  89 124 162 199 252 307 371
#     4  10  23  41  59  84 125 162 204 258 320 370
#     4  11  23  43  68  95 121 164 212 264 319 380
#     4  10  19  32  56  90 121 156 204 249 293 361
#
# _framework density 18.324881000000001
#
# number of rings (size 3 to 8) (size 9 to 14) (size 15 to 20)
#    0.000    1.714    3.571    1.286    2.000    1.714 
#    1.286    2.857    0.000    1.714    0.000    0.000 
#    0.000    0.000    0.000    0.000    0.000    0.000 
#
# Total GULP energy -156126.630647 kJ/mol
# GULP energy per Si atom -5575.951095 kJ/mol
# Density = 1.828317 g / cm^3
# Si number density = 18.324881 Si / 1000 Ang^3
#
#
#
# Elastic Constant Matrix: (Units=GPa)
#
#
# Indices 1 2 3 4 5 6 
#
# 1 80.3479 30.6288 14.1235 0.0000 2.2559 0.0000
# 2 30.6288 63.6330 47.0654 0.0000 -2.4859 0.0000
# 3 14.1235 47.0654 67.7171 0.0000 1.4562 0.0000
# 4 0.0000 0.0000 0.0000 26.3627 0.0000 5.9005
# 5 2.2559 -2.4859 1.4562 0.0000 22.0718 0.0000
# 6 0.0000 0.0000 0.0000 5.9005 0.0000 15.8020
#
#
#
# Elastic Compliance Matrix: (Units=1/GPa)
#
#
# Indices 1 2 3 4 5 6 
#
# 1 0.015991 -0.011123 0.004464 0.000000 -0.003182 0.000000
# 2 -0.011123 0.040668 -0.026106 0.000000 0.007440 0.000000
# 3 0.004464 -0.026106 0.032099 0.000000 -0.005514 0.000000
# 4 0.000000 0.000000 0.000000 0.041392 0.000000 -0.015456
# 5 -0.003182 0.007440 -0.005514 0.000000 0.046834 0.000000
# 6 0.000000 0.000000 0.000000 -0.015456 0.000000 0.069054
#
#
# Mechanical properties :
#
#
# Convention : Reuss Voigt Hill
#
# Bulk Modulus (GPa) = 43.05002 43.92593 43.48798
# Shear Modulus (GPa) = 15.65875 20.83933 18.24904
#
# Velocity S-wave (km/s) = 2.92637 3.37592 3.15915
# Velocity P-wave (km/s) = 5.91285 6.26247 6.09017
#
# Compressibility (1/GPa) = 0.02322879
#
# Stress axis : x y z
#
# Youngs Moduli (GPa) = 62.53671 24.58906 31.15344
#
# Poissons Ratio (x) = 0.27350 -0.13907
# Poissons Ratio (y) = 0.69559 0.81329
# Poissons Ratio (z) = -0.27917 0.64192
#
# Static dielectric constant tensor:
#      x y z
#    x 1.647060 0.000000 -0.006040 
#    y 0.000000 1.687040 0.000000 
#    z -0.006040 0.000000 1.605290 
# 
# From -- ./inp_files/110576.got.cif
#   From: 2010.05.17/outbox.cif.g08.bks.cpg/sg12_56_cif.got.tgz:110576.got - 2010.06.03 13:09:07.
