data_PCOD9182660
_publ_section_title
;
Structure prediction by ZEFSAII (Michael W. Deem and Ramdas Pophale) SiO2 
 PCOD9182660
Probable space group: C 2/M
;
_chemical_formula_sum "Si O2"
_cell_formula_units_Z 44
_cell_length_a 10.821967
_cell_length_b 19.441911
_cell_length_c 11.999752
_cell_angle_alpha 90.000000
_cell_angle_beta 109.702630
_cell_angle_gamma 90.000000
_cell_volume 2376.933466
_symmetry_space_group_name_H-M "C 2/M"
_symmetry_group_IT_number 12
_symmetry_cell_setting 'monoclinic'
loop_
_space_group_symop_operation_xyz
x,y,z
-x,y,-z
-x,-y,-z
x,-y,z
1/2+x,1/2+y,z
1/2-x,1/2+y,-z
1/2-x,1/2-y,-z
1/2+x,1/2-y,z
loop_
_atom_site_type_symbol
_atom_site_label
_atom_site_fract_x
_atom_site_fract_y
_atom_site_fract_z
Si Si1 0.100798 0.076123 0.771154
Si Si2 0.000000 0.302061 0.000000
Si Si3 0.457797 0.287354 0.361449
Si Si4 0.839815 0.924518 0.814066
Si Si5 0.818865 0.421008 0.009365
Si Si6 0.831331 0.771215 0.759924
O O1 0.051594 0.131760 0.669656
O O2 0.995833 0.076112 0.840912
O O3 0.102891 0.000000 0.723409
O O4 0.240681 0.090302 0.870176
O O5 0.905878 0.254467 0.895106
O O6 0.082671 0.356871 0.950548
O O7 0.500000 0.273866 0.500000
O O8 0.309909 0.262940 0.294128
O O9 0.565174 0.257085 0.308115
O O10 0.784338 0.919869 0.921265
O O11 0.800001 0.852733 0.747358
O O12 0.795461 0.000000 0.756412
O O13 0.872289 0.500000 0.025491
#
# Coordination Sequence:
#
# PCOD9182660 Si02
#       6
#     8   4   8   8   8   8
#     4   9  18  34  56  82 110 144 190 232 275 327
#     4  12  23  34  55  86 122 144 186 226 291 344
#     4  11  23  41  60  82 114 153 195 233 278 333
#     4   9  19  34  55  81 112 147 182 226 280 342
#     4  10  19  33  52  79 119 153 180 219 277 345
#     4  11  24  38  60  87 115 149 186 238 286 335
#
# _framework density 18.511246
#
# number of rings (size 3 to 8) (size 9 to 14) (size 15 to 20)
#    0.000    1.818    1.818    2.455    5.091    4.000 
#    0.000    0.000    0.000    0.545    0.000    0.000 
#    0.000    0.000    0.000    0.000    0.000    0.000 
#
# Total GULP energy -122474.303888 kJ/mol
# GULP energy per Si atom -5567.013813 kJ/mol
# Density = 1.846911 g / cm^3
# Si number density = 18.511246 Si / 1000 Ang^3
#
#
#
# Elastic Constant Matrix: (Units=GPa)
#
#
# Indices 1 2 3 4 5 6 
#
# 1 72.6728 30.4358 36.0469 0.0000 -4.1673 0.0000
# 2 30.4358 91.7290 18.2220 0.0000 -0.8729 0.0000
# 3 36.0469 18.2220 69.3990 0.0000 -2.8123 0.0000
# 4 0.0000 0.0000 0.0000 6.6511 0.0000 -6.4990
# 5 -4.1673 -0.8729 -2.8123 0.0000 17.8248 0.0000
# 6 0.0000 0.0000 0.0000 -6.4990 0.0000 27.4383
#
#
#
# Elastic Compliance Matrix: (Units=1/GPa)
#
#
# Indices 1 2 3 4 5 6 
#
# 1 0.020624 -0.004970 -0.009281 0.000000 0.003114 0.000000
# 2 -0.004970 0.012699 -0.000780 0.000000 -0.000663 0.000000
# 3 -0.009281 -0.000780 0.019470 0.000000 0.000864 0.000000
# 4 0.000000 0.000000 0.000000 0.195629 0.000000 0.046337
# 5 0.003114 -0.000663 0.000864 0.000000 0.056934 0.000000
# 6 0.000000 0.000000 0.000000 0.046337 0.000000 0.047421
#
#
# Mechanical properties :
#
#
# Convention : Reuss Voigt Hill
#
# Bulk Modulus (GPa) = 43.99213 44.80115 44.39664
# Shear Modulus (GPa) = 12.80687 20.32256 16.56471
#
# Velocity S-wave (km/s) = 2.63314 3.31698 2.99464
# Velocity P-wave (km/s) = 5.74989 6.23895 5.99940
#
# Compressibility (1/GPa) = 0.02273134
#
# Stress axis : x y z
#
# Youngs Moduli (GPa) = 48.48753 78.74478 51.36087
#
# Poissons Ratio (x) = 0.39133 0.47669
# Poissons Ratio (y) = 0.24097 0.04006
# Poissons Ratio (z) = 0.45003 0.06142
#
# Static dielectric constant tensor:
#      x y z
#    x 1.675070 0.000000 -0.008350 
#    y 0.000000 1.683230 0.000000 
#    z -0.008350 0.000000 1.600690 
# 
# From -- ./inp_files/131553.got.cif
#   From: 2010.05.17/outbox.cif.g08.bks.cpg/sg12_66_cif.got.tgz:131553.got - 2010.06.03 13:09:07.
