data_PCOD9182502
_publ_section_title
;
Structure prediction by ZEFSAII (Michael W. Deem and Ramdas Pophale) SiO2 
 PCOD9182502
Probable space group: C 2/M
;
_chemical_formula_sum "Si O2"
_cell_formula_units_Z 56
_cell_length_a 19.971239
_cell_length_b 8.168436
_cell_length_c 19.482904
_cell_angle_alpha 90.000000
_cell_angle_beta 75.223194
_cell_angle_gamma 90.000000
_cell_volume 3073.202448
_symmetry_space_group_name_H-M "C 2/M"
_symmetry_group_IT_number 12
_symmetry_cell_setting 'monoclinic'
loop_
_space_group_symop_operation_xyz
x,y,z
-x,y,-z
-x,-y,-z
x,-y,z
1/2+x,1/2+y,z
1/2-x,1/2+y,-z
1/2-x,1/2-y,-z
1/2+x,1/2-y,z
loop_
_atom_site_type_symbol
_atom_site_label
_atom_site_fract_x
_atom_site_fract_y
_atom_site_fract_z
Si Si1 0.867375 0.696678 0.846400
Si Si2 0.186686 0.695607 0.563371
Si Si3 0.172207 0.804524 0.000883
Si Si4 0.966651 0.299913 0.437854
Si Si5 0.506379 0.197028 0.278771
Si Si6 0.712751 0.700294 0.845473
Si Si7 0.853319 0.195411 0.279258
O O1 0.866270 0.500000 0.841583
O O2 0.874292 0.738616 0.925102
O O3 0.791916 0.754536 0.839256
O O4 0.930379 0.760148 0.783692
O O5 0.185087 0.500000 0.566543
O O6 0.250000 0.750000 0.500000
O O7 0.113163 0.751169 0.550628
O O8 0.188213 0.758619 0.641010
O O9 0.168264 0.000000 0.003474
O O10 0.250000 0.750000 0.000000
O O11 0.165707 0.750637 0.923353
O O12 0.967679 0.500000 0.438488
O O13 0.006068 0.246833 0.358228
O O14 0.000000 0.242677 0.500000
O O15 0.431292 0.239626 0.267956
O O16 0.511433 0.000000 0.278898
O O17 0.714019 0.500000 0.844444
O O18 0.682809 0.756770 0.780822
O O19 0.856915 0.000000 0.274368
#
# Coordination Sequence:
#
# PCOD9182502 Si02
#       7
#     8   8   8   8   8   8   8
#     4   9  17  31  50  71  96 126 163 202 239 283
#     4  10  20  34  52  74  99 126 158 196 238 283
#     4   9  16  29  48  70  96 123 158 202 244 284
#     4   8  15  29  50  72  91 119 160 197 228 270
#     4   9  18  32  49  70  98 127 155 195 242 285
#     4   8  16  30  49  72  94 123 163 201 235 279
#     4  10  19  33  52  71  96 129 161 194 236 285
#
# _framework density 18.222034000000001
#
# number of rings (size 3 to 8) (size 9 to 14) (size 15 to 20)
#    0.000    3.000    0.000    3.000    0.000    1.714 
#    0.000   12.143    0.000   18.429    0.000    0.000 
#    0.000    0.000    0.000    0.000    0.000    0.000 
#
# Total GULP energy -155975.021643 kJ/mol
# GULP energy per Si atom -5570.536487 kJ/mol
# Density = 1.818056 g / cm^3
# Si number density = 18.222034 Si / 1000 Ang^3
#
#
#
# Elastic Constant Matrix: (Units=GPa)
#
#
# Indices 1 2 3 4 5 6 
#
# 1 71.0218 5.1610 103.4878 0.0000 -7.7745 0.0000
# 2 5.1610 11.5170 10.7040 0.0000 -1.5329 0.0000
# 3 103.4878 10.7040 214.3740 0.0000 -4.2758 0.0000
# 4 0.0000 0.0000 0.0000 25.8373 0.0000 -2.5143
# 5 -7.7745 -1.5329 -4.2758 0.0000 37.7128 0.0000
# 6 0.0000 0.0000 0.0000 -2.5143 0.0000 19.7389
#
#
#
# Elastic Compliance Matrix: (Units=1/GPa)
#
#
# Indices 1 2 3 4 5 6 
#
# 1 0.049522 0.000935 -0.023803 0.000000 0.007548 0.000000
# 2 0.000935 0.091457 -0.004951 0.000000 0.003349 0.000000
# 3 -0.023803 -0.004951 0.016338 0.000000 -0.003256 0.000000
# 4 0.000000 0.000000 0.000000 0.039189 0.000000 0.004992
# 5 0.007548 0.003349 -0.003256 0.000000 0.027839 0.000000
# 6 0.000000 0.000000 0.000000 0.004992 0.000000 0.051297
#
#
# Mechanical properties :
#
#
# Convention : Reuss Voigt Hill
#
# Bulk Modulus (GPa) = 9.83485 59.51314 34.67400
# Shear Modulus (GPa) = 13.69217 28.49513 21.09365
#
# Velocity S-wave (km/s) = 2.74415 3.95875 3.40603
# Velocity P-wave (km/s) = 3.93058 7.32301 5.87690
#
# Compressibility (1/GPa) = 0.10167919
#
# Stress axis : x y z
#
# Youngs Moduli (GPa) = 20.19313 10.93412 61.20867
#
# Poissons Ratio (x) = -0.01023 1.45692
# Poissons Ratio (y) = -0.01889 0.30306
# Poissons Ratio (z) = 0.48065 0.05414
#
# Static dielectric constant tensor:
#      x y z
#    x 1.590650 0.000000 0.008990 
#    y 0.000000 1.649520 0.000000 
#    z 0.008990 0.000000 1.643200 
# 
# From -- ./inp_files/280197.got.cif
#   From: 2010.05.17/outbox.cif.g08.bks.cpg/sg12_141_cif.got.tgz:280197.got - 2010.06.03 13:09:07.
