data_PCOD9182961
_publ_section_title
;
Structure prediction by ZEFSAII (Michael W. Deem and Ramdas Pophale) SiO2 
 PCOD9182961
Probable space group: C 2/M
;
_chemical_formula_sum "Si O2"
_cell_formula_units_Z 48
_cell_length_a 25.808363
_cell_length_b 7.717455
_cell_length_c 12.910747
_cell_angle_alpha 90.000000
_cell_angle_beta 111.234510
_cell_angle_gamma 90.000000
_cell_volume 2396.906842
_symmetry_space_group_name_H-M "C 2/M"
_symmetry_group_IT_number 12
_symmetry_cell_setting 'monoclinic'
loop_
_space_group_symop_operation_xyz
x,y,z
-x,y,-z
-x,-y,-z
x,-y,z
1/2+x,1/2+y,z
1/2-x,1/2+y,-z
1/2-x,1/2-y,-z
1/2+x,1/2-y,z
loop_
_atom_site_type_symbol
_atom_site_label
_atom_site_fract_x
_atom_site_fract_y
_atom_site_fract_z
Si Si1 0.686072 0.209916 0.618756
Si Si2 0.812796 0.793169 0.011780
Si Si3 0.809773 0.787446 0.774858
Si Si4 0.377926 0.294774 0.631022
Si Si5 0.393778 0.797655 0.254821
Si Si6 0.488220 0.701970 0.605460
O O1 0.747687 0.265873 0.695948
O O2 0.667196 0.270731 0.492481
O O3 0.641521 0.270752 0.672483
O O4 0.685570 0.000000 0.619202
O O5 0.855930 0.721535 0.126344
O O6 0.818576 0.000000 0.016752
O O7 0.750000 0.750000 0.000000
O O8 0.821482 0.731021 0.900499
O O9 0.853496 0.725423 0.720753
O O10 0.809633 0.000000 0.774937
O O11 0.385973 0.500000 0.653903
O O12 0.435841 0.221065 0.628690
O O13 0.453960 0.712092 0.291836
O O14 0.403846 0.000000 0.280571
O O15 0.500000 0.779056 0.500000
O O16 0.473768 0.500000 0.577494
#
# Coordination Sequence:
#
# PCOD9182961 Si02
#       6
#     8   8   8   8   8   8
#     4  10  19  33  53  80 114 141 175 224 276 328
#     4  11  21  37  59  82 111 144 183 227 271 322
#     4   9  19  36  55  79 111 145 179 222 271 328
#     4  10  20  35  56  80 110 145 182 222 273 326
#     4  11  22  36  56  83 111 144 183 225 275 323
#     4  10  20  35  55  82 110 141 185 230 268 319
#
# _framework density 20.025811000000001
#
# number of rings (size 3 to 8) (size 9 to 14) (size 15 to 20)
#    0.000    1.833    3.333    1.500    0.000    1.667 
#    0.000    2.500    0.000    5.000    0.000    0.000 
#    0.000    0.000    0.000    0.000    0.000    0.000 
#
# Total GULP energy -134053.021567 kJ/mol
# GULP energy per Si atom -5585.542565 kJ/mol
# Density = 1.998023 g / cm^3
# Si number density = 20.025811 Si / 1000 Ang^3
#
#
#
# Elastic Constant Matrix: (Units=GPa)
#
#
# Indices 1 2 3 4 5 6 
#
# 1 92.4280 3.3572 49.6247 0.0000 -17.4498 0.0000
# 2 3.3572 33.9202 -12.9788 0.0000 -7.0052 0.0000
# 3 49.6247 -12.9788 124.5856 0.0000 -20.7133 0.0000
# 4 0.0000 0.0000 0.0000 22.5865 0.0000 7.2393
# 5 -17.4498 -7.0052 -20.7133 0.0000 39.5141 0.0000
# 6 0.0000 0.0000 0.0000 7.2393 0.0000 10.6082
#
#
#
# Elastic Compliance Matrix: (Units=1/GPa)
#
#
# Indices 1 2 3 4 5 6 
#
# 1 0.014483 -0.002964 -0.005589 0.000000 0.002941 0.000000
# 2 -0.002964 0.033675 0.005985 0.000000 0.007799 0.000000
# 3 -0.005589 0.005985 0.011658 0.000000 0.004704 0.000000
# 4 0.000000 0.000000 0.000000 0.056669 0.000000 -0.038672
# 5 0.002941 0.007799 0.004704 0.000000 0.030455 0.000000
# 6 0.000000 0.000000 0.000000 -0.038672 0.000000 0.120657
#
#
# Mechanical properties :
#
#
# Convention : Reuss Voigt Hill
#
# Bulk Modulus (GPa) = 18.28791 36.77110 27.52951
# Shear Modulus (GPa) = 17.18453 28.60382 22.89417
#
# Velocity S-wave (km/s) = 2.93254 3.78345 3.38484
# Velocity P-wave (km/s) = 4.54075 6.12272 5.39009
#
# Compressibility (1/GPa) = 0.05468093
#
# Stress axis : x y z
#
# Youngs Moduli (GPa) = 69.04835 29.69551 85.77544
#
# Poissons Ratio (x) = 0.08803 0.47937
# Poissons Ratio (y) = 0.20469 -0.51341
# Poissons Ratio (z) = 0.38588 -0.17774
#
# Static dielectric constant tensor:
#      x y z
#    x 1.709440 0.000000 -0.031980 
#    y 0.000000 1.650310 0.000000 
#    z -0.031980 0.000000 1.659640 
# 
# From -- ./inp_files/172385.got.cif
#   From: 2010.05.17/outbox.cif.g08.bks.cpg/sg12_87_cif.got.tgz:172385.got - 2010.06.03 13:09:07.
