data_PCOD9182793
_publ_section_title
;
Structure prediction by ZEFSAII (Michael W. Deem and Ramdas Pophale) SiO2 
 PCOD9182793
Probable space group: C 2/M
;
_chemical_formula_sum "Si O2"
_cell_formula_units_Z 48
_cell_length_a 29.997589
_cell_length_b 9.294191
_cell_length_c 7.724201
_cell_angle_alpha 90.000000
_cell_angle_beta 109.961021
_cell_angle_gamma 90.000000
_cell_volume 2024.159588
_symmetry_space_group_name_H-M "C 2/M"
_symmetry_group_IT_number 12
_symmetry_cell_setting 'monoclinic'
loop_
_space_group_symop_operation_xyz
x,y,z
-x,y,-z
-x,-y,-z
x,-y,z
1/2+x,1/2+y,z
1/2-x,1/2+y,-z
1/2-x,1/2-y,-z
1/2+x,1/2-y,z
loop_
_atom_site_type_symbol
_atom_site_label
_atom_site_fract_x
_atom_site_fract_y
_atom_site_fract_z
Si Si1 0.528132 0.835292 0.221820
Si Si2 0.780487 0.832624 0.397666
Si Si3 0.446446 0.334994 0.283868
Si Si4 0.891115 0.836861 0.840278
Si Si5 0.687948 0.839081 0.097828
Si Si6 0.863173 0.334194 0.342074
O O1 0.496801 0.736114 0.305701
O O2 0.578837 0.767341 0.243185
O O3 0.530424 0.000000 0.285324
O O4 0.500000 0.837301 0.000000
O O5 0.750000 0.750000 0.500000
O O6 0.744382 0.824047 0.185749
O O7 0.830159 0.758641 0.423489
O O8 0.786494 0.000000 0.448001
O O9 0.449505 0.500000 0.347681
O O10 0.413234 0.237947 0.361263
O O11 0.419425 0.338248 0.061476
O O12 0.839886 0.776708 0.824252
O O13 0.890359 0.000000 0.773602
O O14 0.676771 0.000000 0.152610
O O15 0.666249 0.833189 0.878280
O O16 0.867653 0.500000 0.402218
#
# Coordination Sequence:
#
# PCOD9182793 Si02
#       6
#     8   8   8   8   8   8
#     4   9  15  23  37  60  94 132 165 199 242 290
#     4  11  23  38  54  74 100 131 167 208 254 302
#     4   9  16  26  41  65  97 130 164 202 244 291
#     4   9  16  25  41  66  96 129 164 202 245 292
#     4   9  19  34  52  74 101 132 167 207 251 299
#     4  10  19  33  53  76 101 131 167 207 252 300
#
# _framework density 23.713545
#
# number of rings (size 3 to 8) (size 9 to 14) (size 15 to 20)
#    0.000    2.500    0.000    3.000    0.000    8.000 
#    0.000    0.000    0.000    0.000    0.000    1.167 
#    0.000    9.333    0.000    0.000    0.000    0.000 
#
# Total GULP energy -134379.887269 kJ/mol
# GULP energy per Si atom -5599.161970 kJ/mol
# Density = 2.365957 g / cm^3
# Si number density = 23.713545 Si / 1000 Ang^3
#
#
#
# Elastic Constant Matrix: (Units=GPa)
#
#
# Indices 1 2 3 4 5 6 
#
# 1 165.7164 91.7715 13.5202 0.0000 -8.2892 0.0000
# 2 91.7715 219.0812 14.5443 0.0000 -36.4019 0.0000
# 3 13.5202 14.5443 64.8346 0.0000 3.2662 0.0000
# 4 0.0000 0.0000 0.0000 19.6485 0.0000 -14.4372
# 5 -8.2892 -36.4019 3.2662 0.0000 48.7229 0.0000
# 6 0.0000 0.0000 0.0000 -14.4372 0.0000 42.1080
#
#
#
# Elastic Compliance Matrix: (Units=1/GPa)
#
#
# Indices 1 2 3 4 5 6 
#
# 1 0.007970 -0.003482 -0.000821 0.000000 -0.001190 0.000000
# 2 -0.003482 0.006857 -0.001044 0.000000 0.004600 0.000000
# 3 -0.000821 -0.001044 0.015929 0.000000 -0.001987 0.000000
# 4 0.000000 0.000000 0.000000 0.068034 0.000000 0.023326
# 5 -0.001190 0.004600 -0.001987 0.000000 0.023892 0.000000
# 6 0.000000 0.000000 0.000000 0.023326 0.000000 0.031746
#
#
# Mechanical properties :
#
#
# Convention : Reuss Voigt Hill
#
# Bulk Modulus (GPa) = 49.84357 76.58937 63.21647
# Shear Modulus (GPa) = 29.10212 44.08231 36.59221
#
# Velocity S-wave (km/s) = 3.50699 4.31623 3.93248
# Velocity P-wave (km/s) = 6.12073 7.56357 6.88008
#
# Compressibility (1/GPa) = 0.02006277
#
# Stress axis : x y z
#
# Youngs Moduli (GPa) = 125.46941 145.84160 62.77718
#
# Poissons Ratio (x) = 0.50781 0.05154
# Poissons Ratio (y) = 0.43687 0.06553
# Poissons Ratio (z) = 0.10301 0.15223
#
# Static dielectric constant tensor:
#      x y z
#    x 1.826720 0.000000 0.085370 
#    y 0.000000 1.814000 0.000000 
#    z 0.085370 0.000000 1.984410 
# 
# From -- ./inp_files/108640.got.cif
#   From: 2010.05.17/outbox.cif.g08.bks.cpg/sg12_55_cif.got.tgz:108640.got - 2010.06.03 13:09:07.
