data_PCOD9182304
_publ_section_title
;
Structure prediction by ZEFSAII (Michael W. Deem and Ramdas Pophale) SiO2 
 PCOD9182304
Probable space group: C 2/M
;
_chemical_formula_sum "Si O2"
_cell_formula_units_Z 64
_cell_length_a 25.117445
_cell_length_b 7.339342
_cell_length_c 22.413871
_cell_angle_alpha 90.000000
_cell_angle_beta 44.387637
_cell_angle_gamma 90.000000
_cell_volume 2890.299573
_symmetry_space_group_name_H-M "C 2/M"
_symmetry_group_IT_number 12
_symmetry_cell_setting 'monoclinic'
loop_
_space_group_symop_operation_xyz
x,y,z
-x,y,-z
-x,-y,-z
x,-y,z
1/2+x,1/2+y,z
1/2-x,1/2+y,-z
1/2-x,1/2-y,-z
1/2+x,1/2-y,z
loop_
_atom_site_type_symbol
_atom_site_label
_atom_site_fract_x
_atom_site_fract_y
_atom_site_fract_z
Si Si1 0.109773 0.277112 0.755353
Si Si2 0.094605 0.778054 0.486365
Si Si3 0.826794 0.277446 0.042688
Si Si4 0.578140 0.721972 0.364478
Si Si5 0.756934 0.782524 0.564673
Si Si6 0.415381 0.221536 0.088317
Si Si7 0.054670 0.715429 0.151279
Si Si8 0.343293 0.718380 0.817318
O O1 0.111575 0.500000 0.753462
O O2 0.184034 0.214565 0.660130
O O3 0.105570 0.220934 0.828072
O O4 0.031135 0.216237 0.787293
O O5 0.104514 0.723336 0.409329
O O6 0.163459 0.713770 0.472188
O O7 0.009793 0.721765 0.573364
O O8 0.094111 0.000000 0.487807
O O9 0.826951 0.500000 0.040748
O O10 0.855690 0.224546 0.085198
O O11 0.741024 0.215558 0.098697
O O12 0.887597 0.212826 0.945257
O O13 0.578900 0.500000 0.363565
O O14 0.629770 0.784975 0.268802
O O15 0.750000 0.750000 0.500000
O O16 0.757943 0.000000 0.572252
O O17 0.416757 0.000000 0.088152
O O18 0.500000 0.278822 0.000000
O O19 0.049298 0.500000 0.144404
O O20 0.093849 0.740924 0.183460
O O21 0.338173 0.500000 0.817728
#
# Coordination Sequence:
#
# PCOD9182304 Si02
#       8
#     8   8   8   8   8   8   8   8
#     4   9  18  30  47  73  99 126 163 203 243 288
#     4   8  15  29  47  67  94 122 150 191 243 284
#     4   9  17  28  45  71  99 124 156 200 244 280
#     4   8  15  28  46  69  93 118 152 198 241 275
#     4  10  21  34  51  75 101 129 161 199 244 293
#     4   9  14  25  46  72 100 127 157 201 251 289
#     4  10  19  33  48  66  99 134 158 187 236 294
#     4  10  20  30  47  74  97 121 161 204 236 275
#
# _framework density 22.143032000000002
#
# number of rings (size 3 to 8) (size 9 to 14) (size 15 to 20)
#    0.000    2.875    1.250    1.125    3.500    0.000 
#    0.000    0.000    0.000    0.750    0.000    5.250 
#    0.000    0.000    0.000    0.000    0.000    0.000 
#
# Total GULP energy -178756.468708 kJ/mol
# GULP energy per Si atom -5586.139647 kJ/mol
# Density = 2.209263 g / cm^3
# Si number density = 22.143032 Si / 1000 Ang^3
#
#
#
# Elastic Constant Matrix: (Units=GPa)
#
#
# Indices 1 2 3 4 5 6 
#
# 1 123.5631 -2.2681 34.7443 0.0136 0.6922 0.0203
# 2 -2.2681 83.4491 1.1082 0.0018 -4.7475 0.0776
# 3 34.7443 1.1082 105.9761 0.0142 0.4533 -0.0002
# 4 0.0136 0.0018 0.0142 -9.2609 -0.0022 8.1565
# 5 0.6922 -4.7475 0.4533 -0.0022 22.8044 0.0098
# 6 0.0203 0.0776 -0.0002 8.1565 0.0098 13.7864
#
#
#
# Elastic Compliance Matrix: (Units=1/GPa)
#
#
# Indices 1 2 3 4 5 6 
#
# 1 0.008922 0.000273 -0.002927 -0.000003 -0.000156 -0.000013
# 2 0.000273 0.012137 -0.000227 -0.000040 0.002523 -0.000047
# 3 -0.002927 -0.000227 0.010399 0.000011 -0.000165 -0.000001
# 4 -0.000003 -0.000040 0.000011 -0.070990 -0.000033 0.042000
# 5 -0.000156 0.002523 -0.000165 -0.000033 0.044384 -0.000026
# 6 -0.000013 -0.000047 -0.000001 0.042000 -0.000026 0.047687
#
#
# Mechanical properties :
#
#
# Convention : Reuss Voigt Hill
#
# Bulk Modulus (GPa) = 38.91864 42.23969 40.57917
# Shear Modulus (GPa) = 74.77363 24.09292 49.43327
#
# Velocity S-wave (km/s) = 5.81737 3.30215 4.73001
# Velocity P-wave (km/s) = 7.92064 5.80140 6.94236
#
# Compressibility (1/GPa) = 0.02569463
#
# Stress axis : x y z
#
# Youngs Moduli (GPa) = 112.08230 82.39024 96.16429
#
# Poissons Ratio (x) = -0.02245 0.28150
# Poissons Ratio (y) = -0.03054 0.02183
# Poissons Ratio (z) = 0.32810 0.01871
#
# Static dielectric constant tensor:
#      x y z
#    x 1.777170 -0.000010 -0.013350 
#    y -0.000010 1.897790 0.000000 
#    z -0.013350 0.000000 1.765210 
# 
# From -- ./inp_files/289109.got.cif
#   From: 2010.05.17/outbox.cif.g08.bks.cpg/sg12_145_cif.got.tgz:289109.got - 2010.06.03 13:09:07.
