data_PCOD9182590
_publ_section_title
;
Structure prediction by ZEFSAII (Michael W. Deem and Ramdas Pophale) SiO2 
 PCOD9182590
Probable space group: C 2/M
;
_chemical_formula_sum "Si O2"
_cell_formula_units_Z 48
_cell_length_a 28.665513
_cell_length_b 8.870096
_cell_length_c 7.660016
_cell_angle_alpha 90.000000
_cell_angle_beta 99.896396
_cell_angle_gamma 90.000000
_cell_volume 1918.699281
_symmetry_space_group_name_H-M "C 2/M"
_symmetry_group_IT_number 12
_symmetry_cell_setting 'monoclinic'
loop_
_space_group_symop_operation_xyz
x,y,z
-x,y,-z
-x,-y,-z
x,-y,z
1/2+x,1/2+y,z
1/2-x,1/2+y,-z
1/2-x,1/2-y,-z
1/2+x,1/2-y,z
loop_
_atom_site_type_symbol
_atom_site_label
_atom_site_fract_x
_atom_site_fract_y
_atom_site_fract_z
Si Si1 0.237007 0.829434 0.768541
Si Si2 0.492647 0.176786 0.735016
Si Si3 0.681618 0.330547 0.359860
Si Si4 0.400116 0.828345 0.512797
Si Si5 0.153122 0.672015 0.893689
Si Si6 0.931909 0.824019 0.997183
O O1 0.289465 0.776206 0.751336
O O2 0.209885 0.827169 0.563337
O O3 0.205552 0.724398 0.872627
O O4 0.235855 0.000000 0.832639
O O5 0.456202 0.200914 0.551322
O O6 0.535642 0.286167 0.812111
O O7 0.507200 0.000000 0.747848
O O8 0.455477 0.214179 0.869490
O O9 0.683537 0.500000 0.294162
O O10 0.629464 0.281759 0.382889
O O11 0.376039 0.823876 0.308531
O O12 0.393845 0.000000 0.573561
O O13 0.152153 0.500000 0.955765
O O14 0.121929 0.780633 0.994393
O O15 0.936694 0.000000 0.954443
#
# Coordination Sequence:
#
# PCOD9182590 Si02
#       6
#     8   8   8   8   8   8
#     4   9  16  27  44  69 101 134 168 205 244 290
#     4  10  20  37  57  75  97 131 171 208 250 300
#     4   9  16  26  44  70 101 135 167 201 245 295
#     4   9  19  33  52  77 103 131 167 210 252 294
#     4  10  19  33  52  76 104 133 167 208 252 296
#     4  11  22  36  53  75 101 132 169 207 250 301
#
# _framework density 25.016947999999999
#
# number of rings (size 3 to 8) (size 9 to 14) (size 15 to 20)
#    0.000    2.333    0.000    4.500    0.000    6.667 
#    0.000    3.333    0.000    1.000    0.000    0.000 
#    0.000    0.000    0.000    0.000    0.000    0.000 
#
# Total GULP energy -134360.452656 kJ/mol
# GULP energy per Si atom -5598.352194 kJ/mol
# Density = 2.496001 g / cm^3
# Si number density = 25.016948 Si / 1000 Ang^3
#
#
#
# Elastic Constant Matrix: (Units=GPa)
#
#
# Indices 1 2 3 4 5 6 
#
# 1 151.6656 20.4427 -17.3003 0.0000 7.6376 0.0000
# 2 20.4427 86.6786 7.0524 0.0000 -13.1515 0.0000
# 3 -17.3003 7.0524 62.3459 0.0000 8.9097 0.0000
# 4 0.0000 0.0000 0.0000 25.5899 0.0000 -2.0476
# 5 7.6376 -13.1515 8.9097 0.0000 42.9778 0.0000
# 6 0.0000 0.0000 0.0000 -2.0476 0.0000 39.1115
#
#
#
# Elastic Compliance Matrix: (Units=1/GPa)
#
#
# Indices 1 2 3 4 5 6 
#
# 1 0.007343 -0.002340 0.002670 0.000000 -0.002574 0.000000
# 2 -0.002340 0.013080 -0.002844 0.000000 0.005008 0.000000
# 3 0.002670 -0.002844 0.017822 0.000000 -0.005040 0.000000
# 4 0.000000 0.000000 0.000000 0.039242 0.000000 0.002054
# 5 -0.002574 0.005008 -0.005040 0.000000 0.026303 0.000000
# 6 0.000000 0.000000 0.000000 0.002054 0.000000 0.025675
#
#
# Mechanical properties :
#
#
# Convention : Reuss Voigt Hill
#
# Bulk Modulus (GPa) = 30.10464 35.67553 32.89008
# Shear Modulus (GPa) = 34.34860 40.90220 37.62540
#
# Velocity S-wave (km/s) = 3.70944 4.04787 3.88235
# Velocity P-wave (km/s) = 5.51420 6.01154 5.76823
#
# Compressibility (1/GPa) = 0.03321747
#
# Stress axis : x y z
#
# Youngs Moduli (GPa) = 136.18326 76.45285 56.10896
#
# Poissons Ratio (x) = 0.17888 -0.14982
# Poissons Ratio (y) = 0.31863 0.15960
# Poissons Ratio (z) = -0.36363 0.21747
#
# Static dielectric constant tensor:
#      x y z
#    x 1.977310 0.000000 0.094710 
#    y 0.000000 1.826750 0.000000 
#    z 0.094710 0.000000 2.160020 
# 
# From -- ./inp_files/172312.got.cif
#   From: 2010.05.17/outbox.cif.g08.bks.cpg/sg12_87_cif.got.tgz:172312.got - 2010.06.03 13:09:07.
