data_PCOD9182485
_publ_section_title
;
Structure prediction by ZEFSAII (Michael W. Deem and Ramdas Pophale) SiO2 
 PCOD9182485
Probable space group: C 2/M
;
_chemical_formula_sum "Si O2"
_cell_formula_units_Z 50
_cell_length_a 21.890938
_cell_length_b 12.961866
_cell_length_c 15.106039
_cell_angle_alpha 90.000000
_cell_angle_beta 33.437057
_cell_angle_gamma 90.000000
_cell_volume 2361.839148
_symmetry_space_group_name_H-M "C 2/M"
_symmetry_group_IT_number 12
_symmetry_cell_setting 'monoclinic'
loop_
_space_group_symop_operation_xyz
x,y,z
-x,y,-z
-x,-y,-z
x,-y,z
1/2+x,1/2+y,z
1/2-x,1/2+y,-z
1/2-x,1/2-y,-z
1/2+x,1/2-y,z
loop_
_atom_site_type_symbol
_atom_site_label
_atom_site_fract_x
_atom_site_fract_y
_atom_site_fract_z
Si Si1 0.587671 0.877067 0.767002
Si Si2 0.071943 0.659032 0.279371
Si Si3 0.156821 0.377820 0.993142
Si Si4 0.750053 0.693505 0.288777
Si Si5 0.489771 0.386946 0.406712
Si Si6 0.000000 0.500000 0.500000
Si Si7 0.177516 0.615779 0.478646
O O1 0.465092 0.839262 0.891132
O O2 0.640537 0.850460 0.796556
O O3 0.671165 0.845404 0.587272
O O4 0.579774 0.000000 0.770253
O O5 0.052712 0.781930 0.305211
O O6 0.952090 0.613107 0.392657
O O7 0.158695 0.636191 0.096338
O O8 0.081261 0.592883 0.357952
O O9 0.168932 0.500000 0.959585
O O10 0.240917 0.319091 0.827353
O O11 0.640637 0.633073 0.454141
O O12 0.737382 0.808353 0.339957
O O13 0.500000 0.391868 0.500000
O O14 0.524774 0.500000 0.329033
O O15 0.221486 0.500000 0.422095
#
# Coordination Sequence:
#
# PCOD9182485 Si02
#       7
#     8   8   8   8   8   2   8
#     4   9  17  31  53  77 103 133 168 216 260 309
#     4  10  19  33  58  79  98 133 177 225 259 305
#     4  10  19  33  51  81 111 126 162 225 271 303
#     4  11  20  31  54  78 103 141 173 206 267 317
#     4  10  21  36  53  73 104 141 176 211 253 309
#     4  12  16  32  62  80  94 132 188 218 262 304
#     4   9  18  33  50  76 106 131 175 220 255 300
#
# _framework density 21.169943
#
# number of rings (size 3 to 8) (size 9 to 14) (size 15 to 20)
#    0.000    2.080    2.400    3.360    0.000    1.280 
#    0.000    1.600    0.000    1.920    0.000    0.000 
#    0.000    0.000    0.000    0.000    0.000    0.000 
#
# Total GULP energy -139168.828972 kJ/mol
# GULP energy per Si atom -5566.753159 kJ/mol
# Density = 2.112176 g / cm^3
# Si number density = 21.169943 Si / 1000 Ang^3
#
#
#
# Elastic Constant Matrix: (Units=GPa)
#
#
# Indices 1 2 3 4 5 6 
#
# 1 41.9071 -9.1480 1.3798 0.0000 0.1915 0.0000
# 2 -9.1480 133.5780 53.4458 0.0000 13.5330 0.0000
# 3 1.3798 53.4458 98.1074 0.0000 31.1729 0.0000
# 4 0.0000 0.0000 0.0000 29.2516 0.0000 9.6492
# 5 0.1915 13.5330 31.1729 0.0000 32.5368 0.0000
# 6 0.0000 0.0000 0.0000 9.6492 0.0000 15.4139
#
#
#
# Elastic Compliance Matrix: (Units=1/GPa)
#
#
# Indices 1 2 3 4 5 6 
#
# 1 0.024429 0.002336 -0.001814 0.000000 0.000622 0.000000
# 2 0.002336 0.009845 -0.005881 0.000000 0.001526 0.000000
# 3 -0.001814 -0.005881 0.018174 0.000000 -0.014956 0.000000
# 4 0.000000 0.000000 0.000000 0.043083 0.000000 -0.026970
# 5 0.000622 0.001526 -0.014956 0.000000 0.044425 0.000000
# 6 0.000000 0.000000 0.000000 -0.026970 0.000000 0.081760
#
#
# Mechanical properties :
#
#
# Convention : Reuss Voigt Hill
#
# Bulk Modulus (GPa) = 23.96349 40.54973 32.25661
# Shear Modulus (GPa) = 20.29690 30.63479 25.46585
#
# Velocity S-wave (km/s) = 3.09974 3.80819 3.47208
# Velocity P-wave (km/s) = 4.91481 6.20745 5.59856
#
# Compressibility (1/GPa) = 0.04173015
#
# Stress axis : x y z
#
# Youngs Moduli (GPa) = 40.93489 101.57922 55.02355
#
# Poissons Ratio (x) = -0.23725 0.09980
# Poissons Ratio (y) = -0.09561 0.32357
# Poissons Ratio (z) = 0.07425 0.59735
#
# Static dielectric constant tensor:
#      x y z
#    x 1.874710 0.000000 0.041590 
#    y 0.000000 1.791410 0.000000 
#    z 0.041590 0.000000 1.831910 
# 
# From -- ./inp_files/176414.got.cif
#   From: 2010.05.17/outbox.cif.g08.bks.cpg/sg12_89_cif.got.tgz:176414.got - 2010.06.03 13:09:07.
