data_PCOD9182605
_publ_section_title
;
Structure prediction by ZEFSAII (Michael W. Deem and Ramdas Pophale) SiO2 
 PCOD9182605
Probable space group: C 2/M
;
_chemical_formula_sum "Si O2"
_cell_formula_units_Z 56
_cell_length_a 16.463791
_cell_length_b 14.988032
_cell_length_c 30.709230
_cell_angle_alpha 90.000000
_cell_angle_beta 23.798911
_cell_angle_gamma 90.000000
_cell_volume 3057.855486
_symmetry_space_group_name_H-M "C 2/M"
_symmetry_group_IT_number 12
_symmetry_cell_setting 'monoclinic'
loop_
_space_group_symop_operation_xyz
x,y,z
-x,y,-z
-x,-y,-z
x,-y,z
1/2+x,1/2+y,z
1/2-x,1/2+y,-z
1/2-x,1/2-y,-z
1/2+x,1/2-y,z
loop_
_atom_site_type_symbol
_atom_site_label
_atom_site_fract_x
_atom_site_fract_y
_atom_site_fract_z
Si Si1 0.894856 0.768273 0.595021
Si Si2 0.906930 0.833364 0.418650
Si Si3 0.031803 0.819111 0.189828
Si Si4 0.877580 0.102115 0.177072
Si Si5 0.019422 0.595877 0.581297
Si Si6 0.807881 0.107210 0.798307
Si Si7 0.466229 0.252390 0.967228
O O1 0.658406 0.745969 0.707772
O O2 0.996242 0.672436 0.556936
O O3 0.000000 0.802436 0.500000
O O4 0.954580 0.829575 0.606681
O O5 0.750000 0.750000 0.500000
O O6 0.739916 0.907800 0.493083
O O7 0.052259 0.843797 0.306077
O O8 0.093035 0.872841 0.203165
O O9 0.969775 0.880828 0.179732
O O10 0.230659 0.766366 0.077802
O O11 0.639915 0.116514 0.302354
O O12 0.957722 0.175395 0.104536
O O13 0.912625 0.000000 0.146148
O O14 0.962472 0.500000 0.590449
O O15 0.595245 0.160294 0.900662
O O16 0.792026 0.000000 0.799091
O O17 0.500000 0.285510 0.000000
#
# Coordination Sequence:
#
# PCOD9182605 Si02
#       7
#     8   8   8   8   8   8   8
#     4  10  20  33  53  79 107 139 176 220 271 328
#     4  10  19  33  52  76 108 141 177 218 268 326
#     4  10  20  35  55  81 111 142 179 231 286 326
#     4  10  20  35  56  82 112 145 184 230 277 327
#     4   9  18  32  52  77 104 136 175 222 273 321
#     4  11  22  36  57  83 110 145 187 228 276 331
#     4  10  22  37  55  79 112 149 186 226 272 331
#
# _framework density 18.313486999999999
#
# number of rings (size 3 to 8) (size 9 to 14) (size 15 to 20)
#    0.000    2.000    0.000    5.571    0.000    5.429 
#    0.000    0.000    0.000    2.571    0.000    2.000 
#    0.000    0.000    0.000    0.000    0.000    0.000 
#
# Total GULP energy -155992.672831 kJ/mol
# GULP energy per Si atom -5571.166887 kJ/mol
# Density = 1.827181 g / cm^3
# Si number density = 18.313487 Si / 1000 Ang^3
#
#
#
# Elastic Constant Matrix: (Units=GPa)
#
#
# Indices 1 2 3 4 5 6 
#
# 1 70.3275 29.1412 51.2084 -0.0007 2.0567 0.0006
# 2 29.1412 39.8657 23.5253 -0.0006 9.0504 0.0005
# 3 51.2084 23.5253 108.4756 0.0180 -7.9643 0.0050
# 4 -0.0007 -0.0006 0.0180 0.6655 -0.0050 -3.1485
# 5 2.0567 9.0504 -7.9643 -0.0050 41.3711 -0.0008
# 6 0.0006 0.0005 0.0050 -3.1485 -0.0008 13.4690
#
#
#
# Elastic Compliance Matrix: (Units=1/GPa)
#
#
# Indices 1 2 3 4 5 6 
#
# 1 0.027177 -0.014049 -0.009794 -0.002763 -0.000163 -0.000643
# 2 -0.014049 0.038595 -0.002340 -0.000177 -0.008195 -0.000042
# 3 -0.009794 -0.002340 0.014629 0.003782 0.003815 0.000879
# 4 -0.002763 -0.000177 0.003782-14.175532 -0.000862 -3.313664
# 5 -0.000163 -0.008195 0.003815 -0.000862 0.026707 -0.000201
# 6 -0.000643 -0.000042 0.000879 -3.313664 -0.000201 -0.700356
#
#
# Mechanical properties :
#
#
# Convention : Reuss Voigt Hill
#
# Bulk Modulus (GPa) = 35.66944 47.37986 41.52465
# Shear Modulus (GPa) = -0.33997 18.75404 9.20703
#
# Velocity S-wave (km/s) = -0.43133 3.20356 2.24463
# Velocity P-wave (km/s) = 4.38992 6.29376 5.42599
#
# Compressibility (1/GPa) = 0.02803521
#
# Stress axis : x y z
#
# Youngs Moduli (GPa) = 36.79582 25.91005 68.35703
#
# Poissons Ratio (x) = 0.36402 0.66950
# Poissons Ratio (y) = 0.51695 0.15993
# Poissons Ratio (z) = 0.36038 0.06062
#
# Static dielectric constant tensor:
#      x y z
#    x 1.647820 0.000000 -0.016130 
#    y 0.000000 1.663880 0.000010 
#    z -0.016130 0.000010 1.657670 
# 
# From -- ./inp_files/361394.got.cif
#   From: 2010.05.17/outbox.cif.g08.bks.cpg/sg12_181_cif.got.tgz:361394.got - 2010.06.03 13:09:07.
