data_PCOD9182532
_publ_section_title
;
Structure prediction by ZEFSAII (Michael W. Deem and Ramdas Pophale) SiO2 
 PCOD9182532
Probable space group: C 2/M
;
_chemical_formula_sum "Si O2"
_cell_formula_units_Z 56
_cell_length_a 19.458619
_cell_length_b 7.756540
_cell_length_c 20.255128
_cell_angle_alpha 90.000000
_cell_angle_beta 58.229013
_cell_angle_gamma 90.000000
_cell_volume 2599.054667
_symmetry_space_group_name_H-M "C 2/M"
_symmetry_group_IT_number 12
_symmetry_cell_setting 'monoclinic'
loop_
_space_group_symop_operation_xyz
x,y,z
-x,y,-z
-x,-y,-z
x,-y,z
1/2+x,1/2+y,z
1/2-x,1/2+y,-z
1/2-x,1/2-y,-z
1/2+x,1/2-y,z
loop_
_atom_site_type_symbol
_atom_site_label
_atom_site_fract_x
_atom_site_fract_y
_atom_site_fract_z
Si Si1 0.434451 0.295550 0.084114
Si Si2 0.935172 0.790698 0.234697
Si Si3 0.003173 0.802839 0.425551
Si Si4 0.419063 0.711465 0.745909
Si Si5 0.243778 0.702707 0.668138
Si Si6 0.830226 0.305547 0.497964
Si Si7 0.743169 0.791994 0.820684
O O1 0.449078 0.500000 0.081857
O O2 0.440945 0.227807 0.155868
O O3 0.342023 0.270027 0.108118
O O4 0.500000 0.223395 0.000000
O O5 0.849191 0.729747 0.306350
O O6 0.011499 0.733521 0.238879
O O7 0.933120 0.000000 0.235794
O O8 0.910968 0.802899 0.446265
O O9 0.000000 0.720650 0.500000
O O10 0.057816 0.728525 0.339645
O O11 0.031809 0.000000 0.420640
O O12 0.421030 0.500000 0.743500
O O13 0.327787 0.762592 0.809835
O O14 0.262510 0.500000 0.657244
O O15 0.304427 0.792322 0.587568
O O16 0.247188 0.764627 0.741848
O O17 0.850263 0.500000 0.469630
O O18 0.750000 0.250000 0.500000
O O19 0.740203 0.000000 0.822077
#
# Coordination Sequence:
#
# PCOD9182532 Si02
#       7
#     8   8   8   8   8   8   8
#     4   9  18  33  52  75 103 133 165 203 249 298
#     4   9  17  31  52  74  98 133 172 208 249 302
#     4  10  20  35  54  75 103 138 173 215 270 322
#     4   9  17  31  51  73  97 128 167 207 249 302
#     4  10  19  33  52  73  98 129 168 213 260 309
#     4  12  24  36  51  73 102 136 178 225 269 311
#     4   9  18  33  54  77  99 127 164 203 245 299
#
# _framework density 21.546296000000002
#
# number of rings (size 3 to 8) (size 9 to 14) (size 15 to 20)
#    0.000    2.286    0.000    3.429    0.000    4.571 
#    0.000    2.143    0.000    0.000    0.000    0.000 
#    0.000    0.000    0.000    0.000    0.000    0.000 
#
# Total GULP energy -156389.209672 kJ/mol
# GULP energy per Si atom -5585.328917 kJ/mol
# Density = 2.149726 g / cm^3
# Si number density = 21.546296 Si / 1000 Ang^3
#
#
#
# Elastic Constant Matrix: (Units=GPa)
#
#
# Indices 1 2 3 4 5 6 
#
# 1 114.1573 -5.0616 28.2809 -0.0002 -24.3422 -0.0012
# 2 -5.0616 41.2519 -0.7356 -0.0002 4.0201 -0.0039
# 3 28.2809 -0.7356 97.4469 0.0002 -28.2783 -0.0003
# 4 -0.0002 -0.0002 0.0002 11.5947 -0.0002 -5.4214
# 5 -24.3422 4.0201 -28.2783 -0.0002 28.1242 0.0001
# 6 -0.0012 -0.0039 -0.0003 -5.4214 0.0001 17.8867
#
#
#
# Elastic Compliance Matrix: (Units=1/GPa)
#
#
# Indices 1 2 3 4 5 6 
#
# 1 0.010776 0.000469 -0.000617 0.000001 0.008640 0.000001
# 2 0.000469 0.024700 -0.001209 0.000003 -0.004340 0.000006
# 3 -0.000617 -0.001209 0.014582 0.000000 0.014301 0.000000
# 4 0.000001 0.000003 0.000000 0.100487 0.000001 0.030457
# 5 0.008640 -0.004340 0.014301 0.000001 0.058034 0.000000
# 6 0.000001 0.000006 0.000000 0.030457 0.000000 0.065139
#
#
# Mechanical properties :
#
#
# Convention : Reuss Voigt Hill
#
# Bulk Modulus (GPa) = 21.12181 33.09149 27.10665
# Shear Modulus (GPa) = 17.11082 26.87928 21.99505
#
# Velocity S-wave (km/s) = 2.82111 3.53585 3.19851
# Velocity P-wave (km/s) = 4.52060 5.66227 5.12333
#
# Compressibility (1/GPa) = 0.04734444
#
# Stress axis : x y z
#
# Youngs Moduli (GPa) = 92.80177 40.48536 68.57859
#
# Poissons Ratio (x) = -0.01900 0.04229
# Poissons Ratio (y) = -0.04355 0.08293
# Poissons Ratio (z) = 0.05722 0.04896
#
# Static dielectric constant tensor:
#      x y z
#    x 1.814220 0.000000 0.012660 
#    y 0.000000 1.796150 0.000000 
#    z 0.012660 0.000000 1.776560 
# 
# From -- ./inp_files/275050.got.cif
#   From: 2010.05.17/outbox.cif.g08.bks.cpg/sg12_138_cif.got.tgz:275050.got - 2010.06.03 13:09:07.
