data_PCOD9182033
_publ_section_title
;
Structure prediction by ZEFSAII (Michael W. Deem and Ramdas Pophale) SiO2 
 PCOD9182033
Probable space group: C 2/M
;
_chemical_formula_sum "Si O2"
_cell_formula_units_Z 56
_cell_length_a 26.047981
_cell_length_b 7.877791
_cell_length_c 14.895371
_cell_angle_alpha 90.000000
_cell_angle_beta 120.527472
_cell_angle_gamma 90.000000
_cell_volume 2632.858432
_symmetry_space_group_name_H-M "C 2/M"
_symmetry_group_IT_number 12
_symmetry_cell_setting 'monoclinic'
loop_
_space_group_symop_operation_xyz
x,y,z
-x,y,-z
-x,-y,-z
x,-y,z
1/2+x,1/2+y,z
1/2-x,1/2+y,-z
1/2-x,1/2-y,-z
1/2+x,1/2-y,z
loop_
_atom_site_type_symbol
_atom_site_label
_atom_site_fract_x
_atom_site_fract_y
_atom_site_fract_z
Si Si1 0.454938 0.296000 0.384099
Si Si2 0.177511 0.800723 0.700096
Si Si3 0.225183 0.704530 0.074760
Si Si4 0.613925 0.794600 0.224112
Si Si5 0.501800 0.205378 0.229260
Si Si6 0.752549 0.197958 0.605696
Si Si7 0.907401 0.292581 0.995973
O O1 0.500000 0.229634 0.500000
O O2 0.452427 0.500000 0.392452
O O3 0.388005 0.228140 0.340524
O O4 0.478903 0.260358 0.305902
O O5 0.228763 0.727456 0.810209
O O6 0.202429 0.785895 0.621915
O O7 0.173563 0.000000 0.719020
O O8 0.222388 0.500000 0.081041
O O9 0.157854 0.764599 0.029462
O O10 0.250000 0.750000 0.000000
O O11 0.568387 0.738656 0.261268
O O12 0.681412 0.736246 0.298107
O O13 0.587940 0.741688 0.104012
O O14 0.615793 0.000000 0.225733
O O15 0.501522 0.000000 0.228189
O O16 0.457341 0.264091 0.110461
O O17 0.750000 0.250000 0.500000
O O18 0.740993 0.000000 0.602416
O O19 0.909407 0.500000 0.998359
#
# Coordination Sequence:
#
# PCOD9182033 Si02
#       7
#     8   8   8   8   8   8   8
#     4  10  23  41  60  84 119 162 201 246 307 363
#     4  10  21  41  63  86 119 161 201 246 301 357
#     4  10  19  32  55  83 117 157 197 243 293 349
#     4  10  20  39  63  90 124 160 200 243 296 360
#     4  10  21  36  61  92 121 159 204 249 292 349
#     4  12  26  42  64  92 121 156 199 251 306 360
#     4   9  17  34  58  86 121 158 195 239 296 353
#
# _framework density 21.269659999999998
#
# number of rings (size 3 to 8) (size 9 to 14) (size 15 to 20)
#    0.000    1.857    1.429    2.571    2.000    3.714 
#    0.000    0.714    0.000    1.714    0.000    0.000 
#    0.000    0.000    0.000    0.000    0.000    0.000 
#
# Total GULP energy -156449.842895 kJ/mol
# GULP energy per Si atom -5587.494389 kJ/mol
# Density = 2.122125 g / cm^3
# Si number density = 21.269660 Si / 1000 Ang^3
#
#
#
# Elastic Constant Matrix: (Units=GPa)
#
#
# Indices 1 2 3 4 5 6 
#
# 1 143.6938 -12.4714 27.6830 0.0000 -4.3861 0.0000
# 2 -12.4714 15.4724 -6.4083 0.0000 14.3655 0.0000
# 3 27.6830 -6.4083 83.7303 0.0000 -12.9819 0.0000
# 4 0.0000 0.0000 0.0000 7.1482 0.0000 -10.1637
# 5 -4.3861 14.3655 -12.9819 0.0000 33.5756 0.0000
# 6 0.0000 0.0000 0.0000 -10.1637 0.0000 22.4099
#
#
#
# Elastic Compliance Matrix: (Units=1/GPa)
#
#
# Indices 1 2 3 4 5 6 
#
# 1 0.008122 0.008990 -0.002584 0.000000 -0.003785 0.000000
# 2 0.008990 0.117284 -0.001696 0.000000 -0.049662 0.000000
# 3 -0.002584 -0.001696 0.013539 0.000000 0.005623 0.000000
# 4 0.000000 0.000000 0.000000 0.393910 0.000000 0.178651
# 5 -0.003785 -0.049662 0.005623 0.000000 0.052711 0.000000
# 6 0.000000 0.000000 0.000000 0.178651 0.000000 0.125648
#
#
# Mechanical properties :
#
#
# Convention : Reuss Voigt Hill
#
# Bulk Modulus (GPa) = 6.74008 28.94480 17.84244
# Shear Modulus (GPa) = 6.65558 28.23297 17.44428
#
# Velocity S-wave (km/s) = 1.77086 3.64728 2.86693
# Velocity P-wave (km/s) = 2.71238 5.60133 4.40068
#
# Compressibility (1/GPa) = 0.14836608
#
# Stress axis : x y z
#
# Youngs Moduli (GPa) = 123.12558 8.52630 73.85831
#
# Poissons Ratio (x) = -0.07665 0.19085
# Poissons Ratio (y) = -1.10691 0.12525
# Poissons Ratio (z) = 0.31815 0.01446
#
# Static dielectric constant tensor:
#      x y z
#    x 1.753740 0.000000 0.018800 
#    y 0.000000 1.782520 0.000000 
#    z 0.018800 0.000000 1.745730 
# 
# From -- ./inp_files/239026.got.cif
#   From: 2010.05.17/outbox.cif.g08.bks.cpg/sg12_120_cif.got.tgz:239026.got - 2010.06.03 13:09:07.
