data_PCOD9182051
_publ_section_title
;
Structure prediction by ZEFSAII (Michael W. Deem and Ramdas Pophale) SiO2 
 PCOD9182051
Probable space group: C 2/M
;
_chemical_formula_sum "Si O2"
_cell_formula_units_Z 56
_cell_length_a 8.786080
_cell_length_b 26.329761
_cell_length_c 18.871749
_cell_angle_alpha 90.000000
_cell_angle_beta 136.303372
_cell_angle_gamma 90.000000
_cell_volume 3016.001897
_symmetry_space_group_name_H-M "C 2/M"
_symmetry_group_IT_number 12
_symmetry_cell_setting 'monoclinic'
loop_
_space_group_symop_operation_xyz
x,y,z
-x,y,-z
-x,-y,-z
x,-y,z
1/2+x,1/2+y,z
1/2-x,1/2+y,-z
1/2-x,1/2-y,-z
1/2+x,1/2-y,z
loop_
_atom_site_type_symbol
_atom_site_label
_atom_site_fract_x
_atom_site_fract_y
_atom_site_fract_z
Si Si1 0.600015 0.000000 0.611066
Si Si2 0.261477 0.500000 0.384045
Si Si3 0.691885 0.897657 0.704869
Si Si4 0.335845 0.191904 0.775434
Si Si5 0.474300 0.442060 0.075271
Si Si6 0.180031 0.347077 0.998829
Si Si7 0.989270 0.801240 0.787145
Si Si8 0.230689 0.888924 0.620044
O O1 0.500000 0.000000 0.500000
O O2 0.418815 0.000000 0.613590
O O3 0.719307 0.946039 0.662285
O O4 0.500000 0.500000 0.500000
O O5 0.246456 0.446146 0.340228
O O6 0.818618 0.847614 0.722718
O O7 0.437918 0.885183 0.636008
O O8 0.809895 0.917803 0.816058
O O9 0.562378 0.172082 0.888146
O O10 0.377303 0.246759 0.755414
O O11 0.256008 0.152488 0.689408
O O12 0.158312 0.196768 0.778696
O O13 0.444215 0.500000 0.090676
O O14 0.500000 0.443310 0.000000
O O15 0.277353 0.403522 0.025604
O O16 0.376244 0.311631 0.094411
O O17 0.000000 0.346592 0.000000
O O18 0.000000 0.884885 0.500000
#
# Coordination Sequence:
#
# PCOD9182051 Si02
#       8
#     4   4   8   8   8   8   8   8
#     4  10  20  34  57  81 109 148 189 229 279 330
#     4   8  18  36  56  79 107 142 185 233 276 326
#     4  10  20  38  56  83 116 151 189 240 280 334
#     4  11  21  39  58  86 113 152 190 236 285 338
#     4  10  19  32  55  84 114 151 188 226 280 338
#     4   9  20  37  56  83 116 148 186 230 280 342
#     4  10  22  37  61  84 115 148 191 233 288 343
#     4  10  21  38  60  83 115 150 193 238 282 331
#
# _framework density 18.567627999999999
#
# number of rings (size 3 to 8) (size 9 to 14) (size 15 to 20)
#    0.000    2.143    0.714    2.143    0.000    4.857 
#    1.286    4.286    0.000    0.000    0.000    0.000 
#    0.000    0.000    0.000    0.000    0.000    0.000 
#
# Total GULP energy -156152.405368 kJ/mol
# GULP energy per Si atom -5576.871620 kJ/mol
# Density = 1.852537 g / cm^3
# Si number density = 18.567628 Si / 1000 Ang^3
#
#
#
# Elastic Constant Matrix: (Units=GPa)
#
#
# Indices 1 2 3 4 5 6 
#
# 1 36.4019 50.8763 31.5552 0.0000 8.8023 0.0000
# 2 50.8763 184.2394 69.3100 0.0000 3.0292 0.0000
# 3 31.5552 69.3100 93.4154 0.0000 -0.3602 0.0000
# 4 0.0000 0.0000 0.0000 26.2941 0.0000 0.4728
# 5 8.8023 3.0292 -0.3602 0.0000 28.6901 0.0000
# 6 0.0000 0.0000 0.0000 0.4728 0.0000 11.8093
#
#
#
# Elastic Compliance Matrix: (Units=1/GPa)
#
#
# Indices 1 2 3 4 5 6 
#
# 1 0.056533 -0.011286 -0.010786 0.000000 -0.016288 0.000000
# 2 -0.011286 0.009804 -0.003453 0.000000 0.002384 0.000000
# 3 -0.010786 -0.003453 0.016925 0.000000 0.003886 0.000000
# 4 0.000000 0.000000 0.000000 0.038059 0.000000 -0.001524
# 5 -0.016288 0.002384 0.003886 0.000000 0.039650 0.000000
# 6 0.000000 0.000000 0.000000 -0.001524 0.000000 0.084740
#
#
# Mechanical properties :
#
#
# Convention : Reuss Voigt Hill
#
# Bulk Modulus (GPa) = 31.04308 68.61551 49.82930
# Shear Modulus (GPa) = 16.26040 24.17972 20.22006
#
# Velocity S-wave (km/s) = 2.96250 3.61259 3.30357
# Velocity P-wave (km/s) = 5.33452 7.37805 6.43789
#
# Compressibility (1/GPa) = 0.03221329
#
# Stress axis : x y z
#
# Youngs Moduli (GPa) = 17.68893 102.00108 59.08475
#
# Poissons Ratio (x) = 1.15115 0.63727
# Poissons Ratio (y) = 0.19963 0.20399
# Poissons Ratio (z) = 0.19079 0.35216
#
# Static dielectric constant tensor:
#      x y z
#    x 1.628710 0.000000 0.009430 
#    y 0.000000 1.654700 0.000000 
#    z 0.009430 0.000000 1.661350 
# 
# From -- ./inp_files/259893.got.cif
#   From: 2010.05.17/outbox.cif.g08.bks.cpg/sg12_130_cif.got.tgz:259893.got - 2010.06.03 13:09:07.
