data_PCOD9182204
_publ_section_title
;
Structure prediction by ZEFSAII (Michael W. Deem and Ramdas Pophale) SiO2 
 PCOD9182204
Probable space group: C 2/M
;
_chemical_formula_sum "Si O2"
_cell_formula_units_Z 64
_cell_length_a 19.132646
_cell_length_b 13.455363
_cell_length_c 31.757249
_cell_angle_alpha 90.000000
_cell_angle_beta 150.493847
_cell_angle_gamma 90.000000
_cell_volume 4026.563722
_symmetry_space_group_name_H-M "C 2/M"
_symmetry_group_IT_number 12
_symmetry_cell_setting 'monoclinic'
loop_
_space_group_symop_operation_xyz
x,y,z
-x,y,-z
-x,-y,-z
x,-y,z
1/2+x,1/2+y,z
1/2-x,1/2+y,-z
1/2-x,1/2-y,-z
1/2+x,1/2-y,z
loop_
_atom_site_type_symbol
_atom_site_label
_atom_site_fract_x
_atom_site_fract_y
_atom_site_fract_z
Si Si1 0.339957 0.384102 0.433665
Si Si2 0.833422 0.244367 0.718954
Si Si3 0.598304 0.120464 0.012674
Si Si4 0.576463 0.380685 0.800779
Si Si5 0.409594 0.385409 0.290733
Si Si6 0.900143 0.383229 0.833254
Si Si7 0.551624 0.116722 0.575511
Si Si8 0.382948 0.730090 0.540396
O O1 0.500000 0.369177 0.500000
O O2 0.306352 0.500000 0.412406
O O3 0.232029 0.319056 0.349965
O O4 0.342736 0.347498 0.482884
O O5 0.880018 0.310611 0.783269
O O6 0.702626 0.170628 0.660708
O O7 0.961603 0.180834 0.766681
O O8 0.762231 0.149137 0.103199
O O9 0.595478 0.000000 0.013295
O O10 0.500000 0.156067 0.000000
O O11 0.527965 0.146852 0.931221
O O12 0.560812 0.500000 0.799523
O O13 0.559480 0.363341 0.741785
O O14 0.452053 0.500000 0.321007
O O15 0.242648 0.378830 0.213317
O O16 0.492827 0.315058 0.365940
O O17 0.916388 0.500000 0.829122
O O18 0.500000 0.128514 0.500000
O O19 0.439014 0.172189 0.546016
O O20 0.561240 0.000000 0.589405
O O21 0.250000 0.750000 0.500000
#
# Coordination Sequence:
#
# PCOD9182204 Si02
#       8
#     8   8   8   8   8   8   8   8
#     4  11  21  37  57  76 103 141 180 223 270 315
#     4  12  20  36  52  80 110 142 180 214 264 320
#     4   9  16  32  54  80 110 135 166 217 277 321
#     4  10  21  34  54  81 109 142 177 216 267 321
#     4  10  19  33  54  80 104 132 176 227 269 309
#     4  10  19  32  57  82 105 136 172 221 273 319
#     4  11  23  39  54  72 105 149 184 213 259 317
#     4  12  22  36  53  77 107 139 181 224 263 310
#
# _framework density 15.894446
#
# number of rings (size 3 to 8) (size 9 to 14) (size 15 to 20)
#    0.000    1.375    5.000    1.875    0.000    3.500 
#    0.000    0.000    0.000    0.000    0.000    0.000 
#    0.000    5.000    0.000    0.000    0.000    0.000 
#
# Total GULP energy -178620.154583 kJ/mol
# GULP energy per Si atom -5581.879831 kJ/mol
# Density = 1.585827 g / cm^3
# Si number density = 15.894446 Si / 1000 Ang^3
#
#
#
# Elastic Constant Matrix: (Units=GPa)
#
#
# Indices 1 2 3 4 5 6 
#
# 1 115.3377 52.8360 47.4242 0.0000 6.6867 0.0000
# 2 52.8360 92.5474 47.4289 0.0000 -0.0643 0.0000
# 3 47.4242 47.4289 96.9084 0.0002 -5.4821 0.0000
# 4 0.0000 0.0000 0.0002 10.2812 0.0000 9.1421
# 5 6.6867 -0.0643 -5.4821 0.0000 24.4360 0.0000
# 6 0.0000 0.0000 0.0000 9.1421 0.0000 19.0269
#
#
#
# Elastic Compliance Matrix: (Units=1/GPa)
#
#
# Indices 1 2 3 4 5 6 
#
# 1 0.013048 -0.005406 -0.003993 0.000000 -0.004481 0.000000
# 2 -0.005406 0.016722 -0.005522 0.000000 0.000284 0.000000
# 3 -0.003993 -0.005522 0.015230 -0.000001 0.004495 0.000000
# 4 0.000000 0.000000 -0.000001 0.169819 0.000000 -0.081595
# 5 -0.004481 0.000284 0.004495 0.000000 0.043159 0.000000
# 6 0.000000 0.000000 0.000000 -0.081595 0.000000 0.091762
#
#
# Mechanical properties :
#
#
# Convention : Reuss Voigt Hill
#
# Bulk Modulus (GPa) = 65.97475 66.68574 66.33024
# Shear Modulus (GPa) = 12.99931 21.22245 17.11088
#
# Velocity S-wave (km/s) = 2.86291 3.65802 3.28461
# Velocity P-wave (km/s) = 7.24752 7.73873 7.49715
#
# Compressibility (1/GPa) = 0.01515731
#
# Stress axis : x y z
#
# Youngs Moduli (GPa) = 76.63791 59.80145 65.65910
#
# Poissons Ratio (x) = 0.32329 0.26218
# Poissons Ratio (y) = 0.41431 0.36260
# Poissons Ratio (z) = 0.30602 0.33025
#
# Static dielectric constant tensor:
#      x y z
#    x 1.519790 0.000000 0.003250 
#    y 0.000000 1.514450 0.000000 
#    z 0.003250 0.000000 1.533830 
# 
# From -- ./inp_files/296711.got.cif
#   From: 2010.05.17/outbox.cif.g08.bks.cpg/sg12_149_cif.got.tgz:296711.got - 2010.06.03 13:09:07.
