data_PCOD9182794
_publ_section_title
;
Structure prediction by ZEFSAII (Michael W. Deem and Ramdas Pophale) SiO2 
 PCOD9182794
Probable space group: C 2/M
;
_chemical_formula_sum "Si O2"
_cell_formula_units_Z 48
_cell_length_a 20.877915
_cell_length_b 7.494353
_cell_length_c 25.799647
_cell_angle_alpha 90.000000
_cell_angle_beta 145.722885
_cell_angle_gamma 90.000000
_cell_volume 2273.498284
_symmetry_space_group_name_H-M "C 2/M"
_symmetry_group_IT_number 12
_symmetry_cell_setting 'monoclinic'
loop_
_space_group_symop_operation_xyz
x,y,z
-x,y,-z
-x,-y,-z
x,-y,z
1/2+x,1/2+y,z
1/2-x,1/2+y,-z
1/2-x,1/2-y,-z
1/2+x,1/2-y,z
loop_
_atom_site_type_symbol
_atom_site_label
_atom_site_fract_x
_atom_site_fract_y
_atom_site_fract_z
Si Si1 0.730565 0.284767 0.406172
Si Si2 0.433234 0.289838 0.610930
Si Si3 0.839611 0.212659 0.104821
Si Si4 0.574853 0.718774 0.212593
Si Si5 0.312814 0.716912 0.203378
Si Si6 0.422139 0.293197 0.902195
O O1 0.727473 0.500000 0.405153
O O2 0.642228 0.218052 0.391493
O O3 0.855920 0.232793 0.508525
O O4 0.684197 0.226547 0.319427
O O5 0.444796 0.500000 0.629171
O O6 0.561880 0.222643 0.694584
O O7 0.802125 0.276757 0.136285
O O8 0.963003 0.277190 0.169157
O O9 0.850391 0.000000 0.117235
O O10 0.750000 0.250000 0.000000
O O11 0.575476 0.500000 0.211849
O O12 0.568402 0.783228 0.149271
O O13 0.307023 0.500000 0.201671
O O14 0.207826 0.785185 0.166361
O O15 0.458504 0.500000 0.921673
O O16 0.500000 0.212932 0.000000
#
# Coordination Sequence:
#
# PCOD9182794 Si02
#       6
#     8   8   8   8   8   8
#     4   9  16  30  53  77 100 132 170 209 255 305
#     4   9  17  31  51  77 105 132 164 208 260 307
#     4  10  19  33  53  76 101 131 170 215 258 303
#     4   9  17  33  54  74 101 136 172 210 257 305
#     4  10  20  35  54  76 105 139 170 206 261 316
#     4  10  21  36  54  76 103 138 177 216 254 298
#
# _framework density 21.112836999999999
#
# number of rings (size 3 to 8) (size 9 to 14) (size 15 to 20)
#    0.000    2.500    1.667    1.000    0.000    3.000 
#    0.000    3.333    0.000    5.000    0.000    0.000 
#    0.000    0.000    0.000    0.000    0.000    0.000 
#
# Total GULP energy -133958.980405 kJ/mol
# GULP energy per Si atom -5581.624184 kJ/mol
# Density = 2.106478 g / cm^3
# Si number density = 21.112837 Si / 1000 Ang^3
#
#
#
# Elastic Constant Matrix: (Units=GPa)
#
#
# Indices 1 2 3 4 5 6 
#
# 1 43.1588 -6.9614 -20.4158 0.0001 -10.9530 0.0004
# 2 -6.9614 53.7952 -12.6140 0.0001 -3.1097 0.0011
# 3 -20.4158 -12.6140 85.5870 0.0000 -10.1660 0.0002
# 4 0.0001 0.0001 0.0000 21.2335 0.0000 3.2913
# 5 -10.9530 -3.1097 -10.1660 0.0000 34.2550 0.0000
# 6 0.0004 0.0011 0.0002 3.2913 0.0000 12.4220
#
#
#
# Elastic Compliance Matrix: (Units=1/GPa)
#
#
# Indices 1 2 3 4 5 6 
#
# 1 0.033176 0.007655 0.010764 0.000000 0.014497 -0.000002
# 2 0.007655 0.021262 0.005680 0.000000 0.006064 -0.000002
# 3 0.010764 0.005680 0.016127 0.000000 0.008744 -0.000001
# 4 0.000000 0.000000 0.000000 0.049112 0.000000 -0.013013
# 5 0.014497 0.006064 0.008744 0.000000 0.036974 -0.000001
# 6 -0.000002 -0.000002 -0.000001 -0.013013 -0.000001 0.083950
#
#
# Mechanical properties :
#
#
# Convention : Reuss Voigt Hill
#
# Bulk Modulus (GPa) = 8.42010 11.39541 9.90776
# Shear Modulus (GPa) = 21.55253 28.41757 24.98505
#
# Velocity S-wave (km/s) = 3.19850 3.67275 3.44380
# Velocity P-wave (km/s) = 4.19969 4.83679 4.52945
#
# Compressibility (1/GPa) = 0.11876340
#
# Stress axis : x y z
#
# Youngs Moduli (GPa) = 30.14225 47.03229 62.00662
#
# Poissons Ratio (x) = -0.36004 -0.66744
# Poissons Ratio (y) = -0.23074 -0.35219
# Poissons Ratio (z) = -0.32445 -0.26714
#
# Static dielectric constant tensor:
#      x y z
#    x 1.744300 0.000000 -0.034460 
#    y 0.000000 1.721140 0.000000 
#    z -0.034460 0.000000 1.782220 
# 
# From -- ./inp_files/153543.got.cif
#   From: 2010.05.17/outbox.cif.g08.bks.cpg/sg12_77_cif.got.tgz:153543.got - 2010.06.03 13:09:07.
