data_PCOD9182126
_publ_section_title
;
Structure prediction by ZEFSAII (Michael W. Deem and Ramdas Pophale) SiO2 
 PCOD9182126
Probable space group: C 2/M
;
_chemical_formula_sum "Si O2"
_cell_formula_units_Z 52
_cell_length_a 24.810108
_cell_length_b 19.836227
_cell_length_c 9.164094
_cell_angle_alpha 90.000000
_cell_angle_beta 141.024470
_cell_angle_gamma 90.000000
_cell_volume 2836.742501
_symmetry_space_group_name_H-M "C 2/M"
_symmetry_group_IT_number 12
_symmetry_cell_setting 'monoclinic'
loop_
_space_group_symop_operation_xyz
x,y,z
-x,y,-z
-x,-y,-z
x,-y,z
1/2+x,1/2+y,z
1/2-x,1/2+y,-z
1/2-x,1/2-y,-z
1/2+x,1/2-y,z
loop_
_atom_site_type_symbol
_atom_site_label
_atom_site_fract_x
_atom_site_fract_y
_atom_site_fract_z
Si Si1 0.176490 0.919556 0.445340
Si Si2 0.112143 0.253365 0.111306
Si Si3 0.769994 0.324289 0.404217
Si Si4 0.190913 0.423445 0.057910
Si Si5 0.000000 0.138117 0.000000
Si Si6 0.638348 0.920659 0.629592
Si Si7 0.969490 0.391725 0.102352
O O1 0.222873 0.875188 0.418205
O O2 0.191263 0.000000 0.456522
O O3 0.222960 0.894341 0.691077
O O4 0.075313 0.905244 0.230895
O O5 0.155018 0.284064 0.350870
O O6 0.196681 0.228990 0.203465
O O7 0.051961 0.189175 0.006007
O O8 0.052777 0.312882 0.929034
O O9 0.807437 0.370555 0.357133
O O10 0.213115 0.500000 0.069405
O O11 0.150569 0.397709 0.822923
O O12 0.120396 0.423499 0.038081
O O13 0.541884 0.914612 0.366640
O O14 0.662135 0.000000 0.662440
O O15 0.000000 0.405744 0.000000
#
# Coordination Sequence:
#
# PCOD9182126 Si02
#       7
#     8   8   8   8   4   8   8
#     4  10  19  34  57  82 105 135 181 229 271 319
#     4  10  19  34  56  80 108 142 180 227 270 312
#     4  10  19  35  59  78 108 142 186 222 266 326
#     4  10  22  37  53  79 117 148 174 222 281 328
#     4  10  19  32  56  82 105 134 176 232 272 312
#     4  11  22  36  56  82 113 146 179 223 278 328
#     4  12  20  35  56  83 109 143 185 221 267 324
#
# _framework density 18.330884000000001
#
# number of rings (size 3 to 8) (size 9 to 14) (size 15 to 20)
#    0.000    1.538    3.846    1.615    0.000    3.692 
#    0.000    0.769    3.385    2.769    0.000   14.000 
#    0.000    0.000    0.000    0.000    0.000    0.000 
#
# Total GULP energy -144811.784265 kJ/mol
# GULP energy per Si atom -5569.684010 kJ/mol
# Density = 1.828916 g / cm^3
# Si number density = 18.330884 Si / 1000 Ang^3
#
#
#
# Elastic Constant Matrix: (Units=GPa)
#
#
# Indices 1 2 3 4 5 6 
#
# 1 60.3300 18.2328 49.5472 0.0000 10.8249 0.0000
# 2 18.2328 60.2338 20.3373 0.0000 -3.9944 0.0000
# 3 49.5472 20.3373 126.8736 0.0000 9.8630 0.0000
# 4 0.0000 0.0000 0.0000 14.9825 0.0000 25.8038
# 5 10.8249 -3.9944 9.8630 0.0000 18.1570 0.0000
# 6 0.0000 0.0000 0.0000 25.8038 0.0000 10.1283
#
#
#
# Elastic Compliance Matrix: (Units=1/GPa)
#
#
# Indices 1 2 3 4 5 6 
#
# 1 0.028295 -0.006423 -0.008978 0.000000 -0.013405 0.000000
# 2 -0.006423 0.019578 -0.001318 0.000000 0.008852 0.000000
# 3 -0.008978 -0.001318 0.011700 0.000000 -0.001293 0.000000
# 4 0.000000 0.000000 0.000000 -0.019701 0.000000 0.050193
# 5 -0.013405 0.008852 -0.001293 0.000000 0.065717 0.000000
# 6 0.000000 0.000000 0.000000 0.050193 0.000000 -0.029144
#
#
# Mechanical properties :
#
#
# Convention : Reuss Voigt Hill
#
# Bulk Modulus (GPa) = 38.26273 47.07465 42.66869
# Shear Modulus (GPa) = 42.16017 19.27490 30.71754
#
# Velocity S-wave (km/s) = 4.80099 3.24620 4.09800
# Velocity P-wave (km/s) = 7.18688 6.30767 6.76158
#
# Compressibility (1/GPa) = 0.02613509
#
# Stress axis : x y z
#
# Youngs Moduli (GPa) = 35.34134 51.07718 85.47025
#
# Poissons Ratio (x) = 0.32804 0.76739
# Poissons Ratio (y) = 0.22698 0.11268
# Poissons Ratio (z) = 0.31731 0.06734
#
# Static dielectric constant tensor:
#      x y z
#    x 1.639320 0.000000 0.011140 
#    y 0.000000 1.696800 0.000000 
#    z 0.011140 0.000000 1.672950 
# 
# From -- ./inp_files/106436.got.cif
#   From: 2010.05.17/outbox.cif.g08.bks.cpg/sg12_54_cif.got.tgz:106436.got - 2010.06.03 13:09:07.
