data_PCOD9182981
_publ_section_title
;
Structure prediction by ZEFSAII (Michael W. Deem and Ramdas Pophale) SiO2 
 PCOD9182981
Probable space group: C 2/M
;
_chemical_formula_sum "Si O2"
_cell_formula_units_Z 50
_cell_length_a 24.830091
_cell_length_b 7.303964
_cell_length_c 15.104989
_cell_angle_alpha 90.000000
_cell_angle_beta 128.302419
_cell_angle_gamma 90.000000
_cell_volume 2149.754097
_symmetry_space_group_name_H-M "C 2/M"
_symmetry_group_IT_number 12
_symmetry_cell_setting 'monoclinic'
loop_
_space_group_symop_operation_xyz
x,y,z
-x,y,-z
-x,-y,-z
x,-y,z
1/2+x,1/2+y,z
1/2-x,1/2+y,-z
1/2-x,1/2-y,-z
1/2+x,1/2-y,z
loop_
_atom_site_type_symbol
_atom_site_label
_atom_site_fract_x
_atom_site_fract_y
_atom_site_fract_z
Si Si1 0.328682 0.213138 0.323253
Si Si2 0.586329 0.776563 0.952169
Si Si3 0.826037 0.279153 0.789120
Si Si4 0.451659 0.779553 0.573134
Si Si5 0.000000 0.000000 0.500000
Si Si6 0.435728 0.778007 0.761914
Si Si7 0.824279 0.281345 0.119492
O O1 0.252931 0.224953 0.286987
O O2 0.385763 0.286447 0.448402
O O3 0.326122 0.291301 0.221401
O O4 0.346444 0.000000 0.333396
O O5 0.507371 0.720134 0.879246
O O6 0.618910 0.715943 0.892299
O O7 0.586898 0.000000 0.953115
O O8 0.634187 0.717783 0.081844
O O9 0.826925 0.500000 0.790408
O O10 0.869666 0.215531 0.749113
O O11 0.510342 0.662405 0.586743
O O12 0.438926 0.731185 0.661993
O O13 0.462672 0.000000 0.579037
O O14 0.434582 0.000000 0.763869
O O15 0.833178 0.500000 0.134415
O O16 0.750000 0.250000 0.000000
#
# Coordination Sequence:
#
# PCOD9182981 Si02
#       7
#     8   8   8   8   2   8   8
#     4  10  22  38  58  86 122 164 203 248 314 373
#     4   9  17  31  56  89 118 155 205 258 310 371
#     4  10  19  34  61  90 119 159 211 262 302 366
#     4  10  24  45  66  93 130 168 205 255 316 373
#     4  12  26  44  68  98 126 160 212 260 306 380
#     4   9  19  37  61  88 121 164 209 253 316 373
#     4  10  19  33  53  81 114 152 198 246 307 373
#
# _framework density 23.258472999999999
#
# number of rings (size 3 to 8) (size 9 to 14) (size 15 to 20)
#    0.000    2.240    1.600    0.720    3.360    2.560 
#    1.440    0.000    1.760    0.960    0.000    0.000 
#    0.000    0.000    0.000    0.000    0.000    0.000 
#
# Total GULP energy -139529.469052 kJ/mol
# GULP energy per Si atom -5581.178762 kJ/mol
# Density = 2.320554 g / cm^3
# Si number density = 23.258473 Si / 1000 Ang^3
#
#
#
# Elastic Constant Matrix: (Units=GPa)
#
#
# Indices 1 2 3 4 5 6 
#
# 1 98.6596 -5.0646 22.0701 0.0000 -7.8374 0.0000
# 2 -5.0646 111.2852 -1.4081 0.0000 -11.6428 0.0000
# 3 22.0701 -1.4081 84.0694 0.0000 12.7457 0.0000
# 4 0.0000 0.0000 0.0000 6.9557 0.0000 -9.8665
# 5 -7.8374 -11.6428 12.7457 0.0000 34.9290 0.0000
# 6 0.0000 0.0000 0.0000 -9.8665 0.0000 38.0130
#
#
#
# Elastic Compliance Matrix: (Units=1/GPa)
#
#
# Indices 1 2 3 4 5 6 
#
# 1 0.011313 0.000903 -0.003584 0.000000 0.004147 0.000000
# 2 0.000903 0.009392 -0.000619 0.000000 0.003559 0.000000
# 3 -0.003584 -0.000619 0.013739 0.000000 -0.006024 0.000000
# 4 0.000000 0.000000 0.000000 0.227545 0.000000 0.059061
# 5 0.004147 0.003559 -0.006024 0.000000 0.032945 0.000000
# 6 0.000000 0.000000 0.000000 0.059061 0.000000 0.041636
#
#
# Mechanical properties :
#
#
# Convention : Reuss Voigt Hill
#
# Bulk Modulus (GPa) = 35.91417 36.13430 36.02423
# Shear Modulus (GPa) = 14.18641 34.54066 24.36353
#
# Velocity S-wave (km/s) = 2.47239 3.85785 3.24004
# Velocity P-wave (km/s) = 4.86057 5.95094 5.43318
#
# Compressibility (1/GPa) = 0.02784416
#
# Stress axis : x y z
#
# Youngs Moduli (GPa) = 88.39108 106.47846 72.78751
#
# Poissons Ratio (x) = -0.09620 0.26084
# Poissons Ratio (y) = -0.07986 0.04509
# Poissons Ratio (z) = 0.31676 0.06596
#
# Static dielectric constant tensor:
#      x y z
#    x 1.915200 0.000000 0.023980 
#    y 0.000000 1.927190 0.000000 
#    z 0.023980 0.000000 1.855000 
# 
# From -- ./inp_files/237942.got.cif
#   From: 2010.05.17/outbox.cif.g08.bks.cpg/sg12_119_cif.got.tgz:237942.got - 2010.06.03 13:09:07.
