data_PCOD9182630
_publ_section_title
;
Structure prediction by ZEFSAII (Michael W. Deem and Ramdas Pophale) SiO2 
 PCOD9182630
Probable space group: C 2/M
;
_chemical_formula_sum "Si O2"
_cell_formula_units_Z 48
_cell_length_a 13.696123
_cell_length_b 26.416335
_cell_length_c 11.135944
_cell_angle_alpha 90.000000
_cell_angle_beta 31.578481
_cell_angle_gamma 90.000000
_cell_volume 2109.850144
_symmetry_space_group_name_H-M "C 2/M"
_symmetry_group_IT_number 12
_symmetry_cell_setting 'monoclinic'
loop_
_space_group_symop_operation_xyz
x,y,z
-x,y,-z
-x,-y,-z
x,-y,z
1/2+x,1/2+y,z
1/2-x,1/2+y,-z
1/2-x,1/2-y,-z
1/2+x,1/2-y,z
loop_
_atom_site_type_symbol
_atom_site_label
_atom_site_fract_x
_atom_site_fract_y
_atom_site_fract_z
Si Si1 0.605550 0.101266 0.567208
Si Si2 0.054525 0.057205 0.663819
Si Si3 0.772604 0.796799 0.385274
Si Si4 0.029639 0.836316 0.298106
Si Si5 0.253216 0.057921 0.824207
Si Si6 0.213284 0.288886 0.799275
O O1 0.613538 0.161580 0.571650
O O2 0.403652 0.077008 0.764497
O O3 0.708136 0.091458 0.332069
O O4 0.733444 0.074215 0.532631
O O5 0.955961 0.103556 0.698917
O O6 0.041437 0.000000 0.630049
O O7 0.946736 0.057581 0.904695
O O8 0.750000 0.750000 0.500000
O O9 0.770867 0.769836 0.258049
O O10 0.961372 0.824263 0.234028
O O11 0.206368 0.804041 0.155514
O O12 0.855240 0.818843 0.563366
O O13 0.294403 0.000000 0.746369
O O14 0.000000 0.303456 0.000000
#
# Coordination Sequence:
#
# PCOD9182630 Si02
#       6
#     8   8   8   8   8   8
#     4  10  19  33  52  77 113 145 178 226 272 325
#     4  10  20  35  55  78 109 144 180 227 276 326
#     4   9  20  36  54  80 110 144 183 220 267 322
#     4   9  21  38  56  83 110 139 186 225 270 332
#     4  10  20  32  52  82 110 144 184 220 276 339
#     4  10  21  39  59  78 110 146 181 231 276 315
#
# _framework density 22.750432
#
# number of rings (size 3 to 8) (size 9 to 14) (size 15 to 20)
#    0.000    2.333    0.000    2.500    0.000   14.000 
#    0.000    1.667    0.000    1.000    0.000    0.000 
#    0.000    0.000    0.000    0.000    0.000    0.000 
#
# Total GULP energy -133885.830974 kJ/mol
# GULP energy per Si atom -5578.576291 kJ/mol
# Density = 2.269865 g / cm^3
# Si number density = 22.750432 Si / 1000 Ang^3
#
#
#
# Elastic Constant Matrix: (Units=GPa)
#
#
# Indices 1 2 3 4 5 6 
#
# 1 49.5405 21.4648 -2.4166 -0.0007 -19.7035 0.0002
# 2 21.4648 154.7828 3.1706 -0.0005 -3.0829 0.0001
# 3 -2.4166 3.1706 71.1923 0.0012 -17.1314 0.0000
# 4 -0.0007 -0.0005 0.0012 -3.3238 -0.0003 7.0316
# 5 -19.7035 -3.0829 -17.1314 -0.0003 30.5028 0.0000
# 6 0.0002 0.0001 0.0000 7.0316 0.0000 25.5047
#
#
#
# Elastic Compliance Matrix: (Units=1/GPa)
#
#
# Indices 1 2 3 4 5 6 
#
# 1 0.031924 -0.004090 0.007086 -0.000004 0.024188 0.000001
# 2 -0.004090 0.006999 -0.001059 0.000000 -0.002530 0.000000
# 3 0.007086 -0.001059 0.017818 0.000002 0.014478 -0.000001
# 4 -0.000004 0.000000 0.000002 -0.190026 -0.000003 0.052390
# 5 0.024188 -0.002530 0.014478 -0.000003 0.056284 0.000001
# 6 0.000001 0.000000 -0.000001 0.052390 0.000001 0.024765
#
#
# Mechanical properties :
#
#
# Convention : Reuss Voigt Hill
#
# Bulk Modulus (GPa) = 16.49789 35.55036 26.02413
# Shear Modulus (GPa) = -139.25501 27.42319 -55.91591
#
# Velocity S-wave (km/s) = -7.83216 3.47564 -4.96299
# Velocity P-wave (km/s) = 8.63266 5.63622 4.62363
#
# Compressibility (1/GPa) = 0.06061380
#
# Stress axis : x y z
#
# Youngs Moduli (GPa) = 31.32476 142.87285 56.12302
#
# Poissons Ratio (x) = 0.58442 -0.39770
# Poissons Ratio (y) = 0.12813 0.05945
# Poissons Ratio (z) = -0.22198 0.15135
#
# Static dielectric constant tensor:
#      x y z
#    x 1.997080 0.000000 0.012510 
#    y 0.000000 1.870850 0.000000 
#    z 0.012510 0.000000 1.849470 
# 
# From -- ./inp_files/218417.got.cif
#   From: 2010.05.17/outbox.cif.g08.bks.cpg/sg12_110_cif.got.tgz:218417.got - 2010.06.03 13:09:07.
