data_PCOD9182604
_publ_section_title
;
Structure prediction by ZEFSAII (Michael W. Deem and Ramdas Pophale) SiO2 
 PCOD9182604
Probable space group: C 2/M
;
_chemical_formula_sum "Si O2"
_cell_formula_units_Z 64
_cell_length_a 24.609796
_cell_length_b 9.153215
_cell_length_c 20.180601
_cell_angle_alpha 90.000000
_cell_angle_beta 53.239821
_cell_angle_gamma 90.000000
_cell_volume 3641.902014
_symmetry_space_group_name_H-M "C 2/M"
_symmetry_group_IT_number 12
_symmetry_cell_setting 'monoclinic'
loop_
_space_group_symop_operation_xyz
x,y,z
-x,y,-z
-x,-y,-z
x,-y,z
1/2+x,1/2+y,z
1/2-x,1/2+y,-z
1/2-x,1/2-y,-z
1/2+x,1/2-y,z
loop_
_atom_site_type_symbol
_atom_site_label
_atom_site_fract_x
_atom_site_fract_y
_atom_site_fract_z
Si Si1 0.228748 0.329384 0.619005
Si Si2 0.506894 0.174987 0.690414
Si Si3 0.481304 0.172139 0.161657
Si Si4 0.148365 0.826103 0.795227
Si Si5 0.367378 0.674249 0.800524
Si Si6 0.849001 0.671634 0.464867
Si Si7 0.220482 0.674711 0.864638
Si Si8 0.136560 0.327216 0.055727
O O1 0.192909 0.237895 0.702315
O O2 0.184348 0.316762 0.584100
O O3 0.302600 0.266805 0.546933
O O4 0.345758 0.000000 0.485560
O O5 0.522491 0.205521 0.756770
O O6 0.436936 0.254135 0.724533
O O7 0.572696 0.216505 0.599831
O O8 0.497986 0.000000 0.692219
O O9 0.427500 0.266621 0.161381
O O10 0.559733 0.195858 0.085675
O O11 0.465160 0.000000 0.165293
O O12 0.179913 0.761825 0.839097
O O13 0.149509 0.000000 0.794166
O O14 0.374363 0.500000 0.798224
O O15 0.300349 0.709562 0.807355
O O16 0.355447 0.735596 0.883369
O O17 0.768696 0.500000 0.364652
O O18 0.212392 0.500000 0.859942
O O19 0.189609 0.707333 0.959643
O O20 0.141668 0.500000 0.068708
#
# Coordination Sequence:
#
# PCOD9182604 Si02
#       8
#     8   8   8   8   8   8   8   8
#     4  10  19  33  52  76 108 141 171 208 255 309
#     4   9  17  32  54  78 108 142 172 207 255 312
#     4   9  17  33  53  75 103 138 175 209 257 315
#     4  12  24  35  51  75 106 142 177 216 259 309
#     4  10  20  33  54  82 107 132 171 223 267 302
#     4   9  17  31  52  80 108 136 173 209 249 304
#     4  10  22  39  55  73 101 141 181 216 261 315
#     4   9  19  36  58  78 100 135 175 216 265 317
#
# _framework density 17.573235
#
# number of rings (size 3 to 8) (size 9 to 14) (size 15 to 20)
#    0.000    2.250    1.250    3.000    0.000    5.000 
#    0.000    2.500    0.000    0.750    0.000    5.250 
#    0.000    0.000    0.000    0.000    0.000    0.000 
#
# Total GULP energy -178592.214776 kJ/mol
# GULP energy per Si atom -5581.006712 kJ/mol
# Density = 1.753324 g / cm^3
# Si number density = 17.573235 Si / 1000 Ang^3
#
#
#
# Elastic Constant Matrix: (Units=GPa)
#
#
# Indices 1 2 3 4 5 6 
#
# 1 66.3840 29.6956 8.6924 0.0027 -20.7616 -0.0037
# 2 29.6956 43.0831 6.3220 0.0044 -7.6329 -0.0078
# 3 8.6924 6.3220 23.2464 0.0015 -21.2016 -0.0030
# 4 0.0027 0.0044 0.0015 28.2971 -0.0005 -2.5695
# 5 -20.7616 -7.6329 -21.2016 -0.0005 25.4931 0.0013
# 6 -0.0037 -0.0078 -0.0030 -2.5695 0.0013 26.0481
#
#
#
# Elastic Compliance Matrix: (Units=1/GPa)
#
#
# Indices 1 2 3 4 5 6 
#
# 1 0.043642 -0.025074 0.066538 -0.000002 0.083372 0.000002
# 2 -0.025074 0.038917 -0.038115 -0.000002 -0.040466 0.000005
# 3 0.066538 -0.038115 0.279574 -0.000009 0.275287 0.000016
# 4 -0.000002 -0.000002 -0.000009 0.035659 -0.000009 0.003517
# 5 0.083372 -0.040466 0.275287 -0.000009 0.323953 0.000015
# 6 0.000002 0.000005 0.000016 0.003517 0.000015 0.038737
#
#
# Mechanical properties :
#
#
# Convention : Reuss Voigt Hill
#
# Bulk Modulus (GPa) = 2.71126 24.68149 13.69637
# Shear Modulus (GPa) = 5.70302 21.83458 13.76880
#
# Velocity S-wave (km/s) = 1.80342 3.52872 2.80216
# Velocity P-wave (km/s) = 2.42541 5.53877 4.27554
#
# Compressibility (1/GPa) = 0.36883256
#
# Stress axis : x y z
#
# Youngs Moduli (GPa) = 22.91364 25.69573 3.57687
#
# Poissons Ratio (x) = 0.64429 -0.23800
# Poissons Ratio (y) = 0.57453 0.13633
# Poissons Ratio (z) = -1.52463 0.97939
#
# Static dielectric constant tensor:
#      x y z
#    x 1.592720 0.000000 -0.022550 
#    y 0.000000 1.581280 0.000000 
#    z -0.022550 0.000000 1.591890 
# 
# From -- ./inp_files/323690.got.cif
#   From: 2010.05.17/outbox.cif.g08.bks.cpg/sg12_162_cif.got.tgz:323690.got - 2010.06.03 13:09:07.
