data_PCOD9182146
_publ_section_title
;
Structure prediction by ZEFSAII (Michael W. Deem and Ramdas Pophale) SiO2 
 PCOD9182146
Probable space group: C 2/M
;
_chemical_formula_sum "Si O2"
_cell_formula_units_Z 50
_cell_length_a 8.312685
_cell_length_b 18.576963
_cell_length_c 25.283908
_cell_angle_alpha 90.000000
_cell_angle_beta 43.015632
_cell_angle_gamma 90.000000
_cell_volume 2663.609776
_symmetry_space_group_name_H-M "C 2/M"
_symmetry_group_IT_number 12
_symmetry_cell_setting 'monoclinic'
loop_
_space_group_symop_operation_xyz
x,y,z
-x,y,-z
-x,-y,-z
x,-y,z
1/2+x,1/2+y,z
1/2-x,1/2+y,-z
1/2-x,1/2-y,-z
1/2+x,1/2-y,z
loop_
_atom_site_type_symbol
_atom_site_label
_atom_site_fract_x
_atom_site_fract_y
_atom_site_fract_z
Si Si1 0.904250 0.917923 0.239490
Si Si2 0.071401 0.672401 0.253013
Si Si3 0.495405 0.216510 0.845975
Si Si4 0.643589 0.152431 0.914752
Si Si5 0.830492 0.358002 0.604885
Si Si6 0.734859 0.215200 0.578255
Si Si7 0.500000 0.000000 0.500000
O O1 0.705484 0.895967 0.244760
O O2 0.856369 0.869893 0.302881
O O3 0.154531 0.901034 0.153576
O O4 0.883482 0.000000 0.259496
O O5 0.262595 0.737099 0.213556
O O6 0.012839 0.670354 0.205505
O O7 0.849904 0.687891 0.343828
O O8 0.486906 0.171350 0.901531
O O9 0.283851 0.274194 0.895990
O O10 0.500000 0.127547 0.000000
O O11 0.733660 0.301965 0.584707
O O12 0.903172 0.434712 0.563286
O O13 0.050553 0.317603 0.580763
O O14 0.000000 0.193109 0.500000
#
# Coordination Sequence:
#
# PCOD9182146 Si02
#       7
#     8   8   8   8   8   8   2
#     4  10  21  38  56  76 111 155 184 227 292 350
#     4   9  18  33  56  78 110 143 190 231 283 346
#     4   9  17  33  53  81 109 141 179 235 287 327
#     4  10  19  32  56  85 111 141 184 234 283 342
#     4  11  23  40  62  84 118 154 200 235 293 344
#     4  11  21  35  60  88 111 150 200 247 283 336
#     4  12  24  40  62  84 122 158 192 238 290 356
#
# _framework density 18.771519999999999
#
# number of rings (size 3 to 8) (size 9 to 14) (size 15 to 20)
#    0.000    1.920    1.600    4.800    0.000    0.320 
#    0.000    1.200    0.000    0.960    0.000    0.000 
#    0.000    0.000    0.000    0.000    0.000    0.000 
#
# Total GULP energy -139280.951353 kJ/mol
# GULP energy per Si atom -5571.238054 kJ/mol
# Density = 1.872880 g / cm^3
# Si number density = 18.771520 Si / 1000 Ang^3
#
#
#
# Elastic Constant Matrix: (Units=GPa)
#
#
# Indices 1 2 3 4 5 6 
#
# 1 61.8286 22.5840 35.3377 0.0004 18.1436 0.0000
# 2 22.5840 86.9894 19.6138 0.0009 -0.0735 -0.0011
# 3 35.3377 19.6138 138.6340 0.0010 17.4439 -0.0018
# 4 0.0004 0.0009 0.0010 17.3733 -0.0006 9.2917
# 5 18.1436 -0.0735 17.4439 -0.0006 27.4549 0.0008
# 6 0.0000 -0.0011 -0.0018 9.2917 0.0008 10.2320
#
#
#
# Elastic Compliance Matrix: (Units=1/GPa)
#
#
# Indices 1 2 3 4 5 6 
#
# 1 0.024324 -0.005494 -0.003694 -0.000001 -0.013743 0.000000
# 2 -0.005494 0.013151 -0.001002 -0.000002 0.004302 0.000002
# 3 -0.003694 -0.001002 0.008684 -0.000003 -0.003079 0.000004
# 4 -0.000001 -0.000002 -0.000003 0.111913 0.000007 -0.101629
# 5 -0.013743 0.004302 -0.003079 0.000007 0.047473 -0.000010
# 6 0.000000 0.000002 0.000004 -0.101629 -0.000010 0.190022
#
#
# Mechanical properties :
#
#
# Convention : Reuss Voigt Hill
#
# Bulk Modulus (GPa) = 38.78788 49.16922 43.97855
# Shear Modulus (GPa) = 11.77745 25.00648 18.39196
#
# Velocity S-wave (km/s) = 2.50753 3.65382 3.13354
# Velocity P-wave (km/s) = 5.39367 6.63709 6.04742
#
# Compressibility (1/GPa) = 0.02578125
#
# Stress axis : x y z
#
# Youngs Moduli (GPa) = 41.11107 76.03755 115.15523
#
# Poissons Ratio (x) = 0.41773 0.42536
# Poissons Ratio (y) = 0.22585 0.11534
# Poissons Ratio (z) = 0.15186 0.07616
#
# Static dielectric constant tensor:
#      x y z
#    x 1.673230 0.000000 0.002020 
#    y 0.000000 1.631710 0.000000 
#    z 0.002020 0.000000 1.671640 
# 
# From -- ./inp_files/356532.got.cif
#   From: 2010.05.17/outbox.cif.g08.bks.cpg/sg12_179_cif.got.tgz:356532.got - 2010.06.03 13:09:07.
