data_PCOD9182450
_publ_section_title
;
Structure prediction by ZEFSAII (Michael W. Deem and Ramdas Pophale) SiO2 
 PCOD9182450
Probable space group: C 2/M
;
_chemical_formula_sum "Si O2"
_cell_formula_units_Z 56
_cell_length_a 23.346561
_cell_length_b 22.660320
_cell_length_c 6.346331
_cell_angle_alpha 90.000000
_cell_angle_beta 66.418966
_cell_angle_gamma 90.000000
_cell_volume 3077.101848
_symmetry_space_group_name_H-M "C 2/M"
_symmetry_group_IT_number 12
_symmetry_cell_setting 'monoclinic'
loop_
_space_group_symop_operation_xyz
x,y,z
-x,y,-z
-x,-y,-z
x,-y,z
1/2+x,1/2+y,z
1/2-x,1/2+y,-z
1/2-x,1/2-y,-z
1/2+x,1/2-y,z
loop_
_atom_site_type_symbol
_atom_site_label
_atom_site_fract_x
_atom_site_fract_y
_atom_site_fract_z
Si Si1 0.204784 0.069052 0.369579
Si Si2 0.250052 0.861912 0.687066
Si Si3 0.172200 0.568668 0.092379
Si Si4 0.435395 0.842921 0.681689
Si Si5 0.437747 0.730845 0.971687
Si Si6 0.654100 0.668138 0.181176
Si Si7 0.351280 0.229170 0.476824
O O1 0.207898 0.102265 0.586800
O O2 0.158341 0.104679 0.285531
O O3 0.190713 0.000000 0.407435
O O4 0.274324 0.075076 0.164553
O O5 0.294821 0.908101 0.742568
O O6 0.292294 0.812213 0.515208
O O7 0.208839 0.831243 0.927633
O O8 0.155720 0.500000 0.132283
O O9 0.112103 0.609888 0.149141
O O10 0.500000 0.868945 0.500000
O O11 0.398985 0.811230 0.542590
O O12 0.450769 0.791097 0.824409
O O13 0.385246 0.745911 0.222221
O O14 0.500000 0.711200 0.000000
O O15 0.409250 0.684854 0.846867
O O16 0.665965 0.717435 0.341342
#
# Coordination Sequence:
#
# PCOD9182450 Si02
#       7
#     8   8   8   8   8   8   8
#     4  10  20  36  55  77 109 142 176 219 266 318
#     4  10  19  34  55  80 108 142 175 216 271 322
#     4   9  19  33  51  76 107 145 186 223 259 306
#     4  10  19  33  51  75 106 144 186 225 263 304
#     4  11  21  35  55  76 105 143 178 217 271 328
#     4  10  22  34  53  83 107 137 176 219 268 320
#     4  10  20  34  53  79 112 138 174 222 269 320
#
# _framework density 18.198941999999999
#
# number of rings (size 3 to 8) (size 9 to 14) (size 15 to 20)
#    0.000    2.000    1.429    2.571    0.000    5.429 
#    0.000    0.000    0.000    0.857    0.000    4.000 
#    0.000    0.000    0.000    0.000    0.000    0.000 
#
# Total GULP energy -156305.686744 kJ/mol
# GULP energy per Si atom -5582.345955 kJ/mol
# Density = 1.815752 g / cm^3
# Si number density = 18.198942 Si / 1000 Ang^3
#
#
#
# Elastic Constant Matrix: (Units=GPa)
#
#
# Indices 1 2 3 4 5 6 
#
# 1 60.0721 34.8363 -0.3629 0.0000 6.7260 0.0000
# 2 34.8363 72.4326 8.0677 0.0000 -0.6801 0.0000
# 3 -0.3629 8.0677 51.3406 0.0000 2.7040 0.0000
# 4 0.0000 0.0000 0.0000 23.2618 0.0000 -3.4349
# 5 6.7260 -0.6801 2.7040 0.0000 17.4225 0.0000
# 6 0.0000 0.0000 0.0000 -3.4349 0.0000 11.8697
#
#
#
# Elastic Compliance Matrix: (Units=1/GPa)
#
#
# Indices 1 2 3 4 5 6 
#
# 1 0.025072 -0.012458 0.002692 0.000000 -0.010583 0.000000
# 2 -0.012458 0.020256 -0.003595 0.000000 0.006158 0.000000
# 3 0.002692 -0.003595 0.020290 0.000000 -0.004329 0.000000
# 4 0.000000 0.000000 0.000000 0.044908 0.000000 0.012996
# 5 -0.010583 0.006158 -0.004329 0.000000 0.062395 0.000000
# 6 0.000000 0.000000 0.000000 0.012996 0.000000 0.088009
#
#
# Mechanical properties :
#
#
# Convention : Reuss Voigt Hill
#
# Bulk Modulus (GPa) = 25.70953 29.88081 27.79517
# Shear Modulus (GPa) = 16.63249 19.93107 18.28178
#
# Velocity S-wave (km/s) = 3.02640 3.31294 3.17291
# Velocity P-wave (km/s) = 5.13515 5.57572 5.35996
#
# Compressibility (1/GPa) = 0.03889608
#
# Stress axis : x y z
#
# Youngs Moduli (GPa) = 39.88479 49.36877 49.28590
#
# Poissons Ratio (x) = 0.61502 -0.13269
# Poissons Ratio (y) = 0.49687 0.17720
# Poissons Ratio (z) = -0.10738 0.17750
#
# Static dielectric constant tensor:
#      x y z
#    x 1.629950 0.000000 0.005930 
#    y 0.000000 1.605380 0.000000 
#    z 0.005930 0.000000 1.629640 
# 
# From -- ./inp_files/21604.got.cif
#   From: 2010.05.17/outbox.cif.g08.bks.cpg/sg12_11_cif.got.tgz:21604.got - 2010.06.03 13:09:07.
