data_PCOD9182938
_publ_section_title
;
Structure prediction by ZEFSAII (Michael W. Deem and Ramdas Pophale) SiO2 
 PCOD9182938
Probable space group: C 2/M
;
_chemical_formula_sum "Si O2"
_cell_formula_units_Z 56
_cell_length_a 20.168448
_cell_length_b 8.897716
_cell_length_c 17.552688
_cell_angle_alpha 90.000000
_cell_angle_beta 113.462587
_cell_angle_gamma 90.000000
_cell_volume 2889.453005
_symmetry_space_group_name_H-M "C 2/M"
_symmetry_group_IT_number 12
_symmetry_cell_setting 'monoclinic'
loop_
_space_group_symop_operation_xyz
x,y,z
-x,y,-z
-x,-y,-z
x,-y,z
1/2+x,1/2+y,z
1/2-x,1/2+y,-z
1/2-x,1/2-y,-z
1/2+x,1/2-y,z
loop_
_atom_site_type_symbol
_atom_site_label
_atom_site_fract_x
_atom_site_fract_y
_atom_site_fract_z
Si Si1 0.801813 0.680668 0.087103
Si Si2 0.345067 0.321758 0.407351
Si Si3 0.247340 0.179903 0.230814
Si Si4 0.611890 0.320677 0.259064
Si Si5 0.637426 0.173594 0.430591
Si Si6 0.553438 0.319316 0.802916
Si Si7 0.035678 0.675435 0.631067
O O1 0.803497 0.500000 0.082553
O O2 0.771520 0.722493 0.157277
O O3 0.882429 0.747822 0.119069
O O4 0.750000 0.750000 0.000000
O O5 0.344222 0.500000 0.408600
O O6 0.293400 0.259357 0.317592
O O7 0.326382 0.258276 0.482194
O O8 0.423753 0.261156 0.417542
O O9 0.163924 0.213337 0.212315
O O10 0.257828 0.000000 0.242940
O O11 0.612791 0.500000 0.272548
O O12 0.643410 0.244768 0.349770
O O13 0.528172 0.278015 0.209336
O O14 0.550928 0.181299 0.408011
O O15 0.659636 0.000000 0.439513
O O16 0.559810 0.500000 0.804014
O O17 0.560356 0.251838 0.721127
O O18 0.056984 0.500000 0.638616
#
# Coordination Sequence:
#
# PCOD9182938 Si02
#       7
#     8   8   8   8   8   8   8
#     4  11  23  40  65  92 119 150 188 236 291 349
#     4  12  23  33  52  81 115 154 199 248 293 336
#     4  10  22  41  62  84 115 155 194 236 291 349
#     4   9  20  39  61  85 116 155 198 240 283 340
#     4  10  21  35  53  79 114 157 200 242 288 340
#     4  10  19  35  61  90 118 149 189 237 289 345
#     4  10  19  33  53  79 113 153 196 240 289 344
#
# _framework density 19.38083
#
# number of rings (size 3 to 8) (size 9 to 14) (size 15 to 20)
#    0.000    1.714    1.429    3.429    0.000    5.714 
#    0.000    0.714    0.000    4.286    0.000    0.000 
#    0.000    0.000    0.000    0.000    0.000    0.000 
#
# Total GULP energy -156470.480064 kJ/mol
# GULP energy per Si atom -5588.231431 kJ/mol
# Density = 1.933672 g / cm^3
# Si number density = 19.380830 Si / 1000 Ang^3
#
#
#
# Elastic Constant Matrix: (Units=GPa)
#
#
# Indices 1 2 3 4 5 6 
#
# 1 95.3641 34.7944 41.1294 0.0000 -3.0744 0.0000
# 2 34.7944 74.5182 49.2337 0.0000 4.5266 0.0000
# 3 41.1294 49.2337 111.1036 0.0000 15.2467 0.0000
# 4 0.0000 0.0000 0.0000 29.6104 0.0000 1.3975
# 5 -3.0744 4.5266 15.2467 0.0000 16.3714 0.0000
# 6 0.0000 0.0000 0.0000 1.3975 0.0000 19.6840
#
#
#
# Elastic Compliance Matrix: (Units=1/GPa)
#
#
# Indices 1 2 3 4 5 6 
#
# 1 0.014205 -0.004126 -0.004532 0.000000 0.008029 0.000000
# 2 -0.004126 0.020300 -0.007557 0.000000 0.000650 0.000000
# 3 -0.004532 -0.007557 0.015888 0.000000 -0.013558 0.000000
# 4 0.000000 0.000000 0.000000 0.033885 0.000000 -0.002406
# 5 0.008029 0.000650 -0.013558 0.000000 0.075037 0.000000
# 6 0.000000 0.000000 0.000000 -0.002406 0.000000 0.050973
#
#
# Mechanical properties :
#
#
# Convention : Reuss Voigt Hill
#
# Bulk Modulus (GPa) = 55.67421 59.03344 57.35383
# Shear Modulus (GPa) = 20.10408 23.52172 21.81290
#
# Velocity S-wave (km/s) = 3.22424 3.48754 3.35847
# Velocity P-wave (km/s) = 6.53068 6.83689 6.68554
#
# Compressibility (1/GPa) = 0.01796164
#
# Stress axis : x y z
#
# Youngs Moduli (GPa) = 70.39772 49.26193 62.94188
#
# Poissons Ratio (x) = 0.20326 0.28525
# Poissons Ratio (y) = 0.29047 0.47567
# Poissons Ratio (z) = 0.31904 0.37228
#
# Static dielectric constant tensor:
#      x y z
#    x 1.732200 0.000000 0.017810 
#    y 0.000000 1.646400 0.000000 
#    z 0.017810 0.000000 1.668900 
# 
# From -- ./inp_files/281701.got.cif
#   From: 2010.05.17/outbox.cif.g08.bks.cpg/sg12_141_cif.got.tgz:281701.got - 2010.06.03 13:09:07.
