data_PCOD9182207
_publ_section_title
;
Structure prediction by ZEFSAII (Michael W. Deem and Ramdas Pophale) SiO2 
 PCOD9182207
Probable space group: C 2/M
;
_chemical_formula_sum "Si O2"
_cell_formula_units_Z 40
_cell_length_a 21.407716
_cell_length_b 7.513801
_cell_length_c 22.759214
_cell_angle_alpha 90.000000
_cell_angle_beta 142.520568
_cell_angle_gamma 90.000000
_cell_volume 2227.568966
_symmetry_space_group_name_H-M "C 2/M"
_symmetry_group_IT_number 12
_symmetry_cell_setting 'monoclinic'
loop_
_space_group_symop_operation_xyz
x,y,z
-x,y,-z
-x,-y,-z
x,-y,z
1/2+x,1/2+y,z
1/2-x,1/2+y,-z
1/2-x,1/2-y,-z
1/2+x,1/2-y,z
loop_
_atom_site_type_symbol
_atom_site_label
_atom_site_fract_x
_atom_site_fract_y
_atom_site_fract_z
Si Si1 0.012201 0.715857 0.282777
Si Si2 0.140199 0.500000 0.048672
Si Si3 0.401800 0.000000 0.845001
Si Si4 0.331723 0.787936 0.509416
Si Si5 0.827828 0.793552 0.701197
Si Si6 0.724088 0.789015 0.912839
O O1 0.018770 0.500000 0.285354
O O2 0.894039 0.764183 0.187098
O O3 0.062488 0.775898 0.382307
O O4 0.082986 0.782834 0.282098
O O5 0.131813 0.500000 0.112558
O O6 0.200754 0.671807 0.070498
O O7 0.025512 0.500000 0.936679
O O8 0.360260 0.170663 0.778962
O O9 0.250000 0.750000 0.500000
O O10 0.276170 0.724243 0.408805
O O11 0.340125 0.000000 0.508372
O O12 0.815208 0.000000 0.708277
O O13 0.734630 0.000000 0.909920
O O14 0.750000 0.750000 0.000000
#
# Coordination Sequence:
#
# PCOD9182207 Si02
#       6
#     8   4   4   8   8   8
#     4   9  17  31  53  83 118 145 174 229 282 321
#     4  11  26  42  57  81 109 146 189 229 274 328
#     4  11  24  42  57  75 113 149 185 231 270 329
#     4   8  15  27  46  79 113 141 176 221 273 322
#     4  10  19  32  57  84 110 147 185 221 273 330
#     4  11  22  37  59  84 112 143 180 226 279 332
#
# _framework density 17.956793999999999
#
# number of rings (size 3 to 8) (size 9 to 14) (size 15 to 20)
#    0.000    2.200    2.000    1.200    2.800    3.200 
#    0.000    2.000    0.000    2.400    0.000    5.600 
#    0.000    0.000    0.000    0.000    0.000    0.000 
#
# Total GULP energy -111538.303766 kJ/mol
# GULP energy per Si atom -5576.915188 kJ/mol
# Density = 1.791592 g / cm^3
# Si number density = 17.956794 Si / 1000 Ang^3
#
#
#
# Elastic Constant Matrix: (Units=GPa)
#
#
# Indices 1 2 3 4 5 6 
#
# 1 51.0771 28.2060 56.3335 0.0000 0.6330 0.0000
# 2 28.2060 92.5139 52.0024 0.0000 -5.4178 0.0000
# 3 56.3335 52.0024 201.8547 0.0000 -6.0471 0.0000
# 4 0.0000 0.0000 0.0000 19.1728 0.0000 7.0091
# 5 0.6330 -5.4178 -6.0471 0.0000 23.5581 0.0000
# 6 0.0000 0.0000 0.0000 7.0091 0.0000 5.8938
#
#
#
# Elastic Compliance Matrix: (Units=1/GPa)
#
#
# Indices 1 2 3 4 5 6 
#
# 1 0.030674 -0.005502 -0.007262 0.000000 -0.003953 0.000000
# 2 -0.005502 0.013729 -0.001917 0.000000 0.002813 0.000000
# 3 -0.007262 -0.001917 0.007525 0.000000 0.001686 0.000000
# 4 0.000000 0.000000 0.000000 0.092273 0.000000 -0.109734
# 5 -0.003953 0.002813 0.001686 0.000000 0.043634 0.000000
# 6 0.000000 0.000000 0.000000 -0.109734 0.000000 0.300168
#
#
# Mechanical properties :
#
#
# Convention : Reuss Voigt Hill
#
# Bulk Modulus (GPa) = 44.31227 68.72550 56.51889
# Shear Modulus (GPa) = 9.52584 23.65187 16.58886
#
# Velocity S-wave (km/s) = 2.30573 3.63320 3.04274
# Velocity P-wave (km/s) = 5.64086 7.48037 6.62477
#
# Compressibility (1/GPa) = 0.02256711
#
# Stress axis : x y z
#
# Youngs Moduli (GPa) = 32.60047 72.83842 132.88976
#
# Poissons Ratio (x) = 0.40075 0.96499
# Poissons Ratio (y) = 0.17936 0.25477
# Poissons Ratio (z) = 0.23673 0.13964
#
# Static dielectric constant tensor:
#      x y z
#    x 1.556770 0.000000 0.001370 
#    y 0.000000 1.637620 0.000000 
#    z 0.001370 0.000000 1.660890 
# 
# From -- ./inp_files/314548.got.cif
#   From: 2010.05.17/outbox.cif.g08.bks.cpg/sg12_158_cif.got.tgz:314548.got - 2010.06.03 13:09:07.
