data_PCOD9182163
_publ_section_title
;
Structure prediction by ZEFSAII (Michael W. Deem and Ramdas Pophale) SiO2 
 PCOD9182163
Probable space group: C 2/M
;
_chemical_formula_sum "Si O2"
_cell_formula_units_Z 56
_cell_length_a 20.952040
_cell_length_b 8.845472
_cell_length_c 31.694593
_cell_angle_alpha 90.000000
_cell_angle_beta 147.395628
_cell_angle_gamma 90.000000
_cell_volume 3165.106718
_symmetry_space_group_name_H-M "C 2/M"
_symmetry_group_IT_number 12
_symmetry_cell_setting 'monoclinic'
loop_
_space_group_symop_operation_xyz
x,y,z
-x,y,-z
-x,-y,-z
x,-y,z
1/2+x,1/2+y,z
1/2-x,1/2+y,-z
1/2-x,1/2-y,-z
1/2+x,1/2-y,z
loop_
_atom_site_type_symbol
_atom_site_label
_atom_site_fract_x
_atom_site_fract_y
_atom_site_fract_z
Si Si1 0.079809 0.180663 0.265871
Si Si2 0.723832 0.179871 0.417353
Si Si3 0.589852 0.317924 0.172753
Si Si4 0.695584 0.319316 0.760192
Si Si5 0.570146 0.318954 0.406735
Si Si6 0.664109 0.181434 0.834812
Si Si7 0.824829 0.817978 0.003223
O O1 0.188403 0.237598 0.354774
O O2 0.093078 0.220991 0.224166
O O3 0.961314 0.255747 0.218633
O O4 0.068347 0.000000 0.262868
O O5 0.630839 0.233790 0.401363
O O6 0.852280 0.216297 0.508680
O O7 0.714687 0.000000 0.406716
O O8 0.598451 0.500000 0.174046
O O9 0.696607 0.244399 0.206813
O O10 0.461522 0.270988 0.083286
O O11 0.703714 0.500000 0.767681
O O12 0.568028 0.281749 0.668358
O O13 0.693664 0.249876 0.805896
O O14 0.581655 0.500000 0.405559
O O15 0.762502 0.223001 0.924559
O O16 0.657953 0.000000 0.828437
O O17 0.821330 0.000000 0.005060
O O18 0.750000 0.750000 0.000000
#
# Coordination Sequence:
#
# PCOD9182163 Si02
#       7
#     8   8   8   8   8   8   8
#     4  11  21  36  58  85 116 150 190 237 286 338
#     4  10  19  32  56  86 113 146 190 237 285 338
#     4  10  23  41  59  81 116 156 190 233 289 343
#     4  11  23  39  59  84 117 154 191 235 287 341
#     4   9  19  35  54  81 116 150 187 235 287 336
#     4  11  22  36  60  88 114 148 192 237 284 341
#     4  10  21  38  60  86 115 149 190 238 285 335
#
# _framework density 17.692927000000001
#
# number of rings (size 3 to 8) (size 9 to 14) (size 15 to 20)
#    0.000    1.714    2.857    1.714    0.000    4.000 
#    0.000    3.571    0.000    4.286    0.000    0.000 
#    0.000    0.000    0.000    0.000    0.000    0.000 
#
# Total GULP energy -156376.874194 kJ/mol
# GULP energy per Si atom -5584.888364 kJ/mol
# Density = 1.765266 g / cm^3
# Si number density = 17.692927 Si / 1000 Ang^3
#
#
#
# Elastic Constant Matrix: (Units=GPa)
#
#
# Indices 1 2 3 4 5 6 
#
# 1 137.0851 49.6462 94.7129 0.0000 2.7565 0.0000
# 2 49.6462 38.4526 55.3661 0.0000 -2.7005 0.0000
# 3 94.7129 55.3661 181.2551 0.0000 -3.4815 0.0000
# 4 0.0000 0.0000 0.0000 27.6935 0.0000 1.2638
# 5 2.7565 -2.7005 -3.4815 0.0000 28.8027 0.0000
# 6 0.0000 0.0000 0.0000 1.2638 0.0000 31.8261
#
#
#
# Elastic Compliance Matrix: (Units=1/GPa)
#
#
# Indices 1 2 3 4 5 6 
#
# 1 0.015072 -0.014740 -0.003435 0.000000 -0.003240 0.000000
# 2 -0.014740 0.061043 -0.010832 0.000000 0.005825 0.000000
# 3 -0.003435 -0.010832 0.010632 0.000000 0.000598 0.000000
# 4 0.000000 0.000000 0.000000 0.036175 0.000000 -0.001437
# 5 -0.003240 0.005825 0.000598 0.000000 0.035647 0.000000
# 6 0.000000 0.000000 0.000000 -0.001437 0.000000 0.031478
#
#
# Mechanical properties :
#
#
# Convention : Reuss Voigt Hill
#
# Bulk Modulus (GPa) = 34.80447 84.02703 59.41575
# Shear Modulus (GPa) = 19.40702 28.13563 23.77133
#
# Velocity S-wave (km/s) = 3.31551 3.99208 3.66942
# Velocity P-wave (km/s) = 5.86267 8.29722 7.18383
#
# Compressibility (1/GPa) = 0.02873194
#
# Stress axis : x y z
#
# Youngs Moduli (GPa) = 66.35026 16.38196 94.05369
#
# Poissons Ratio (x) = 0.24148 0.32308
# Poissons Ratio (y) = 0.97803 1.01877
# Poissons Ratio (z) = 0.22792 0.17745
#
# Static dielectric constant tensor:
#      x y z
#    x 1.551240 0.000000 -0.008370 
#    y 0.000000 1.594090 0.000000 
#    z -0.008370 0.000000 1.624700 
# 
# From -- ./inp_files/377723.got.cif
#   From: 2010.05.17/outbox.cif.g08.bks.cpg/sg12_189_cif.got.tgz:377723.got - 2010.06.03 13:09:07.
