data_PCOD9182074
_publ_section_title
;
Structure prediction by ZEFSAII (Michael W. Deem and Ramdas Pophale) SiO2 
 PCOD9182074
Probable space group: C 2/M
;
_chemical_formula_sum "Si O2"
_cell_formula_units_Z 56
_cell_length_a 20.497768
_cell_length_b 7.861245
_cell_length_c 17.860867
_cell_angle_alpha 90.000000
_cell_angle_beta 81.463407
_cell_angle_gamma 90.000000
_cell_volume 2846.178641
_symmetry_space_group_name_H-M "C 2/M"
_symmetry_group_IT_number 12
_symmetry_cell_setting 'monoclinic'
loop_
_space_group_symop_operation_xyz
x,y,z
-x,y,-z
-x,-y,-z
x,-y,z
1/2+x,1/2+y,z
1/2-x,1/2+y,-z
1/2-x,1/2-y,-z
1/2+x,1/2-y,z
loop_
_atom_site_type_symbol
_atom_site_label
_atom_site_fract_x
_atom_site_fract_y
_atom_site_fract_z
Si Si1 0.431465 0.794484 0.548535
Si Si2 0.883156 0.696743 0.295914
Si Si3 0.058581 0.207647 0.128284
Si Si4 0.826123 0.205212 0.001249
Si Si5 0.088431 0.800092 0.875321
Si Si6 0.819919 0.294942 0.454504
Si Si7 0.027910 0.798996 0.299685
O O1 0.500000 0.738143 0.500000
O O2 0.373897 0.732185 0.504517
O O3 0.429494 0.735446 0.634356
O O4 0.430598 0.000000 0.549416
O O5 0.866853 0.500000 0.285139
O O6 0.886914 0.781640 0.214107
O O7 0.835229 0.769007 0.368025
O O8 0.956947 0.708774 0.317767
O O9 0.059966 0.255273 0.215595
O O10 0.987062 0.268052 0.109283
O O11 0.057787 0.000000 0.124986
O O12 0.122197 0.264671 0.071277
O O13 0.859103 0.268032 0.073574
O O14 0.827616 0.000000 0.001404
O O15 0.750000 0.250000 0.000000
O O16 0.081791 0.000000 0.892984
O O17 0.826361 0.500000 0.448995
O O18 0.750000 0.250000 0.500000
O O19 0.014218 0.000000 0.296445
#
# Coordination Sequence:
#
# PCOD9182074 Si02
#       7
#     8   8   8   8   8   8   8
#     4  10  19  36  57  77 108 144 179 218 270 321
#     4  10  19  35  56  79 109 143 176 218 274 321
#     4   8  16  33  56  79 104 137 176 218 260 306
#     4  10  20  36  56  78 110 143 173 213 264 320
#     4   9  18  34  58  83 102 133 183 226 259 306
#     4  10  22  38  55  76 106 146 182 220 267 320
#     4  10  19  32  55  86 109 134 180 228 265 309
#
# _framework density 19.675505000000001
#
# number of rings (size 3 to 8) (size 9 to 14) (size 15 to 20)
#    0.000    2.429    1.429    2.143    0.000    4.286 
#    2.571    3.571    0.000    4.286    0.000    0.000 
#    0.000    0.000    0.000    0.000    0.000    0.000 
#
# Total GULP energy -156168.813663 kJ/mol
# GULP energy per Si atom -5577.457631 kJ/mol
# Density = 1.963072 g / cm^3
# Si number density = 19.675505 Si / 1000 Ang^3
#
#
#
# Elastic Constant Matrix: (Units=GPa)
#
#
# Indices 1 2 3 4 5 6 
#
# 1 149.4665 3.9039 98.0910 0.0000 -7.7789 0.0000
# 2 3.9039 22.0333 1.0530 0.0000 -0.0475 0.0000
# 3 98.0910 1.0530 146.7739 0.0000 -10.0212 0.0000
# 4 0.0000 0.0000 0.0000 16.4774 0.0000 3.1771
# 5 -7.7789 -0.0475 -10.0212 0.0000 29.5904 0.0000
# 6 0.0000 0.0000 0.0000 3.1771 0.0000 23.7171
#
#
#
# Elastic Compliance Matrix: (Units=1/GPa)
#
#
# Indices 1 2 3 4 5 6 
#
# 1 0.011990 -0.001742 -0.007970 0.000000 0.000450 0.000000
# 2 -0.001742 0.045655 0.000830 0.000000 -0.000104 0.000000
# 3 -0.007970 0.000830 0.012274 0.000000 0.002063 0.000000
# 4 0.000000 0.000000 0.000000 0.062298 0.000000 -0.008345
# 5 0.000450 -0.000104 0.002063 0.000000 0.034612 0.000000
# 6 0.000000 0.000000 0.000000 -0.008345 0.000000 0.043282
#
#
# Mechanical properties :
#
#
# Convention : Reuss Voigt Hill
#
# Bulk Modulus (GPa) = 19.17388 58.26329 38.71858
# Shear Modulus (GPa) = 20.38657 28.30537 24.34597
#
# Velocity S-wave (km/s) = 3.22240 3.79702 3.52145
# Velocity P-wave (km/s) = 4.85916 6.99282 6.02125
#
# Compressibility (1/GPa) = 0.05215429
#
# Stress axis : x y z
#
# Youngs Moduli (GPa) = 83.40520 21.90353 81.47094
#
# Poissons Ratio (x) = 0.03817 0.64929
# Poissons Ratio (y) = 0.14533 -0.06761
# Poissons Ratio (z) = 0.66471 -0.01818
#
# Static dielectric constant tensor:
#      x y z
#    x 1.666190 0.000000 0.008240 
#    y 0.000000 1.732990 0.000000 
#    z 0.008240 0.000000 1.702350 
# 
# From -- ./inp_files/275014.got.cif
#   From: 2010.05.17/outbox.cif.g08.bks.cpg/sg12_138_cif.got.tgz:275014.got - 2010.06.03 13:09:07.
