data_PCOD9182752
_publ_section_title
;
Structure prediction by ZEFSAII (Michael W. Deem and Ramdas Pophale) SiO2 
 PCOD9182752
Probable space group: C 2/M
;
_chemical_formula_sum "Si O2"
_cell_formula_units_Z 56
_cell_length_a 8.271515
_cell_length_b 18.992286
_cell_length_c 17.624966
_cell_angle_alpha 90.000000
_cell_angle_beta 89.919291
_cell_angle_gamma 90.000000
_cell_volume 2768.790908
_symmetry_space_group_name_H-M "C 2/M"
_symmetry_group_IT_number 12
_symmetry_cell_setting 'monoclinic'
loop_
_space_group_symop_operation_xyz
x,y,z
-x,y,-z
-x,-y,-z
x,-y,z
1/2+x,1/2+y,z
1/2-x,1/2+y,-z
1/2-x,1/2-y,-z
1/2+x,1/2-y,z
loop_
_atom_site_type_symbol
_atom_site_label
_atom_site_fract_x
_atom_site_fract_y
_atom_site_fract_z
Si Si1 0.375728 0.418192 0.807607
Si Si2 0.589951 0.836965 0.734254
Si Si3 0.183898 0.174003 0.530379
Si Si4 0.059542 0.917652 0.661043
Si Si5 0.785026 0.715714 0.809766
Si Si6 0.501343 0.679188 0.912102
Si Si7 0.806759 0.580469 0.406693
O O1 0.370934 0.500000 0.798054
O O2 0.203052 0.388415 0.783172
O O3 0.513430 0.394049 0.746660
O O4 0.421275 0.395020 0.891635
O O5 0.678607 0.762407 0.751181
O O6 0.409117 0.832599 0.764449
O O7 0.601232 0.866297 0.649437
O O8 0.250000 0.250000 0.500000
O O9 0.292614 0.115429 0.488458
O O10 0.000000 0.173197 0.500000
O O11 0.161207 0.141353 0.615295
O O12 0.879888 0.920898 0.623250
O O13 0.120521 0.000000 0.658730
O O14 0.676313 0.680316 0.874022
O O15 0.896671 0.768188 0.859966
O O16 0.500000 0.696924 0.000000
O O17 0.866078 0.500000 0.405294
#
# Coordination Sequence:
#
# PCOD9182752 Si02
#       7
#     8   8   8   8   8   8   8
#     4   9  18  33  52  72  96 132 170 204 247 296
#     4   9  17  31  51  73 101 130 163 207 247 297
#     4  10  20  31  48  74 100 128 163 207 251 288
#     4   8  15  31  52  70  92 127 171 206 238 293
#     4   9  19  32  50  77 101 129 164 201 251 303
#     4  10  19  33  53  75 101 128 160 205 252 301
#     4   9  17  30  50  73  97 130 170 208 245 289
#
# _framework density 20.225435000000001
#
# number of rings (size 3 to 8) (size 9 to 14) (size 15 to 20)
#    0.000    2.857    0.000    2.143    0.000    7.714 
#    0.000    1.429    0.000    4.286    0.000    0.000 
#    0.000    0.000    0.000    0.000    0.000    0.000 
#
# Total GULP energy -155968.116721 kJ/mol
# GULP energy per Si atom -5570.289883 kJ/mol
# Density = 2.017940 g / cm^3
# Si number density = 20.225435 Si / 1000 Ang^3
#
#
#
# Elastic Constant Matrix: (Units=GPa)
#
#
# Indices 1 2 3 4 5 6 
#
# 1 55.8637 11.7864 28.8653 0.0000 -24.5257 0.0000
# 2 11.7864 72.6804 34.5922 0.0000 -13.4714 0.0000
# 3 28.8653 34.5922 67.1654 0.0000 -16.7950 0.0000
# 4 0.0000 0.0000 0.0000 12.4708 0.0000 1.3611
# 5 -24.5257 -13.4714 -16.7950 0.0000 26.5321 0.0000
# 6 0.0000 0.0000 0.0000 1.3611 0.0000 11.3252
#
#
#
# Elastic Compliance Matrix: (Units=1/GPa)
#
#
# Indices 1 2 3 4 5 6 
#
# 1 0.034269 0.004340 -0.010087 0.000000 0.027495 0.000000
# 2 0.004340 0.019129 -0.009843 0.000000 0.007494 0.000000
# 3 -0.010087 -0.009843 0.024607 0.000000 0.001254 0.000000
# 4 0.000000 0.000000 0.000000 0.081253 0.000000 -0.009765
# 5 0.027495 0.007494 0.001254 0.000000 0.067705 0.000000
# 6 0.000000 0.000000 0.000000 -0.009765 0.000000 0.089472
#
#
# Mechanical properties :
#
#
# Convention : Reuss Voigt Hill
#
# Bulk Modulus (GPa) = 21.35692 38.46639 29.91166
# Shear Modulus (GPa) = 13.76561 18.09665 15.93113
#
# Velocity S-wave (km/s) = 2.61168 2.99448 2.80961
# Velocity P-wave (km/s) = 4.43586 5.56920 5.03452
#
# Compressibility (1/GPa) = 0.04682322
#
# Stress axis : x y z
#
# Youngs Moduli (GPa) = 29.18130 52.27668 40.63877
#
# Poissons Ratio (x) = -0.22689 0.40994
# Poissons Ratio (y) = -0.12665 0.40003
# Poissons Ratio (z) = 0.29436 0.51458
#
# Static dielectric constant tensor:
#      x y z
#    x 1.749220 0.000000 0.002480 
#    y 0.000000 1.755910 0.000000 
#    z 0.002480 0.000000 1.706910 
# 
# From -- ./inp_files/257022.got.cif
#   From: 2010.05.17/outbox.cif.g08.bks.cpg/sg12_129_cif.got.tgz:257022.got - 2010.06.03 13:09:07.
