data_PCOD9182637
_publ_section_title
;
Structure prediction by ZEFSAII (Michael W. Deem and Ramdas Pophale) SiO2 
 PCOD9182637
Probable space group: C 2/M
;
_chemical_formula_sum "Si O2"
_cell_formula_units_Z 64
_cell_length_a 15.958840
_cell_length_b 7.741044
_cell_length_c 25.917548
_cell_angle_alpha 90.000000
_cell_angle_beta 109.077187
_cell_angle_gamma 90.000000
_cell_volume 3025.958292
_symmetry_space_group_name_H-M "C 2/M"
_symmetry_group_IT_number 12
_symmetry_cell_setting 'monoclinic'
loop_
_space_group_symop_operation_xyz
x,y,z
-x,y,-z
-x,-y,-z
x,-y,z
1/2+x,1/2+y,z
1/2-x,1/2+y,-z
1/2-x,1/2-y,-z
1/2+x,1/2-y,z
loop_
_atom_site_type_symbol
_atom_site_label
_atom_site_fract_x
_atom_site_fract_y
_atom_site_fract_z
Si Si1 0.994585 0.706588 0.940241
Si Si2 0.187620 0.205307 0.938781
Si Si3 0.261597 0.798641 0.742185
Si Si4 0.198249 0.712441 0.135658
Si Si5 0.560808 0.709524 0.560236
Si Si6 0.751837 0.292978 0.560462
Si Si7 0.616986 0.787278 0.326225
Si Si8 0.066172 0.299315 0.676256
O O1 0.985745 0.500000 0.942144
O O2 0.086644 0.738959 0.929202
O O3 0.902918 0.767614 0.896249
O O4 0.000000 0.775182 0.000000
O O5 0.235638 0.271763 0.896539
O O6 0.185750 0.000000 0.934413
O O7 0.250000 0.250000 0.000000
O O8 0.272815 0.726917 0.801866
O O9 0.325942 0.726129 0.710981
O O10 0.160350 0.788612 0.703268
O O11 0.286016 0.000000 0.750761
O O12 0.200401 0.500000 0.135368
O O13 0.500000 0.762561 0.500000
O O14 0.558019 0.500000 0.562660
O O15 0.660605 0.766779 0.567961
O O16 0.535724 0.781080 0.610780
O O17 0.752193 0.500000 0.564057
O O18 0.750000 0.250000 0.500000
O O19 0.833449 0.229817 0.611384
O O20 0.515187 0.731106 0.306173
O O21 0.616538 0.000000 0.326668
O O22 0.079984 0.500000 0.690869
#
# Coordination Sequence:
#
# PCOD9182637 Si02
#       8
#     8   8   8   8   8   8   8   8
#     4  10  19  36  59  86 119 155 194 238 287 348
#     4  11  21  36  57  88 121 156 197 241 292 345
#     4  10  20  41  64  79 108 157 198 230 278 346
#     4   9  20  37  60  85 113 153 197 234 282 347
#     4  10  20  35  56  82 112 148 191 232 277 346
#     4  10  19  33  52  78 108 141 179 223 276 336
#     4   9  19  36  57  78 107 146 185 225 279 339
#     4  11  22  36  57  86 115 144 185 242 293 334
#
# _framework density 21.150324000000001
#
# number of rings (size 3 to 8) (size 9 to 14) (size 15 to 20)
#    0.000    2.000    2.500    1.500    0.000    2.000 
#    0.000    5.000    0.000    0.000    0.000    0.000 
#    0.000    0.000    0.000    0.000    0.000    0.000 
#
# Total GULP energy -178699.850084 kJ/mol
# GULP energy per Si atom -5584.370315 kJ/mol
# Density = 2.110218 g / cm^3
# Si number density = 21.150324 Si / 1000 Ang^3
#
#
#
# Elastic Constant Matrix: (Units=GPa)
#
#
# Indices 1 2 3 4 5 6 
#
# 1 165.7076 -6.1080 63.2304 0.0000 -22.7465 0.0000
# 2 -6.1080 25.3278 -4.8739 0.0000 -0.9217 0.0000
# 3 63.2304 -4.8739 137.7507 0.0000 -18.0495 0.0000
# 4 0.0000 0.0000 0.0000 6.5818 0.0000 -3.4590
# 5 -22.7465 -0.9217 -18.0495 0.0000 29.8255 0.0000
# 6 0.0000 0.0000 0.0000 -3.4590 0.0000 17.2239
#
#
#
# Elastic Compliance Matrix: (Units=1/GPa)
#
#
# Indices 1 2 3 4 5 6 
#
# 1 0.007801 0.001460 -0.002980 0.000000 0.004191 0.000000
# 2 0.001460 0.040167 0.001151 0.000000 0.003051 0.000000
# 3 -0.002980 0.001151 0.009096 0.000000 0.003268 0.000000
# 4 0.000000 0.000000 0.000000 0.169863 0.000000 0.034113
# 5 0.004191 0.003051 0.003268 0.000000 0.038796 0.000000
# 6 0.000000 0.000000 0.000000 0.034113 0.000000 0.064910
#
#
# Mechanical properties :
#
#
# Convention : Reuss Voigt Hill
#
# Bulk Modulus (GPa) = 17.75369 48.14257 32.94813
# Shear Modulus (GPa) = 14.27971 29.16208 21.72089
#
# Velocity S-wave (km/s) = 2.60119 3.71725 3.20812
# Velocity P-wave (km/s) = 4.17539 6.42148 5.41615
#
# Compressibility (1/GPa) = 0.05632630
#
# Stress axis : x y z
#
# Youngs Moduli (GPa) = 128.18936 24.89605 109.93569
#
# Poissons Ratio (x) = -0.03636 0.32760
# Poissons Ratio (y) = -0.18720 -0.12650
# Poissons Ratio (z) = 0.38200 -0.02865
#
# Static dielectric constant tensor:
#      x y z
#    x 1.744300 0.000000 -0.019530 
#    y 0.000000 1.819840 0.000000 
#    z -0.019530 0.000000 1.749330 
# 
# From -- ./inp_files/359895.got.cif
#   From: 2010.05.17/outbox.cif.g08.bks.cpg/sg12_180_cif.got.tgz:359895.got - 2010.06.03 13:09:07.
