data_PCOD9182478
_publ_section_title
;
Structure prediction by ZEFSAII (Michael W. Deem and Ramdas Pophale) SiO2 
 PCOD9182478
Probable space group: C 2/M
;
_chemical_formula_sum "Si O2"
_cell_formula_units_Z 50
_cell_length_a 34.453915
_cell_length_b 7.830672
_cell_length_c 14.748111
_cell_angle_alpha 90.000000
_cell_angle_beta 31.125385
_cell_angle_gamma 90.000000
_cell_volume 2056.795760
_symmetry_space_group_name_H-M "C 2/M"
_symmetry_group_IT_number 12
_symmetry_cell_setting 'monoclinic'
loop_
_space_group_symop_operation_xyz
x,y,z
-x,y,-z
-x,-y,-z
x,-y,z
1/2+x,1/2+y,z
1/2-x,1/2+y,-z
1/2-x,1/2-y,-z
1/2+x,1/2-y,z
loop_
_atom_site_type_symbol
_atom_site_label
_atom_site_fract_x
_atom_site_fract_y
_atom_site_fract_z
Si Si1 0.014475 0.000000 0.826322
Si Si2 0.800670 0.303769 0.290717
Si Si3 0.852769 0.799244 0.892161
Si Si4 0.370276 0.500000 0.252222
Si Si5 0.909518 0.691602 0.595526
Si Si6 0.500000 0.500000 0.500000
Si Si7 0.448172 0.186402 0.866242
Si Si8 0.288293 0.293212 0.704037
O O1 0.002333 0.165480 0.790007
O O2 0.092489 0.000000 0.723704
O O3 0.943818 0.000000 0.038486
O O4 0.790538 0.500000 0.339706
O O5 0.734750 0.249771 0.353032
O O6 0.822315 0.167881 0.323893
O O7 0.874756 0.305136 0.077825
O O8 0.852344 0.710635 0.795864
O O9 0.913765 0.714834 0.836104
O O10 0.874464 0.000000 0.834479
O O11 0.776355 0.781732 0.100660
O O12 0.940784 0.500000 0.535331
O O13 0.864232 0.721951 0.593880
O O14 0.964215 0.847654 0.506435
O O15 0.482020 0.000000 0.808337
O O16 0.286251 0.500000 0.715157
#
# Coordination Sequence:
#
# PCOD9182478 Si02
#       8
#     4   8   8   4   8   2   8   8
#     4   9  16  25  36  57  86 131 174 196 234 297
#     4   8  16  26  40  61  91 124 159 207 252 292
#     4  11  19  32  52  78 106 129 168 223 269 304
#     4   9  16  24  38  56  86 127 173 206 230 289
#     4  12  24  39  57  75  99 137 175 212 256 308
#     4  12  26  46  52  72 104 140 180 206 248 314
#     4   9  16  27  41  62  92 126 160 203 256 300
#     4  10  19  33  51  79 106 128 171 221 268 306
#
# _framework density 24.309657999999999
#
# number of rings (size 3 to 8) (size 9 to 14) (size 15 to 20)
#    0.000    2.080    2.400    3.600    4.480    0.640 
#    0.000    3.200    0.000    0.000    0.000    0.000 
#    0.000    0.000    0.000    5.760    0.000    3.680 
#
# Total GULP energy -139777.222034 kJ/mol
# GULP energy per Si atom -5591.088881 kJ/mol
# Density = 2.425433 g / cm^3
# Si number density = 24.309658 Si / 1000 Ang^3
#
#
#
# Elastic Constant Matrix: (Units=GPa)
#
#
# Indices 1 2 3 4 5 6 
#
# 1 179.0581 94.7535 37.9244 0.0000 -52.0688 0.0000
# 2 94.7535 217.2416 30.9856 -0.0001 -38.8806 0.0001
# 3 37.9244 30.9856 77.0275 0.0000 3.3564 0.0000
# 4 0.0000 -0.0001 0.0000 22.3075 0.0000 -0.7063
# 5 -52.0688 -38.8806 3.3564 0.0000 37.8290 0.0000
# 6 0.0000 0.0001 0.0000 -0.7063 0.0000 23.1110
#
#
#
# Elastic Compliance Matrix: (Units=1/GPa)
#
#
# Indices 1 2 3 4 5 6 
#
# 1 0.012381 -0.001694 -0.006104 0.000000 0.015842 0.000000
# 2 -0.001694 0.006411 -0.001938 0.000000 0.004430 0.000000
# 3 -0.006104 -0.001938 0.017287 0.000000 -0.011928 0.000000
# 4 0.000000 0.000000 0.000000 0.044871 0.000000 0.001371
# 5 0.015842 0.004430 -0.011928 0.000000 0.053851 0.000000
# 6 0.000000 0.000000 0.000000 0.001371 0.000000 0.043311
#
#
# Mechanical properties :
#
#
# Convention : Reuss Voigt Hill
#
# Bulk Modulus (GPa) = 60.21845 88.96157 74.59001
# Shear Modulus (GPa) = 24.61580 37.29373 30.95477
#
# Velocity S-wave (km/s) = 3.18558 3.92102 3.57228
# Velocity P-wave (km/s) = 6.19320 7.56134 6.91121
#
# Compressibility (1/GPa) = 0.01660621
#
# Stress axis : x y z
#
# Youngs Moduli (GPa) = 80.76970 155.97451 57.84616
#
# Poissons Ratio (x) = 0.26425 0.35312
# Poissons Ratio (y) = 0.13684 0.11210
# Poissons Ratio (z) = 0.49306 0.30227
#
# Static dielectric constant tensor:
#      x y z
#    x 1.850890 0.000000 0.072590 
#    y 0.000000 1.858300 0.000000 
#    z 0.072590 0.000000 1.771470 
# 
# From -- ./inp_files/294766.got.cif
#   From: 2010.05.17/outbox.cif.g08.bks.cpg/sg12_148_cif.got.tgz:294766.got - 2010.06.03 13:09:07.
