data_PCOD9182005
_publ_section_title
;
Structure prediction by ZEFSAII (Michael W. Deem and Ramdas Pophale) SiO2 
 PCOD9182005
Probable space group: C 2/M
;
_chemical_formula_sum "Si O2"
_cell_formula_units_Z 64
_cell_length_a 27.310487
_cell_length_b 9.594068
_cell_length_c 20.360007
_cell_angle_alpha 90.000000
_cell_angle_beta 144.816670
_cell_angle_gamma 90.000000
_cell_volume 3073.826166
_symmetry_space_group_name_H-M "C 2/M"
_symmetry_group_IT_number 12
_symmetry_cell_setting 'monoclinic'
loop_
_space_group_symop_operation_xyz
x,y,z
-x,y,-z
-x,-y,-z
x,-y,z
1/2+x,1/2+y,z
1/2-x,1/2+y,-z
1/2-x,1/2-y,-z
1/2+x,1/2-y,z
loop_
_atom_site_type_symbol
_atom_site_label
_atom_site_fract_x
_atom_site_fract_y
_atom_site_fract_z
Si Si1 0.822127 0.337690 0.739990
Si Si2 0.854435 0.336642 0.930070
Si Si3 0.665091 0.842933 0.904025
Si Si4 0.793693 0.347725 0.198915
Si Si5 0.993509 0.836054 0.286243
Si Si6 0.432147 0.348535 0.368671
Si Si7 0.017050 0.842078 0.097421
Si Si8 0.809425 0.165655 0.514586
O O1 0.847678 0.500000 0.756614
O O2 0.823664 0.318206 0.820345
O O3 0.892838 0.230575 0.791286
O O4 0.734135 0.315852 0.605120
O O5 0.860269 0.500000 0.948065
O O6 0.785640 0.253685 0.896167
O O7 0.943225 0.260622 0.039093
O O8 0.661294 0.862761 0.821431
O O9 0.579553 0.758166 0.827338
O O10 0.672203 0.000000 0.940259
O O11 0.750000 0.750000 0.000000
O O12 0.767954 0.500000 0.195663
O O13 0.864604 0.266393 0.316605
O O14 0.090711 0.795175 0.376450
O O15 0.977180 0.826767 0.347382
O O16 0.981802 0.000000 0.256414
O O17 0.500000 0.355673 0.500000
O O18 0.387304 0.500000 0.313763
O O19 0.012670 0.000000 0.118456
O O20 0.000000 0.849693 0.000000
O O21 0.750000 0.250000 0.500000
O O22 0.805339 0.000000 0.524999
#
# Coordination Sequence:
#
# PCOD9182005 Si02
#       8
#     8   8   8   8   8   8   8   8
#     4   9  19  35  56  79 107 145 190 235 282 333
#     4  10  19  32  55  82 111 145 186 229 276 335
#     4  10  21  39  62  85 113 148 188 232 281 339
#     4  10  21  35  51  80 118 146 177 224 277 332
#     4   9  19  37  60  85 115 150 188 235 286 332
#     4   9  18  32  56  84 112 147 187 223 268 333
#     4   9  17  31  51  76 109 143 179 223 276 332
#     4  10  22  40  60  83 114 150 193 243 287 335
#
# _framework density 20.820958000000001
#
# number of rings (size 3 to 8) (size 9 to 14) (size 15 to 20)
#    0.000    2.500    0.000    1.500    1.750    4.750 
#    2.250    0.000    0.000    0.000    0.000    0.000 
#    0.000    0.000    0.000    0.000    0.000    0.000 
#
# Total GULP energy -178410.574959 kJ/mol
# GULP energy per Si atom -5575.330467 kJ/mol
# Density = 2.077357 g / cm^3
# Si number density = 20.820958 Si / 1000 Ang^3
#
#
#
# Elastic Constant Matrix: (Units=GPa)
#
#
# Indices 1 2 3 4 5 6 
#
# 1 69.3028 47.8775 30.7219 0.0000 13.7539 0.0000
# 2 47.8775 140.9222 68.6914 0.0000 33.0254 0.0000
# 3 30.7219 68.6914 113.4813 0.0000 31.3542 0.0000
# 4 0.0000 0.0000 0.0000 23.3063 0.0000 13.1566
# 5 13.7539 33.0254 31.3542 0.0000 36.8487 0.0000
# 6 0.0000 0.0000 0.0000 13.1566 0.0000 19.4675
#
#
#
# Elastic Compliance Matrix: (Units=1/GPa)
#
#
# Indices 1 2 3 4 5 6 
#
# 1 0.019118 -0.005519 -0.001608 0.000000 -0.000821 0.000000
# 2 -0.005519 0.012422 -0.004600 0.000000 -0.005160 0.000000
# 3 -0.001608 -0.004600 0.014024 0.000000 -0.007210 0.000000
# 4 0.000000 0.000000 0.000000 0.069373 0.000000 -0.046884
# 5 -0.000821 -0.005160 -0.007210 0.000000 0.038204 0.000000
# 6 0.000000 0.000000 0.000000 -0.046884 0.000000 0.083053
#
#
# Mechanical properties :
#
#
# Convention : Reuss Voigt Hill
#
# Bulk Modulus (GPa) = 45.22714 68.69867 56.96291
# Shear Modulus (GPa) = 18.72532 27.68555 23.20543
#
# Velocity S-wave (km/s) = 3.00217 3.65046 3.34207
# Velocity P-wave (km/s) = 5.81261 7.12982 6.50465
#
# Compressibility (1/GPa) = 0.02211062
#
# Stress axis : x y z
#
# Youngs Moduli (GPa) = 52.30677 80.49958 71.30795
#
# Poissons Ratio (x) = 0.44427 0.11467
# Poissons Ratio (y) = 0.28868 0.32800
# Poissons Ratio (z) = 0.08411 0.37028
#
# Static dielectric constant tensor:
#      x y z
#    x 1.795140 0.000000 -0.045330 
#    y 0.000000 1.803250 0.000000 
#    z -0.045330 0.000000 1.744490 
# 
# From -- ./inp_files/353574.got.cif
#   From: 2010.05.17/outbox.cif.g08.bks.cpg/sg12_177_cif.got.tgz:353574.got - 2010.06.03 13:09:07.
