data_PCOD9182668
_publ_section_title
;
Structure prediction by ZEFSAII (Michael W. Deem and Ramdas Pophale) SiO2 
 PCOD9182668
Probable space group: C 2/M
;
_chemical_formula_sum "Si O2"
_cell_formula_units_Z 36
_cell_length_a 12.303670
_cell_length_b 33.652824
_cell_length_c 5.119971
_cell_angle_alpha 90.000000
_cell_angle_beta 81.280158
_cell_angle_gamma 90.000000
_cell_volume 2095.437136
_symmetry_space_group_name_H-M "C 2/M"
_symmetry_group_IT_number 12
_symmetry_cell_setting 'monoclinic'
loop_
_space_group_symop_operation_xyz
x,y,z
-x,y,-z
-x,-y,-z
x,-y,z
1/2+x,1/2+y,z
1/2-x,1/2+y,-z
1/2-x,1/2-y,-z
1/2+x,1/2-y,z
loop_
_atom_site_type_symbol
_atom_site_label
_atom_site_fract_x
_atom_site_fract_y
_atom_site_fract_z
Si Si1 0.421290 0.500000 0.778846
Si Si2 0.122747 0.319890 0.358741
Si Si3 0.074205 0.769606 0.229675
Si Si4 0.920129 0.087350 0.778957
Si Si5 0.744470 0.660645 0.174357
O O1 0.500000 0.500000 0.500000
O O2 0.365450 0.543214 0.800394
O O3 0.500000 0.500000 0.000000
O O4 0.123188 0.272506 0.303307
O O5 0.205170 0.331395 0.559869
O O6 0.000000 0.329568 0.500000
O O7 0.160485 0.340364 0.077750
O O8 0.166375 0.801929 0.136462
O O9 0.000000 0.784340 0.500000
O O10 0.000000 0.763044 0.000000
O O11 0.829935 0.121555 0.806525
O O12 0.000000 0.090548 0.500000
O O13 0.000000 0.091330 0.000000
#
# Coordination Sequence:
#
# PCOD9182668 Si02
#       5
#     4   8   8   8   8
#     4   8  16  30  50  74 109 136 149 182 242 310
#     4  11  23  37  49  68  98 136 177 213 245 283
#     4  11  21  35  52  74 101 130 163 208 256 304
#     4  10  19  33  52  81 109 131 157 194 246 308
#     4  12  21  34  54  75  98 132 170 210 247 290
#
# _framework density 17.180185000000002
#
# number of rings (size 3 to 8) (size 9 to 14) (size 15 to 20)
#    0.000    1.333    0.000    8.667    0.000    0.000 
#    0.000    0.000    0.000    0.000    0.000    4.667 
#    0.000    0.000    0.000    0.000    0.000    0.000 
#
# Total GULP energy -100528.115467 kJ/mol
# GULP energy per Si atom -5584.895304 kJ/mol
# Density = 1.714108 g / cm^3
# Si number density = 17.180185 Si / 1000 Ang^3
#
#
#
# Elastic Constant Matrix: (Units=GPa)
#
#
# Indices 1 2 3 4 5 6 
#
# 1 52.2441 49.5177 15.1422 0.0000 7.5423 0.0000
# 2 49.5177 87.3092 19.3459 0.0000 -2.8252 0.0000
# 3 15.1422 19.3459 109.9294 0.0000 5.5681 0.0000
# 4 0.0000 0.0000 0.0000 50.5411 0.0000 10.4093
# 5 7.5423 -2.8252 5.5681 0.0000 41.8860 0.0000
# 6 0.0000 0.0000 0.0000 10.4093 0.0000 21.0506
#
#
#
# Elastic Compliance Matrix: (Units=1/GPa)
#
#
# Indices 1 2 3 4 5 6 
#
# 1 0.045283 -0.025727 -0.001217 0.000000 -0.009727 0.000000
# 2 -0.025727 0.026585 -0.001470 0.000000 0.006621 0.000000
# 3 -0.001217 -0.001470 0.009582 0.000000 -0.001154 0.000000
# 4 0.000000 0.000000 0.000000 0.022029 0.000000 -0.010893
# 5 -0.009727 0.006621 -0.001154 0.000000 0.026226 0.000000
# 6 0.000000 0.000000 0.000000 -0.010893 0.000000 0.052891
#
#
# Mechanical properties :
#
#
# Convention : Reuss Voigt Hill
#
# Bulk Modulus (GPa) = 40.61733 46.38827 43.50280
# Shear Modulus (GPa) = 20.19127 33.72732 26.95930
#
# Velocity S-wave (km/s) = 3.43193 4.43555 3.96562
# Velocity P-wave (km/s) = 6.27674 7.30013 6.80769
#
# Compressibility (1/GPa) = 0.02462003
#
# Stress axis : x y z
#
# Youngs Moduli (GPa) = 22.08343 37.61526 104.36713
#
# Poissons Ratio (x) = 0.96774 0.12703
# Poissons Ratio (y) = 0.56815 0.15343
# Poissons Ratio (z) = 0.02688 0.05530
#
# Static dielectric constant tensor:
#      x y z
#    x 1.561590 0.000000 -0.004410 
#    y 0.000000 1.595230 0.000000 
#    z -0.004410 0.000000 1.602060 
# 
# From -- ./inp_files/8104.got.cif
#   From: 2010.05.17/outbox.cif.g08.bks.cpg/sg12_5_cif.got.tgz:8104.got - 2010.06.03 13:09:07.
