data_PCOD9182508
_publ_section_title
;
Structure prediction by ZEFSAII (Michael W. Deem and Ramdas Pophale) SiO2 
 PCOD9182508
Probable space group: C 2/M
;
_chemical_formula_sum "Si O2"
_cell_formula_units_Z 64
_cell_length_a 28.308894
_cell_length_b 7.620303
_cell_length_c 14.782747
_cell_angle_alpha 90.000000
_cell_angle_beta 106.751057
_cell_angle_gamma 90.000000
_cell_volume 3053.648353
_symmetry_space_group_name_H-M "C 2/M"
_symmetry_group_IT_number 12
_symmetry_cell_setting 'monoclinic'
loop_
_space_group_symop_operation_xyz
x,y,z
-x,y,-z
-x,-y,-z
x,-y,z
1/2+x,1/2+y,z
1/2-x,1/2+y,-z
1/2-x,1/2-y,-z
1/2+x,1/2-y,z
loop_
_atom_site_type_symbol
_atom_site_label
_atom_site_fract_x
_atom_site_fract_y
_atom_site_fract_z
Si Si1 0.036154 0.284773 0.231013
Si Si2 0.820592 0.705982 0.351895
Si Si3 0.996272 0.699567 0.597595
Si Si4 0.705913 0.787246 0.271348
Si Si5 0.432319 0.208166 0.089876
Si Si6 0.613223 0.214732 0.122033
Si Si7 0.191783 0.709943 0.459590
Si Si8 0.596623 0.300286 0.737886
O O1 0.035490 0.500000 0.234861
O O2 0.080502 0.233443 0.190384
O O3 0.035014 0.225083 0.335172
O O4 0.985694 0.227011 0.153142
O O5 0.831984 0.500000 0.358797
O O6 0.762357 0.726625 0.299970
O O7 0.830838 0.777955 0.459155
O O8 0.854763 0.788091 0.295050
O O9 0.977622 0.500000 0.573134
O O10 0.051804 0.695142 0.667663
O O11 0.000000 0.783019 0.500000
O O12 0.669587 0.732054 0.171271
O O13 0.680785 0.728008 0.352459
O O14 0.707771 0.000000 0.274590
O O15 0.396773 0.238809 0.155630
O O16 0.438530 0.000000 0.080490
O O17 0.411135 0.278577 0.984351
O O18 0.612704 0.000000 0.119541
O O19 0.184268 0.500000 0.456155
O O20 0.250000 0.750000 0.500000
O O21 0.579416 0.500000 0.730565
#
# Coordination Sequence:
#
# PCOD9182508 Si02
#       8
#     8   8   8   8   8   8   8   8
#     4   8  14  26  48  77 103 129 164 202 240 289
#     4  10  19  33  52  72  97 134 175 208 243 293
#     4   9  18  33  54  80 109 138 168 202 239 287
#     4   9  17  30  48  75 106 130 159 203 254 301
#     4   9  17  32  52  73  97 127 168 211 249 298
#     4   9  16  27  49  77 101 127 161 207 257 299
#     4   8  15  27  45  67  93 124 156 194 238 288
#     4  11  22  35  52  73  99 133 171 210 253 297
#
# _framework density 20.958537
#
# number of rings (size 3 to 8) (size 9 to 14) (size 15 to 20)
#    0.000    2.875    0.000    2.625    0.000    3.250 
#    0.000    5.000    0.000    9.000    0.000    0.000 
#    0.000    0.000    0.000    0.000    0.000    0.000 
#
# Total GULP energy -178363.227155 kJ/mol
# GULP energy per Si atom -5573.850849 kJ/mol
# Density = 2.091083 g / cm^3
# Si number density = 20.958537 Si / 1000 Ang^3
#
#
#
# Elastic Constant Matrix: (Units=GPa)
#
#
# Indices 1 2 3 4 5 6 
#
# 1 61.9894 -12.6962 26.7338 0.0000 -20.9140 0.0000
# 2 -12.6962 43.5069 -3.4743 0.0000 7.2605 0.0000
# 3 26.7338 -3.4743 121.2305 0.0000 -19.6370 0.0000
# 4 0.0000 0.0000 0.0000 -15.4912 0.0000 6.2877
# 5 -20.9140 7.2605 -19.6370 0.0000 19.0404 0.0000
# 6 0.0000 0.0000 0.0000 6.2877 0.0000 4.0098
#
#
#
# Elastic Compliance Matrix: (Units=1/GPa)
#
#
# Indices 1 2 3 4 5 6 
#
# 1 0.026209 0.003182 -0.001467 0.000000 0.026062 0.000000
# 2 0.003182 0.025030 -0.001158 0.000000 -0.007243 0.000000
# 3 -0.001467 -0.001158 0.010024 0.000000 0.009168 0.000000
# 4 0.000000 0.000000 0.000000 -0.039446 0.000000 0.061855
# 5 0.026062 -0.007243 0.009168 0.000000 0.093364 0.000000
# 6 0.000000 0.000000 0.000000 0.061855 0.000000 0.152396
#
#
# Mechanical properties :
#
#
# Convention : Reuss Voigt Hill
#
# Bulk Modulus (GPa) = 16.03141 27.53926 21.78533
# Shear Modulus (GPa) = 17.40623 15.92270 16.66446
#
# Velocity S-wave (km/s) = 2.88498 2.75930 2.82284
# Velocity P-wave (km/s) = 4.33165 4.82908 4.58711
#
# Compressibility (1/GPa) = 0.06237754
#
# Stress axis : x y z
#
# Youngs Moduli (GPa) = 38.15510 39.95245 99.75898
#
# Poissons Ratio (x) = -0.12713 0.14634
# Poissons Ratio (y) = -0.12141 0.11548
# Poissons Ratio (z) = 0.05597 0.04625
#
# Static dielectric constant tensor:
#      x y z
#    x 1.738200 0.000000 -0.009010 
#    y 0.000000 1.793740 0.000000 
#    z -0.009010 0.000000 1.783500 
# 
# From -- ./inp_files/244259.got.cif
#   From: 2010.05.17/outbox.cif.g08.bks.cpg/sg12_123_cif.got.tgz:244259.got - 2010.06.03 13:09:07.
