data_PCOD9182706
_publ_section_title
;
Structure prediction by ZEFSAII (Michael W. Deem and Ramdas Pophale) SiO2 
 PCOD9182706
Probable space group: C 2/M
;
_chemical_formula_sum "Si O2"
_cell_formula_units_Z 64
_cell_length_a 14.936784
_cell_length_b 7.562093
_cell_length_c 26.256966
_cell_angle_alpha 90.000000
_cell_angle_beta 99.341748
_cell_angle_gamma 90.000000
_cell_volume 2926.478782
_symmetry_space_group_name_H-M "C 2/M"
_symmetry_group_IT_number 12
_symmetry_cell_setting 'monoclinic'
loop_
_space_group_symop_operation_xyz
x,y,z
-x,y,-z
-x,-y,-z
x,-y,z
1/2+x,1/2+y,z
1/2-x,1/2+y,-z
1/2-x,1/2-y,-z
1/2+x,1/2-y,z
loop_
_atom_site_type_symbol
_atom_site_label
_atom_site_fract_x
_atom_site_fract_y
_atom_site_fract_z
Si Si1 0.325660 0.715947 0.722531
Si Si2 0.877133 0.201974 0.131697
Si Si3 0.775624 0.211915 0.560097
Si Si4 0.596160 0.213462 0.982057
Si Si5 0.445310 0.288202 0.637436
Si Si6 0.431241 0.286086 0.829951
Si Si7 0.842929 0.288502 0.356284
Si Si8 0.310337 0.210336 0.911131
O O1 0.324640 0.500000 0.723810
O O2 0.398553 0.769725 0.686006
O O3 0.362680 0.777207 0.780202
O O4 0.226083 0.774436 0.694496
O O5 0.895807 0.203462 0.072598
O O6 0.778089 0.287050 0.124899
O O7 0.965768 0.281080 0.166218
O O8 0.870020 0.000000 0.149718
O O9 0.750000 0.250000 0.500000
O O10 0.875491 0.275817 0.587121
O O11 0.701304 0.276764 0.594554
O O12 0.777167 0.000000 0.564749
O O13 0.603253 0.000000 0.976538
O O14 0.500000 0.249103 0.000000
O O15 0.669014 0.278447 0.030563
O O16 0.440525 0.500000 0.637184
O O17 0.550945 0.246957 0.640745
O O18 0.434721 0.500000 0.828350
O O19 0.394586 0.235707 0.881804
O O20 0.834532 0.500000 0.356031
O O21 0.296226 0.000000 0.915624
#
# Coordination Sequence:
#
# PCOD9182706 Si02
#       8
#     8   8   8   8   8   8   8   8
#     4   8  17  35  54  71  99 134 166 204 253 305
#     4  10  21  34  51  75 100 126 162 205 245 293
#     4   9  19  34  51  75 109 144 174 209 254 299
#     4  10  19  33  53  72  97 133 163 195 247 301
#     4   9  18  34  55  77 102 136 175 213 253 297
#     4  10  20  35  54  75  98 129 166 204 249 300
#     4   9  18  34  54  75 101 135 173 211 251 298
#     4  10  21  36  51  73 103 130 160 203 251 298
#
# _framework density 21.869285999999999
#
# number of rings (size 3 to 8) (size 9 to 14) (size 15 to 20)
#    0.000    2.625    1.250    1.875    0.000    3.750 
#    0.000    6.875    0.000    0.000    0.000    0.000 
#    0.000    0.000    0.000    0.000    0.000    0.000 
#
# Total GULP energy -178523.952019 kJ/mol
# GULP energy per Si atom -5578.873501 kJ/mol
# Density = 2.181951 g / cm^3
# Si number density = 21.869286 Si / 1000 Ang^3
#
#
#
# Elastic Constant Matrix: (Units=GPa)
#
#
# Indices 1 2 3 4 5 6 
#
# 1 140.6136 -1.8448 28.4013 0.0000 26.5174 0.0000
# 2 -1.8448 49.5914 -7.3868 0.0000 1.4323 0.0000
# 3 28.4013 -7.3868 96.5514 0.0000 27.3907 0.0000
# 4 0.0000 0.0000 0.0000 11.9842 0.0000 -2.4022
# 5 26.5174 1.4323 27.3907 0.0000 22.7230 0.0000
# 6 0.0000 0.0000 0.0000 -2.4022 0.0000 16.0857
#
#
#
# Elastic Compliance Matrix: (Units=1/GPa)
#
#
# Indices 1 2 3 4 5 6 
#
# 1 0.009163 0.000766 0.000624 0.000000 -0.011493 0.000000
# 2 0.000766 0.020813 0.003028 0.000000 -0.005856 0.000000
# 3 0.000624 0.003028 0.016209 0.000000 -0.020457 0.000000
# 4 0.000000 0.000000 0.000000 0.086018 0.000000 0.012846
# 5 -0.011493 -0.005856 -0.020457 0.000000 0.082450 0.000000
# 6 0.000000 0.000000 0.000000 0.012846 0.000000 0.064085
#
#
# Mechanical properties :
#
#
# Convention : Reuss Voigt Hill
#
# Bulk Modulus (GPa) = 18.17476 36.12177 27.14827
# Shear Modulus (GPa) = 17.34647 27.99769 22.67208
#
# Velocity S-wave (km/s) = 2.81942 3.58191 3.22329
# Velocity P-wave (km/s) = 4.35057 5.80170 5.12773
#
# Compressibility (1/GPa) = 0.05502135
#
# Stress axis : x y z
#
# Youngs Moduli (GPa) = 109.13181 48.04577 61.69439
#
# Poissons Ratio (x) = -0.03679 -0.03848
# Poissons Ratio (y) = -0.08356 -0.18683
# Poissons Ratio (z) = -0.06807 -0.14550
#
# Static dielectric constant tensor:
#      x y z
#    x 1.835230 0.000000 0.045970 
#    y 0.000000 1.823270 0.000000 
#    z 0.045970 0.000000 1.789000 
# 
# From -- ./inp_files/359869.got.cif
#   From: 2010.05.17/outbox.cif.g08.bks.cpg/sg12_180_cif.got.tgz:359869.got - 2010.06.03 13:09:07.
