data_PCOD9182824
_publ_section_title
;
Structure prediction by ZEFSAII (Michael W. Deem and Ramdas Pophale) SiO2 
 PCOD9182824
Probable space group: C 2/M
;
_chemical_formula_sum "Si O2"
_cell_formula_units_Z 56
_cell_length_a 30.280438
_cell_length_b 12.630054
_cell_length_c 13.335391
_cell_angle_alpha 90.000000
_cell_angle_beta 27.900926
_cell_angle_gamma 90.000000
_cell_volume 2386.531042
_symmetry_space_group_name_H-M "C 2/M"
_symmetry_group_IT_number 12
_symmetry_cell_setting 'monoclinic'
loop_
_space_group_symop_operation_xyz
x,y,z
-x,y,-z
-x,-y,-z
x,-y,z
1/2+x,1/2+y,z
1/2-x,1/2+y,-z
1/2-x,1/2-y,-z
1/2+x,1/2-y,z
loop_
_atom_site_type_symbol
_atom_site_label
_atom_site_fract_x
_atom_site_fract_y
_atom_site_fract_z
Si Si1 0.885094 0.118863 0.470724
Si Si2 0.662513 0.201104 0.111615
Si Si3 0.900389 0.330300 0.555845
Si Si4 0.208563 0.129711 0.546483
Si Si5 0.688193 0.610106 0.940237
Si Si6 0.405514 0.115145 0.942799
Si Si7 0.081071 0.170498 0.971083
O O1 0.889514 0.207189 0.547152
O O2 0.806104 0.138994 0.543679
O O3 0.877129 0.000000 0.525077
O O4 0.983105 0.131390 0.212984
O O5 0.599450 0.154325 0.325284
O O6 0.669438 0.127492 0.999474
O O7 0.750000 0.250000 0.000000
O O8 0.627914 0.303734 0.120998
O O9 0.800275 0.376998 0.721846
O O10 0.992426 0.374830 0.317231
O O11 0.250000 0.250000 0.500000
O O12 0.108599 0.138507 0.804844
O O13 0.238737 0.000000 0.502471
O O14 0.661854 0.500000 0.039728
O O15 0.660988 0.617811 0.880038
O O16 0.395246 0.000000 0.008783
O O17 0.407929 0.205182 0.022825
#
# Coordination Sequence:
#
# PCOD9182824 Si02
#       7
#     8   8   8   8   8   8   8
#     4  10  21  37  59  84 112 152 196 237 287 349
#     4   9  20  34  49  77 110 144 189 232 276 339
#     4  10  20  35  54  83 115 143 188 238 284 343
#     4  11  23  40  63  90 119 155 198 245 298 355
#     4  10  19  33  53  76 107 146 184 228 284 337
#     4  10  21  37  59  84 113 151 191 237 295 354
#     4  10  21  38  58  83 114 146 190 239 284 344
#
# _framework density 23.465022000000001
#
# number of rings (size 3 to 8) (size 9 to 14) (size 15 to 20)
#    0.000    2.000    0.000    3.429    0.000    5.714 
#    0.000   11.429    0.000    9.429    0.000    0.000 
#    0.000    0.000    0.000    0.000    0.000    0.000 
#
# Total GULP energy -155893.236134 kJ/mol
# GULP energy per Si atom -5567.615576 kJ/mol
# Density = 2.341161 g / cm^3
# Si number density = 23.465022 Si / 1000 Ang^3
#
#
#
# Elastic Constant Matrix: (Units=GPa)
#
#
# Indices 1 2 3 4 5 6 
#
# 1 74.0975 7.8104 11.3642 0.0000 5.7007 0.0000
# 2 7.8104 174.2414 3.5665 0.0000 -1.4058 0.0000
# 3 11.3642 3.5665 64.4663 0.0000 6.5920 0.0000
# 4 0.0000 0.0000 0.0000 -0.9313 0.0000 5.4192
# 5 5.7007 -1.4058 6.5920 0.0000 42.8161 0.0000
# 6 0.0000 0.0000 0.0000 5.4192 0.0000 -33.5369
#
#
#
# Elastic Compliance Matrix: (Units=1/GPa)
#
#
# Indices 1 2 3 4 5 6 
#
# 1 0.014027 -0.000594 -0.002283 0.000000 -0.001536 0.000000
# 2 -0.000594 0.005773 -0.000246 0.000000 0.000307 0.000000
# 3 -0.002283 -0.000246 0.016152 0.000000 -0.002191 0.000000
# 4 0.000000 0.000000 0.000000-17.990634 0.000000 -2.907112
# 5 -0.001536 0.000307 -0.002191 0.000000 0.023908 0.000000
# 6 0.000000 0.000000 0.000000 -2.907112 0.000000 -0.499579
#
#
# Mechanical properties :
#
#
# Convention : Reuss Voigt Hill
#
# Bulk Modulus (GPa) = 33.66351 39.80972 36.73662
# Shear Modulus (GPa) = -0.27153 21.00720 10.36784
#
# Velocity S-wave (km/s) = -0.34054 2.99533 2.10428
# Velocity P-wave (km/s) = 3.77131 5.38192 4.64692
#
# Compressibility (1/GPa) = 0.02970575
#
# Stress axis : x y z
#
# Youngs Moduli (GPa) = 71.29297 173.21064 61.91180
#
# Poissons Ratio (x) = 0.10296 0.14133
# Poissons Ratio (y) = 0.04238 0.01523
# Poissons Ratio (z) = 0.16274 0.04260
#
# Static dielectric constant tensor:
#      x y z
#    x 2.260750 0.000000 0.073860 
#    y 0.000000 2.027250 0.000000 
#    z 0.073860 0.000000 1.972790 
# 
# From -- ./inp_files/251007.got.cif
#   From: 2010.05.17/outbox.cif.g08.bks.cpg/sg12_126_cif.got.tgz:251007.got - 2010.06.03 13:09:07.
