data_PCOD9182722
_publ_section_title
;
Structure prediction by ZEFSAII (Michael W. Deem and Ramdas Pophale) SiO2 
 PCOD9182722
Probable space group: C 2/M
;
_chemical_formula_sum "Si O2"
_cell_formula_units_Z 48
_cell_length_a 28.375754
_cell_length_b 7.379143
_cell_length_c 17.730410
_cell_angle_alpha 90.000000
_cell_angle_beta 144.493780
_cell_angle_gamma 90.000000
_cell_volume 2156.215888
_symmetry_space_group_name_H-M "C 2/M"
_symmetry_group_IT_number 12
_symmetry_cell_setting 'monoclinic'
loop_
_space_group_symop_operation_xyz
x,y,z
-x,y,-z
-x,-y,-z
x,-y,z
1/2+x,1/2+y,z
1/2-x,1/2+y,-z
1/2-x,1/2-y,-z
1/2+x,1/2-y,z
loop_
_atom_site_type_symbol
_atom_site_label
_atom_site_fract_x
_atom_site_fract_y
_atom_site_fract_z
Si Si1 0.843896 0.783793 0.106400
Si Si2 0.106451 0.779146 0.292304
Si Si3 0.082734 0.778547 0.955887
Si Si4 0.011202 0.221521 0.600603
Si Si5 0.354638 0.718020 0.491576
Si Si6 0.824664 0.212759 0.775864
O O1 0.872908 0.716405 0.062426
O O2 0.905414 0.718192 0.251323
O O3 0.854413 0.000000 0.117983
O O4 0.750000 0.750000 0.000000
O O5 0.145272 0.717118 0.421626
O O6 0.148690 0.713146 0.270923
O O7 0.011720 0.728860 0.168238
O O8 0.110375 0.000000 0.297984
O O9 0.085160 0.000000 0.959087
O O10 0.127391 0.713999 0.089657
O O11 0.000000 0.280681 0.500000
O O12 0.935059 0.278743 0.552688
O O13 0.011211 0.000000 0.599786
O O14 0.358148 0.500000 0.498107
O O15 0.271669 0.768780 0.342547
O O16 0.844912 0.000000 0.799802
#
# Coordination Sequence:
#
# PCOD9182722 Si02
#       6
#     8   8   8   8   8   8
#     4  10  20  35  55  76 100 128 164 208 250 292
#     4   9  16  31  53  74  96 131 174 206 237 287
#     4   9  17  32  52  74 100 131 167 205 243 291
#     4   9  18  33  53  74  96 130 171 204 238 291
#     4  10  19  33  53  74 100 132 168 206 243 289
#     4  10  20  31  50  78 104 129 162 205 250 294
#
# _framework density 22.261222
#
# number of rings (size 3 to 8) (size 9 to 14) (size 15 to 20)
#    0.000    2.500    1.667    1.000    2.333    2.000 
#    0.000    0.833    0.000    5.000    0.000    0.000 
#    0.000    0.000    0.000    0.000    0.000    0.000 
#
# Total GULP energy -134134.594008 kJ/mol
# GULP energy per Si atom -5588.941417 kJ/mol
# Density = 2.221055 g / cm^3
# Si number density = 22.261222 Si / 1000 Ang^3
#
#
#
# Elastic Constant Matrix: (Units=GPa)
#
#
# Indices 1 2 3 4 5 6 
#
# 1 92.3260 -1.5436 12.3618 0.0000 -8.3811 0.0000
# 2 -1.5436 76.6559 -10.9499 0.0000 -9.8496 0.0000
# 3 12.3618 -10.9499 77.6243 0.0000 -14.8105 0.0000
# 4 0.0000 0.0000 0.0000 5.8373 0.0000 13.8267
# 5 -8.3811 -9.8496 -14.8105 0.0000 42.7165 0.0000
# 6 0.0000 0.0000 0.0000 13.8267 0.0000 -4.8059
#
#
#
# Elastic Compliance Matrix: (Units=1/GPa)
#
#
# Indices 1 2 3 4 5 6 
#
# 1 0.011184 0.000251 -0.001409 0.000000 0.001764 0.000000
# 2 0.000251 0.013984 0.002739 0.000000 0.004223 0.000000
# 3 -0.001409 0.002739 0.014522 0.000000 0.005390 0.000000
# 4 0.000000 0.000000 0.000000 0.021922 0.000000 0.063069
# 5 0.001764 0.004223 0.005390 0.000000 0.026599 0.000000
# 6 0.000000 0.000000 0.000000 0.063069 0.000000 -0.026626
#
#
# Mechanical properties :
#
#
# Convention : Reuss Voigt Hill
#
# Bulk Modulus (GPa) = 23.33753 27.37142 25.35447
# Shear Modulus (GPa) = 68.76829 25.19877 46.98353
#
# Velocity S-wave (km/s) = 5.56404 3.36811 4.59906
# Velocity P-wave (km/s) = 7.19613 5.23906 6.29413
#
# Compressibility (1/GPa) = 0.04284944
#
# Stress axis : x y z
#
# Youngs Moduli (GPa) = 89.41224 71.50947 68.86264
#
# Poissons Ratio (x) = -0.01791 0.09705
# Poissons Ratio (y) = -0.02240 -0.18858
# Poissons Ratio (z) = 0.12601 -0.19583
#
# Static dielectric constant tensor:
#      x y z
#    x 1.778760 0.000000 -0.017870 
#    y 0.000000 1.847250 0.000000 
#    z -0.017870 0.000000 1.765450 
# 
# From -- ./inp_files/165829.got.cif
#   From: 2010.05.17/outbox.cif.g08.bks.cpg/sg12_83_cif.got.tgz:165829.got - 2010.06.03 13:09:07.
